MODEL 1
REMARK VINA RESULT:     -12.1      0.000      0.000
REMARK SMILES C[C@@H](Sc1nc2ccccc2c(=O)n1N)C(=O)NCCCNC(=O)c1ccc(-c2c3nc(c(-c4cc(S(=O)(=O)[O-])ccc4F)c4ccc([nH]4)c(-c4cc(S(=O)(=O)[O-])ccc4F)c4nc(c(-c5cc(S(=O)(=O)[O-])ccc5F)c5ccc2[nH]5)C=C4)C=C3)cc1
REMARK SMILES IDX 20 1 19 2 18 3 16 4 17 5 2 7 1 8 3 9 4 10 5 11 14 12 6 13
REMARK SMILES IDX 12 14 7 15 11 16 13 17 8 18 10 19 9 20 15 21 21 24 22 25
REMARK SMILES IDX 23 26 24 28 25 29 26 30 87 31 27 32 86 33 28 34 29 35 30 36
REMARK SMILES IDX 80 37 31 38 85 39 79 40 81 41 32 42 84 43 78 44 77 45 33 47
REMARK SMILES IDX 65 48 45 49 64 50 46 51 49 52 63 53 82 54 47 55 48 56 62 58
REMARK SMILES IDX 83 59 50 60 34 61 35 62 43 63 36 64 42 65 44 66 41 67 37 68
REMARK SMILES IDX 38 69 39 70 40 71 66 72 67 73 75 74 68 75 74 76 76 77 73 78
REMARK SMILES IDX 69 79 70 80 71 81 72 82 51 83 52 84 60 85 53 86 59 87 61 88
REMARK SMILES IDX 58 89 54 90 55 91 56 92 57 93
REMARK H PARENT 18 6 15 22 15 23 22 27 81 46 49 57
REMARK Flexibility Score: inf
ROOT
ATOM      1  C   UNL A   1      31.593  31.765  26.729  1.00  0.00     0.042 C 
ENDROOT
BRANCH   1   2
ATOM      2  C   UNL A   1      31.881  30.398  26.126  1.00  0.00     0.117 C 
BRANCH   2   3
ATOM      3  N   UNL A   1      31.184  30.210  24.863  1.00  0.00    -0.355 N 
ATOM      4  C   UNL A   1      31.155  29.143  24.016  1.00  0.00     0.233 C 
ATOM      5  O   UNL A   1      30.445  29.236  23.009  1.00  0.00    -0.274 OA
ATOM      6  H   UNL A   1      30.645  30.981  24.573  1.00  0.00     0.163 HD
BRANCH   4   7
ATOM      7  C   UNL A   1      31.953  27.866  24.290  1.00  0.00     0.141 C 
ATOM      8  C   UNL A   1      31.068  26.720  24.763  1.00  0.00     0.030 C 
BRANCH   7   9
ATOM      9  S   UNL A   1      33.023  27.546  22.839  1.00  0.00    -0.073 SA
BRANCH   9  10
ATOM     10  C   UNL A   1      33.556  25.913  23.139  1.00  0.00     0.191 A 
ATOM     11  N   UNL A   1      34.305  25.716  24.173  1.00  0.00    -0.222 NA
ATOM     12  N   UNL A   1      33.074  24.899  22.319  1.00  0.00    -0.202 N 
ATOM     13  C   UNL A   1      34.640  24.395  24.502  1.00  0.00     0.079 A 
ATOM     14  C   UNL A   1      33.325  23.557  22.600  1.00  0.00     0.280 A 
ATOM     15  C   UNL A   1      35.429  24.162  25.632  1.00  0.00     0.029 A 
ATOM     16  C   UNL A   1      34.174  23.298  23.776  1.00  0.00     0.068 A 
ATOM     17  O   UNL A   1      32.849  22.626  21.950  1.00  0.00    -0.267 OA
ATOM     18  C   UNL A   1      35.740  22.858  26.029  1.00  0.00     0.002 A 
ATOM     19  C   UNL A   1      34.480  21.988  24.163  1.00  0.00     0.016 A 
ATOM     20  C   UNL A   1      35.264  21.771  25.296  1.00  0.00     0.001 A 
BRANCH  12  21
ATOM     21  N   UNL A   1      32.267  25.180  21.168  1.00  0.00    -0.334 N 
ATOM     22  H   UNL A   1      32.622  25.015  20.265  1.00  0.00     0.178 HD
ATOM     23  H   UNL A   1      31.357  25.539  21.282  1.00  0.00     0.178 HD
ENDBRANCH  12  21
ENDBRANCH   9  10
ENDBRANCH   7   9
ENDBRANCH   4   7
ENDBRANCH   2   3
ENDBRANCH   1   2
BRANCH   1  24
ATOM     24  C   UNL A   1      32.831  32.446  27.298  1.00  0.00     0.118 C 
BRANCH  24  25
ATOM     25  N   UNL A   1      32.602  33.855  27.593  1.00  0.00    -0.352 N 
ATOM     26  C   UNL A   1      33.151  34.650  28.568  1.00  0.00     0.251 C 
ATOM     27  H   UNL A   1      31.956  34.306  27.003  1.00  0.00     0.163 HD
ATOM     28  O   UNL A   1      32.662  35.757  28.790  1.00  0.00    -0.269 OA
BRANCH  26  29
ATOM     29  C   UNL A   1      34.304  34.170  29.359  1.00  0.00     0.039 A 
ATOM     30  C   UNL A   1      34.071  33.392  30.494  1.00  0.00     0.014 A 
ATOM     31  C   UNL A   1      35.612  34.489  28.985  1.00  0.00     0.014 A 
ATOM     32  C   UNL A   1      35.152  32.874  31.211  1.00  0.00     0.010 A 
ATOM     33  C   UNL A   1      36.685  33.895  29.643  1.00  0.00     0.010 A 
ATOM     34  C   UNL A   1      36.468  33.084  30.766  1.00  0.00    -0.014 A 
BRANCH  34  35
ATOM     35  C   UNL A   1      37.627  32.466  31.462  1.00  0.00     0.031 A 
ATOM     36  C   UNL A   1      38.361  31.316  30.829  1.00  0.00     0.074 A 
ATOM     37  C   UNL A   1      37.975  32.901  32.690  1.00  0.00     0.049 A 
ATOM     38  N   UNL A   1      39.344  30.597  31.309  1.00  0.00    -0.248 NA
ATOM     39  C   UNL A   1      37.912  30.899  29.492  1.00  0.00     0.031 C 
ATOM     40  C   UNL A   1      37.313  33.983  33.422  1.00  0.00     0.029 A 
ATOM     41  N   UNL A   1      38.967  32.485  33.543  1.00  0.00    -0.354 N 
ATOM     42  C   UNL A   1      39.623  29.639  30.340  1.00  0.00     0.074 A 
ATOM     43  C   UNL A   1      38.659  29.827  29.277  1.00  0.00     0.031 C 
ATOM     44  C   UNL A   1      37.936  34.166  34.596  1.00  0.00     0.029 A 
ATOM     45  C   UNL A   1      39.003  33.181  34.731  1.00  0.00     0.049 A 
ATOM     46  H   UNL A   1      39.594  31.758  33.326  1.00  0.00     0.167 HD
ATOM     47  C   UNL A   1      40.607  28.706  30.327  1.00  0.00     0.034 A 
ATOM     48  C   UNL A   1      39.796  33.032  35.811  1.00  0.00     0.034 A 
ATOM     49  C   UNL A   1      41.563  28.538  31.394  1.00  0.00     0.049 A 
ATOM     50  C   UNL A   1      40.857  31.960  35.792  1.00  0.00     0.074 A 
ATOM     51  C   UNL A   1      42.632  27.661  31.462  1.00  0.00     0.029 A 
ATOM     52  N   UNL A   1      41.562  29.253  32.585  1.00  0.00    -0.354 N 
ATOM     53  N   UNL A   1      41.140  31.094  34.844  1.00  0.00    -0.248 NA
ATOM     54  C   UNL A   1      41.711  31.850  36.981  1.00  0.00     0.031 C 
ATOM     55  C   UNL A   1      43.224  27.788  32.723  1.00  0.00     0.029 A 
ATOM     56  C   UNL A   1      42.587  28.810  33.408  1.00  0.00     0.049 A 
ATOM     57  H   UNL A   1      40.928  29.970  32.812  1.00  0.00     0.167 HD
ATOM     58  C   UNL A   1      42.229  30.363  35.311  1.00  0.00     0.074 A 
ATOM     59  C   UNL A   1      42.557  30.897  36.616  1.00  0.00     0.031 C 
ATOM     60  C   UNL A   1      42.901  29.347  34.713  1.00  0.00     0.034 A 
BRANCH  47  61
ATOM     61  C   UNL A   1      40.675  27.781  29.134  1.00  0.00     0.023 A 
ATOM     62  C   UNL A   1      41.623  27.962  28.110  1.00  0.00     0.031 A 
ATOM     63  C   UNL A   1      39.771  26.712  29.007  1.00  0.00     0.131 A 
ATOM     64  C   UNL A   1      41.592  27.142  26.972  1.00  0.00     0.055 A 
ATOM     65  C   UNL A   1      39.804  25.844  27.914  1.00  0.00     0.041 A 
ATOM     66  F   UNL A   1      38.829  26.499  29.940  1.00  0.00    -0.206 F 
ATOM     67  C   UNL A   1      40.707  26.066  26.880  1.00  0.00     0.022 A 
BRANCH  64  68
ATOM     68  S   UNL A   1      42.622  27.597  25.550  1.00  0.00     0.124 S 
ATOM     69  O   UNL A   1      43.920  27.814  26.186  1.00  0.00    -0.237 OA
ATOM     70  O   UNL A   1      42.519  26.421  24.696  1.00  0.00    -0.237 OA
ATOM     71  O   UNL A   1      41.981  28.805  25.035  1.00  0.00    -0.744 OA
ENDBRANCH  64  68
ENDBRANCH  47  61
BRANCH  48  72
ATOM     72  C   UNL A   1      39.615  33.904  37.009  1.00  0.00     0.023 A 
ATOM     73  C   UNL A   1      39.018  33.410  38.180  1.00  0.00     0.031 A 
ATOM     74  C   UNL A   1      39.994  35.258  36.984  1.00  0.00     0.131 A 
ATOM     75  C   UNL A   1      38.771  34.275  39.258  1.00  0.00     0.055 A 
ATOM     76  C   UNL A   1      39.801  36.099  38.082  1.00  0.00     0.041 A 
ATOM     77  F   UNL A   1      40.571  35.783  35.891  1.00  0.00    -0.206 F 
ATOM     78  C   UNL A   1      39.173  35.612  39.223  1.00  0.00     0.022 A 
BRANCH  75  79
ATOM     79  S   UNL A   1      37.820  33.650  40.671  1.00  0.00     0.124 S 
ATOM     80  O   UNL A   1      36.815  32.825  40.012  1.00  0.00    -0.237 OA
ATOM     81  O   UNL A   1      38.842  32.936  41.429  1.00  0.00    -0.237 OA
ATOM     82  O   UNL A   1      37.314  34.866  41.304  1.00  0.00    -0.744 OA
ENDBRANCH  75  79
ENDBRANCH  48  72
BRANCH  60  83
ATOM     83  C   UNL A   1      44.096  28.783  35.444  1.00  0.00     0.023 A 
ATOM     84  C   UNL A   1      43.980  27.713  36.348  1.00  0.00     0.031 A 
ATOM     85  C   UNL A   1      45.374  29.330  35.230  1.00  0.00     0.131 A 
ATOM     86  C   UNL A   1      45.111  27.261  37.045  1.00  0.00     0.055 A 
ATOM     87  C   UNL A   1      46.507  28.832  35.874  1.00  0.00     0.041 A 
ATOM     88  F   UNL A   1      45.545  30.358  34.382  1.00  0.00    -0.206 F 
ATOM     89  C   UNL A   1      46.377  27.800  36.798  1.00  0.00     0.022 A 
BRANCH  86  90
ATOM     90  S   UNL A   1      44.892  26.022  38.351  1.00  0.00     0.124 S 
ATOM     91  O   UNL A   1      43.875  26.644  39.192  1.00  0.00    -0.237 OA
ATOM     92  O   UNL A   1      44.465  24.846  37.599  1.00  0.00    -0.237 OA
ATOM     93  O   UNL A   1      46.220  25.921  38.954  1.00  0.00    -0.744 OA
ENDBRANCH  86  90
ENDBRANCH  60  83
ENDBRANCH  34  35
ENDBRANCH  26  29
ENDBRANCH  24  25
ENDBRANCH   1  24
TORSDOF 16
ENDMDL
MODEL 2
REMARK VINA RESULT:     -12.1      2.689      4.042
REMARK SMILES C[C@@H](Sc1nc2ccccc2c(=O)n1N)C(=O)NCCCNC(=O)c1ccc(-c2c3nc(c(-c4cc(S(=O)(=O)[O-])ccc4F)c4ccc([nH]4)c(-c4cc(S(=O)(=O)[O-])ccc4F)c4nc(c(-c5cc(S(=O)(=O)[O-])ccc5F)c5ccc2[nH]5)C=C4)C=C3)cc1
REMARK SMILES IDX 20 1 19 2 18 3 16 4 17 5 2 7 1 8 3 9 4 10 5 11 14 12 6 13
REMARK SMILES IDX 12 14 7 15 11 16 13 17 8 18 10 19 9 20 15 21 21 24 22 25
REMARK SMILES IDX 23 26 24 28 25 29 26 30 87 31 27 32 86 33 28 34 29 35 30 36
REMARK SMILES IDX 80 37 31 38 85 39 79 40 81 41 32 42 84 43 78 44 77 45 33 47
REMARK SMILES IDX 65 48 45 49 64 50 46 51 49 52 63 53 82 54 47 55 48 56 62 58
REMARK SMILES IDX 83 59 50 60 34 61 35 62 43 63 36 64 42 65 44 66 41 67 37 68
REMARK SMILES IDX 38 69 39 70 40 71 66 72 67 73 75 74 68 75 74 76 76 77 73 78
REMARK SMILES IDX 69 79 70 80 71 81 72 82 51 83 52 84 60 85 53 86 59 87 61 88
REMARK SMILES IDX 58 89 54 90 55 91 56 92 57 93
REMARK H PARENT 18 6 15 22 15 23 22 27 81 46 49 57
REMARK Flexibility Score: inf
ROOT
ATOM      1  C   UNL A   1      31.826  28.076  26.343  1.00  0.00     0.042 C 
ENDROOT
BRANCH   1   2
ATOM      2  C   UNL A   1      32.410  26.671  26.379  1.00  0.00     0.117 C 
BRANCH   2   3
ATOM      3  N   UNL A   1      31.432  25.695  26.834  1.00  0.00    -0.355 N 
ATOM      4  C   UNL A   1      31.358  24.350  26.626  1.00  0.00     0.233 C 
ATOM      5  O   UNL A   1      30.425  23.743  27.161  1.00  0.00    -0.274 OA
ATOM      6  H   UNL A   1      30.705  26.067  27.383  1.00  0.00     0.163 HD
BRANCH   4   7
ATOM      7  C   UNL A   1      32.387  23.602  25.775  1.00  0.00     0.141 C 
ATOM      8  C   UNL A   1      33.000  22.418  26.513  1.00  0.00     0.030 C 
BRANCH   7   9
ATOM      9  S   UNL A   1      31.631  23.262  24.142  1.00  0.00    -0.073 SA
BRANCH   9  10
ATOM     10  C   UNL A   1      31.462  24.867  23.483  1.00  0.00     0.191 A 
ATOM     11  N   UNL A   1      30.319  25.451  23.633  1.00  0.00    -0.222 NA
ATOM     12  N   UNL A   1      32.581  25.471  22.920  1.00  0.00    -0.202 N 
ATOM     13  C   UNL A   1      30.203  26.787  23.222  1.00  0.00     0.079 A 
ATOM     14  C   UNL A   1      32.562  26.808  22.525  1.00  0.00     0.280 A 
ATOM     15  C   UNL A   1      28.982  27.442  23.401  1.00  0.00     0.029 A 
ATOM     16  C   UNL A   1      31.274  27.505  22.688  1.00  0.00     0.068 A 
ATOM     17  O   UNL A   1      33.552  27.406  22.102  1.00  0.00    -0.267 OA
ATOM     18  C   UNL A   1      28.838  28.790  23.058  1.00  0.00     0.002 A 
ATOM     19  C   UNL A   1      31.141  28.854  22.339  1.00  0.00     0.016 A 
ATOM     20  C   UNL A   1      29.918  29.496  22.529  1.00  0.00     0.001 A 
BRANCH  12  21
ATOM     21  N   UNL A   1      33.816  24.764  22.754  1.00  0.00    -0.334 N 
ATOM     22  H   UNL A   1      34.659  25.165  23.063  1.00  0.00     0.178 HD
ATOM     23  H   UNL A   1      33.820  23.876  22.328  1.00  0.00     0.178 HD
ENDBRANCH  12  21
ENDBRANCH   9  10
ENDBRANCH   7   9
ENDBRANCH   4   7
ENDBRANCH   2   3
ENDBRANCH   1   2
BRANCH   1  24
ATOM     24  C   UNL A   1      32.761  29.103  25.720  1.00  0.00     0.118 C 
BRANCH  24  25
ATOM     25  N   UNL A   1      32.397  30.470  26.070  1.00  0.00    -0.352 N 
ATOM     26  C   UNL A   1      32.965  31.326  26.980  1.00  0.00     0.251 C 
ATOM     27  H   UNL A   1      31.627  30.836  25.578  1.00  0.00     0.163 HD
ATOM     28  O   UNL A   1      32.372  32.360  27.286  1.00  0.00    -0.269 OA
BRANCH  26  29
ATOM     29  C   UNL A   1      34.264  30.996  27.604  1.00  0.00     0.039 A 
ATOM     30  C   UNL A   1      35.224  32.000  27.744  1.00  0.00     0.014 A 
ATOM     31  C   UNL A   1      34.537  29.699  28.046  1.00  0.00     0.014 A 
ATOM     32  C   UNL A   1      36.428  31.718  28.394  1.00  0.00     0.010 A 
ATOM     33  C   UNL A   1      35.694  29.445  28.776  1.00  0.00     0.010 A 
ATOM     34  C   UNL A   1      36.655  30.450  28.955  1.00  0.00    -0.014 A 
BRANCH  34  35
ATOM     35  C   UNL A   1      37.890  30.158  29.729  1.00  0.00     0.031 A 
ATOM     36  C   UNL A   1      38.907  29.190  29.189  1.00  0.00     0.074 A 
ATOM     37  C   UNL A   1      38.063  30.718  30.943  1.00  0.00     0.049 A 
ATOM     38  N   UNL A   1      40.006  28.748  29.746  1.00  0.00    -0.248 NA
ATOM     39  C   UNL A   1      38.637  28.620  27.860  1.00  0.00     0.031 C 
ATOM     40  C   UNL A   1      37.127  31.641  31.589  1.00  0.00     0.029 A 
ATOM     41  N   UNL A   1      39.080  30.589  31.856  1.00  0.00    -0.354 N 
ATOM     42  C   UNL A   1      40.553  27.843  28.842  1.00  0.00     0.074 A 
ATOM     43  C   UNL A   1      39.627  27.748  27.733  1.00  0.00     0.031 C 
ATOM     44  C   UNL A   1      37.629  32.020  32.774  1.00  0.00     0.029 A 
ATOM     45  C   UNL A   1      38.890  31.325  33.004  1.00  0.00     0.049 A 
ATOM     46  H   UNL A   1      39.871  30.024  31.704  1.00  0.00     0.167 HD
ATOM     47  C   UNL A   1      41.729  27.172  28.918  1.00  0.00     0.034 A 
ATOM     48  C   UNL A   1      39.640  31.418  34.121  1.00  0.00     0.034 A 
ATOM     49  C   UNL A   1      42.642  27.284  30.030  1.00  0.00     0.049 A 
ATOM     50  C   UNL A   1      40.924  30.630  34.202  1.00  0.00     0.074 A 
ATOM     51  C   UNL A   1      43.883  26.692  30.188  1.00  0.00     0.029 A 
ATOM     52  N   UNL A   1      42.411  28.031  31.179  1.00  0.00    -0.354 N 
ATOM     53  N   UNL A   1      41.451  29.816  33.315  1.00  0.00    -0.248 NA
ATOM     54  C   UNL A   1      41.718  30.779  35.428  1.00  0.00     0.031 C 
ATOM     55  C   UNL A   1      44.364  27.012  31.462  1.00  0.00     0.029 A 
ATOM     56  C   UNL A   1      43.469  27.882  32.064  1.00  0.00     0.049 A 
ATOM     57  H   UNL A   1      41.614  28.585  31.342  1.00  0.00     0.167 HD
ATOM     58  C   UNL A   1      42.657  29.386  33.864  1.00  0.00     0.074 A 
ATOM     59  C   UNL A   1      42.783  30.041  35.149  1.00  0.00     0.031 C 
ATOM     60  C   UNL A   1      43.580  28.535  33.348  1.00  0.00     0.034 A 
BRANCH  47  61
ATOM     61  C   UNL A   1      42.075  26.238  27.782  1.00  0.00     0.023 A 
ATOM     62  C   UNL A   1      41.627  24.905  27.757  1.00  0.00     0.031 A 
ATOM     63  C   UNL A   1      42.877  26.679  26.715  1.00  0.00     0.131 A 
ATOM     64  C   UNL A   1      42.049  24.041  26.736  1.00  0.00     0.055 A 
ATOM     65  C   UNL A   1      43.221  25.839  25.654  1.00  0.00     0.041 A 
ATOM     66  F   UNL A   1      43.355  27.934  26.692  1.00  0.00    -0.206 F 
ATOM     67  C   UNL A   1      42.820  24.507  25.668  1.00  0.00     0.022 A 
BRANCH  64  68
ATOM     68  S   UNL A   1      41.703  22.269  26.903  1.00  0.00     0.124 S 
ATOM     69  O   UNL A   1      40.294  22.280  27.290  1.00  0.00    -0.237 OA
ATOM     70  O   UNL A   1      41.994  21.763  25.567  1.00  0.00    -0.237 OA
ATOM     71  O   UNL A   1      42.624  21.837  27.951  1.00  0.00    -0.744 OA
ENDBRANCH  64  68
ENDBRANCH  47  61
BRANCH  48  72
ATOM     72  C   UNL A   1      39.197  32.273  35.261  1.00  0.00     0.023 A 
ATOM     73  C   UNL A   1      39.651  33.595  35.394  1.00  0.00     0.031 A 
ATOM     74  C   UNL A   1      38.348  31.766  36.262  1.00  0.00     0.131 A 
ATOM     75  C   UNL A   1      39.298  34.347  36.525  1.00  0.00     0.055 A 
ATOM     76  C   UNL A   1      37.950  32.539  37.354  1.00  0.00     0.041 A 
ATOM     77  F   UNL A   1      37.882  30.509  36.184  1.00  0.00    -0.206 F 
ATOM     78  C   UNL A   1      38.438  33.833  37.498  1.00  0.00     0.022 A 
BRANCH  75  79
ATOM     79  S   UNL A   1      40.064  35.975  36.759  1.00  0.00     0.124 S 
ATOM     80  O   UNL A   1      39.381  36.455  37.954  1.00  0.00    -0.237 OA
ATOM     81  O   UNL A   1      41.472  35.626  36.919  1.00  0.00    -0.237 OA
ATOM     82  O   UNL A   1      39.737  36.684  35.524  1.00  0.00    -0.744 OA
ENDBRANCH  75  79
ENDBRANCH  48  72
BRANCH  60  83
ATOM     83  C   UNL A   1      44.835  28.306  34.155  1.00  0.00     0.023 A 
ATOM     84  C   UNL A   1      44.946  27.252  35.080  1.00  0.00     0.031 A 
ATOM     85  C   UNL A   1      45.941  29.160  33.995  1.00  0.00     0.131 A 
ATOM     86  C   UNL A   1      46.113  27.114  35.846  1.00  0.00     0.055 A 
ATOM     87  C   UNL A   1      47.125  28.977  34.710  1.00  0.00     0.041 A 
ATOM     88  F   UNL A   1      45.892  30.188  33.130  1.00  0.00    -0.206 F 
ATOM     89  C   UNL A   1      47.211  27.957  35.652  1.00  0.00     0.022 A 
BRANCH  86  90
ATOM     90  S   UNL A   1      46.144  25.875  37.170  1.00  0.00     0.124 S 
ATOM     91  O   UNL A   1      47.405  26.179  37.840  1.00  0.00    -0.237 OA
ATOM     92  O   UNL A   1      44.933  26.188  37.921  1.00  0.00    -0.237 OA
ATOM     93  O   UNL A   1      46.114  24.602  36.451  1.00  0.00    -0.744 OA
ENDBRANCH  86  90
ENDBRANCH  60  83
ENDBRANCH  34  35
ENDBRANCH  26  29
ENDBRANCH  24  25
ENDBRANCH   1  24
TORSDOF 16
ENDMDL
MODEL 3
REMARK VINA RESULT:     -12.0      1.564      1.898
REMARK SMILES C[C@@H](Sc1nc2ccccc2c(=O)n1N)C(=O)NCCCNC(=O)c1ccc(-c2c3nc(c(-c4cc(S(=O)(=O)[O-])ccc4F)c4ccc([nH]4)c(-c4cc(S(=O)(=O)[O-])ccc4F)c4nc(c(-c5cc(S(=O)(=O)[O-])ccc5F)c5ccc2[nH]5)C=C4)C=C3)cc1
REMARK SMILES IDX 20 1 19 2 18 3 16 4 17 5 2 7 1 8 3 9 4 10 5 11 14 12 6 13
REMARK SMILES IDX 12 14 7 15 11 16 13 17 8 18 10 19 9 20 15 21 21 24 22 25
REMARK SMILES IDX 23 26 24 28 25 29 26 30 87 31 27 32 86 33 28 34 29 35 30 36
REMARK SMILES IDX 80 37 31 38 85 39 79 40 81 41 32 42 84 43 78 44 77 45 33 47
REMARK SMILES IDX 65 48 45 49 64 50 46 51 49 52 63 53 82 54 47 55 48 56 62 58
REMARK SMILES IDX 83 59 50 60 34 61 35 62 43 63 36 64 42 65 44 66 41 67 37 68
REMARK SMILES IDX 38 69 39 70 40 71 66 72 67 73 75 74 68 75 74 76 76 77 73 78
REMARK SMILES IDX 69 79 70 80 71 81 72 82 51 83 52 84 60 85 53 86 59 87 61 88
REMARK SMILES IDX 58 89 54 90 55 91 56 92 57 93
REMARK H PARENT 18 6 15 22 15 23 22 27 81 46 49 57
REMARK Flexibility Score: inf
ROOT
ATOM      1  C   UNL A   1      31.181  31.913  26.172  1.00  0.00     0.042 C 
ENDROOT
BRANCH   1   2
ATOM      2  C   UNL A   1      31.209  30.523  25.553  1.00  0.00     0.117 C 
BRANCH   2   3
ATOM      3  N   UNL A   1      30.392  30.454  24.351  1.00  0.00    -0.355 N 
ATOM      4  C   UNL A   1      30.216  29.442  23.455  1.00  0.00     0.233 C 
ATOM      5  O   UNL A   1      29.429  29.639  22.523  1.00  0.00    -0.274 OA
ATOM      6  H   UNL A   1      29.885  31.273  24.151  1.00  0.00     0.163 HD
BRANCH   4   7
ATOM      7  C   UNL A   1      30.944  28.103  23.589  1.00  0.00     0.141 C 
ATOM      8  C   UNL A   1      30.005  26.913  23.430  1.00  0.00     0.030 C 
BRANCH   7   9
ATOM      9  S   UNL A   1      32.417  28.149  22.502  1.00  0.00    -0.073 SA
BRANCH   9  10
ATOM     10  C   UNL A   1      33.125  26.582  22.788  1.00  0.00     0.191 A 
ATOM     11  N   UNL A   1      33.624  26.363  23.960  1.00  0.00    -0.222 NA
ATOM     12  N   UNL A   1      33.031  25.622  21.787  1.00  0.00    -0.202 N 
ATOM     13  C   UNL A   1      34.084  25.071  24.249  1.00  0.00     0.079 A 
ATOM     14  C   UNL A   1      33.425  24.303  22.007  1.00  0.00     0.280 A 
ATOM     15  C   UNL A   1      34.604  24.811  25.520  1.00  0.00     0.029 A 
ATOM     16  C   UNL A   1      33.996  24.019  23.336  1.00  0.00     0.068 A 
ATOM     17  O   UNL A   1      33.281  23.403  21.179  1.00  0.00    -0.267 OA
ATOM     18  C   UNL A   1      35.021  23.523  25.870  1.00  0.00     0.002 A 
ATOM     19  C   UNL A   1      34.411  22.726  23.675  1.00  0.00     0.016 A 
ATOM     20  C   UNL A   1      34.923  22.480  24.949  1.00  0.00     0.001 A 
BRANCH  12  21
ATOM     21  N   UNL A   1      32.491  25.929  20.496  1.00  0.00    -0.334 N 
ATOM     22  H   UNL A   1      32.144  26.830  20.308  1.00  0.00     0.178 HD
ATOM     23  H   UNL A   1      32.466  25.237  19.796  1.00  0.00     0.178 HD
ENDBRANCH  12  21
ENDBRANCH   9  10
ENDBRANCH   7   9
ENDBRANCH   4   7
ENDBRANCH   2   3
ENDBRANCH   1   2
BRANCH   1  24
ATOM     24  C   UNL A   1      32.477  32.284  26.880  1.00  0.00     0.118 C 
BRANCH  24  25
ATOM     25  N   UNL A   1      32.473  33.660  27.360  1.00  0.00    -0.352 N 
ATOM     26  C   UNL A   1      33.247  34.258  28.322  1.00  0.00     0.251 C 
ATOM     27  H   UNL A   1      31.815  34.251  26.928  1.00  0.00     0.163 HD
ATOM     28  O   UNL A   1      32.938  35.375  28.737  1.00  0.00    -0.269 OA
BRANCH  26  29
ATOM     29  C   UNL A   1      34.427  33.557  28.871  1.00  0.00     0.039 A 
ATOM     30  C   UNL A   1      35.693  34.120  28.696  1.00  0.00     0.014 A 
ATOM     31  C   UNL A   1      34.288  32.346  29.553  1.00  0.00     0.014 A 
ATOM     32  C   UNL A   1      36.808  33.504  29.270  1.00  0.00     0.010 A 
ATOM     33  C   UNL A   1      35.384  31.786  30.202  1.00  0.00     0.010 A 
ATOM     34  C   UNL A   1      36.657  32.356  30.065  1.00  0.00    -0.014 A 
BRANCH  34  35
ATOM     35  C   UNL A   1      37.819  31.738  30.758  1.00  0.00     0.031 A 
ATOM     36  C   UNL A   1      38.640  30.687  30.062  1.00  0.00     0.074 A 
ATOM     37  C   UNL A   1      38.093  32.081  32.033  1.00  0.00     0.049 A 
ATOM     38  N   UNL A   1      39.639  29.979  30.523  1.00  0.00    -0.248 NA
ATOM     39  C   UNL A   1      38.268  30.368  28.675  1.00  0.00     0.031 C 
ATOM     40  C   UNL A   1      37.343  33.059  32.824  1.00  0.00     0.029 A 
ATOM     41  N   UNL A   1      39.070  31.642  32.891  1.00  0.00    -0.354 N 
ATOM     42  C   UNL A   1      40.009  29.125  29.489  1.00  0.00     0.074 A 
ATOM     43  C   UNL A   1      39.080  29.358  28.403  1.00  0.00     0.031 C 
ATOM     44  C   UNL A   1      37.907  33.170  34.036  1.00  0.00     0.029 A 
ATOM     45  C   UNL A   1      39.020  32.232  34.134  1.00  0.00     0.049 A 
ATOM     46  H   UNL A   1      39.744  30.970  32.641  1.00  0.00     0.167 HD
ATOM     47  C   UNL A   1      41.042  28.248  29.440  1.00  0.00     0.034 A 
ATOM     48  C   UNL A   1      39.775  32.029  35.233  1.00  0.00     0.034 A 
ATOM     49  C   UNL A   1      41.962  28.035  30.532  1.00  0.00     0.049 A 
ATOM     50  C   UNL A   1      40.892  31.017  35.170  1.00  0.00     0.074 A 
ATOM     51  C   UNL A   1      43.072  27.210  30.573  1.00  0.00     0.029 A 
ATOM     52  N   UNL A   1      41.873  28.642  31.778  1.00  0.00    -0.354 N 
ATOM     53  N   UNL A   1      41.260  30.254  34.165  1.00  0.00    -0.248 NA
ATOM     54  C   UNL A   1      41.702  30.846  36.383  1.00  0.00     0.031 C 
ATOM     55  C   UNL A   1      43.605  27.256  31.865  1.00  0.00     0.029 A 
ATOM     56  C   UNL A   1      42.886  28.181  32.606  1.00  0.00     0.049 A 
ATOM     57  H   UNL A   1      41.192  29.303  32.037  1.00  0.00     0.167 HD
ATOM     58  C   UNL A   1      42.367  29.539  34.617  1.00  0.00     0.074 A 
ATOM     59  C   UNL A   1      42.613  29.973  35.976  1.00  0.00     0.031 C 
ATOM     60  C   UNL A   1      43.117  28.615  33.964  1.00  0.00     0.034 A 
BRANCH  47  61
ATOM     61  C   UNL A   1      41.209  27.436  28.177  1.00  0.00     0.023 A 
ATOM     62  C   UNL A   1      40.885  26.068  28.129  1.00  0.00     0.031 A 
ATOM     63  C   UNL A   1      41.715  28.030  27.008  1.00  0.00     0.131 A 
ATOM     64  C   UNL A   1      41.146  25.325  26.967  1.00  0.00     0.055 A 
ATOM     65  C   UNL A   1      41.888  27.306  25.827  1.00  0.00     0.041 A 
ATOM     66  F   UNL A   1      42.064  29.327  26.996  1.00  0.00    -0.206 F 
ATOM     67  C   UNL A   1      41.618  25.941  25.807  1.00  0.00     0.022 A 
BRANCH  64  68
ATOM     68  S   UNL A   1      41.001  23.519  27.044  1.00  0.00     0.124 S 
ATOM     69  O   UNL A   1      39.562  23.332  26.870  1.00  0.00    -0.237 OA
ATOM     70  O   UNL A   1      41.840  23.087  25.933  1.00  0.00    -0.237 OA
ATOM     71  O   UNL A   1      41.506  23.192  28.375  1.00  0.00    -0.744 OA
ENDBRANCH  64  68
ENDBRANCH  47  61
BRANCH  48  72
ATOM     72  C   UNL A   1      39.498  32.782  36.491  1.00  0.00     0.023 A 
ATOM     73  C   UNL A   1      38.603  32.283  37.452  1.00  0.00     0.031 A 
ATOM     74  C   UNL A   1      40.089  34.035  36.732  1.00  0.00     0.131 A 
ATOM     75  C   UNL A   1      38.286  33.054  38.580  1.00  0.00     0.055 A 
ATOM     76  C   UNL A   1      39.817  34.771  37.886  1.00  0.00     0.041 A 
ATOM     77  F   UNL A   1      40.954  34.559  35.848  1.00  0.00    -0.206 F 
ATOM     78  C   UNL A   1      38.899  34.288  38.812  1.00  0.00     0.022 A 
BRANCH  75  79
ATOM     79  S   UNL A   1      36.979  32.467  39.693  1.00  0.00     0.124 S 
ATOM     80  O   UNL A   1      35.790  32.623  38.864  1.00  0.00    -0.237 OA
ATOM     81  O   UNL A   1      37.403  31.096  39.959  1.00  0.00    -0.237 OA
ATOM     82  O   UNL A   1      37.070  33.377  40.833  1.00  0.00    -0.744 OA
ENDBRANCH  75  79
ENDBRANCH  48  72
BRANCH  60  83
ATOM     83  C   UNL A   1      44.310  28.051  34.698  1.00  0.00     0.023 A 
ATOM     84  C   UNL A   1      44.239  26.847  35.422  1.00  0.00     0.031 A 
ATOM     85  C   UNL A   1      45.540  28.732  34.671  1.00  0.00     0.131 A 
ATOM     86  C   UNL A   1      45.360  26.392  36.133  1.00  0.00     0.055 A 
ATOM     87  C   UNL A   1      46.671  28.240  35.324  1.00  0.00     0.041 A 
ATOM     88  F   UNL A   1      45.666  29.890  34.001  1.00  0.00    -0.206 F 
ATOM     89  C   UNL A   1      46.581  27.070  36.071  1.00  0.00     0.022 A 
BRANCH  86  90
ATOM     90  S   UNL A   1      45.176  24.952  37.219  1.00  0.00     0.124 S 
ATOM     91  O   UNL A   1      44.214  24.138  36.484  1.00  0.00    -0.237 OA
ATOM     92  O   UNL A   1      46.538  24.430  37.280  1.00  0.00    -0.237 OA
ATOM     93  O   UNL A   1      44.678  25.525  38.468  1.00  0.00    -0.744 OA
ENDBRANCH  86  90
ENDBRANCH  60  83
ENDBRANCH  34  35
ENDBRANCH  26  29
ENDBRANCH  24  25
ENDBRANCH   1  24
TORSDOF 16
ENDMDL
