MODEL 1
REMARK VINA RESULT:     -11.1      0.000      0.000
REMARK SMILES Nc1ccc(SCc2ccc(C(=O)NCCCNC(=O)c3ccc(-c4c5nc(c(-c6cc(S(=O)(=O)[O-])ccc6F)c6ccc([nH]6)c(-c6cc(S(=O)(=O)[O-])ccc6F)c6nc(c(-c7cc(S(=O)(=O)[O-])ccc7F)c7ccc4[nH]7)C=C6)C=C5)cc3)o2)cc1
REMARK SMILES IDX 15 1 14 2 12 3 13 4 11 6 8 7 9 8 84 9 10 10 7 11 6 12 5 13
REMARK SMILES IDX 2 14 3 15 86 16 4 17 85 18 1 19 16 22 17 23 18 24 19 25
REMARK SMILES IDX 20 27 21 28 22 29 83 30 23 31 82 32 24 33 25 34 26 35 76 36
REMARK SMILES IDX 27 37 81 38 75 39 77 40 28 41 80 42 74 43 73 44 29 46 61 47
REMARK SMILES IDX 41 48 60 49 42 50 45 51 59 52 78 53 43 54 44 55 58 57 79 58
REMARK SMILES IDX 46 59 30 60 31 61 39 62 32 63 38 64 40 65 37 66 33 67 34 68
REMARK SMILES IDX 35 69 36 70 62 71 63 72 71 73 64 74 70 75 72 76 69 77 65 78
REMARK SMILES IDX 66 79 67 80 68 81 47 82 48 83 56 84 49 85 55 86 57 87 54 88
REMARK SMILES IDX 50 89 51 90 52 91 53 92
REMARK H PARENT 14 5 1 20 1 21 18 26 77 45 45 56
REMARK Flexibility Score: inf
ROOT
ATOM      1  C   UNL A   1      31.456  29.769  24.995  1.00  0.00     0.118 C 
ENDROOT
BRANCH   1   2
ATOM      2  N   UNL A   1      30.795  29.609  23.717  1.00  0.00    -0.349 N 
ATOM      3  C   UNL A   1      30.382  28.490  23.031  1.00  0.00     0.286 C 
ATOM      4  O   UNL A   1      29.773  28.714  21.983  1.00  0.00    -0.266 OA
ATOM      5  H   UNL A   1      30.607  30.456  23.252  1.00  0.00     0.163 HD
BRANCH   3   6
ATOM      6  C   UNL A   1      30.632  27.147  23.529  1.00  0.00     0.191 A 
ATOM      7  C   UNL A   1      31.513  25.116  23.312  1.00  0.00     0.115 A 
ATOM      8  C   UNL A   1      30.838  25.123  24.511  1.00  0.00     0.047 A 
ATOM      9  O   UNL A   1      31.397  26.337  22.723  1.00  0.00    -0.455 OA
ATOM     10  C   UNL A   1      30.302  26.426  24.664  1.00  0.00     0.056 A 
BRANCH   7  11
ATOM     11  C   UNL A   1      32.281  24.046  22.612  1.00  0.00     0.150 C 
BRANCH  11  12
ATOM     12  S   UNL A   1      32.762  22.598  23.602  1.00  0.00    -0.118 SA
BRANCH  12  13
ATOM     13  C   UNL A   1      34.373  23.008  24.265  1.00  0.00     0.008 A 
ATOM     14  C   UNL A   1      37.028  23.516  25.119  1.00  0.00     0.031 A 
ATOM     15  C   UNL A   1      36.756  23.212  23.787  1.00  0.00     0.026 A 
ATOM     16  C   UNL A   1      35.955  23.635  26.002  1.00  0.00     0.026 A 
ATOM     17  C   UNL A   1      35.447  22.944  23.369  1.00  0.00     0.017 A 
ATOM     18  C   UNL A   1      34.643  23.374  25.583  1.00  0.00     0.017 A 
BRANCH  14  19
ATOM     19  N   UNL A   1      38.315  23.834  25.524  1.00  0.00    -0.399 N 
ATOM     20  H   UNL A   1      38.748  24.652  25.189  1.00  0.00     0.156 HD
ATOM     21  H   UNL A   1      38.796  23.242  26.146  1.00  0.00     0.156 HD
ENDBRANCH  14  19
ENDBRANCH  12  13
ENDBRANCH  11  12
ENDBRANCH   7  11
ENDBRANCH   3   6
ENDBRANCH   1   2
BRANCH   1  22
ATOM     22  C   UNL A   1      32.918  29.340  24.931  1.00  0.00     0.042 C 
BRANCH  22  23
ATOM     23  C   UNL A   1      33.634  29.447  26.278  1.00  0.00     0.118 C 
BRANCH  23  24
ATOM     24  N   UNL A   1      33.601  30.807  26.804  1.00  0.00    -0.352 N 
ATOM     25  C   UNL A   1      34.352  31.401  27.787  1.00  0.00     0.251 C 
ATOM     26  H   UNL A   1      32.930  31.394  26.386  1.00  0.00     0.163 HD
ATOM     27  O   UNL A   1      33.974  32.473  28.255  1.00  0.00    -0.269 OA
BRANCH  25  28
ATOM     28  C   UNL A   1      35.591  30.766  28.284  1.00  0.00     0.039 A 
ATOM     29  C   UNL A   1      36.803  31.063  27.654  1.00  0.00     0.014 A 
ATOM     30  C   UNL A   1      35.559  29.842  29.332  1.00  0.00     0.014 A 
ATOM     31  C   UNL A   1      37.986  30.479  28.112  1.00  0.00     0.010 A 
ATOM     32  C   UNL A   1      36.748  29.324  29.839  1.00  0.00     0.010 A 
ATOM     33  C   UNL A   1      37.973  29.632  29.233  1.00  0.00    -0.014 A 
BRANCH  33  34
ATOM     34  C   UNL A   1      39.232  29.060  29.779  1.00  0.00     0.031 A 
ATOM     35  C   UNL A   1      39.875  29.664  30.997  1.00  0.00     0.074 A 
ATOM     36  C   UNL A   1      39.825  28.033  29.139  1.00  0.00     0.049 A 
ATOM     37  N   UNL A   1      41.002  29.348  31.583  1.00  0.00    -0.248 NA
ATOM     38  C   UNL A   1      39.170  30.793  31.619  1.00  0.00     0.031 C 
ATOM     39  C   UNL A   1      39.314  27.387  27.928  1.00  0.00     0.029 A 
ATOM     40  N   UNL A   1      40.984  27.352  29.413  1.00  0.00    -0.354 N 
ATOM     41  C   UNL A   1      41.148  30.246  32.635  1.00  0.00     0.074 A 
ATOM     42  C   UNL A   1      40.029  31.161  32.558  1.00  0.00     0.031 C 
ATOM     43  C   UNL A   1      40.136  26.383  27.585  1.00  0.00     0.029 A 
ATOM     44  C   UNL A   1      41.259  26.346  28.517  1.00  0.00     0.049 A 
ATOM     45  H   UNL A   1      41.564  27.564  30.180  1.00  0.00     0.167 HD
ATOM     46  C   UNL A   1      42.110  30.286  33.592  1.00  0.00     0.034 A 
ATOM     47  C   UNL A   1      42.302  25.496  28.446  1.00  0.00     0.034 A 
ATOM     48  C   UNL A   1      43.219  29.364  33.648  1.00  0.00     0.049 A 
ATOM     49  C   UNL A   1      43.385  25.588  29.490  1.00  0.00     0.074 A 
ATOM     50  C   UNL A   1      44.226  29.282  34.594  1.00  0.00     0.029 A 
ATOM     51  N   UNL A   1      43.477  28.370  32.710  1.00  0.00    -0.354 N 
ATOM     52  N   UNL A   1      43.485  26.411  30.509  1.00  0.00    -0.248 NA
ATOM     53  C   UNL A   1      44.490  24.628  29.379  1.00  0.00     0.031 C 
ATOM     54  C   UNL A   1      45.133  28.295  34.187  1.00  0.00     0.029 A 
ATOM     55  C   UNL A   1      44.646  27.698  33.035  1.00  0.00     0.049 A 
ATOM     56  H   UNL A   1      42.912  28.172  31.928  1.00  0.00     0.167 HD
ATOM     57  C   UNL A   1      44.649  26.046  31.179  1.00  0.00     0.074 A 
ATOM     58  C   UNL A   1      45.205  24.920  30.455  1.00  0.00     0.031 C 
ATOM     59  C   UNL A   1      45.203  26.587  32.294  1.00  0.00     0.034 A 
BRANCH  46  60
ATOM     60  C   UNL A   1      42.011  31.386  34.627  1.00  0.00     0.023 A 
ATOM     61  C   UNL A   1      41.029  31.365  35.633  1.00  0.00     0.031 A 
ATOM     62  C   UNL A   1      42.876  32.493  34.581  1.00  0.00     0.131 A 
ATOM     63  C   UNL A   1      40.869  32.471  36.482  1.00  0.00     0.055 A 
ATOM     64  C   UNL A   1      42.774  33.547  35.492  1.00  0.00     0.041 A 
ATOM     65  F   UNL A   1      43.822  32.585  33.632  1.00  0.00    -0.206 F 
ATOM     66  C   UNL A   1      41.753  33.551  36.437  1.00  0.00     0.022 A 
BRANCH  63  67
ATOM     67  S   UNL A   1      39.381  32.556  37.517  1.00  0.00     0.124 S 
ATOM     68  O   UNL A   1      39.944  32.408  38.857  1.00  0.00    -0.237 OA
ATOM     69  O   UNL A   1      38.844  33.872  37.190  1.00  0.00    -0.237 OA
ATOM     70  O   UNL A   1      38.580  31.422  37.058  1.00  0.00    -0.744 OA
ENDBRANCH  63  67
ENDBRANCH  46  60
BRANCH  47  71
ATOM     71  C   UNL A   1      42.376  24.486  27.352  1.00  0.00     0.023 A 
ATOM     72  C   UNL A   1      41.606  23.313  27.401  1.00  0.00     0.031 A 
ATOM     73  C   UNL A   1      43.232  24.669  26.251  1.00  0.00     0.131 A 
ATOM     74  C   UNL A   1      41.736  22.350  26.389  1.00  0.00     0.055 A 
ATOM     75  C   UNL A   1      43.318  23.732  25.220  1.00  0.00     0.041 A 
ATOM     76  F   UNL A   1      43.986  25.775  26.153  1.00  0.00    -0.206 F 
ATOM     77  C   UNL A   1      42.575  22.557  25.291  1.00  0.00     0.022 A 
BRANCH  74  78
ATOM     78  S   UNL A   1      40.842  20.781  26.564  1.00  0.00     0.124 S 
ATOM     79  O   UNL A   1      39.533  21.123  26.017  1.00  0.00    -0.237 OA
ATOM     80  O   UNL A   1      41.657  19.876  25.760  1.00  0.00    -0.237 OA
ATOM     81  O   UNL A   1      40.872  20.531  28.003  1.00  0.00    -0.744 OA
ENDBRANCH  74  78
ENDBRANCH  47  71
BRANCH  59  82
ATOM     82  C   UNL A   1      46.460  25.933  32.822  1.00  0.00     0.023 A 
ATOM     83  C   UNL A   1      46.414  24.857  33.725  1.00  0.00     0.031 A 
ATOM     84  C   UNL A   1      47.723  26.408  32.425  1.00  0.00     0.131 A 
ATOM     85  C   UNL A   1      47.605  24.333  34.250  1.00  0.00     0.055 A 
ATOM     86  C   UNL A   1      48.905  25.837  32.896  1.00  0.00     0.041 A 
ATOM     87  F   UNL A   1      47.829  27.437  31.569  1.00  0.00    -0.206 F 
ATOM     88  C   UNL A   1      48.851  24.802  33.825  1.00  0.00     0.022 A 
BRANCH  85  89
ATOM     89  S   UNL A   1      47.505  23.101  35.577  1.00  0.00     0.124 S 
ATOM     90  O   UNL A   1      47.945  21.887  34.897  1.00  0.00    -0.237 OA
ATOM     91  O   UNL A   1      48.423  23.641  36.575  1.00  0.00    -0.237 OA
ATOM     92  O   UNL A   1      46.094  23.121  35.958  1.00  0.00    -0.744 OA
ENDBRANCH  85  89
ENDBRANCH  59  82
ENDBRANCH  33  34
ENDBRANCH  25  28
ENDBRANCH  23  24
ENDBRANCH  22  23
ENDBRANCH   1  22
TORSDOF 17
ENDMDL
MODEL 2
REMARK VINA RESULT:     -11.0      3.586      9.170
REMARK SMILES Nc1ccc(SCc2ccc(C(=O)NCCCNC(=O)c3ccc(-c4c5nc(c(-c6cc(S(=O)(=O)[O-])ccc6F)c6ccc([nH]6)c(-c6cc(S(=O)(=O)[O-])ccc6F)c6nc(c(-c7cc(S(=O)(=O)[O-])ccc7F)c7ccc4[nH]7)C=C6)C=C5)cc3)o2)cc1
REMARK SMILES IDX 15 1 14 2 12 3 13 4 11 6 8 7 9 8 84 9 10 10 7 11 6 12 5 13
REMARK SMILES IDX 2 14 3 15 86 16 4 17 85 18 1 19 16 22 17 23 18 24 19 25
REMARK SMILES IDX 20 27 21 28 22 29 83 30 23 31 82 32 24 33 25 34 26 35 76 36
REMARK SMILES IDX 27 37 81 38 75 39 77 40 28 41 80 42 74 43 73 44 29 46 61 47
REMARK SMILES IDX 41 48 60 49 42 50 45 51 59 52 78 53 43 54 44 55 58 57 79 58
REMARK SMILES IDX 46 59 30 60 31 61 39 62 32 63 38 64 40 65 37 66 33 67 34 68
REMARK SMILES IDX 35 69 36 70 62 71 63 72 71 73 64 74 70 75 72 76 69 77 65 78
REMARK SMILES IDX 66 79 67 80 68 81 47 82 48 83 56 84 49 85 55 86 57 87 54 88
REMARK SMILES IDX 50 89 51 90 52 91 53 92
REMARK H PARENT 14 5 1 20 1 21 18 26 77 45 45 56
REMARK Flexibility Score: inf
ROOT
ATOM      1  C   UNL A   1      31.639  30.730  25.780  1.00  0.00     0.118 C 
ENDROOT
BRANCH   1   2
ATOM      2  N   UNL A   1      32.955  30.165  25.990  1.00  0.00    -0.349 N 
ATOM      3  C   UNL A   1      33.393  28.864  26.070  1.00  0.00     0.286 C 
ATOM      4  O   UNL A   1      34.613  28.728  26.183  1.00  0.00    -0.266 OA
ATOM      5  H   UNL A   1      33.669  30.836  26.095  1.00  0.00     0.163 HD
BRANCH   3   6
ATOM      6  C   UNL A   1      32.475  27.738  26.004  1.00  0.00     0.191 A 
ATOM      7  C   UNL A   1      30.964  26.510  24.928  1.00  0.00     0.115 A 
ATOM      8  C   UNL A   1      31.104  25.951  26.178  1.00  0.00     0.047 A 
ATOM      9  O   UNL A   1      31.796  27.581  24.819  1.00  0.00    -0.455 OA
ATOM     10  C   UNL A   1      32.089  26.714  26.853  1.00  0.00     0.056 A 
BRANCH   7  11
ATOM     11  C   UNL A   1      30.093  26.150  23.773  1.00  0.00     0.150 C 
BRANCH  11  12
ATOM     12  S   UNL A   1      28.386  26.779  23.803  1.00  0.00    -0.118 SA
BRANCH  12  13
ATOM     13  C   UNL A   1      28.489  28.423  23.107  1.00  0.00     0.008 A 
ATOM     14  C   UNL A   1      28.912  31.013  22.034  1.00  0.00     0.031 A 
ATOM     15  C   UNL A   1      29.914  30.047  21.974  1.00  0.00     0.026 A 
ATOM     16  C   UNL A   1      27.676  30.651  22.568  1.00  0.00     0.026 A 
ATOM     17  C   UNL A   1      29.711  28.774  22.520  1.00  0.00     0.017 A 
ATOM     18  C   UNL A   1      27.468  29.375  23.108  1.00  0.00     0.017 A 
BRANCH  14  19
ATOM     19  N   UNL A   1      29.091  32.256  21.446  1.00  0.00    -0.399 N 
ATOM     20  H   UNL A   1      29.160  33.061  22.008  1.00  0.00     0.156 HD
ATOM     21  H   UNL A   1      29.149  32.334  20.466  1.00  0.00     0.156 HD
ENDBRANCH  14  19
ENDBRANCH  12  13
ENDBRANCH  11  12
ENDBRANCH   7  11
ENDBRANCH   3   6
ENDBRANCH   1   2
BRANCH   1  22
ATOM     22  C   UNL A   1      31.405  31.957  26.657  1.00  0.00     0.042 C 
BRANCH  22  23
ATOM     23  C   UNL A   1      32.698  32.543  27.224  1.00  0.00     0.118 C 
BRANCH  23  24
ATOM     24  N   UNL A   1      32.542  33.943  27.598  1.00  0.00    -0.352 N 
ATOM     25  C   UNL A   1      33.104  34.661  28.624  1.00  0.00     0.251 C 
ATOM     26  H   UNL A   1      31.932  34.458  27.021  1.00  0.00     0.163 HD
ATOM     27  O   UNL A   1      32.625  35.754  28.915  1.00  0.00    -0.269 OA
BRANCH  25  28
ATOM     28  C   UNL A   1      34.263  34.131  29.375  1.00  0.00     0.039 A 
ATOM     29  C   UNL A   1      34.033  33.400  30.544  1.00  0.00     0.014 A 
ATOM     30  C   UNL A   1      35.572  34.394  28.964  1.00  0.00     0.014 A 
ATOM     31  C   UNL A   1      35.113  32.885  31.265  1.00  0.00     0.010 A 
ATOM     32  C   UNL A   1      36.643  33.812  29.638  1.00  0.00     0.010 A 
ATOM     33  C   UNL A   1      36.426  33.056  30.798  1.00  0.00    -0.014 A 
BRANCH  33  34
ATOM     34  C   UNL A   1      37.582  32.453  31.513  1.00  0.00     0.031 A 
ATOM     35  C   UNL A   1      38.334  31.301  30.905  1.00  0.00     0.074 A 
ATOM     36  C   UNL A   1      37.913  32.907  32.737  1.00  0.00     0.049 A 
ATOM     37  N   UNL A   1      39.324  30.603  31.400  1.00  0.00    -0.248 NA
ATOM     38  C   UNL A   1      37.893  30.858  29.575  1.00  0.00     0.031 C 
ATOM     39  C   UNL A   1      37.234  33.995  33.445  1.00  0.00     0.029 A 
ATOM     40  N   UNL A   1      38.900  32.513  33.605  1.00  0.00    -0.354 N 
ATOM     41  C   UNL A   1      39.617  29.631  30.449  1.00  0.00     0.074 A 
ATOM     42  C   UNL A   1      38.649  29.789  29.384  1.00  0.00     0.031 C 
ATOM     43  C   UNL A   1      37.847  34.204  34.621  1.00  0.00     0.029 A 
ATOM     44  C   UNL A   1      38.925  33.233  34.777  1.00  0.00     0.049 A 
ATOM     45  H   UNL A   1      39.530  31.783  33.408  1.00  0.00     0.167 HD
ATOM     46  C   UNL A   1      40.615  28.711  30.453  1.00  0.00     0.034 A 
ATOM     47  C   UNL A   1      39.719  33.118  35.859  1.00  0.00     0.034 A 
ATOM     48  C   UNL A   1      41.566  28.570  31.529  1.00  0.00     0.049 A 
ATOM     49  C   UNL A   1      40.790  32.059  35.864  1.00  0.00     0.074 A 
ATOM     50  C   UNL A   1      42.644  27.706  31.620  1.00  0.00     0.029 A 
ATOM     51  N   UNL A   1      41.548  29.303  32.710  1.00  0.00    -0.354 N 
ATOM     52  N   UNL A   1      41.087  31.177  34.937  1.00  0.00    -0.248 NA
ATOM     53  C   UNL A   1      41.641  31.987  37.058  1.00  0.00     0.031 C 
ATOM     54  C   UNL A   1      43.226  27.860  32.884  1.00  0.00     0.029 A 
ATOM     55  C   UNL A   1      42.570  28.884  33.549  1.00  0.00     0.049 A 
ATOM     56  H   UNL A   1      40.903  30.016  32.921  1.00  0.00     0.167 HD
ATOM     57  C   UNL A   1      42.181  30.467  35.424  1.00  0.00     0.074 A 
ATOM     58  C   UNL A   1      42.496  31.034  36.720  1.00  0.00     0.031 C 
ATOM     59  C   UNL A   1      42.865  29.444  34.849  1.00  0.00     0.034 A 
BRANCH  46  60
ATOM     60  C   UNL A   1      40.694  27.772  29.268  1.00  0.00     0.023 A 
ATOM     61  C   UNL A   1      41.639  27.956  28.243  1.00  0.00     0.031 A 
ATOM     62  C   UNL A   1      39.785  26.709  29.134  1.00  0.00     0.131 A 
ATOM     63  C   UNL A   1      41.588  27.160  27.089  1.00  0.00     0.055 A 
ATOM     64  C   UNL A   1      39.802  25.858  28.027  1.00  0.00     0.041 A 
ATOM     65  F   UNL A   1      38.844  26.490  30.067  1.00  0.00    -0.206 F 
ATOM     66  C   UNL A   1      40.694  26.094  26.985  1.00  0.00     0.022 A 
BRANCH  63  67
ATOM     67  S   UNL A   1      42.582  27.657  25.655  1.00  0.00     0.124 S 
ATOM     68  O   UNL A   1      42.247  26.614  24.687  1.00  0.00    -0.237 OA
ATOM     69  O   UNL A   1      42.070  28.990  25.361  1.00  0.00    -0.237 OA
ATOM     70  O   UNL A   1      43.955  27.611  26.157  1.00  0.00    -0.744 OA
ENDBRANCH  63  67
ENDBRANCH  46  60
BRANCH  47  71
ATOM     71  C   UNL A   1      39.534  34.027  37.026  1.00  0.00     0.023 A 
ATOM     72  C   UNL A   1      38.960  33.562  38.219  1.00  0.00     0.031 A 
ATOM     73  C   UNL A   1      39.912  35.381  36.960  1.00  0.00     0.131 A 
ATOM     74  C   UNL A   1      38.742  34.449  39.284  1.00  0.00     0.055 A 
ATOM     75  C   UNL A   1      39.743  36.247  38.041  1.00  0.00     0.041 A 
ATOM     76  F   UNL A   1      40.471  35.876  35.845  1.00  0.00    -0.206 F 
ATOM     77  C   UNL A   1      39.143  35.786  39.209  1.00  0.00     0.022 A 
BRANCH  74  78
ATOM     78  S   UNL A   1      37.859  33.848  40.750  1.00  0.00     0.124 S 
ATOM     79  O   UNL A   1      36.735  33.139  40.148  1.00  0.00    -0.237 OA
ATOM     80  O   UNL A   1      38.870  33.019  41.395  1.00  0.00    -0.237 OA
ATOM     81  O   UNL A   1      37.513  35.075  41.465  1.00  0.00    -0.744 OA
ENDBRANCH  74  78
ENDBRANCH  47  71
BRANCH  59  82
ATOM     82  C   UNL A   1      44.054  28.904  35.610  1.00  0.00     0.023 A 
ATOM     83  C   UNL A   1      43.950  27.785  36.455  1.00  0.00     0.031 A 
ATOM     84  C   UNL A   1      45.308  29.531  35.498  1.00  0.00     0.131 A 
ATOM     85  C   UNL A   1      45.061  27.367  37.203  1.00  0.00     0.055 A 
ATOM     86  C   UNL A   1      46.427  29.067  36.190  1.00  0.00     0.041 A 
ATOM     87  F   UNL A   1      45.467  30.607  34.710  1.00  0.00    -0.206 F 
ATOM     88  C   UNL A   1      46.305  27.988  37.060  1.00  0.00     0.022 A 
BRANCH  85  89
ATOM     89  S   UNL A   1      44.835  26.067  38.447  1.00  0.00     0.124 S 
ATOM     90  O   UNL A   1      44.159  25.027  37.678  1.00  0.00    -0.237 OA
ATOM     91  O   UNL A   1      46.207  25.774  38.848  1.00  0.00    -0.237 OA
ATOM     92  O   UNL A   1      44.014  26.712  39.471  1.00  0.00    -0.744 OA
ENDBRANCH  85  89
ENDBRANCH  59  82
ENDBRANCH  33  34
ENDBRANCH  25  28
ENDBRANCH  23  24
ENDBRANCH  22  23
ENDBRANCH   1  22
TORSDOF 17
ENDMDL
MODEL 3
REMARK VINA RESULT:     -11.0      1.933      2.525
REMARK SMILES Nc1ccc(SCc2ccc(C(=O)NCCCNC(=O)c3ccc(-c4c5nc(c(-c6cc(S(=O)(=O)[O-])ccc6F)c6ccc([nH]6)c(-c6cc(S(=O)(=O)[O-])ccc6F)c6nc(c(-c7cc(S(=O)(=O)[O-])ccc7F)c7ccc4[nH]7)C=C6)C=C5)cc3)o2)cc1
REMARK SMILES IDX 15 1 14 2 12 3 13 4 11 6 8 7 9 8 84 9 10 10 7 11 6 12 5 13
REMARK SMILES IDX 2 14 3 15 86 16 4 17 85 18 1 19 16 22 17 23 18 24 19 25
REMARK SMILES IDX 20 27 21 28 22 29 83 30 23 31 82 32 24 33 25 34 26 35 76 36
REMARK SMILES IDX 27 37 81 38 75 39 77 40 28 41 80 42 74 43 73 44 29 46 61 47
REMARK SMILES IDX 41 48 60 49 42 50 45 51 59 52 78 53 43 54 44 55 58 57 79 58
REMARK SMILES IDX 46 59 30 60 31 61 39 62 32 63 38 64 40 65 37 66 33 67 34 68
REMARK SMILES IDX 35 69 36 70 62 71 63 72 71 73 64 74 70 75 72 76 69 77 65 78
REMARK SMILES IDX 66 79 67 80 68 81 47 82 48 83 56 84 49 85 55 86 57 87 54 88
REMARK SMILES IDX 50 89 51 90 52 91 53 92
REMARK H PARENT 14 5 1 20 1 21 18 26 77 45 45 56
REMARK Flexibility Score: inf
ROOT
ATOM      1  C   UNL A   1      31.445  27.416  25.951  1.00  0.00     0.118 C 
ENDROOT
BRANCH   1   2
ATOM      2  N   UNL A   1      30.977  26.178  26.536  1.00  0.00    -0.349 N 
ATOM      3  C   UNL A   1      31.502  24.906  26.535  1.00  0.00     0.286 C 
ATOM      4  O   UNL A   1      30.876  24.082  27.206  1.00  0.00    -0.266 OA
ATOM      5  H   UNL A   1      30.126  26.260  27.025  1.00  0.00     0.163 HD
BRANCH   3   6
ATOM      6  C   UNL A   1      32.719  24.576  25.811  1.00  0.00     0.191 A 
ATOM      7  C   UNL A   1      34.672  23.525  25.651  1.00  0.00     0.115 A 
ATOM      8  C   UNL A   1      34.529  24.262  24.497  1.00  0.00     0.047 A 
ATOM      9  O   UNL A   1      33.579  23.707  26.439  1.00  0.00    -0.455 OA
ATOM     10  C   UNL A   1      33.271  24.908  24.586  1.00  0.00     0.056 A 
BRANCH   7  11
ATOM     11  C   UNL A   1      35.770  22.638  26.130  1.00  0.00     0.150 C 
BRANCH  11  12
ATOM     12  S   UNL A   1      36.375  21.375  24.969  1.00  0.00    -0.118 SA
BRANCH  12  13
ATOM     13  C   UNL A   1      35.069  20.154  24.897  1.00  0.00     0.008 A 
ATOM     14  C   UNL A   1      33.155  18.081  24.618  1.00  0.00     0.031 A 
ATOM     15  C   UNL A   1      34.511  17.828  24.419  1.00  0.00     0.026 A 
ATOM     16  C   UNL A   1      32.775  19.359  25.027  1.00  0.00     0.026 A 
ATOM     17  C   UNL A   1      35.454  18.856  24.539  1.00  0.00     0.017 A 
ATOM     18  C   UNL A   1      33.719  20.387  25.156  1.00  0.00     0.017 A 
BRANCH  14  19
ATOM     19  N   UNL A   1      32.226  17.054  24.553  1.00  0.00    -0.399 N 
ATOM     20  H   UNL A   1      31.720  16.900  23.723  1.00  0.00     0.156 HD
ATOM     21  H   UNL A   1      32.071  16.479  25.338  1.00  0.00     0.156 HD
ENDBRANCH  14  19
ENDBRANCH  12  13
ENDBRANCH  11  12
ENDBRANCH   7  11
ENDBRANCH   3   6
ENDBRANCH   1   2
BRANCH   1  22
ATOM     22  C   UNL A   1      32.354  28.183  26.907  1.00  0.00     0.042 C 
BRANCH  22  23
ATOM     23  C   UNL A   1      33.530  28.860  26.203  1.00  0.00     0.118 C 
BRANCH  23  24
ATOM     24  N   UNL A   1      33.595  30.286  26.501  1.00  0.00    -0.352 N 
ATOM     25  C   UNL A   1      34.406  30.982  27.361  1.00  0.00     0.251 C 
ATOM     26  H   UNL A   1      32.950  30.840  26.004  1.00  0.00     0.163 HD
ATOM     27  O   UNL A   1      34.106  32.137  27.654  1.00  0.00    -0.269 OA
BRANCH  25  28
ATOM     28  C   UNL A   1      35.617  30.357  27.936  1.00  0.00     0.039 A 
ATOM     29  C   UNL A   1      36.788  30.327  27.173  1.00  0.00     0.014 A 
ATOM     30  C   UNL A   1      35.590  29.755  29.196  1.00  0.00     0.014 A 
ATOM     31  C   UNL A   1      37.945  29.747  27.699  1.00  0.00     0.010 A 
ATOM     32  C   UNL A   1      36.764  29.251  29.751  1.00  0.00     0.010 A 
ATOM     33  C   UNL A   1      37.953  29.236  29.007  1.00  0.00    -0.014 A 
BRANCH  33  34
ATOM     34  C   UNL A   1      39.194  28.682  29.609  1.00  0.00     0.031 A 
ATOM     35  C   UNL A   1      39.750  29.269  30.878  1.00  0.00     0.074 A 
ATOM     36  C   UNL A   1      39.850  27.689  28.978  1.00  0.00     0.049 A 
ATOM     37  N   UNL A   1      40.850  28.967  31.519  1.00  0.00    -0.248 NA
ATOM     38  C   UNL A   1      38.980  30.362  31.488  1.00  0.00     0.031 C 
ATOM     39  C   UNL A   1      39.426  27.063  27.723  1.00  0.00     0.029 A 
ATOM     40  N   UNL A   1      41.010  27.031  29.301  1.00  0.00    -0.354 N 
ATOM     41  C   UNL A   1      40.912  29.838  32.601  1.00  0.00     0.074 A 
ATOM     42  C   UNL A   1      39.774  30.726  32.483  1.00  0.00     0.031 C 
ATOM     43  C   UNL A   1      40.293  26.091  27.403  1.00  0.00     0.029 A 
ATOM     44  C   UNL A   1      41.363  26.057  28.396  1.00  0.00     0.049 A 
ATOM     45  H   UNL A   1      41.540  27.237  30.104  1.00  0.00     0.167 HD
ATOM     46  C   UNL A   1      41.817  29.877  33.611  1.00  0.00     0.034 A 
ATOM     47  C   UNL A   1      42.431  25.237  28.363  1.00  0.00     0.034 A 
ATOM     48  C   UNL A   1      42.946  28.983  33.707  1.00  0.00     0.049 A 
ATOM     49  C   UNL A   1      43.450  25.328  29.469  1.00  0.00     0.074 A 
ATOM     50  C   UNL A   1      43.900  28.901  34.706  1.00  0.00     0.029 A 
ATOM     51  N   UNL A   1      43.284  28.022  32.760  1.00  0.00    -0.354 N 
ATOM     52  N   UNL A   1      43.470  26.125  30.513  1.00  0.00    -0.248 NA
ATOM     53  C   UNL A   1      44.586  24.401  29.397  1.00  0.00     0.031 C 
ATOM     54  C   UNL A   1      44.855  27.950  34.327  1.00  0.00     0.029 A 
ATOM     55  C   UNL A   1      44.451  27.372  33.134  1.00  0.00     0.049 A 
ATOM     56  H   UNL A   1      42.770  27.831  31.942  1.00  0.00     0.167 HD
ATOM     57  C   UNL A   1      44.604  25.772  31.239  1.00  0.00     0.074 A 
ATOM     58  C   UNL A   1      45.231  24.682  30.519  1.00  0.00     0.031 C 
ATOM     59  C   UNL A   1      45.079  26.297  32.398  1.00  0.00     0.034 A 
BRANCH  46  60
ATOM     60  C   UNL A   1      41.629  30.945  34.667  1.00  0.00     0.023 A 
ATOM     61  C   UNL A   1      40.530  30.930  35.545  1.00  0.00     0.031 A 
ATOM     62  C   UNL A   1      42.531  32.019  34.769  1.00  0.00     0.131 A 
ATOM     63  C   UNL A   1      40.306  32.013  36.409  1.00  0.00     0.055 A 
ATOM     64  C   UNL A   1      42.355  33.045  35.700  1.00  0.00     0.041 A 
ATOM     65  F   UNL A   1      43.591  32.104  33.948  1.00  0.00    -0.206 F 
ATOM     66  C   UNL A   1      41.225  33.058  36.513  1.00  0.00     0.022 A 
BRANCH  63  67
ATOM     67  S   UNL A   1      38.706  32.122  37.256  1.00  0.00     0.124 S 
ATOM     68  O   UNL A   1      38.088  33.258  36.576  1.00  0.00    -0.237 OA
ATOM     69  O   UNL A   1      38.115  30.817  36.987  1.00  0.00    -0.237 OA
ATOM     70  O   UNL A   1      39.072  32.367  38.650  1.00  0.00    -0.744 OA
ENDBRANCH  63  67
ENDBRANCH  46  60
BRANCH  47  71
ATOM     71  C   UNL A   1      42.594  24.260  27.249  1.00  0.00     0.023 A 
ATOM     72  C   UNL A   1      41.966  23.005  27.293  1.00  0.00     0.031 A 
ATOM     73  C   UNL A   1      43.397  24.557  26.133  1.00  0.00     0.131 A 
ATOM     74  C   UNL A   1      42.181  22.079  26.261  1.00  0.00     0.055 A 
ATOM     75  C   UNL A   1      43.565  23.653  25.083  1.00  0.00     0.041 A 
ATOM     76  F   UNL A   1      44.015  25.745  26.038  1.00  0.00    -0.206 F 
ATOM     77  C   UNL A   1      42.965  22.400  25.149  1.00  0.00     0.022 A 
BRANCH  74  78
ATOM     78  S   UNL A   1      41.479  20.415  26.427  1.00  0.00     0.124 S 
ATOM     79  O   UNL A   1      41.886  20.055  27.780  1.00  0.00    -0.237 OA
ATOM     80  O   UNL A   1      40.055  20.666  26.229  1.00  0.00    -0.237 OA
ATOM     81  O   UNL A   1      42.131  19.663  25.357  1.00  0.00    -0.744 OA
ENDBRANCH  74  78
ENDBRANCH  47  71
BRANCH  59  82
ATOM     82  C   UNL A   1      46.321  25.661  32.979  1.00  0.00     0.023 A 
ATOM     83  C   UNL A   1      46.253  24.569  33.862  1.00  0.00     0.031 A 
ATOM     84  C   UNL A   1      47.592  26.171  32.656  1.00  0.00     0.131 A 
ATOM     85  C   UNL A   1      47.428  24.063  34.439  1.00  0.00     0.055 A 
ATOM     86  C   UNL A   1      48.761  25.617  33.178  1.00  0.00     0.041 A 
ATOM     87  F   UNL A   1      47.719  27.216  31.823  1.00  0.00    -0.206 F 
ATOM     88  C   UNL A   1      48.683  24.566  34.087  1.00  0.00     0.022 A 
BRANCH  85  89
ATOM     89  S   UNL A   1      47.287  22.807  35.740  1.00  0.00     0.124 S 
ATOM     90  O   UNL A   1      46.215  23.350  36.570  1.00  0.00    -0.237 OA
ATOM     91  O   UNL A   1      46.957  21.605  34.981  1.00  0.00    -0.237 OA
ATOM     92  O   UNL A   1      48.610  22.805  36.360  1.00  0.00    -0.744 OA
ENDBRANCH  85  89
ENDBRANCH  59  82
ENDBRANCH  33  34
ENDBRANCH  25  28
ENDBRANCH  23  24
ENDBRANCH  22  23
ENDBRANCH   1  22
TORSDOF 17
ENDMDL
