MODEL 1
REMARK VINA RESULT:     -11.2      0.000      0.000
REMARK SMILES CSc1ccc(C[C@H]([NH3+])C(=O)NCCCNC(=O)c2ccc(-c3c4nc(c(-c5cc(S(=O)(=O)[O-])ccc5F)c5ccc([nH]5)c(-c5cc(S(=O)(=O)[O-])ccc5F)c5nc(c(-c6cc(S(=O)(=O)[O-])ccc6F)c6ccc3[nH]6)C=C5)C=C4)cc2)cc1
REMARK SMILES IDX 14 1 13 2 12 3 10 4 11 5 8 7 7 8 6 9 3 10 4 11 83 12 5 13
REMARK SMILES IDX 82 14 2 15 1 16 9 17 15 21 16 22 17 23 18 25 19 26 20 27
REMARK SMILES IDX 81 28 21 29 80 30 22 31 23 32 24 33 74 34 25 35 79 36 73 37
REMARK SMILES IDX 75 38 26 39 78 40 72 41 71 42 27 44 59 45 39 46 58 47 40 48
REMARK SMILES IDX 43 49 57 50 76 51 41 52 42 53 56 55 77 56 44 57 28 58 29 59
REMARK SMILES IDX 37 60 30 61 36 62 38 63 35 64 31 65 32 66 33 67 34 68 60 69
REMARK SMILES IDX 61 70 69 71 62 72 68 73 70 74 67 75 63 76 64 77 65 78 66 79
REMARK SMILES IDX 45 80 46 81 54 82 47 83 53 84 55 85 52 86 48 87 49 88 50 89
REMARK SMILES IDX 51 90
REMARK H PARENT 12 6 9 18 9 19 9 20 16 24 75 43 43 54
REMARK Flexibility Score: inf
ROOT
ATOM      1  C   UNL A   1      31.691  28.616  26.174  1.00  0.00     0.042 C 
ENDROOT
BRANCH   1   2
ATOM      2  C   UNL A   1      32.281  27.221  26.180  1.00  0.00     0.118 C 
BRANCH   2   3
ATOM      3  N   UNL A   1      31.412  26.196  26.719  1.00  0.00    -0.351 N 
ATOM      4  C   UNL A   1      30.496  25.434  26.047  1.00  0.00     0.278 C 
ATOM      5  O   UNL A   1      29.891  24.558  26.671  1.00  0.00    -0.268 OA
ATOM      6  H   UNL A   1      31.490  26.027  27.686  1.00  0.00     0.163 HD
BRANCH   4   7
ATOM      7  C   UNL A   1      30.207  25.677  24.543  1.00  0.00     0.275 C 
BRANCH   7   8
ATOM      8  C   UNL A   1      28.807  26.333  24.317  1.00  0.00     0.111 C 
BRANCH   8   9
ATOM      9  C   UNL A   1      28.749  27.574  23.444  1.00  0.00    -0.041 A 
ATOM     10  C   UNL A   1      28.742  30.092  22.166  1.00  0.00     0.007 A 
ATOM     11  C   UNL A   1      27.563  29.558  22.694  1.00  0.00     0.015 A 
ATOM     12  C   UNL A   1      29.908  29.324  22.217  1.00  0.00     0.015 A 
ATOM     13  C   UNL A   1      27.561  28.302  23.309  1.00  0.00     0.005 A 
ATOM     14  C   UNL A   1      29.906  28.065  22.823  1.00  0.00     0.005 A 
BRANCH  10  15
ATOM     15  S   UNL A   1      28.874  31.750  21.517  1.00  0.00    -0.130 SA
ATOM     16  C   UNL A   1      28.648  32.757  23.002  1.00  0.00     0.091 C 
ENDBRANCH  10  15
ENDBRANCH   8   9
ENDBRANCH   7   8
BRANCH   7  17
ATOM     17  N   UNL A   1      30.539  24.443  23.801  1.00  0.00    -0.347 N 
ATOM     18  H   UNL A   1      29.983  23.668  24.163  1.00  0.00     0.345 HD
ATOM     19  H   UNL A   1      31.530  24.233  23.915  1.00  0.00     0.345 HD
ATOM     20  H   UNL A   1      30.331  24.575  22.811  1.00  0.00     0.345 HD
ENDBRANCH   7  17
ENDBRANCH   4   7
ENDBRANCH   2   3
ENDBRANCH   1   2
BRANCH   1  21
ATOM     21  C   UNL A   1      32.613  29.677  25.607  1.00  0.00     0.118 C 
BRANCH  21  22
ATOM     22  N   UNL A   1      32.272  31.024  26.046  1.00  0.00    -0.352 N 
ATOM     23  C   UNL A   1      32.864  31.834  26.986  1.00  0.00     0.251 C 
ATOM     24  H   UNL A   1      31.489  31.418  25.597  1.00  0.00     0.163 HD
ATOM     25  O   UNL A   1      32.295  32.870  27.326  1.00  0.00    -0.269 OA
BRANCH  23  26
ATOM     26  C   UNL A   1      34.154  31.454  27.602  1.00  0.00     0.039 A 
ATOM     27  C   UNL A   1      35.102  32.447  27.865  1.00  0.00     0.014 A 
ATOM     28  C   UNL A   1      34.434  30.124  27.921  1.00  0.00     0.014 A 
ATOM     29  C   UNL A   1      36.289  32.113  28.523  1.00  0.00     0.010 A 
ATOM     30  C   UNL A   1      35.562  29.813  28.673  1.00  0.00     0.010 A 
ATOM     31  C   UNL A   1      36.508  30.802  28.976  1.00  0.00    -0.014 A 
BRANCH  31  32
ATOM     32  C   UNL A   1      37.720  30.437  29.755  1.00  0.00     0.031 A 
ATOM     33  C   UNL A   1      38.754  29.523  29.150  1.00  0.00     0.074 A 
ATOM     34  C   UNL A   1      37.855  30.867  31.025  1.00  0.00     0.049 A 
ATOM     35  N   UNL A   1      39.832  29.016  29.693  1.00  0.00    -0.248 NA
ATOM     36  C   UNL A   1      38.525  29.094  27.762  1.00  0.00     0.031 C 
ATOM     37  C   UNL A   1      36.900  31.721  31.735  1.00  0.00     0.029 A 
ATOM     38  N   UNL A   1      38.844  30.641  31.950  1.00  0.00    -0.354 N 
ATOM     39  C   UNL A   1      40.394  28.194  28.722  1.00  0.00     0.074 A 
ATOM     40  C   UNL A   1      39.502  28.219  27.584  1.00  0.00     0.031 C 
ATOM     41  C   UNL A   1      37.368  31.976  32.968  1.00  0.00     0.029 A 
ATOM     42  C   UNL A   1      38.624  31.260  33.159  1.00  0.00     0.049 A 
ATOM     43  H   UNL A   1      39.637  30.086  31.766  1.00  0.00     0.167 HD
ATOM     44  C   UNL A   1      41.561  27.504  28.766  1.00  0.00     0.034 A 
ATOM     45  C   UNL A   1      39.347  31.242  34.298  1.00  0.00     0.034 A 
ATOM     46  C   UNL A   1      42.447  27.506  29.906  1.00  0.00     0.049 A 
ATOM     47  C   UNL A   1      40.625  30.442  34.333  1.00  0.00     0.074 A 
ATOM     48  C   UNL A   1      43.682  26.898  30.036  1.00  0.00     0.029 A 
ATOM     49  N   UNL A   1      42.187  28.139  31.116  1.00  0.00    -0.354 N 
ATOM     50  N   UNL A   1      41.173  29.716  33.387  1.00  0.00    -0.248 NA
ATOM     51  C   UNL A   1      41.386  30.468  35.589  1.00  0.00     0.031 C 
ATOM     52  C   UNL A   1      44.132  27.094  31.345  1.00  0.00     0.029 A 
ATOM     53  C   UNL A   1      43.222  27.901  32.009  1.00  0.00     0.049 A 
ATOM     54  H   UNL A   1      41.386  28.676  31.310  1.00  0.00     0.167 HD
ATOM     55  C   UNL A   1      42.363  29.228  33.924  1.00  0.00     0.074 A 
ATOM     56  C   UNL A   1      42.456  29.755  35.270  1.00  0.00     0.031 C 
ATOM     57  C   UNL A   1      43.296  28.423  33.354  1.00  0.00     0.034 A 
BRANCH  44  58
ATOM     58  C   UNL A   1      41.923  26.669  27.559  1.00  0.00     0.023 A 
ATOM     59  C   UNL A   1      41.594  25.304  27.474  1.00  0.00     0.031 A 
ATOM     60  C   UNL A   1      42.635  27.238  26.488  1.00  0.00     0.131 A 
ATOM     61  C   UNL A   1      42.048  24.538  26.390  1.00  0.00     0.055 A 
ATOM     62  C   UNL A   1      43.006  26.491  25.368  1.00  0.00     0.041 A 
ATOM     63  F   UNL A   1      42.999  28.530  26.518  1.00  0.00    -0.206 F 
ATOM     64  C   UNL A   1      42.728  25.128  25.322  1.00  0.00     0.022 A 
BRANCH  61  65
ATOM     65  S   UNL A   1      41.877  22.734  26.473  1.00  0.00     0.124 S 
ATOM     66  O   UNL A   1      42.480  22.322  25.208  1.00  0.00    -0.237 OA
ATOM     67  O   UNL A   1      42.629  22.401  27.677  1.00  0.00    -0.237 OA
ATOM     68  O   UNL A   1      40.433  22.531  26.561  1.00  0.00    -0.744 OA
ENDBRANCH  61  65
ENDBRANCH  44  58
BRANCH  45  69
ATOM     69  C   UNL A   1      38.886  31.995  35.499  1.00  0.00     0.023 A 
ATOM     70  C   UNL A   1      38.296  31.330  36.586  1.00  0.00     0.031 A 
ATOM     71  C   UNL A   1      38.987  33.397  35.563  1.00  0.00     0.131 A 
ATOM     72  C   UNL A   1      37.787  32.067  37.667  1.00  0.00     0.055 A 
ATOM     73  C   UNL A   1      38.533  34.121  36.667  1.00  0.00     0.041 A 
ATOM     74  F   UNL A   1      39.543  34.085  34.553  1.00  0.00    -0.206 F 
ATOM     75  C   UNL A   1      37.915  33.457  37.722  1.00  0.00     0.022 A 
BRANCH  72  76
ATOM     76  S   UNL A   1      36.868  31.188  38.961  1.00  0.00     0.124 S 
ATOM     77  O   UNL A   1      37.790  31.273  40.088  1.00  0.00    -0.237 OA
ATOM     78  O   UNL A   1      35.651  31.987  39.065  1.00  0.00    -0.237 OA
ATOM     79  O   UNL A   1      36.687  29.851  38.401  1.00  0.00    -0.744 OA
ENDBRANCH  72  76
ENDBRANCH  45  69
BRANCH  57  80
ATOM     80  C   UNL A   1      44.525  28.108  34.173  1.00  0.00     0.023 A 
ATOM     81  C   UNL A   1      44.594  26.977  35.005  1.00  0.00     0.031 A 
ATOM     82  C   UNL A   1      45.642  28.962  34.126  1.00  0.00     0.131 A 
ATOM     83  C   UNL A   1      45.731  26.761  35.798  1.00  0.00     0.055 A 
ATOM     84  C   UNL A   1      46.797  28.706  34.866  1.00  0.00     0.041 A 
ATOM     85  F   UNL A   1      45.631  30.059  33.353  1.00  0.00    -0.206 F 
ATOM     86  C   UNL A   1      46.841  27.607  35.719  1.00  0.00     0.022 A 
BRANCH  83  87
ATOM     87  S   UNL A   1      45.702  25.414  37.014  1.00  0.00     0.124 S 
ATOM     88  O   UNL A   1      46.251  26.065  38.199  1.00  0.00    -0.237 OA
ATOM     89  O   UNL A   1      44.284  25.075  37.071  1.00  0.00    -0.237 OA
ATOM     90  O   UNL A   1      46.559  24.393  36.413  1.00  0.00    -0.744 OA
ENDBRANCH  83  87
ENDBRANCH  57  80
ENDBRANCH  31  32
ENDBRANCH  23  26
ENDBRANCH  21  22
ENDBRANCH   1  21
TORSDOF 17
ENDMDL
MODEL 2
REMARK VINA RESULT:     -11.1      6.068      8.543
REMARK SMILES CSc1ccc(C[C@H]([NH3+])C(=O)NCCCNC(=O)c2ccc(-c3c4nc(c(-c5cc(S(=O)(=O)[O-])ccc5F)c5ccc([nH]5)c(-c5cc(S(=O)(=O)[O-])ccc5F)c5nc(c(-c6cc(S(=O)(=O)[O-])ccc6F)c6ccc3[nH]6)C=C5)C=C4)cc2)cc1
REMARK SMILES IDX 14 1 13 2 12 3 10 4 11 5 8 7 7 8 6 9 3 10 4 11 83 12 5 13
REMARK SMILES IDX 82 14 2 15 1 16 9 17 15 21 16 22 17 23 18 25 19 26 20 27
REMARK SMILES IDX 81 28 21 29 80 30 22 31 23 32 24 33 74 34 25 35 79 36 73 37
REMARK SMILES IDX 75 38 26 39 78 40 72 41 71 42 27 44 59 45 39 46 58 47 40 48
REMARK SMILES IDX 43 49 57 50 76 51 41 52 42 53 56 55 77 56 44 57 28 58 29 59
REMARK SMILES IDX 37 60 30 61 36 62 38 63 35 64 31 65 32 66 33 67 34 68 60 69
REMARK SMILES IDX 61 70 69 71 62 72 68 73 70 74 67 75 63 76 64 77 65 78 66 79
REMARK SMILES IDX 45 80 46 81 54 82 47 83 53 84 55 85 52 86 48 87 49 88 50 89
REMARK SMILES IDX 51 90
REMARK H PARENT 12 6 9 18 9 19 9 20 16 24 75 43 43 54
REMARK Flexibility Score: inf
ROOT
ATOM      1  C   UNL A   1      35.550  21.811  24.837  1.00  0.00     0.042 C 
ENDROOT
BRANCH   1   2
ATOM      2  C   UNL A   1      34.692  23.021  24.534  1.00  0.00     0.118 C 
BRANCH   2   3
ATOM      3  N   UNL A   1      34.515  23.302  23.125  1.00  0.00    -0.351 N 
ATOM      4  C   UNL A   1      33.382  23.149  22.374  1.00  0.00     0.278 C 
ATOM      5  O   UNL A   1      33.407  23.507  21.194  1.00  0.00    -0.268 OA
ATOM      6  H   UNL A   1      35.306  23.644  22.649  1.00  0.00     0.163 HD
BRANCH   4   7
ATOM      7  C   UNL A   1      32.101  22.521  22.983  1.00  0.00     0.275 C 
BRANCH   7   8
ATOM      8  C   UNL A   1      31.788  21.120  22.366  1.00  0.00     0.111 C 
BRANCH   8   9
ATOM      9  C   UNL A   1      32.341  19.901  23.081  1.00  0.00    -0.041 A 
ATOM     10  C   UNL A   1      32.972  17.523  24.467  1.00  0.00     0.007 A 
ATOM     11  C   UNL A   1      32.851  18.735  25.152  1.00  0.00     0.015 A 
ATOM     12  C   UNL A   1      32.847  17.523  23.075  1.00  0.00     0.015 A 
ATOM     13  C   UNL A   1      32.558  19.918  24.463  1.00  0.00     0.005 A 
ATOM     14  C   UNL A   1      32.564  18.704  22.386  1.00  0.00     0.005 A 
BRANCH  10  15
ATOM     15  S   UNL A   1      33.175  15.945  25.277  1.00  0.00    -0.130 SA
ATOM     16  C   UNL A   1      34.974  15.763  25.306  1.00  0.00     0.091 C 
ENDBRANCH  10  15
ENDBRANCH   8   9
ENDBRANCH   7   8
BRANCH   7  17
ATOM     17  N   UNL A   1      31.037  23.547  22.988  1.00  0.00    -0.347 N 
ATOM     18  H   UNL A   1      31.355  24.369  22.474  1.00  0.00     0.345 HD
ATOM     19  H   UNL A   1      30.821  23.809  23.950  1.00  0.00     0.345 HD
ATOM     20  H   UNL A   1      30.201  23.171  22.542  1.00  0.00     0.345 HD
ENDBRANCH   7  17
ENDBRANCH   4   7
ENDBRANCH   2   3
ENDBRANCH   1   2
BRANCH   1  21
ATOM     21  C   UNL A   1      37.036  22.039  24.635  1.00  0.00     0.118 C 
BRANCH  21  22
ATOM     22  N   UNL A   1      37.859  20.984  25.213  1.00  0.00    -0.352 N 
ATOM     23  C   UNL A   1      39.028  21.056  25.933  1.00  0.00     0.251 C 
ATOM     24  H   UNL A   1      37.524  20.070  25.062  1.00  0.00     0.163 HD
ATOM     25  O   UNL A   1      39.651  20.022  26.167  1.00  0.00    -0.269 OA
BRANCH  23  26
ATOM     26  C   UNL A   1      39.546  22.361  26.397  1.00  0.00     0.039 A 
ATOM     27  C   UNL A   1      40.696  22.395  27.190  1.00  0.00     0.014 A 
ATOM     28  C   UNL A   1      38.905  23.553  26.054  1.00  0.00     0.014 A 
ATOM     29  C   UNL A   1      41.244  23.625  27.565  1.00  0.00     0.010 A 
ATOM     30  C   UNL A   1      39.511  24.773  26.332  1.00  0.00     0.010 A 
ATOM     31  C   UNL A   1      40.684  24.825  27.098  1.00  0.00    -0.014 A 
BRANCH  31  32
ATOM     32  C   UNL A   1      41.295  26.144  27.408  1.00  0.00     0.031 A 
ATOM     33  C   UNL A   1      42.673  26.472  26.896  1.00  0.00     0.074 A 
ATOM     34  C   UNL A   1      40.644  27.013  28.208  1.00  0.00     0.049 A 
ATOM     35  N   UNL A   1      43.415  27.525  27.128  1.00  0.00    -0.248 NA
ATOM     36  C   UNL A   1      43.316  25.465  26.038  1.00  0.00     0.031 C 
ATOM     37  C   UNL A   1      39.323  26.790  28.801  1.00  0.00     0.029 A 
ATOM     38  N   UNL A   1      41.005  28.255  28.667  1.00  0.00    -0.354 N 
ATOM     39  C   UNL A   1      44.616  27.296  26.464  1.00  0.00     0.074 A 
ATOM     40  C   UNL A   1      44.526  25.977  25.879  1.00  0.00     0.031 C 
ATOM     41  C   UNL A   1      38.971  27.873  29.512  1.00  0.00     0.029 A 
ATOM     42  C   UNL A   1      40.060  28.843  29.476  1.00  0.00     0.049 A 
ATOM     43  H   UNL A   1      41.861  28.685  28.438  1.00  0.00     0.167 HD
ATOM     44  C   UNL A   1      45.684  28.122  26.332  1.00  0.00     0.034 A 
ATOM     45  C   UNL A   1      40.074  30.024  30.125  1.00  0.00     0.034 A 
ATOM     46  C   UNL A   1      45.747  29.443  26.909  1.00  0.00     0.049 A 
ATOM     47  C   UNL A   1      41.286  30.913  29.989  1.00  0.00     0.074 A 
ATOM     48  C   UNL A   1      46.749  30.389  26.786  1.00  0.00     0.029 A 
ATOM     49  N   UNL A   1      44.773  30.002  27.729  1.00  0.00    -0.354 N 
ATOM     50  N   UNL A   1      42.390  30.707  29.310  1.00  0.00    -0.248 NA
ATOM     51  C   UNL A   1      41.247  32.197  30.700  1.00  0.00     0.031 C 
ATOM     52  C   UNL A   1      46.420  31.484  27.591  1.00  0.00     0.029 A 
ATOM     53  C   UNL A   1      45.171  31.263  28.149  1.00  0.00     0.049 A 
ATOM     54  H   UNL A   1      43.926  29.566  27.975  1.00  0.00     0.167 HD
ATOM     55  C   UNL A   1      43.162  31.853  29.485  1.00  0.00     0.074 A 
ATOM     56  C   UNL A   1      42.390  32.749  30.320  1.00  0.00     0.031 C 
ATOM     57  C   UNL A   1      44.395  32.142  28.993  1.00  0.00     0.034 A 
BRANCH  44  58
ATOM     58  C   UNL A   1      46.875  27.603  25.560  1.00  0.00     0.023 A 
ATOM     59  C   UNL A   1      47.138  28.007  24.239  1.00  0.00     0.031 A 
ATOM     60  C   UNL A   1      47.747  26.666  26.142  1.00  0.00     0.131 A 
ATOM     61  C   UNL A   1      48.186  27.415  23.518  1.00  0.00     0.055 A 
ATOM     62  C   UNL A   1      48.844  26.148  25.450  1.00  0.00     0.041 A 
ATOM     63  F   UNL A   1      47.539  26.223  27.392  1.00  0.00    -0.206 F 
ATOM     64  C   UNL A   1      49.059  26.509  24.123  1.00  0.00     0.022 A 
BRANCH  61  65
ATOM     65  S   UNL A   1      48.293  27.727  21.734  1.00  0.00     0.124 S 
ATOM     66  O   UNL A   1      46.979  28.301  21.455  1.00  0.00    -0.237 OA
ATOM     67  O   UNL A   1      49.423  28.643  21.640  1.00  0.00    -0.237 OA
ATOM     68  O   UNL A   1      48.517  26.399  21.167  1.00  0.00    -0.744 OA
ENDBRANCH  61  65
ENDBRANCH  44  58
BRANCH  45  69
ATOM     69  C   UNL A   1      38.915  30.441  30.966  1.00  0.00     0.023 A 
ATOM     70  C   UNL A   1      37.910  31.273  30.448  1.00  0.00     0.031 A 
ATOM     71  C   UNL A   1      38.815  30.050  32.314  1.00  0.00     0.131 A 
ATOM     72  C   UNL A   1      36.876  31.728  31.283  1.00  0.00     0.055 A 
ATOM     73  C   UNL A   1      37.754  30.455  33.124  1.00  0.00     0.041 A 
ATOM     74  F   UNL A   1      39.748  29.254  32.861  1.00  0.00    -0.206 F 
ATOM     75  C   UNL A   1      36.783  31.311  32.613  1.00  0.00     0.022 A 
BRANCH  72  76
ATOM     76  S   UNL A   1      35.704  32.947  30.628  1.00  0.00     0.124 S 
ATOM     77  O   UNL A   1      34.778  32.099  29.886  1.00  0.00    -0.237 OA
ATOM     78  O   UNL A   1      35.183  33.553  31.849  1.00  0.00    -0.237 OA
ATOM     79  O   UNL A   1      36.543  33.821  29.811  1.00  0.00    -0.744 OA
ENDBRANCH  72  76
ENDBRANCH  45  69
BRANCH  57  80
ATOM     80  C   UNL A   1      44.959  33.507  29.309  1.00  0.00     0.023 A 
ATOM     81  C   UNL A   1      44.894  34.569  28.390  1.00  0.00     0.031 A 
ATOM     82  C   UNL A   1      45.580  33.743  30.549  1.00  0.00     0.131 A 
ATOM     83  C   UNL A   1      45.491  35.800  28.702  1.00  0.00     0.055 A 
ATOM     84  C   UNL A   1      46.112  34.990  30.880  1.00  0.00     0.041 A 
ATOM     85  F   UNL A   1      45.674  32.765  31.464  1.00  0.00    -0.206 F 
ATOM     86  C   UNL A   1      46.082  36.023  29.949  1.00  0.00     0.022 A 
BRANCH  83  87
ATOM     87  S   UNL A   1      45.576  37.078  27.417  1.00  0.00     0.124 S 
ATOM     88  O   UNL A   1      45.956  36.300  26.242  1.00  0.00    -0.237 OA
ATOM     89  O   UNL A   1      44.218  37.611  27.417  1.00  0.00    -0.237 OA
ATOM     90  O   UNL A   1      46.601  37.994  27.913  1.00  0.00    -0.744 OA
ENDBRANCH  83  87
ENDBRANCH  57  80
ENDBRANCH  31  32
ENDBRANCH  23  26
ENDBRANCH  21  22
ENDBRANCH   1  21
TORSDOF 17
ENDMDL
MODEL 3
REMARK VINA RESULT:     -11.1      3.964      9.978
REMARK SMILES CSc1ccc(C[C@H]([NH3+])C(=O)NCCCNC(=O)c2ccc(-c3c4nc(c(-c5cc(S(=O)(=O)[O-])ccc5F)c5ccc([nH]5)c(-c5cc(S(=O)(=O)[O-])ccc5F)c5nc(c(-c6cc(S(=O)(=O)[O-])ccc6F)c6ccc3[nH]6)C=C5)C=C4)cc2)cc1
REMARK SMILES IDX 14 1 13 2 12 3 10 4 11 5 8 7 7 8 6 9 3 10 4 11 83 12 5 13
REMARK SMILES IDX 82 14 2 15 1 16 9 17 15 21 16 22 17 23 18 25 19 26 20 27
REMARK SMILES IDX 81 28 21 29 80 30 22 31 23 32 24 33 74 34 25 35 79 36 73 37
REMARK SMILES IDX 75 38 26 39 78 40 72 41 71 42 27 44 59 45 39 46 58 47 40 48
REMARK SMILES IDX 43 49 57 50 76 51 41 52 42 53 56 55 77 56 44 57 28 58 29 59
REMARK SMILES IDX 37 60 30 61 36 62 38 63 35 64 31 65 32 66 33 67 34 68 60 69
REMARK SMILES IDX 61 70 69 71 62 72 68 73 70 74 67 75 63 76 64 77 65 78 66 79
REMARK SMILES IDX 45 80 46 81 54 82 47 83 53 84 55 85 52 86 48 87 49 88 50 89
REMARK SMILES IDX 51 90
REMARK H PARENT 12 6 9 18 9 19 9 20 16 24 75 43 43 54
REMARK Flexibility Score: inf
ROOT
ATOM      1  C   UNL A   1      34.077  34.798  28.735  1.00  0.00     0.042 C 
ENDROOT
BRANCH   1   2
ATOM      2  C   UNL A   1      33.615  35.451  30.022  1.00  0.00     0.118 C 
BRANCH   2   3
ATOM      3  N   UNL A   1      33.278  34.527  31.084  1.00  0.00    -0.351 N 
ATOM      4  C   UNL A   1      33.781  34.491  32.356  1.00  0.00     0.278 C 
ATOM      5  O   UNL A   1      33.318  33.664  33.146  1.00  0.00    -0.268 OA
ATOM      6  H   UNL A   1      32.606  33.842  30.865  1.00  0.00     0.163 HD
BRANCH   4   7
ATOM      7  C   UNL A   1      34.920  35.449  32.790  1.00  0.00     0.275 C 
BRANCH   7   8
ATOM      8  C   UNL A   1      36.015  34.713  33.627  1.00  0.00     0.111 C 
BRANCH   8   9
ATOM      9  C   UNL A   1      37.337  34.416  32.942  1.00  0.00    -0.041 A 
ATOM     10  C   UNL A   1      39.825  34.277  31.613  1.00  0.00     0.007 A 
ATOM     11  C   UNL A   1      38.629  34.154  30.900  1.00  0.00     0.015 A 
ATOM     12  C   UNL A   1      39.767  34.395  33.005  1.00  0.00     0.015 A 
ATOM     13  C   UNL A   1      37.396  34.203  31.560  1.00  0.00     0.005 A 
ATOM     14  C   UNL A   1      38.537  34.435  33.666  1.00  0.00     0.005 A 
BRANCH  10  15
ATOM     15  S   UNL A   1      41.430  34.395  30.841  1.00  0.00    -0.130 SA
ATOM     16  C   UNL A   1      41.693  32.704  30.255  1.00  0.00     0.091 C 
ENDBRANCH  10  15
ENDBRANCH   8   9
ENDBRANCH   7   8
BRANCH   7  17
ATOM     17  N   UNL A   1      34.309  36.675  33.346  1.00  0.00    -0.347 N 
ATOM     18  H   UNL A   1      33.343  36.483  33.613  1.00  0.00     0.345 HD
ATOM     19  H   UNL A   1      34.327  37.413  32.642  1.00  0.00     0.345 HD
ATOM     20  H   UNL A   1      34.834  36.975  34.166  1.00  0.00     0.345 HD
ENDBRANCH   7  17
ENDBRANCH   4   7
ENDBRANCH   2   3
ENDBRANCH   1   2
BRANCH   1  21
ATOM     21  C   UNL A   1      34.504  33.352  28.893  1.00  0.00     0.118 C 
BRANCH  21  22
ATOM     22  N   UNL A   1      33.793  32.445  28.000  1.00  0.00    -0.352 N 
ATOM     23  C   UNL A   1      34.154  31.216  27.502  1.00  0.00     0.251 C 
ATOM     24  H   UNL A   1      32.909  32.766  27.706  1.00  0.00     0.163 HD
ATOM     25  O   UNL A   1      33.472  30.707  26.615  1.00  0.00    -0.269 OA
BRANCH  23  26
ATOM     26  C   UNL A   1      35.361  30.526  28.005  1.00  0.00     0.039 A 
ATOM     27  C   UNL A   1      36.562  30.654  27.301  1.00  0.00     0.014 A 
ATOM     28  C   UNL A   1      35.317  29.752  29.166  1.00  0.00     0.014 A 
ATOM     29  C   UNL A   1      37.729  30.076  27.810  1.00  0.00     0.010 A 
ATOM     30  C   UNL A   1      36.496  29.274  29.728  1.00  0.00     0.010 A 
ATOM     31  C   UNL A   1      37.715  29.423  29.053  1.00  0.00    -0.014 A 
BRANCH  31  32
ATOM     32  C   UNL A   1      38.956  28.875  29.660  1.00  0.00     0.031 A 
ATOM     33  C   UNL A   1      39.475  29.445  30.955  1.00  0.00     0.074 A 
ATOM     34  C   UNL A   1      39.654  27.920  29.013  1.00  0.00     0.049 A 
ATOM     35  N   UNL A   1      40.580  29.170  31.599  1.00  0.00    -0.248 NA
ATOM     36  C   UNL A   1      38.657  30.490  31.589  1.00  0.00     0.031 C 
ATOM     37  C   UNL A   1      39.277  27.318  27.732  1.00  0.00     0.029 A 
ATOM     38  N   UNL A   1      40.829  27.289  29.339  1.00  0.00    -0.354 N 
ATOM     39  C   UNL A   1      40.600  30.021  32.699  1.00  0.00     0.074 A 
ATOM     40  C   UNL A   1      39.431  30.866  32.595  1.00  0.00     0.031 C 
ATOM     41  C   UNL A   1      40.181  26.383  27.400  1.00  0.00     0.029 A 
ATOM     42  C   UNL A   1      41.232  26.355  28.411  1.00  0.00     0.049 A 
ATOM     43  H   UNL A   1      41.337  27.487  30.159  1.00  0.00     0.167 HD
ATOM     44  C   UNL A   1      41.496  30.074  33.715  1.00  0.00     0.034 A 
ATOM     45  C   UNL A   1      42.330  25.574  28.374  1.00  0.00     0.034 A 
ATOM     46  C   UNL A   1      42.648  29.209  33.809  1.00  0.00     0.049 A 
ATOM     47  C   UNL A   1      43.329  25.672  29.501  1.00  0.00     0.074 A 
ATOM     48  C   UNL A   1      43.584  29.130  34.825  1.00  0.00     0.029 A 
ATOM     49  N   UNL A   1      43.028  28.280  32.848  1.00  0.00    -0.354 N 
ATOM     50  N   UNL A   1      43.304  26.442  30.563  1.00  0.00    -0.248 NA
ATOM     51  C   UNL A   1      44.499  24.789  29.424  1.00  0.00     0.031 C 
ATOM     52  C   UNL A   1      44.570  28.215  34.443  1.00  0.00     0.029 A 
ATOM     53  C   UNL A   1      44.205  27.654  33.229  1.00  0.00     0.049 A 
ATOM     54  H   UNL A   1      42.533  28.095  32.017  1.00  0.00     0.167 HD
ATOM     55  C   UNL A   1      44.438  26.107  31.300  1.00  0.00     0.074 A 
ATOM     56  C   UNL A   1      45.115  25.059  30.566  1.00  0.00     0.031 C 
ATOM     57  C   UNL A   1      44.876  26.617  32.481  1.00  0.00     0.034 A 
BRANCH  44  58
ATOM     58  C   UNL A   1      41.278  31.121  34.784  1.00  0.00     0.023 A 
ATOM     59  C   UNL A   1      40.182  31.067  35.664  1.00  0.00     0.031 A 
ATOM     60  C   UNL A   1      42.162  32.207  34.907  1.00  0.00     0.131 A 
ATOM     61  C   UNL A   1      39.951  32.118  36.564  1.00  0.00     0.055 A 
ATOM     62  C   UNL A   1      41.977  33.205  35.867  1.00  0.00     0.041 A 
ATOM     63  F   UNL A   1      43.215  32.329  34.083  1.00  0.00    -0.206 F 
ATOM     64  C   UNL A   1      40.857  33.173  36.692  1.00  0.00     0.022 A 
BRANCH  61  65
ATOM     65  S   UNL A   1      38.369  32.166  37.451  1.00  0.00     0.124 S 
ATOM     66  O   UNL A   1      37.733  33.339  36.856  1.00  0.00    -0.237 OA
ATOM     67  O   UNL A   1      37.778  30.878  37.112  1.00  0.00    -0.237 OA
ATOM     68  O   UNL A   1      38.766  32.323  38.849  1.00  0.00    -0.744 OA
ENDBRANCH  61  65
ENDBRANCH  44  58
BRANCH  45  69
ATOM     69  C   UNL A   1      42.554  24.635  27.237  1.00  0.00     0.023 A 
ATOM     70  C   UNL A   1      42.050  23.325  27.274  1.00  0.00     0.031 A 
ATOM     71  C   UNL A   1      43.310  25.017  26.115  1.00  0.00     0.131 A 
ATOM     72  C   UNL A   1      42.349  22.429  26.235  1.00  0.00     0.055 A 
ATOM     73  C   UNL A   1      43.556  24.141  25.056  1.00  0.00     0.041 A 
ATOM     74  F   UNL A   1      43.816  26.258  26.027  1.00  0.00    -0.206 F 
ATOM     75  C   UNL A   1      43.086  22.833  25.119  1.00  0.00     0.022 A 
BRANCH  72  76
ATOM     76  S   UNL A   1      41.839  20.697  26.408  1.00  0.00     0.124 S 
ATOM     77  O   UNL A   1      40.405  20.783  26.154  1.00  0.00    -0.237 OA
ATOM     78  O   UNL A   1      42.636  20.041  25.376  1.00  0.00    -0.237 OA
ATOM     79  O   UNL A   1      42.212  20.368  27.782  1.00  0.00    -0.744 OA
ENDBRANCH  72  76
ENDBRANCH  45  69
BRANCH  57  80
ATOM     80  C   UNL A   1      46.124  26.005  33.073  1.00  0.00     0.023 A 
ATOM     81  C   UNL A   1      46.080  24.838  33.856  1.00  0.00     0.031 A 
ATOM     82  C   UNL A   1      47.376  26.608  32.854  1.00  0.00     0.131 A 
ATOM     83  C   UNL A   1      47.256  24.345  34.440  1.00  0.00     0.055 A 
ATOM     84  C   UNL A   1      48.552  26.073  33.382  1.00  0.00     0.041 A 
ATOM     85  F   UNL A   1      47.478  27.725  32.118  1.00  0.00    -0.206 F 
ATOM     86  C   UNL A   1      48.495  24.943  34.192  1.00  0.00     0.022 A 
BRANCH  83  87
ATOM     87  S   UNL A   1      47.134  22.967  35.614  1.00  0.00     0.124 S 
ATOM     88  O   UNL A   1      46.178  23.482  36.588  1.00  0.00    -0.237 OA
ATOM     89  O   UNL A   1      46.659  21.877  34.768  1.00  0.00    -0.237 OA
ATOM     90  O   UNL A   1      48.502  22.815  36.107  1.00  0.00    -0.744 OA
ENDBRANCH  83  87
ENDBRANCH  57  80
ENDBRANCH  31  32
ENDBRANCH  23  26
ENDBRANCH  21  22
ENDBRANCH   1  21
TORSDOF 17
ENDMDL
