MODEL 1
REMARK VINA RESULT:     -11.4      0.000      0.000
REMARK SMILES Cc1cccc([C@@H](CC(=O)NCCCNC(=O)c2ccc(-c3c4nc(c(-c5cc(S(=O)(=O)[O-])ccc5F)c5ccc([nH]5)c(-c5cc(S(=O)(=O)[O-])ccc5F)c5nc(c(-c6cc(S(=O)(=O)[O-])ccc6F)c6ccc3[nH]6)C=C5)C=C4)cc2)NC(=O)OC(C)(C)C)c1
REMARK SMILES IDX 12 1 11 2 9 3 10 4 8 6 7 7 6 8 1 9 2 10 3 11 89 12 4 13 5 14
REMARK SMILES IDX 81 15 82 16 83 18 84 19 85 20 86 21 87 22 88 23 13 24 14 25
REMARK SMILES IDX 15 26 16 27 17 29 18 30 19 31 80 32 20 33 79 34 21 35 22 36
REMARK SMILES IDX 23 37 73 38 24 39 78 40 72 41 74 42 25 43 77 44 71 45 70 46
REMARK SMILES IDX 26 48 58 49 38 50 57 51 39 52 42 53 56 54 75 55 40 56 41 57
REMARK SMILES IDX 55 59 76 60 43 61 27 62 28 63 36 64 29 65 35 66 37 67 34 68
REMARK SMILES IDX 30 69 31 70 32 71 33 72 59 73 60 74 68 75 61 76 67 77 69 78
REMARK SMILES IDX 66 79 62 80 63 81 64 82 65 83 44 84 45 85 53 86 46 87 52 88
REMARK SMILES IDX 54 89 51 90 47 91 48 92 49 93 50 94
REMARK H PARENT 11 5 81 17 15 28 74 47 42 58
REMARK Flexibility Score: inf
ROOT
ATOM      1  C   UNL A   1      37.468  22.949  25.819  1.00  0.00     0.117 C 
ENDROOT
BRANCH   1   2
ATOM      2  N   UNL A   1      36.334  22.106  26.160  1.00  0.00    -0.356 N 
ATOM      3  C   UNL A   1      35.140  22.481  26.691  1.00  0.00     0.222 C 
ATOM      4  O   UNL A   1      34.424  21.629  27.222  1.00  0.00    -0.275 OA
ATOM      5  H   UNL A   1      36.445  21.143  25.986  1.00  0.00     0.163 HD
BRANCH   3   6
ATOM      6  C   UNL A   1      34.675  23.919  26.582  1.00  0.00     0.130 C 
BRANCH   6   7
ATOM      7  C   UNL A   1      33.392  24.154  25.769  1.00  0.00     0.125 C 
BRANCH   7   8
ATOM      8  C   UNL A   1      32.892  25.594  25.701  1.00  0.00    -0.025 A 
ATOM      9  C   UNL A   1      34.182  29.100  26.559  1.00  0.00     0.044 C 
ATOM     10  C   UNL A   1      33.290  27.985  26.098  1.00  0.00    -0.051 A 
ATOM     11  C   UNL A   1      31.986  28.268  25.683  1.00  0.00     0.003 A 
ATOM     12  C   UNL A   1      33.725  26.648  26.129  1.00  0.00     0.009 A 
ATOM     13  C   UNL A   1      31.162  27.245  25.219  1.00  0.00     0.001 A 
ATOM     14  C   UNL A   1      31.618  25.925  25.207  1.00  0.00     0.006 A 
ENDBRANCH   7   8
BRANCH   7  15
ATOM     15  N   UNL A   1      32.334  23.227  26.132  1.00  0.00    -0.314 N 
ATOM     16  C   UNL A   1      31.854  22.202  25.378  1.00  0.00     0.408 C 
ATOM     17  H   UNL A   1      31.922  23.354  27.017  1.00  0.00     0.167 HD
ATOM     18  O   UNL A   1      30.868  21.572  25.705  1.00  0.00    -0.225 OA
BRANCH  16  19
ATOM     19  O   UNL A   1      32.613  21.982  24.276  1.00  0.00    -0.444 OA
BRANCH  19  20
ATOM     20  C   UNL A   1      32.112  22.315  22.964  1.00  0.00     0.106 C 
ATOM     21  C   UNL A   1      31.809  21.059  22.138  1.00  0.00     0.056 C 
ATOM     22  C   UNL A   1      30.906  23.252  23.071  1.00  0.00     0.056 C 
ATOM     23  C   UNL A   1      33.268  23.069  22.289  1.00  0.00     0.056 C 
ENDBRANCH  19  20
ENDBRANCH  16  19
ENDBRANCH   7  15
ENDBRANCH   6   7
ENDBRANCH   3   6
ENDBRANCH   1   2
BRANCH   1  24
ATOM     24  C   UNL A   1      38.742  22.348  26.389  1.00  0.00     0.042 C 
BRANCH  24  25
ATOM     25  C   UNL A   1      40.032  23.004  25.928  1.00  0.00     0.118 C 
BRANCH  25  26
ATOM     26  N   UNL A   1      40.895  23.277  27.086  1.00  0.00    -0.352 N 
ATOM     27  C   UNL A   1      41.142  24.412  27.830  1.00  0.00     0.251 C 
ATOM     28  H   UNL A   1      41.401  22.490  27.391  1.00  0.00     0.163 HD
ATOM     29  O   UNL A   1      41.999  24.465  28.704  1.00  0.00    -0.269 OA
BRANCH  27  30
ATOM     30  C   UNL A   1      40.195  25.536  27.703  1.00  0.00     0.039 A 
ATOM     31  C   UNL A   1      40.642  26.544  26.835  1.00  0.00     0.014 A 
ATOM     32  C   UNL A   1      39.340  25.801  28.764  1.00  0.00     0.014 A 
ATOM     33  C   UNL A   1      40.583  27.853  27.266  1.00  0.00     0.010 A 
ATOM     34  C   UNL A   1      39.325  27.097  29.219  1.00  0.00     0.010 A 
ATOM     35  C   UNL A   1      40.060  28.076  28.532  1.00  0.00    -0.014 A 
BRANCH  35  36
ATOM     36  C   UNL A   1      40.249  29.311  29.260  1.00  0.00     0.031 A 
ATOM     37  C   UNL A   1      39.164  30.286  29.162  1.00  0.00     0.074 A 
ATOM     38  C   UNL A   1      41.317  29.450  30.076  1.00  0.00     0.049 A 
ATOM     39  N   UNL A   1      39.280  31.533  29.430  1.00  0.00    -0.248 NA
ATOM     40  C   UNL A   1      37.840  29.924  28.661  1.00  0.00     0.031 C 
ATOM     41  C   UNL A   1      41.539  30.451  31.114  1.00  0.00     0.029 A 
ATOM     42  N   UNL A   1      42.549  28.795  29.967  1.00  0.00    -0.354 N 
ATOM     43  C   UNL A   1      38.008  32.053  29.474  1.00  0.00     0.074 A 
ATOM     44  C   UNL A   1      37.174  31.062  28.848  1.00  0.00     0.031 C 
ATOM     45  C   UNL A   1      42.860  30.549  31.348  1.00  0.00     0.029 A 
ATOM     46  C   UNL A   1      43.536  29.729  30.358  1.00  0.00     0.049 A 
ATOM     47  H   UNL A   1      42.699  27.866  29.677  1.00  0.00     0.167 HD
ATOM     48  C   UNL A   1      37.815  33.189  30.194  1.00  0.00     0.034 A 
ATOM     49  C   UNL A   1      44.435  30.185  29.434  1.00  0.00     0.034 A 
ATOM     50  C   UNL A   1      39.107  33.721  30.644  1.00  0.00     0.049 A 
ATOM     51  C   UNL A   1      44.236  31.651  29.092  1.00  0.00     0.074 A 
ATOM     52  C   UNL A   1      39.829  33.644  31.822  1.00  0.00     0.029 A 
ATOM     53  N   UNL A   1      40.000  34.141  29.679  1.00  0.00    -0.354 N 
ATOM     54  N   UNL A   1      43.222  32.367  29.502  1.00  0.00    -0.248 NA
ATOM     55  C   UNL A   1      45.134  32.417  28.232  1.00  0.00     0.031 C 
ATOM     56  C   UNL A   1      41.193  33.945  31.516  1.00  0.00     0.029 A 
ATOM     57  C   UNL A   1      41.283  34.248  30.167  1.00  0.00     0.049 A 
ATOM     58  H   UNL A   1      39.749  34.341  28.749  1.00  0.00     0.167 HD
ATOM     59  C   UNL A   1      43.291  33.629  28.978  1.00  0.00     0.074 A 
ATOM     60  C   UNL A   1      44.497  33.600  28.161  1.00  0.00     0.031 C 
ATOM     61  C   UNL A   1      42.353  34.592  29.241  1.00  0.00     0.034 A 
BRANCH  48  62
ATOM     62  C   UNL A   1      36.493  33.695  30.713  1.00  0.00     0.023 A 
ATOM     63  C   UNL A   1      35.610  34.260  29.773  1.00  0.00     0.031 A 
ATOM     64  C   UNL A   1      36.046  33.732  32.049  1.00  0.00     0.131 A 
ATOM     65  C   UNL A   1      34.410  34.874  30.160  1.00  0.00     0.055 A 
ATOM     66  C   UNL A   1      34.855  34.357  32.441  1.00  0.00     0.041 A 
ATOM     67  F   UNL A   1      36.707  33.147  33.052  1.00  0.00    -0.206 F 
ATOM     68  C   UNL A   1      34.030  34.941  31.495  1.00  0.00     0.022 A 
BRANCH  65  69
ATOM     69  S   UNL A   1      33.363  35.597  28.875  1.00  0.00     0.124 S 
ATOM     70  O   UNL A   1      34.349  36.197  27.982  1.00  0.00    -0.237 OA
ATOM     71  O   UNL A   1      32.653  34.429  28.365  1.00  0.00    -0.237 OA
ATOM     72  O   UNL A   1      32.536  36.550  29.613  1.00  0.00    -0.744 OA
ENDBRANCH  65  69
ENDBRANCH  48  62
BRANCH  49  73
ATOM     73  C   UNL A   1      44.855  29.089  28.500  1.00  0.00     0.023 A 
ATOM     74  C   UNL A   1      45.517  27.986  29.087  1.00  0.00     0.031 A 
ATOM     75  C   UNL A   1      44.197  28.881  27.281  1.00  0.00     0.131 A 
ATOM     76  C   UNL A   1      45.312  26.689  28.589  1.00  0.00     0.055 A 
ATOM     77  C   UNL A   1      44.062  27.591  26.744  1.00  0.00     0.041 A 
ATOM     78  F   UNL A   1      43.543  29.882  26.674  1.00  0.00    -0.206 F 
ATOM     79  C   UNL A   1      44.561  26.482  27.432  1.00  0.00     0.022 A 
BRANCH  76  80
ATOM     80  S   UNL A   1      45.756  25.276  29.647  1.00  0.00     0.124 S 
ATOM     81  O   UNL A   1      45.473  24.135  28.787  1.00  0.00    -0.237 OA
ATOM     82  O   UNL A   1      47.168  25.526  29.931  1.00  0.00    -0.237 OA
ATOM     83  O   UNL A   1      44.882  25.416  30.812  1.00  0.00    -0.744 OA
ENDBRANCH  76  80
ENDBRANCH  49  73
BRANCH  61  84
ATOM     84  C   UNL A   1      42.376  35.966  28.618  1.00  0.00     0.023 A 
ATOM     85  C   UNL A   1      42.628  37.107  29.384  1.00  0.00     0.031 A 
ATOM     86  C   UNL A   1      42.103  36.189  27.245  1.00  0.00     0.131 A 
ATOM     87  C   UNL A   1      42.728  38.369  28.778  1.00  0.00     0.055 A 
ATOM     88  C   UNL A   1      42.074  37.461  26.671  1.00  0.00     0.041 A 
ATOM     89  F   UNL A   1      41.911  35.185  26.379  1.00  0.00    -0.206 F 
ATOM     90  C   UNL A   1      42.417  38.563  27.433  1.00  0.00     0.022 A 
BRANCH  87  91
ATOM     91  S   UNL A   1      43.410  39.725  29.757  1.00  0.00     0.124 S 
ATOM     92  O   UNL A   1      44.484  40.225  28.905  1.00  0.00    -0.237 OA
ATOM     93  O   UNL A   1      42.249  40.600  29.890  1.00  0.00    -0.237 OA
ATOM     94  O   UNL A   1      43.842  39.075  30.991  1.00  0.00    -0.744 OA
ENDBRANCH  87  91
ENDBRANCH  61  84
ENDBRANCH  35  36
ENDBRANCH  27  30
ENDBRANCH  25  26
ENDBRANCH  24  25
ENDBRANCH   1  24
TORSDOF 18
ENDMDL
MODEL 2
REMARK VINA RESULT:     -11.2      2.338      2.723
REMARK SMILES Cc1cccc([C@@H](CC(=O)NCCCNC(=O)c2ccc(-c3c4nc(c(-c5cc(S(=O)(=O)[O-])ccc5F)c5ccc([nH]5)c(-c5cc(S(=O)(=O)[O-])ccc5F)c5nc(c(-c6cc(S(=O)(=O)[O-])ccc6F)c6ccc3[nH]6)C=C5)C=C4)cc2)NC(=O)OC(C)(C)C)c1
REMARK SMILES IDX 12 1 11 2 9 3 10 4 8 6 7 7 6 8 1 9 2 10 3 11 89 12 4 13 5 14
REMARK SMILES IDX 81 15 82 16 83 18 84 19 85 20 86 21 87 22 88 23 13 24 14 25
REMARK SMILES IDX 15 26 16 27 17 29 18 30 19 31 80 32 20 33 79 34 21 35 22 36
REMARK SMILES IDX 23 37 73 38 24 39 78 40 72 41 74 42 25 43 77 44 71 45 70 46
REMARK SMILES IDX 26 48 58 49 38 50 57 51 39 52 42 53 56 54 75 55 40 56 41 57
REMARK SMILES IDX 55 59 76 60 43 61 27 62 28 63 36 64 29 65 35 66 37 67 34 68
REMARK SMILES IDX 30 69 31 70 32 71 33 72 59 73 60 74 68 75 61 76 67 77 69 78
REMARK SMILES IDX 66 79 62 80 63 81 64 82 65 83 44 84 45 85 53 86 46 87 52 88
REMARK SMILES IDX 54 89 51 90 47 91 48 92 49 93 50 94
REMARK H PARENT 11 5 81 17 15 28 74 47 42 58
REMARK Flexibility Score: inf
ROOT
ATOM      1  C   UNL A   1      38.129  22.533  26.119  1.00  0.00     0.117 C 
ENDROOT
BRANCH   1   2
ATOM      2  N   UNL A   1      37.807  22.850  24.738  1.00  0.00    -0.356 N 
ATOM      3  C   UNL A   1      36.639  23.335  24.239  1.00  0.00     0.222 C 
ATOM      4  O   UNL A   1      36.416  23.238  23.030  1.00  0.00    -0.275 OA
ATOM      5  H   UNL A   1      38.524  22.693  24.081  1.00  0.00     0.163 HD
BRANCH   3   6
ATOM      6  C   UNL A   1      35.652  24.032  25.152  1.00  0.00     0.130 C 
BRANCH   6   7
ATOM      7  C   UNL A   1      34.380  24.578  24.483  1.00  0.00     0.125 C 
BRANCH   7   8
ATOM      8  C   UNL A   1      33.544  25.547  25.312  1.00  0.00    -0.025 A 
ATOM      9  C   UNL A   1      33.913  29.048  26.828  1.00  0.00     0.044 C 
ATOM     10  C   UNL A   1      33.340  27.715  26.449  1.00  0.00    -0.051 A 
ATOM     11  C   UNL A   1      32.078  27.343  26.923  1.00  0.00     0.003 A 
ATOM     12  C   UNL A   1      34.075  26.804  25.670  1.00  0.00     0.009 A 
ATOM     13  C   UNL A   1      31.521  26.124  26.548  1.00  0.00     0.001 A 
ATOM     14  C   UNL A   1      32.238  25.244  25.732  1.00  0.00     0.006 A 
ENDBRANCH   7   8
BRANCH   7  15
ATOM     15  N   UNL A   1      33.572  23.522  23.898  1.00  0.00    -0.314 N 
ATOM     16  C   UNL A   1      33.052  23.494  22.641  1.00  0.00     0.408 C 
ATOM     17  H   UNL A   1      33.379  22.746  24.473  1.00  0.00     0.167 HD
ATOM     18  O   UNL A   1      32.266  22.636  22.291  1.00  0.00    -0.225 OA
BRANCH  16  19
ATOM     19  O   UNL A   1      33.535  24.497  21.868  1.00  0.00    -0.444 OA
BRANCH  19  20
ATOM     20  C   UNL A   1      32.719  25.651  21.572  1.00  0.00     0.106 C 
ATOM     21  C   UNL A   1      31.363  25.582  22.285  1.00  0.00     0.056 C 
ATOM     22  C   UNL A   1      33.480  26.942  21.885  1.00  0.00     0.056 C 
ATOM     23  C   UNL A   1      32.473  25.572  20.058  1.00  0.00     0.056 C 
ENDBRANCH  19  20
ENDBRANCH  16  19
ENDBRANCH   7  15
ENDBRANCH   6   7
ENDBRANCH   3   6
ENDBRANCH   1   2
BRANCH   1  24
ATOM     24  C   UNL A   1      39.255  21.513  26.160  1.00  0.00     0.042 C 
BRANCH  24  25
ATOM     25  C   UNL A   1      40.648  22.073  25.927  1.00  0.00     0.118 C 
BRANCH  25  26
ATOM     26  N   UNL A   1      41.302  22.339  27.216  1.00  0.00    -0.352 N 
ATOM     27  C   UNL A   1      41.511  23.490  27.946  1.00  0.00     0.251 C 
ATOM     28  H   UNL A   1      41.666  21.530  27.644  1.00  0.00     0.163 HD
ATOM     29  O   UNL A   1      42.191  23.521  28.965  1.00  0.00    -0.269 OA
BRANCH  27  30
ATOM     30  C   UNL A   1      40.714  24.681  27.596  1.00  0.00     0.039 A 
ATOM     31  C   UNL A   1      41.442  25.645  26.882  1.00  0.00     0.014 A 
ATOM     32  C   UNL A   1      39.639  25.017  28.406  1.00  0.00     0.014 A 
ATOM     33  C   UNL A   1      41.373  26.959  27.299  1.00  0.00     0.010 A 
ATOM     34  C   UNL A   1      39.606  26.315  28.857  1.00  0.00     0.010 A 
ATOM     35  C   UNL A   1      40.562  27.230  28.392  1.00  0.00    -0.014 A 
BRANCH  35  36
ATOM     36  C   UNL A   1      40.651  28.453  29.158  1.00  0.00     0.031 A 
ATOM     37  C   UNL A   1      39.646  29.472  28.860  1.00  0.00     0.074 A 
ATOM     38  C   UNL A   1      41.541  28.544  30.172  1.00  0.00     0.049 A 
ATOM     39  N   UNL A   1      39.755  30.711  29.161  1.00  0.00    -0.248 NA
ATOM     40  C   UNL A   1      38.435  29.166  28.101  1.00  0.00     0.031 C 
ATOM     41  C   UNL A   1      41.591  29.531  31.245  1.00  0.00     0.029 A 
ATOM     42  N   UNL A   1      42.742  27.841  30.301  1.00  0.00    -0.354 N 
ATOM     43  C   UNL A   1      38.521  31.283  28.958  1.00  0.00     0.074 A 
ATOM     44  C   UNL A   1      37.790  30.330  28.167  1.00  0.00     0.031 C 
ATOM     45  C   UNL A   1      42.842  29.574  31.738  1.00  0.00     0.029 A 
ATOM     46  C   UNL A   1      43.668  28.732  30.891  1.00  0.00     0.049 A 
ATOM     47  H   UNL A   1      42.911  26.908  30.034  1.00  0.00     0.167 HD
ATOM     48  C   UNL A   1      38.233  32.422  29.640  1.00  0.00     0.034 A 
ATOM     49  C   UNL A   1      44.750  29.155  30.169  1.00  0.00     0.034 A 
ATOM     50  C   UNL A   1      39.430  32.899  30.343  1.00  0.00     0.049 A 
ATOM     51  C   UNL A   1      44.680  30.630  29.814  1.00  0.00     0.074 A 
ATOM     52  C   UNL A   1      39.900  32.787  31.640  1.00  0.00     0.029 A 
ATOM     53  N   UNL A   1      40.512  33.288  29.580  1.00  0.00    -0.354 N 
ATOM     54  N   UNL A   1      43.633  31.384  30.023  1.00  0.00    -0.248 NA
ATOM     55  C   UNL A   1      45.760  31.363  29.158  1.00  0.00     0.031 C 
ATOM     56  C   UNL A   1      41.308  33.035  31.615  1.00  0.00     0.029 A 
ATOM     57  C   UNL A   1      41.676  33.340  30.314  1.00  0.00     0.049 A 
ATOM     58  H   UNL A   1      40.459  33.502  28.621  1.00  0.00     0.167 HD
ATOM     59  C   UNL A   1      43.855  32.645  29.539  1.00  0.00     0.074 A 
ATOM     60  C   UNL A   1      45.197  32.571  28.977  1.00  0.00     0.031 C 
ATOM     61  C   UNL A   1      42.921  33.644  29.623  1.00  0.00     0.034 A 
BRANCH  48  62
ATOM     62  C   UNL A   1      36.855  32.979  29.893  1.00  0.00     0.023 A 
ATOM     63  C   UNL A   1      36.541  33.332  31.220  1.00  0.00     0.031 A 
ATOM     64  C   UNL A   1      35.803  33.136  28.969  1.00  0.00     0.131 A 
ATOM     65  C   UNL A   1      35.252  33.742  31.592  1.00  0.00     0.055 A 
ATOM     66  C   UNL A   1      34.511  33.532  29.339  1.00  0.00     0.041 A 
ATOM     67  F   UNL A   1      35.958  32.951  27.655  1.00  0.00    -0.206 F 
ATOM     68  C   UNL A   1      34.225  33.830  30.660  1.00  0.00     0.022 A 
BRANCH  65  69
ATOM     69  S   UNL A   1      34.947  34.142  33.329  1.00  0.00     0.124 S 
ATOM     70  O   UNL A   1      35.355  32.912  34.000  1.00  0.00    -0.237 OA
ATOM     71  O   UNL A   1      35.804  35.305  33.530  1.00  0.00    -0.237 OA
ATOM     72  O   UNL A   1      33.512  34.419  33.363  1.00  0.00    -0.744 OA
ENDBRANCH  65  69
ENDBRANCH  48  62
BRANCH  49  73
ATOM     73  C   UNL A   1      45.304  28.048  29.323  1.00  0.00     0.023 A 
ATOM     74  C   UNL A   1      45.259  28.248  27.924  1.00  0.00     0.031 A 
ATOM     75  C   UNL A   1      46.266  27.161  29.824  1.00  0.00     0.131 A 
ATOM     76  C   UNL A   1      46.293  27.764  27.105  1.00  0.00     0.055 A 
ATOM     77  C   UNL A   1      47.252  26.617  28.987  1.00  0.00     0.041 A 
ATOM     78  F   UNL A   1      46.368  26.933  31.142  1.00  0.00    -0.206 F 
ATOM     79  C   UNL A   1      47.309  26.971  27.637  1.00  0.00     0.022 A 
BRANCH  76  80
ATOM     80  S   UNL A   1      46.465  28.456  25.430  1.00  0.00     0.124 S 
ATOM     81  O   UNL A   1      45.312  27.899  24.737  1.00  0.00    -0.237 OA
ATOM     82  O   UNL A   1      46.426  29.896  25.679  1.00  0.00    -0.237 OA
ATOM     83  O   UNL A   1      47.767  27.967  24.976  1.00  0.00    -0.744 OA
ENDBRANCH  76  80
ENDBRANCH  49  73
BRANCH  61  84
ATOM     84  C   UNL A   1      43.121  35.019  29.034  1.00  0.00     0.023 A 
ATOM     85  C   UNL A   1      43.304  36.139  29.850  1.00  0.00     0.031 A 
ATOM     86  C   UNL A   1      43.091  35.266  27.639  1.00  0.00     0.131 A 
ATOM     87  C   UNL A   1      43.570  37.398  29.288  1.00  0.00     0.055 A 
ATOM     88  C   UNL A   1      43.226  36.541  27.088  1.00  0.00     0.041 A 
ATOM     89  F   UNL A   1      42.991  34.280  26.738  1.00  0.00    -0.206 F 
ATOM     90  C   UNL A   1      43.497  37.617  27.914  1.00  0.00     0.022 A 
BRANCH  87  91
ATOM     91  S   UNL A   1      44.154  38.706  30.388  1.00  0.00     0.124 S 
ATOM     92  O   UNL A   1      43.294  39.830  30.032  1.00  0.00    -0.237 OA
ATOM     93  O   UNL A   1      43.909  38.113  31.700  1.00  0.00    -0.237 OA
ATOM     94  O   UNL A   1      45.561  38.857  30.028  1.00  0.00    -0.744 OA
ENDBRANCH  87  91
ENDBRANCH  61  84
ENDBRANCH  35  36
ENDBRANCH  27  30
ENDBRANCH  25  26
ENDBRANCH  24  25
ENDBRANCH   1  24
TORSDOF 18
ENDMDL
MODEL 3
REMARK VINA RESULT:     -11.2      4.135     10.187
REMARK SMILES Cc1cccc([C@@H](CC(=O)NCCCNC(=O)c2ccc(-c3c4nc(c(-c5cc(S(=O)(=O)[O-])ccc5F)c5ccc([nH]5)c(-c5cc(S(=O)(=O)[O-])ccc5F)c5nc(c(-c6cc(S(=O)(=O)[O-])ccc6F)c6ccc3[nH]6)C=C5)C=C4)cc2)NC(=O)OC(C)(C)C)c1
REMARK SMILES IDX 12 1 11 2 9 3 10 4 8 6 7 7 6 8 1 9 2 10 3 11 89 12 4 13 5 14
REMARK SMILES IDX 81 15 82 16 83 18 84 19 85 20 86 21 87 22 88 23 13 24 14 25
REMARK SMILES IDX 15 26 16 27 17 29 18 30 19 31 80 32 20 33 79 34 21 35 22 36
REMARK SMILES IDX 23 37 73 38 24 39 78 40 72 41 74 42 25 43 77 44 71 45 70 46
REMARK SMILES IDX 26 48 58 49 38 50 57 51 39 52 42 53 56 54 75 55 40 56 41 57
REMARK SMILES IDX 55 59 76 60 43 61 27 62 28 63 36 64 29 65 35 66 37 67 34 68
REMARK SMILES IDX 30 69 31 70 32 71 33 72 59 73 60 74 68 75 61 76 67 77 69 78
REMARK SMILES IDX 66 79 62 80 63 81 64 82 65 83 44 84 45 85 53 86 46 87 52 88
REMARK SMILES IDX 54 89 51 90 47 91 48 92 49 93 50 94
REMARK H PARENT 11 5 81 17 15 28 74 47 42 58
REMARK Flexibility Score: inf
ROOT
ATOM      1  C   UNL A   1      32.489  30.372  27.245  1.00  0.00     0.117 C 
ENDROOT
BRANCH   1   2
ATOM      2  N   UNL A   1      33.436  29.291  27.026  1.00  0.00    -0.356 N 
ATOM      3  C   UNL A   1      33.460  28.390  26.007  1.00  0.00     0.222 C 
ATOM      4  O   UNL A   1      34.113  27.352  26.138  1.00  0.00    -0.275 OA
ATOM      5  H   UNL A   1      34.149  29.199  27.699  1.00  0.00     0.163 HD
BRANCH   3   6
ATOM      6  C   UNL A   1      32.734  28.687  24.711  1.00  0.00     0.130 C 
BRANCH   6   7
ATOM      7  C   UNL A   1      31.598  27.721  24.336  1.00  0.00     0.125 C 
BRANCH   7   8
ATOM      8  C   UNL A   1      30.300  28.362  23.853  1.00  0.00    -0.025 A 
ATOM      9  C   UNL A   1      28.902  31.886  23.294  1.00  0.00     0.044 C 
ATOM     10  C   UNL A   1      29.007  30.391  23.361  1.00  0.00    -0.051 A 
ATOM     11  C   UNL A   1      27.894  29.604  23.055  1.00  0.00     0.003 A 
ATOM     12  C   UNL A   1      30.194  29.766  23.784  1.00  0.00     0.009 A 
ATOM     13  C   UNL A   1      27.992  28.215  23.078  1.00  0.00     0.001 A 
ATOM     14  C   UNL A   1      29.190  27.600  23.452  1.00  0.00     0.006 A 
ENDBRANCH   7   8
BRANCH   7  15
ATOM     15  N   UNL A   1      31.363  26.724  25.366  1.00  0.00    -0.314 N 
ATOM     16  C   UNL A   1      31.692  25.405  25.314  1.00  0.00     0.408 C 
ATOM     17  H   UNL A   1      30.919  27.036  26.187  1.00  0.00     0.167 HD
ATOM     18  O   UNL A   1      31.323  24.618  26.162  1.00  0.00    -0.225 OA
BRANCH  16  19
ATOM     19  O   UNL A   1      32.472  25.116  24.244  1.00  0.00    -0.444 OA
BRANCH  19  20
ATOM     20  C   UNL A   1      31.973  24.280  23.178  1.00  0.00     0.106 C 
ATOM     21  C   UNL A   1      32.684  22.921  23.145  1.00  0.00     0.056 C 
ATOM     22  C   UNL A   1      30.452  24.143  23.269  1.00  0.00     0.056 C 
ATOM     23  C   UNL A   1      32.328  25.042  21.891  1.00  0.00     0.056 C 
ENDBRANCH  19  20
ENDBRANCH  16  19
ENDBRANCH   7  15
ENDBRANCH   6   7
ENDBRANCH   3   6
ENDBRANCH   1   2
BRANCH   1  24
ATOM     24  C   UNL A   1      33.236  31.626  27.669  1.00  0.00     0.042 C 
BRANCH  24  25
ATOM     25  C   UNL A   1      34.741  31.583  27.471  1.00  0.00     0.118 C 
BRANCH  25  26
ATOM     26  N   UNL A   1      35.420  32.020  28.699  1.00  0.00    -0.352 N 
ATOM     27  C   UNL A   1      36.096  31.342  29.693  1.00  0.00     0.251 C 
ATOM     28  H   UNL A   1      35.384  32.993  28.842  1.00  0.00     0.163 HD
ATOM     29  O   UNL A   1      36.501  31.885  30.714  1.00  0.00    -0.269 OA
BRANCH  27  30
ATOM     30  C   UNL A   1      36.522  29.958  29.414  1.00  0.00     0.039 A 
ATOM     31  C   UNL A   1      36.775  29.210  30.574  1.00  0.00     0.014 A 
ATOM     32  C   UNL A   1      37.163  29.695  28.211  1.00  0.00     0.014 A 
ATOM     33  C   UNL A   1      37.952  28.494  30.647  1.00  0.00     0.010 A 
ATOM     34  C   UNL A   1      38.359  29.025  28.298  1.00  0.00     0.010 A 
ATOM     35  C   UNL A   1      38.794  28.552  29.546  1.00  0.00    -0.014 A 
BRANCH  35  36
ATOM     36  C   UNL A   1      40.186  28.165  29.593  1.00  0.00     0.031 A 
ATOM     37  C   UNL A   1      40.500  26.834  29.077  1.00  0.00     0.074 A 
ATOM     38  C   UNL A   1      41.119  29.067  29.973  1.00  0.00     0.049 A 
ATOM     39  N   UNL A   1      41.572  26.186  29.340  1.00  0.00    -0.248 NA
ATOM     40  C   UNL A   1      39.554  26.079  28.258  1.00  0.00     0.031 C 
ATOM     41  C   UNL A   1      42.566  28.997  29.802  1.00  0.00     0.029 A 
ATOM     42  N   UNL A   1      40.928  30.173  30.807  1.00  0.00    -0.354 N 
ATOM     43  C   UNL A   1      41.615  25.116  28.476  1.00  0.00     0.074 A 
ATOM     44  C   UNL A   1      40.286  25.011  27.939  1.00  0.00     0.031 C 
ATOM     45  C   UNL A   1      43.150  29.807  30.704  1.00  0.00     0.029 A 
ATOM     46  C   UNL A   1      42.103  30.298  31.584  1.00  0.00     0.049 A 
ATOM     47  H   UNL A   1      40.133  30.752  30.845  1.00  0.00     0.167 HD
ATOM     48  C   UNL A   1      42.830  24.570  28.208  1.00  0.00     0.034 A 
ATOM     49  C   UNL A   1      42.043  30.090  32.934  1.00  0.00     0.034 A 
ATOM     50  C   UNL A   1      43.850  25.169  29.078  1.00  0.00     0.049 A 
ATOM     51  C   UNL A   1      42.773  28.832  33.370  1.00  0.00     0.074 A 
ATOM     52  C   UNL A   1      44.782  26.180  28.923  1.00  0.00     0.029 A 
ATOM     53  N   UNL A   1      43.737  24.963  30.438  1.00  0.00    -0.354 N 
ATOM     54  N   UNL A   1      43.266  27.949  32.542  1.00  0.00    -0.248 NA
ATOM     55  C   UNL A   1      42.970  28.444  34.764  1.00  0.00     0.031 C 
ATOM     56  C   UNL A   1      45.156  26.630  30.228  1.00  0.00     0.029 A 
ATOM     57  C   UNL A   1      44.486  25.861  31.166  1.00  0.00     0.049 A 
ATOM     58  H   UNL A   1      43.183  24.257  30.842  1.00  0.00     0.167 HD
ATOM     59  C   UNL A   1      43.807  26.900  33.237  1.00  0.00     0.074 A 
ATOM     60  C   UNL A   1      43.566  27.246  34.631  1.00  0.00     0.031 C 
ATOM     61  C   UNL A   1      44.393  25.827  32.619  1.00  0.00     0.034 A 
BRANCH  48  62
ATOM     62  C   UNL A   1      43.169  23.699  27.026  1.00  0.00     0.023 A 
ATOM     63  C   UNL A   1      42.614  22.405  27.004  1.00  0.00     0.031 A 
ATOM     64  C   UNL A   1      44.033  23.995  25.953  1.00  0.00     0.131 A 
ATOM     65  C   UNL A   1      42.959  21.467  26.020  1.00  0.00     0.055 A 
ATOM     66  C   UNL A   1      44.391  23.057  24.976  1.00  0.00     0.041 A 
ATOM     67  F   UNL A   1      44.560  25.208  25.760  1.00  0.00    -0.206 F 
ATOM     68  C   UNL A   1      43.860  21.779  25.009  1.00  0.00     0.022 A 
BRANCH  65  69
ATOM     69  S   UNL A   1      42.213  19.822  26.102  1.00  0.00     0.124 S 
ATOM     70  O   UNL A   1      40.791  20.127  25.980  1.00  0.00    -0.237 OA
ATOM     71  O   UNL A   1      42.830  19.148  24.966  1.00  0.00    -0.237 OA
ATOM     72  O   UNL A   1      42.630  19.329  27.414  1.00  0.00    -0.744 OA
ENDBRANCH  65  69
ENDBRANCH  48  62
BRANCH  49  73
ATOM     73  C   UNL A   1      40.774  30.644  33.511  1.00  0.00     0.023 A 
ATOM     74  C   UNL A   1      40.679  32.053  33.574  1.00  0.00     0.031 A 
ATOM     75  C   UNL A   1      39.581  29.910  33.483  1.00  0.00     0.131 A 
ATOM     76  C   UNL A   1      39.443  32.690  33.369  1.00  0.00     0.055 A 
ATOM     77  C   UNL A   1      38.341  30.554  33.357  1.00  0.00     0.041 A 
ATOM     78  F   UNL A   1      39.601  28.571  33.414  1.00  0.00    -0.206 F 
ATOM     79  C   UNL A   1      38.273  31.944  33.231  1.00  0.00     0.022 A 
BRANCH  76  80
ATOM     80  S   UNL A   1      39.442  34.463  32.958  1.00  0.00     0.124 S 
ATOM     81  O   UNL A   1      38.950  34.471  31.587  1.00  0.00    -0.237 OA
ATOM     82  O   UNL A   1      38.538  35.018  33.963  1.00  0.00    -0.237 OA
ATOM     83  O   UNL A   1      40.838  34.868  33.126  1.00  0.00    -0.744 OA
ENDBRANCH  76  80
ENDBRANCH  49  73
BRANCH  61  84
ATOM     84  C   UNL A   1      44.931  24.631  33.365  1.00  0.00     0.023 A 
ATOM     85  C   UNL A   1      46.296  24.495  33.632  1.00  0.00     0.031 A 
ATOM     86  C   UNL A   1      44.106  23.563  33.796  1.00  0.00     0.131 A 
ATOM     87  C   UNL A   1      46.772  23.419  34.397  1.00  0.00     0.055 A 
ATOM     88  C   UNL A   1      44.601  22.430  34.443  1.00  0.00     0.041 A 
ATOM     89  F   UNL A   1      42.772  23.590  33.668  1.00  0.00    -0.206 F 
ATOM     90  C   UNL A   1      45.942  22.365  34.775  1.00  0.00     0.022 A 
BRANCH  87  91
ATOM     91  S   UNL A   1      48.470  23.503  35.007  1.00  0.00     0.124 S 
ATOM     92  O   UNL A   1      48.685  22.162  35.540  1.00  0.00    -0.237 OA
ATOM     93  O   UNL A   1      49.202  23.822  33.784  1.00  0.00    -0.237 OA
ATOM     94  O   UNL A   1      48.427  24.572  36.001  1.00  0.00    -0.744 OA
ENDBRANCH  87  91
ENDBRANCH  61  84
ENDBRANCH  35  36
ENDBRANCH  27  30
ENDBRANCH  25  26
ENDBRANCH  24  25
ENDBRANCH   1  24
TORSDOF 18
ENDMDL
