MODEL 1
REMARK VINA RESULT:     -11.7      0.000      0.000
REMARK SMILES O=C(NCCCNC(=O)[C@@H]1CC[C@@H](CNC(=O)c2ccc(O)nn2)O1)c1ccc(-c2c3nc(c(-c4cc(S(=O)(=O)[O-])ccc4F)c4ccc([nH]4)c(-c4cc(S(=O)(=O)[O-])ccc4F)c4nc(c(-c5cc(S(=O)(=O)[O-])ccc5F)c5ccc2[nH]5)C=C4)C=C3)cc1
REMARK SMILES IDX 5 1 4 2 3 3 1 4 2 5 26 7 27 8 88 9 28 10 87 11 29 12 30 13
REMARK SMILES IDX 31 14 81 15 32 16 86 17 80 18 82 19 33 20 85 21 79 22 78 23
REMARK SMILES IDX 34 25 66 26 46 27 65 28 47 29 50 30 64 31 83 32 48 33 49 34
REMARK SMILES IDX 63 36 84 37 51 38 35 39 36 40 44 41 37 42 43 43 45 44 42 45
REMARK SMILES IDX 38 46 39 47 40 48 41 49 67 50 68 51 76 52 69 53 75 54 77 55
REMARK SMILES IDX 74 56 70 57 71 58 72 59 73 60 52 61 53 62 61 63 54 64 60 65
REMARK SMILES IDX 62 66 59 67 55 68 56 69 57 70 58 71 6 72 7 73 8 74 9 76
REMARK SMILES IDX 10 77 11 78 25 79 12 80 13 81 14 82 15 83 16 84 17 86 18 87
REMARK SMILES IDX 19 88 24 89 20 90 23 91 21 92 22 93
REMARK H PARENT 3 6 82 24 50 35 7 75 15 85 22 94
REMARK Flexibility Score: inf
ROOT
ATOM      1  C   UNL A   1      31.454  32.191  26.834  1.00  0.00     0.042 C 
ENDROOT
BRANCH   1   2
ATOM      2  C   UNL A   1      32.826  32.771  27.165  1.00  0.00     0.118 C 
BRANCH   2   3
ATOM      3  N   UNL A   1      32.732  34.101  27.755  1.00  0.00    -0.352 N 
ATOM      4  O   UNL A   1      32.967  35.679  29.337  1.00  0.00    -0.269 OA
ATOM      5  C   UNL A   1      33.380  34.628  28.841  1.00  0.00     0.251 C 
ATOM      6  H   UNL A   1      32.105  34.713  27.306  1.00  0.00     0.163 HD
BRANCH   5   7
ATOM      7  C   UNL A   1      34.557  33.949  29.414  1.00  0.00     0.039 A 
ATOM      8  C   UNL A   1      35.850  34.342  29.055  1.00  0.00     0.014 A 
ATOM      9  C   UNL A   1      34.370  32.937  30.361  1.00  0.00     0.014 A 
ATOM     10  C   UNL A   1      36.950  33.652  29.555  1.00  0.00     0.010 A 
ATOM     11  C   UNL A   1      35.476  32.278  30.903  1.00  0.00     0.010 A 
ATOM     12  C   UNL A   1      36.772  32.612  30.481  1.00  0.00    -0.014 A 
BRANCH  12  13
ATOM     13  C   UNL A   1      37.956  31.907  31.025  1.00  0.00     0.031 A 
ATOM     14  C   UNL A   1      38.437  32.185  32.420  1.00  0.00     0.074 A 
ATOM     15  C   UNL A   1      38.579  30.990  30.260  1.00  0.00     0.049 A 
ATOM     16  N   UNL A   1      39.419  31.622  33.075  1.00  0.00    -0.248 NA
ATOM     17  C   UNL A   1      37.726  33.225  33.180  1.00  0.00     0.031 C 
ATOM     18  C   UNL A   1      38.195  30.647  28.890  1.00  0.00     0.029 A 
ATOM     19  N   UNL A   1      39.652  30.177  30.522  1.00  0.00    -0.354 N 
ATOM     20  C   UNL A   1      39.442  32.233  34.324  1.00  0.00     0.074 A 
ATOM     21  C   UNL A   1      38.402  33.237  34.322  1.00  0.00     0.031 C 
ATOM     22  C   UNL A   1      39.003  29.675  28.441  1.00  0.00     0.029 A 
ATOM     23  C   UNL A   1      39.986  29.354  29.473  1.00  0.00     0.049 A 
ATOM     24  H   UNL A   1      40.137  30.184  31.379  1.00  0.00     0.167 HD
ATOM     25  C   UNL A   1      40.249  31.963  35.376  1.00  0.00     0.034 A 
ATOM     26  C   UNL A   1      40.975  28.445  29.352  1.00  0.00     0.034 A 
ATOM     27  C   UNL A   1      41.281  30.959  35.364  1.00  0.00     0.049 A 
ATOM     28  C   UNL A   1      41.883  28.193  30.525  1.00  0.00     0.074 A 
ATOM     29  C   UNL A   1      42.131  30.596  36.395  1.00  0.00     0.029 A 
ATOM     30  N   UNL A   1      41.607  30.161  34.277  1.00  0.00    -0.354 N 
ATOM     31  N   UNL A   1      41.849  28.732  31.721  1.00  0.00    -0.248 NA
ATOM     32  C   UNL A   1      42.958  27.209  30.343  1.00  0.00     0.031 C 
ATOM     33  C   UNL A   1      43.001  29.615  35.917  1.00  0.00     0.029 A 
ATOM     34  C   UNL A   1      42.660  29.324  34.606  1.00  0.00     0.049 A 
ATOM     35  H   UNL A   1      41.157  30.187  33.402  1.00  0.00     0.167 HD
ATOM     36  C   UNL A   1      42.880  28.135  32.439  1.00  0.00     0.074 A 
ATOM     37  C   UNL A   1      43.510  27.182  31.550  1.00  0.00     0.031 C 
ATOM     38  C   UNL A   1      43.269  28.361  33.719  1.00  0.00     0.034 A 
BRANCH  25  39
ATOM     39  C   UNL A   1      40.052  32.739  36.652  1.00  0.00     0.023 A 
ATOM     40  C   UNL A   1      39.065  32.345  37.574  1.00  0.00     0.031 A 
ATOM     41  C   UNL A   1      40.742  33.942  36.883  1.00  0.00     0.131 A 
ATOM     42  C   UNL A   1      38.772  33.167  38.668  1.00  0.00     0.055 A 
ATOM     43  C   UNL A   1      40.466  34.743  37.991  1.00  0.00     0.041 A 
ATOM     44  F   UNL A   1      41.695  34.355  36.032  1.00  0.00    -0.206 F 
ATOM     45  C   UNL A   1      39.468  34.361  38.884  1.00  0.00     0.022 A 
BRANCH  42  46
ATOM     46  S   UNL A   1      37.448  32.740  39.832  1.00  0.00     0.124 S 
ATOM     47  O   UNL A   1      37.922  31.469  40.375  1.00  0.00    -0.237 OA
ATOM     48  O   UNL A   1      37.483  33.867  40.758  1.00  0.00    -0.237 OA
ATOM     49  O   UNL A   1      36.260  32.646  38.991  1.00  0.00    -0.744 OA
ENDBRANCH  42  46
ENDBRANCH  25  39
BRANCH  26  50
ATOM     50  C   UNL A   1      41.100  27.676  28.083  1.00  0.00     0.023 A 
ATOM     51  C   UNL A   1      40.761  26.312  28.028  1.00  0.00     0.031 A 
ATOM     52  C   UNL A   1      41.657  28.269  26.937  1.00  0.00     0.131 A 
ATOM     53  C   UNL A   1      41.036  25.574  26.870  1.00  0.00     0.055 A 
ATOM     54  C   UNL A   1      41.873  27.543  25.766  1.00  0.00     0.041 A 
ATOM     55  F   UNL A   1      42.006  29.564  26.950  1.00  0.00    -0.206 F 
ATOM     56  C   UNL A   1      41.575  26.184  25.732  1.00  0.00     0.022 A 
BRANCH  53  57
ATOM     57  S   UNL A   1      40.796  23.776  26.834  1.00  0.00     0.124 S 
ATOM     58  O   UNL A   1      39.384  23.663  26.478  1.00  0.00    -0.237 OA
ATOM     59  O   UNL A   1      41.743  23.373  25.797  1.00  0.00    -0.237 OA
ATOM     60  O   UNL A   1      41.138  23.355  28.188  1.00  0.00    -0.744 OA
ENDBRANCH  53  57
ENDBRANCH  26  50
BRANCH  38  61
ATOM     61  C   UNL A   1      44.424  27.567  34.274  1.00  0.00     0.023 A 
ATOM     62  C   UNL A   1      44.190  26.319  34.881  1.00  0.00     0.031 A 
ATOM     63  C   UNL A   1      45.717  28.112  34.343  1.00  0.00     0.131 A 
ATOM     64  C   UNL A   1      45.225  25.676  35.571  1.00  0.00     0.055 A 
ATOM     65  C   UNL A   1      46.757  27.447  34.994  1.00  0.00     0.041 A 
ATOM     66  F   UNL A   1      45.985  29.304  33.785  1.00  0.00    -0.206 F 
ATOM     67  C   UNL A   1      46.509  26.230  35.624  1.00  0.00     0.022 A 
BRANCH  64  68
ATOM     68  S   UNL A   1      44.928  24.136  36.480  1.00  0.00     0.124 S 
ATOM     69  O   UNL A   1      43.869  23.514  35.688  1.00  0.00    -0.237 OA
ATOM     70  O   UNL A   1      46.230  23.480  36.404  1.00  0.00    -0.237 OA
ATOM     71  O   UNL A   1      44.525  24.583  37.809  1.00  0.00    -0.744 OA
ENDBRANCH  64  68
ENDBRANCH  38  61
ENDBRANCH  12  13
ENDBRANCH   5   7
ENDBRANCH   2   3
ENDBRANCH   1   2
BRANCH   1  72
ATOM     72  C   UNL A   1      31.419  30.668  26.835  1.00  0.00     0.117 C 
BRANCH  72  73
ATOM     73  N   UNL A   1      32.696  30.080  27.193  1.00  0.00    -0.354 N 
ATOM     74  C   UNL A   1      33.361  29.036  26.619  1.00  0.00     0.249 C 
ATOM     75  H   UNL A   1      33.149  30.495  27.962  1.00  0.00     0.163 HD
ATOM     76  O   UNL A   1      34.451  28.711  27.097  1.00  0.00    -0.272 OA
BRANCH  74  77
ATOM     77  C   UNL A   1      32.805  28.333  25.370  1.00  0.00     0.207 C 
ATOM     78  C   UNL A   1      33.758  27.275  24.834  1.00  0.00     0.045 C 
ATOM     79  O   UNL A   1      32.480  29.201  24.279  1.00  0.00    -0.363 OA
ATOM     80  C   UNL A   1      33.343  27.161  23.389  1.00  0.00     0.037 C 
ATOM     81  C   UNL A   1      32.869  28.568  23.045  1.00  0.00     0.138 C 
BRANCH  81  82
ATOM     82  C   UNL A   1      31.729  28.612  22.015  1.00  0.00     0.148 C 
BRANCH  82  83
ATOM     83  N   UNL A   1      30.553  27.865  22.449  1.00  0.00    -0.348 N 
ATOM     84  C   UNL A   1      29.332  28.367  22.841  1.00  0.00     0.271 C 
ATOM     85  H   UNL A   1      30.643  26.884  22.465  1.00  0.00     0.163 HD
ATOM     86  O   UNL A   1      28.568  27.651  23.486  1.00  0.00    -0.267 OA
BRANCH  84  87
ATOM     87  C   UNL A   1      28.942  29.761  22.508  1.00  0.00     0.151 A 
ATOM     88  C   UNL A   1      28.963  30.744  23.485  1.00  0.00     0.042 A 
ATOM     89  N   UNL A   1      28.501  29.994  21.245  1.00  0.00    -0.142 NA
ATOM     90  C   UNL A   1      28.552  32.022  23.130  1.00  0.00     0.072 A 
ATOM     91  N   UNL A   1      28.096  31.249  20.901  1.00  0.00    -0.112 NA
ATOM     92  C   UNL A   1      28.132  32.220  21.833  1.00  0.00     0.230 A 
BRANCH  92  93
ATOM     93  O   UNL A   1      27.717  33.449  21.428  1.00  0.00    -0.492 OA
ATOM     94  H   UNL A   1      27.295  34.024  22.035  1.00  0.00     0.295 HD
ENDBRANCH  92  93
ENDBRANCH  84  87
ENDBRANCH  82  83
ENDBRANCH  81  82
ENDBRANCH  74  77
ENDBRANCH  72  73
ENDBRANCH   1  72
TORSDOF 17
ENDMDL
MODEL 2
REMARK VINA RESULT:     -11.6      6.829     12.035
REMARK SMILES O=C(NCCCNC(=O)[C@@H]1CC[C@@H](CNC(=O)c2ccc(O)nn2)O1)c1ccc(-c2c3nc(c(-c4cc(S(=O)(=O)[O-])ccc4F)c4ccc([nH]4)c(-c4cc(S(=O)(=O)[O-])ccc4F)c4nc(c(-c5cc(S(=O)(=O)[O-])ccc5F)c5ccc2[nH]5)C=C4)C=C3)cc1
REMARK SMILES IDX 5 1 4 2 3 3 1 4 2 5 26 7 27 8 88 9 28 10 87 11 29 12 30 13
REMARK SMILES IDX 31 14 81 15 32 16 86 17 80 18 82 19 33 20 85 21 79 22 78 23
REMARK SMILES IDX 34 25 66 26 46 27 65 28 47 29 50 30 64 31 83 32 48 33 49 34
REMARK SMILES IDX 63 36 84 37 51 38 35 39 36 40 44 41 37 42 43 43 45 44 42 45
REMARK SMILES IDX 38 46 39 47 40 48 41 49 67 50 68 51 76 52 69 53 75 54 77 55
REMARK SMILES IDX 74 56 70 57 71 58 72 59 73 60 52 61 53 62 61 63 54 64 60 65
REMARK SMILES IDX 62 66 59 67 55 68 56 69 57 70 58 71 6 72 7 73 8 74 9 76
REMARK SMILES IDX 10 77 11 78 25 79 12 80 13 81 14 82 15 83 16 84 17 86 18 87
REMARK SMILES IDX 19 88 24 89 20 90 23 91 21 92 22 93
REMARK H PARENT 3 6 82 24 50 35 7 75 15 85 22 94
REMARK Flexibility Score: inf
ROOT
ATOM      1  C   UNL A   1      38.632  19.321  25.287  1.00  0.00     0.042 C 
ENDROOT
BRANCH   1   2
ATOM      2  C   UNL A   1      39.728  19.889  26.185  1.00  0.00     0.118 C 
BRANCH   2   3
ATOM      3  N   UNL A   1      40.978  19.150  26.057  1.00  0.00    -0.352 N 
ATOM      4  O   UNL A   1      43.164  18.847  25.632  1.00  0.00    -0.269 OA
ATOM      5  C   UNL A   1      42.268  19.608  26.007  1.00  0.00     0.251 C 
ATOM      6  H   UNL A   1      40.881  18.172  25.997  1.00  0.00     0.163 HD
BRANCH   5   7
ATOM      7  C   UNL A   1      42.587  20.995  26.394  1.00  0.00     0.039 A 
ATOM      8  C   UNL A   1      42.706  21.348  27.742  1.00  0.00     0.014 A 
ATOM      9  C   UNL A   1      42.818  21.948  25.396  1.00  0.00     0.014 A 
ATOM     10  C   UNL A   1      42.944  22.673  28.094  1.00  0.00     0.010 A 
ATOM     11  C   UNL A   1      43.109  23.268  25.750  1.00  0.00     0.010 A 
ATOM     12  C   UNL A   1      43.145  23.645  27.101  1.00  0.00    -0.014 A 
BRANCH  12  13
ATOM     13  C   UNL A   1      43.427  25.045  27.495  1.00  0.00     0.031 A 
ATOM     14  C   UNL A   1      44.786  25.643  27.272  1.00  0.00     0.074 A 
ATOM     15  C   UNL A   1      42.437  25.785  28.028  1.00  0.00     0.049 A 
ATOM     16  N   UNL A   1      45.192  26.864  27.504  1.00  0.00    -0.248 NA
ATOM     17  C   UNL A   1      45.825  24.760  26.717  1.00  0.00     0.031 C 
ATOM     18  C   UNL A   1      41.081  25.300  28.290  1.00  0.00     0.029 A 
ATOM     19  N   UNL A   1      42.410  27.094  28.438  1.00  0.00    -0.354 N 
ATOM     20  C   UNL A   1      46.527  26.901  27.120  1.00  0.00     0.074 A 
ATOM     21  C   UNL A   1      46.876  25.569  26.677  1.00  0.00     0.031 C 
ATOM     22  C   UNL A   1      40.347  26.305  28.790  1.00  0.00     0.029 A 
ATOM     23  C   UNL A   1      41.187  27.493  28.923  1.00  0.00     0.049 A 
ATOM     24  H   UNL A   1      43.193  27.690  28.389  1.00  0.00     0.167 HD
ATOM     25  C   UNL A   1      47.374  27.956  27.123  1.00  0.00     0.034 A 
ATOM     26  C   UNL A   1      40.787  28.680  29.423  1.00  0.00     0.034 A 
ATOM     27  C   UNL A   1      47.013  29.278  27.568  1.00  0.00     0.049 A 
ATOM     28  C   UNL A   1      41.762  29.826  29.451  1.00  0.00     0.074 A 
ATOM     29  C   UNL A   1      47.798  30.418  27.581  1.00  0.00     0.029 A 
ATOM     30  N   UNL A   1      45.774  29.639  28.075  1.00  0.00    -0.354 N 
ATOM     31  N   UNL A   1      43.001  29.862  29.022  1.00  0.00    -0.248 NA
ATOM     32  C   UNL A   1      41.289  31.095  30.022  1.00  0.00     0.031 C 
ATOM     33  C   UNL A   1      47.050  31.455  28.141  1.00  0.00     0.029 A 
ATOM     34  C   UNL A   1      45.780  30.979  28.425  1.00  0.00     0.049 A 
ATOM     35  H   UNL A   1      45.004  29.034  28.171  1.00  0.00     0.167 HD
ATOM     36  C   UNL A   1      43.447  31.160  29.248  1.00  0.00     0.074 A 
ATOM     37  C   UNL A   1      42.340  31.884  29.837  1.00  0.00     0.031 C 
ATOM     38  C   UNL A   1      44.666  31.699  28.993  1.00  0.00     0.034 A 
BRANCH  25  39
ATOM     39  C   UNL A   1      48.777  27.756  26.614  1.00  0.00     0.023 A 
ATOM     40  C   UNL A   1      49.053  27.868  25.239  1.00  0.00     0.031 A 
ATOM     41  C   UNL A   1      49.803  27.317  27.469  1.00  0.00     0.131 A 
ATOM     42  C   UNL A   1      50.317  27.511  24.755  1.00  0.00     0.055 A 
ATOM     43  C   UNL A   1      51.070  26.991  26.985  1.00  0.00     0.041 A 
ATOM     44  F   UNL A   1      49.586  27.199  28.789  1.00  0.00    -0.206 F 
ATOM     45  C   UNL A   1      51.328  27.077  25.619  1.00  0.00     0.022 A 
BRANCH  42  46
ATOM     46  S   UNL A   1      50.687  27.558  22.980  1.00  0.00     0.124 S 
ATOM     47  O   UNL A   1      49.554  26.827  22.415  1.00  0.00    -0.237 OA
ATOM     48  O   UNL A   1      50.701  28.993  22.711  1.00  0.00    -0.237 OA
ATOM     49  O   UNL A   1      51.973  26.880  22.873  1.00  0.00    -0.744 OA
ENDBRANCH  42  46
ENDBRANCH  25  39
BRANCH  26  50
ATOM     50  C   UNL A   1      39.377  28.836  29.875  1.00  0.00     0.023 A 
ATOM     51  C   UNL A   1      38.401  29.384  29.023  1.00  0.00     0.031 A 
ATOM     52  C   UNL A   1      39.011  28.536  31.198  1.00  0.00     0.131 A 
ATOM     53  C   UNL A   1      37.124  29.668  29.521  1.00  0.00     0.055 A 
ATOM     54  C   UNL A   1      37.719  28.764  31.673  1.00  0.00     0.041 A 
ATOM     55  F   UNL A   1      39.914  28.023  32.048  1.00  0.00    -0.206 F 
ATOM     56  C   UNL A   1      36.771  29.346  30.837  1.00  0.00     0.022 A 
BRANCH  53  57
ATOM     57  S   UNL A   1      35.906  30.553  28.510  1.00  0.00     0.124 S 
ATOM     58  O   UNL A   1      35.138  29.458  27.926  1.00  0.00    -0.237 OA
ATOM     59  O   UNL A   1      35.207  31.347  29.518  1.00  0.00    -0.237 OA
ATOM     60  O   UNL A   1      36.725  31.317  27.574  1.00  0.00    -0.744 OA
ENDBRANCH  53  57
ENDBRANCH  26  50
BRANCH  38  61
ATOM     61  C   UNL A   1      44.897  33.152  29.326  1.00  0.00     0.023 A 
ATOM     62  C   UNL A   1      44.778  34.129  28.320  1.00  0.00     0.031 A 
ATOM     63  C   UNL A   1      45.385  33.542  30.584  1.00  0.00     0.131 A 
ATOM     64  C   UNL A   1      45.185  35.444  28.577  1.00  0.00     0.055 A 
ATOM     65  C   UNL A   1      45.749  34.863  30.849  1.00  0.00     0.041 A 
ATOM     66  F   UNL A   1      45.524  32.641  31.570  1.00  0.00    -0.206 F 
ATOM     67  C   UNL A   1      45.662  35.817  29.838  1.00  0.00     0.022 A 
BRANCH  64  68
ATOM     68  S   UNL A   1      45.174  36.699  27.268  1.00  0.00     0.124 S 
ATOM     69  O   UNL A   1      45.830  37.828  27.924  1.00  0.00    -0.237 OA
ATOM     70  O   UNL A   1      45.953  36.050  26.217  1.00  0.00    -0.237 OA
ATOM     71  O   UNL A   1      43.757  36.891  26.975  1.00  0.00    -0.744 OA
ENDBRANCH  64  68
ENDBRANCH  38  61
ENDBRANCH  12  13
ENDBRANCH   5   7
ENDBRANCH   2   3
ENDBRANCH   1   2
BRANCH   1  72
ATOM     72  C   UNL A   1      37.722  20.386  24.688  1.00  0.00     0.117 C 
BRANCH  72  73
ATOM     73  N   UNL A   1      38.117  21.732  25.058  1.00  0.00    -0.354 N 
ATOM     74  C   UNL A   1      37.341  22.796  25.414  1.00  0.00     0.249 C 
ATOM     75  H   UNL A   1      39.087  21.902  25.051  1.00  0.00     0.163 HD
ATOM     76  O   UNL A   1      37.907  23.855  25.698  1.00  0.00    -0.272 OA
BRANCH  74  77
ATOM     77  C   UNL A   1      35.814  22.659  25.531  1.00  0.00     0.207 C 
ATOM     78  C   UNL A   1      35.158  23.943  26.015  1.00  0.00     0.045 C 
ATOM     79  O   UNL A   1      35.363  21.605  26.387  1.00  0.00    -0.363 OA
ATOM     80  C   UNL A   1      33.861  23.448  26.604  1.00  0.00     0.037 C 
ATOM     81  C   UNL A   1      34.219  22.064  27.133  1.00  0.00     0.138 C 
BRANCH  81  82
ATOM     82  C   UNL A   1      33.067  21.049  27.064  1.00  0.00     0.148 C 
BRANCH  82  83
ATOM     83  N   UNL A   1      32.350  21.099  25.794  1.00  0.00    -0.348 N 
ATOM     84  C   UNL A   1      32.464  20.236  24.728  1.00  0.00     0.271 C 
ATOM     85  H   UNL A   1      31.711  21.840  25.686  1.00  0.00     0.163 HD
ATOM     86  O   UNL A   1      32.055  20.590  23.623  1.00  0.00    -0.267 OA
BRANCH  84  87
ATOM     87  C   UNL A   1      33.084  18.897  24.896  1.00  0.00     0.151 A 
ATOM     88  C   UNL A   1      34.369  18.661  24.434  1.00  0.00     0.042 A 
ATOM     89  N   UNL A   1      32.314  17.923  25.444  1.00  0.00    -0.142 NA
ATOM     90  C   UNL A   1      34.889  17.381  24.582  1.00  0.00     0.072 A 
ATOM     91  N   UNL A   1      32.824  16.668  25.586  1.00  0.00    -0.112 NA
ATOM     92  C   UNL A   1      34.080  16.428  25.162  1.00  0.00     0.230 A 
BRANCH  92  93
ATOM     93  O   UNL A   1      34.533  15.159  25.332  1.00  0.00    -0.492 OA
ATOM     94  H   UNL A   1      34.466  14.540  24.632  1.00  0.00     0.295 HD
ENDBRANCH  92  93
ENDBRANCH  84  87
ENDBRANCH  82  83
ENDBRANCH  81  82
ENDBRANCH  74  77
ENDBRANCH  72  73
ENDBRANCH   1  72
TORSDOF 17
ENDMDL
MODEL 3
REMARK VINA RESULT:     -11.6      1.830      3.222
REMARK SMILES O=C(NCCCNC(=O)[C@@H]1CC[C@@H](CNC(=O)c2ccc(O)nn2)O1)c1ccc(-c2c3nc(c(-c4cc(S(=O)(=O)[O-])ccc4F)c4ccc([nH]4)c(-c4cc(S(=O)(=O)[O-])ccc4F)c4nc(c(-c5cc(S(=O)(=O)[O-])ccc5F)c5ccc2[nH]5)C=C4)C=C3)cc1
REMARK SMILES IDX 5 1 4 2 3 3 1 4 2 5 26 7 27 8 88 9 28 10 87 11 29 12 30 13
REMARK SMILES IDX 31 14 81 15 32 16 86 17 80 18 82 19 33 20 85 21 79 22 78 23
REMARK SMILES IDX 34 25 66 26 46 27 65 28 47 29 50 30 64 31 83 32 48 33 49 34
REMARK SMILES IDX 63 36 84 37 51 38 35 39 36 40 44 41 37 42 43 43 45 44 42 45
REMARK SMILES IDX 38 46 39 47 40 48 41 49 67 50 68 51 76 52 69 53 75 54 77 55
REMARK SMILES IDX 74 56 70 57 71 58 72 59 73 60 52 61 53 62 61 63 54 64 60 65
REMARK SMILES IDX 62 66 59 67 55 68 56 69 57 70 58 71 6 72 7 73 8 74 9 76
REMARK SMILES IDX 10 77 11 78 25 79 12 80 13 81 14 82 15 83 16 84 17 86 18 87
REMARK SMILES IDX 19 88 24 89 20 90 23 91 21 92 22 93
REMARK H PARENT 3 6 82 24 50 35 7 75 15 85 22 94
REMARK Flexibility Score: inf
ROOT
ATOM      1  C   UNL A   1      31.347  31.905  26.369  1.00  0.00     0.042 C 
ENDROOT
BRANCH   1   2
ATOM      2  C   UNL A   1      32.648  32.349  27.033  1.00  0.00     0.118 C 
BRANCH   2   3
ATOM      3  N   UNL A   1      32.579  33.726  27.507  1.00  0.00    -0.352 N 
ATOM      4  O   UNL A   1      32.866  35.435  28.937  1.00  0.00    -0.269 OA
ATOM      5  C   UNL A   1      33.258  34.340  28.526  1.00  0.00     0.251 C 
ATOM      6  H   UNL A   1      31.947  34.303  27.020  1.00  0.00     0.163 HD
BRANCH   5   7
ATOM      7  C   UNL A   1      34.443  33.701  29.129  1.00  0.00     0.039 A 
ATOM      8  C   UNL A   1      35.731  34.118  28.778  1.00  0.00     0.014 A 
ATOM      9  C   UNL A   1      34.266  32.705  30.095  1.00  0.00     0.014 A 
ATOM     10  C   UNL A   1      36.839  33.465  29.307  1.00  0.00     0.010 A 
ATOM     11  C   UNL A   1      35.381  32.085  30.664  1.00  0.00     0.010 A 
ATOM     12  C   UNL A   1      36.673  32.440  30.253  1.00  0.00    -0.014 A 
BRANCH  12  13
ATOM     13  C   UNL A   1      37.867  31.776  30.827  1.00  0.00     0.031 A 
ATOM     14  C   UNL A   1      38.321  32.092  32.223  1.00  0.00     0.074 A 
ATOM     15  C   UNL A   1      38.522  30.860  30.089  1.00  0.00     0.049 A 
ATOM     16  N   UNL A   1      39.306  31.567  32.903  1.00  0.00    -0.248 NA
ATOM     17  C   UNL A   1      37.574  33.130  32.952  1.00  0.00     0.031 C 
ATOM     18  C   UNL A   1      38.167  30.480  28.721  1.00  0.00     0.029 A 
ATOM     19  N   UNL A   1      39.611  30.079  30.382  1.00  0.00    -0.354 N 
ATOM     20  C   UNL A   1      39.297  32.202  34.139  1.00  0.00     0.074 A 
ATOM     21  C   UNL A   1      38.233  33.181  34.102  1.00  0.00     0.031 C 
ATOM     22  C   UNL A   1      39.005  29.520  28.303  1.00  0.00     0.029 A 
ATOM     23  C   UNL A   1      39.981  29.244  29.354  1.00  0.00     0.049 A 
ATOM     24  H   UNL A   1      40.084  30.114  31.245  1.00  0.00     0.167 HD
ATOM     25  C   UNL A   1      40.095  31.973  35.208  1.00  0.00     0.034 A 
ATOM     26  C   UNL A   1      40.993  28.358  29.265  1.00  0.00     0.034 A 
ATOM     27  C   UNL A   1      41.151  30.995  35.230  1.00  0.00     0.049 A 
ATOM     28  C   UNL A   1      41.890  28.151  30.456  1.00  0.00     0.074 A 
ATOM     29  C   UNL A   1      41.995  30.673  36.279  1.00  0.00     0.029 A 
ATOM     30  N   UNL A   1      41.512  30.184  34.164  1.00  0.00    -0.354 N 
ATOM     31  N   UNL A   1      41.826  28.712  31.640  1.00  0.00    -0.248 NA
ATOM     32  C   UNL A   1      42.991  27.190  30.308  1.00  0.00     0.031 C 
ATOM     33  C   UNL A   1      42.895  29.705  35.833  1.00  0.00     0.029 A 
ATOM     34  C   UNL A   1      42.580  29.380  34.524  1.00  0.00     0.049 A 
ATOM     35  H   UNL A   1      41.074  30.182  33.282  1.00  0.00     0.167 HD
ATOM     36  C   UNL A   1      42.861  28.155  32.385  1.00  0.00     0.074 A 
ATOM     37  C   UNL A   1      43.526  27.200  31.523  1.00  0.00     0.031 C 
ATOM     38  C   UNL A   1      43.225  28.416  33.665  1.00  0.00     0.034 A 
BRANCH  25  39
ATOM     39  C   UNL A   1      39.861  32.769  36.465  1.00  0.00     0.023 A 
ATOM     40  C   UNL A   1      38.917  32.332  37.413  1.00  0.00     0.031 A 
ATOM     41  C   UNL A   1      40.466  34.024  36.652  1.00  0.00     0.131 A 
ATOM     42  C   UNL A   1      38.581  33.162  38.488  1.00  0.00     0.055 A 
ATOM     43  C   UNL A   1      40.148  34.834  37.743  1.00  0.00     0.041 A 
ATOM     44  F   UNL A   1      41.375  34.479  35.775  1.00  0.00    -0.206 F 
ATOM     45  C   UNL A   1      39.193  34.408  38.661  1.00  0.00     0.022 A 
BRANCH  42  46
ATOM     46  S   UNL A   1      37.308  32.674  39.684  1.00  0.00     0.124 S 
ATOM     47  O   UNL A   1      37.416  33.731  40.689  1.00  0.00    -0.237 OA
ATOM     48  O   UNL A   1      36.097  32.708  38.870  1.00  0.00    -0.237 OA
ATOM     49  O   UNL A   1      37.735  31.353  40.131  1.00  0.00    -0.744 OA
ENDBRANCH  42  46
ENDBRANCH  25  39
BRANCH  26  50
ATOM     50  C   UNL A   1      41.155  27.567  28.013  1.00  0.00     0.023 A 
ATOM     51  C   UNL A   1      40.874  26.189  27.988  1.00  0.00     0.031 A 
ATOM     52  C   UNL A   1      41.690  28.158  26.857  1.00  0.00     0.131 A 
ATOM     53  C   UNL A   1      41.185  25.438  26.847  1.00  0.00     0.055 A 
ATOM     54  C   UNL A   1      41.941  27.417  25.702  1.00  0.00     0.041 A 
ATOM     55  F   UNL A   1      41.984  29.467  26.842  1.00  0.00    -0.206 F 
ATOM     56  C   UNL A   1      41.702  26.046  25.697  1.00  0.00     0.022 A 
BRANCH  53  57
ATOM     57  S   UNL A   1      41.021  23.632  26.849  1.00  0.00     0.124 S 
ATOM     58  O   UNL A   1      39.630  23.449  26.443  1.00  0.00    -0.237 OA
ATOM     59  O   UNL A   1      42.023  23.243  25.860  1.00  0.00    -0.237 OA
ATOM     60  O   UNL A   1      41.328  23.259  28.226  1.00  0.00    -0.744 OA
ENDBRANCH  53  57
ENDBRANCH  26  50
BRANCH  38  61
ATOM     61  C   UNL A   1      44.391  27.661  34.251  1.00  0.00     0.023 A 
ATOM     62  C   UNL A   1      44.169  26.462  34.955  1.00  0.00     0.031 A 
ATOM     63  C   UNL A   1      45.686  28.206  34.251  1.00  0.00     0.131 A 
ATOM     64  C   UNL A   1      45.218  25.869  35.667  1.00  0.00     0.055 A 
ATOM     65  C   UNL A   1      46.739  27.588  34.926  1.00  0.00     0.041 A 
ATOM     66  F   UNL A   1      45.943  29.352  33.601  1.00  0.00    -0.206 F 
ATOM     67  C   UNL A   1      46.504  26.421  35.650  1.00  0.00     0.022 A 
BRANCH  64  68
ATOM     68  S   UNL A   1      44.939  24.401  36.694  1.00  0.00     0.124 S 
ATOM     69  O   UNL A   1      44.056  24.921  37.735  1.00  0.00    -0.237 OA
ATOM     70  O   UNL A   1      44.313  23.481  35.749  1.00  0.00    -0.237 OA
ATOM     71  O   UNL A   1      46.276  24.027  37.145  1.00  0.00    -0.744 OA
ENDBRANCH  64  68
ENDBRANCH  38  61
ENDBRANCH  12  13
ENDBRANCH   5   7
ENDBRANCH   2   3
ENDBRANCH   1   2
BRANCH   1  72
ATOM     72  C   UNL A   1      31.419  30.509  25.763  1.00  0.00     0.117 C 
BRANCH  72  73
ATOM     73  N   UNL A   1      30.579  30.366  24.588  1.00  0.00    -0.354 N 
ATOM     74  C   UNL A   1      30.673  29.476  23.558  1.00  0.00     0.249 C 
ATOM     75  H   UNL A   1      29.831  31.004  24.526  1.00  0.00     0.163 HD
ATOM     76  O   UNL A   1      29.830  29.541  22.659  1.00  0.00    -0.272 OA
BRANCH  74  77
ATOM     77  C   UNL A   1      31.752  28.381  23.553  1.00  0.00     0.207 C 
ATOM     78  C   UNL A   1      33.092  28.897  23.051  1.00  0.00     0.045 C 
ATOM     79  O   UNL A   1      31.432  27.217  22.784  1.00  0.00    -0.363 OA
ATOM     80  C   UNL A   1      33.773  27.637  22.578  1.00  0.00     0.037 C 
ATOM     81  C   UNL A   1      32.617  26.770  22.096  1.00  0.00     0.138 C 
BRANCH  81  82
ATOM     82  C   UNL A   1      32.837  25.262  22.295  1.00  0.00     0.148 C 
BRANCH  82  83
ATOM     83  N   UNL A   1      33.979  24.971  23.156  1.00  0.00    -0.348 N 
ATOM     84  C   UNL A   1      33.961  24.531  24.460  1.00  0.00     0.271 C 
ATOM     85  H   UNL A   1      34.869  25.108  22.757  1.00  0.00     0.163 HD
ATOM     86  O   UNL A   1      34.974  24.651  25.148  1.00  0.00    -0.267 OA
BRANCH  84  87
ATOM     87  C   UNL A   1      32.734  23.933  25.043  1.00  0.00     0.151 A 
ATOM     88  C   UNL A   1      31.856  24.716  25.775  1.00  0.00     0.042 A 
ATOM     89  N   UNL A   1      32.564  22.595  24.888  1.00  0.00    -0.142 NA
ATOM     90  C   UNL A   1      30.742  24.099  26.331  1.00  0.00     0.072 A 
ATOM     91  N   UNL A   1      31.472  21.991  25.436  1.00  0.00    -0.112 NA
ATOM     92  C   UNL A   1      30.599  22.744  26.132  1.00  0.00     0.230 A 
BRANCH  92  93
ATOM     93  O   UNL A   1      29.530  22.085  26.652  1.00  0.00    -0.492 OA
ATOM     94  H   UNL A   1      28.900  21.690  26.082  1.00  0.00     0.295 HD
ENDBRANCH  92  93
ENDBRANCH  84  87
ENDBRANCH  82  83
ENDBRANCH  81  82
ENDBRANCH  74  77
ENDBRANCH  72  73
ENDBRANCH   1  72
TORSDOF 17
ENDMDL
