MODEL 1
REMARK VINA RESULT:     -13.9      0.000      0.000
REMARK SMILES C[C@H]1CCc2sc3ncn4nc(/C=C\C(=O)NCCCNC(=O)c5ccc(-c6c7nc(c(-c8cc(S(=O)(=O)[O-])ccc8F)c8ccc([nH]8)c(-c8cc(S(=O)(=O)[O-])ccc8F)c8nc(c(-c9cc(S(=O)(=O)[O-])ccc9F)c9ccc6[nH]9)C=C8)C=C7)cc5)nc4c3c2C1
REMARK SMILES IDX 20 1 19 2 18 3 17 4 15 5 16 6 14 8 13 9 12 10 1 11 2 12 3 13
REMARK SMILES IDX 91 14 4 15 90 16 5 17 89 18 6 19 7 20 88 21 8 22 10 23 87 24
REMARK SMILES IDX 9 25 11 26 21 27 22 28 23 30 24 31 25 32 86 33 26 34 85 35
REMARK SMILES IDX 27 36 28 37 29 38 79 39 30 40 84 41 78 42 80 43 31 44 83 45
REMARK SMILES IDX 77 46 76 47 32 49 64 50 44 51 63 52 45 53 48 54 62 55 81 56
REMARK SMILES IDX 46 57 47 58 61 60 82 61 49 62 33 63 34 64 42 65 35 66 41 67
REMARK SMILES IDX 43 68 40 69 36 70 37 71 38 72 39 73 65 74 66 75 74 76 67 77
REMARK SMILES IDX 73 78 75 79 72 80 68 81 69 82 70 83 71 84 50 85 51 86 59 87
REMARK SMILES IDX 52 88 58 89 60 90 57 91 53 92 54 93 55 94 56 95
REMARK H PARENT 17 7 21 29 80 48 48 59
REMARK Flexibility Score: inf
ROOT
ATOM      1  C   UNL A   1      35.291  29.715  27.726  1.00  0.00     0.118 C 
ENDROOT
BRANCH   1   2
ATOM      2  C   UNL A   1      34.030  30.473  27.310  1.00  0.00     0.042 C 
BRANCH   2   3
ATOM      3  C   UNL A   1      33.275  29.720  26.236  1.00  0.00     0.118 C 
BRANCH   3   4
ATOM      4  N   UNL A   1      33.975  29.216  25.081  1.00  0.00    -0.352 N 
ATOM      5  C   UNL A   1      33.478  28.931  23.844  1.00  0.00     0.244 C 
ATOM      6  O   UNL A   1      34.247  28.733  22.904  1.00  0.00    -0.270 OA
ATOM      7  H   UNL A   1      34.939  29.056  25.201  1.00  0.00     0.163 HD
BRANCH   5   8
ATOM      8  C   UNL A   1      32.038  28.635  23.642  1.00  0.00     0.075 C 
ATOM      9  C   UNL A   1      31.195  27.736  24.180  1.00  0.00     0.057 C 
BRANCH   9  10
ATOM     10  C   UNL A   1      31.430  26.699  25.137  1.00  0.00     0.175 A 
ATOM     11  C   UNL A   1      37.791  23.994  25.921  1.00  0.00     0.008 C 
ATOM     12  C   UNL A   1      36.919  23.525  24.765  1.00  0.00    -0.009 C 
ATOM     13  C   UNL A   1      36.891  21.987  24.713  1.00  0.00     0.009 C 
ATOM     14  C   UNL A   1      35.508  24.149  24.826  1.00  0.00     0.041 C 
ATOM     15  C   UNL A   1      36.043  21.320  25.808  1.00  0.00     0.047 C 
ATOM     16  C   UNL A   1      34.574  23.433  25.752  1.00  0.00    -0.020 A 
ATOM     17  C   UNL A   1      34.838  22.141  26.174  1.00  0.00     0.011 A 
ATOM     18  C   UNL A   1      33.276  23.829  26.191  1.00  0.00     0.060 A 
ATOM     19  S   UNL A   1      33.608  21.499  27.173  1.00  0.00    -0.120 S 
ATOM     20  C   UNL A   1      32.578  22.826  26.858  1.00  0.00     0.129 A 
ATOM     21  C   UNL A   1      32.450  25.030  25.923  1.00  0.00     0.168 A 
ATOM     22  N   UNL A   1      31.240  22.796  27.186  1.00  0.00    -0.225 NA
ATOM     23  N   UNL A   1      31.116  24.934  26.196  1.00  0.00    -0.201 N 
ATOM     24  N   UNL A   1      32.697  26.170  25.318  1.00  0.00    -0.207 NA
ATOM     25  C   UNL A   1      30.529  23.816  26.784  1.00  0.00     0.227 A 
ATOM     26  N   UNL A   1      30.434  25.989  25.704  1.00  0.00    -0.145 NA
ENDBRANCH   9  10
ENDBRANCH   5   8
ENDBRANCH   3   4
ENDBRANCH   2   3
ENDBRANCH   1   2
BRANCH   1  27
ATOM     27  N   UNL A   1      35.785  30.028  29.090  1.00  0.00    -0.352 N 
ATOM     28  C   UNL A   1      36.799  29.393  29.828  1.00  0.00     0.251 C 
ATOM     29  H   UNL A   1      35.343  30.784  29.540  1.00  0.00     0.163 HD
ATOM     30  O   UNL A   1      36.699  29.299  31.037  1.00  0.00    -0.269 OA
BRANCH  28  31
ATOM     31  C   UNL A   1      37.983  28.864  29.105  1.00  0.00     0.039 A 
ATOM     32  C   UNL A   1      38.575  29.414  27.967  1.00  0.00     0.014 A 
ATOM     33  C   UNL A   1      38.555  27.751  29.673  1.00  0.00     0.014 A 
ATOM     34  C   UNL A   1      39.797  28.874  27.534  1.00  0.00     0.010 A 
ATOM     35  C   UNL A   1      39.889  27.558  29.540  1.00  0.00     0.010 A 
ATOM     36  C   UNL A   1      40.480  27.969  28.374  1.00  0.00    -0.014 A 
BRANCH  36  37
ATOM     37  C   UNL A   1      41.921  27.759  28.359  1.00  0.00     0.031 A 
ATOM     38  C   UNL A   1      42.186  26.543  27.555  1.00  0.00     0.074 A 
ATOM     39  C   UNL A   1      42.877  28.665  28.683  1.00  0.00     0.049 A 
ATOM     40  N   UNL A   1      42.165  25.338  28.021  1.00  0.00    -0.248 NA
ATOM     41  C   UNL A   1      42.038  26.603  26.084  1.00  0.00     0.031 C 
ATOM     42  C   UNL A   1      42.763  30.041  29.178  1.00  0.00     0.029 A 
ATOM     43  N   UNL A   1      44.229  28.508  28.604  1.00  0.00    -0.354 N 
ATOM     44  C   UNL A   1      42.392  24.539  26.918  1.00  0.00     0.074 A 
ATOM     45  C   UNL A   1      41.931  25.302  25.795  1.00  0.00     0.031 C 
ATOM     46  C   UNL A   1      43.985  30.637  29.194  1.00  0.00     0.029 A 
ATOM     47  C   UNL A   1      45.000  29.654  28.844  1.00  0.00     0.049 A 
ATOM     48  H   UNL A   1      44.640  27.639  28.392  1.00  0.00     0.167 HD
ATOM     49  C   UNL A   1      43.318  23.546  26.998  1.00  0.00     0.034 A 
ATOM     50  C   UNL A   1      46.369  29.739  28.842  1.00  0.00     0.034 A 
ATOM     51  C   UNL A   1      43.684  23.316  28.387  1.00  0.00     0.049 A 
ATOM     52  C   UNL A   1      46.844  28.349  29.091  1.00  0.00     0.074 A 
ATOM     53  C   UNL A   1      42.992  22.974  29.534  1.00  0.00     0.029 A 
ATOM     54  N   UNL A   1      44.841  23.925  28.822  1.00  0.00    -0.354 N 
ATOM     55  N   UNL A   1      46.593  27.702  30.198  1.00  0.00    -0.248 NA
ATOM     56  C   UNL A   1      47.089  27.519  27.923  1.00  0.00     0.031 C 
ATOM     57  C   UNL A   1      43.536  23.805  30.562  1.00  0.00     0.029 A 
ATOM     58  C   UNL A   1      44.609  24.528  30.036  1.00  0.00     0.049 A 
ATOM     59  H   UNL A   1      45.699  23.927  28.340  1.00  0.00     0.167 HD
ATOM     60  C   UNL A   1      46.215  26.430  29.792  1.00  0.00     0.074 A 
ATOM     61  C   UNL A   1      46.589  26.365  28.374  1.00  0.00     0.031 C 
ATOM     62  C   UNL A   1      45.351  25.676  30.538  1.00  0.00     0.034 A 
BRANCH  49  63
ATOM     63  C   UNL A   1      44.210  23.130  25.850  1.00  0.00     0.023 A 
ATOM     64  C   UNL A   1      44.157  21.780  25.468  1.00  0.00     0.031 A 
ATOM     65  C   UNL A   1      45.264  23.887  25.279  1.00  0.00     0.131 A 
ATOM     66  C   UNL A   1      45.140  21.228  24.630  1.00  0.00     0.055 A 
ATOM     67  C   UNL A   1      46.211  23.344  24.410  1.00  0.00     0.041 A 
ATOM     68  F   UNL A   1      45.503  25.166  25.584  1.00  0.00    -0.206 F 
ATOM     69  C   UNL A   1      46.169  22.001  24.099  1.00  0.00     0.022 A 
BRANCH  66  70
ATOM     70  S   UNL A   1      45.110  19.446  24.330  1.00  0.00     0.124 S 
ATOM     71  O   UNL A   1      44.149  18.995  25.328  1.00  0.00    -0.237 OA
ATOM     72  O   UNL A   1      44.672  19.387  22.939  1.00  0.00    -0.237 OA
ATOM     73  O   UNL A   1      46.494  19.042  24.563  1.00  0.00    -0.744 OA
ENDBRANCH  66  70
ENDBRANCH  49  63
BRANCH  50  74
ATOM     74  C   UNL A   1      47.245  30.744  28.129  1.00  0.00     0.023 A 
ATOM     75  C   UNL A   1      46.720  31.788  27.312  1.00  0.00     0.031 A 
ATOM     76  C   UNL A   1      48.606  30.863  28.478  1.00  0.00     0.131 A 
ATOM     77  C   UNL A   1      47.537  32.880  26.908  1.00  0.00     0.055 A 
ATOM     78  C   UNL A   1      49.400  31.951  28.091  1.00  0.00     0.041 A 
ATOM     79  F   UNL A   1      49.194  29.968  29.285  1.00  0.00    -0.206 F 
ATOM     80  C   UNL A   1      48.867  32.970  27.317  1.00  0.00     0.022 A 
BRANCH  77  81
ATOM     81  S   UNL A   1      46.867  34.274  25.925  1.00  0.00     0.124 S 
ATOM     82  O   UNL A   1      45.691  33.675  25.305  1.00  0.00    -0.237 OA
ATOM     83  O   UNL A   1      46.619  35.292  26.939  1.00  0.00    -0.237 OA
ATOM     84  O   UNL A   1      47.954  34.591  24.996  1.00  0.00    -0.744 OA
ENDBRANCH  77  81
ENDBRANCH  50  74
BRANCH  62  85
ATOM     85  C   UNL A   1      45.055  26.116  31.966  1.00  0.00     0.023 A 
ATOM     86  C   UNL A   1      43.913  26.831  32.411  1.00  0.00     0.031 A 
ATOM     87  C   UNL A   1      45.947  25.647  32.945  1.00  0.00     0.131 A 
ATOM     88  C   UNL A   1      43.708  27.041  33.798  1.00  0.00     0.055 A 
ATOM     89  C   UNL A   1      45.729  25.837  34.308  1.00  0.00     0.041 A 
ATOM     90  F   UNL A   1      47.035  24.946  32.586  1.00  0.00    -0.206 F 
ATOM     91  C   UNL A   1      44.610  26.535  34.740  1.00  0.00     0.022 A 
BRANCH  88  92
ATOM     92  S   UNL A   1      42.251  27.958  34.417  1.00  0.00     0.124 S 
ATOM     93  O   UNL A   1      41.788  27.137  35.530  1.00  0.00    -0.237 OA
ATOM     94  O   UNL A   1      42.812  29.258  34.772  1.00  0.00    -0.237 OA
ATOM     95  O   UNL A   1      41.346  27.985  33.265  1.00  0.00    -0.744 OA
ENDBRANCH  88  92
ENDBRANCH  62  85
ENDBRANCH  36  37
ENDBRANCH  28  31
ENDBRANCH   1  27
TORSDOF 14
ENDMDL
MODEL 2
REMARK VINA RESULT:     -13.6      4.295      5.581
REMARK SMILES C[C@H]1CCc2sc3ncn4nc(/C=C\C(=O)NCCCNC(=O)c5ccc(-c6c7nc(c(-c8cc(S(=O)(=O)[O-])ccc8F)c8ccc([nH]8)c(-c8cc(S(=O)(=O)[O-])ccc8F)c8nc(c(-c9cc(S(=O)(=O)[O-])ccc9F)c9ccc6[nH]9)C=C8)C=C7)cc5)nc4c3c2C1
REMARK SMILES IDX 20 1 19 2 18 3 17 4 15 5 16 6 14 8 13 9 12 10 1 11 2 12 3 13
REMARK SMILES IDX 91 14 4 15 90 16 5 17 89 18 6 19 7 20 88 21 8 22 10 23 87 24
REMARK SMILES IDX 9 25 11 26 21 27 22 28 23 30 24 31 25 32 86 33 26 34 85 35
REMARK SMILES IDX 27 36 28 37 29 38 79 39 30 40 84 41 78 42 80 43 31 44 83 45
REMARK SMILES IDX 77 46 76 47 32 49 64 50 44 51 63 52 45 53 48 54 62 55 81 56
REMARK SMILES IDX 46 57 47 58 61 60 82 61 49 62 33 63 34 64 42 65 35 66 41 67
REMARK SMILES IDX 43 68 40 69 36 70 37 71 38 72 39 73 65 74 66 75 74 76 67 77
REMARK SMILES IDX 73 78 75 79 72 80 68 81 69 82 70 83 71 84 50 85 51 86 59 87
REMARK SMILES IDX 52 88 58 89 60 90 57 91 53 92 54 93 55 94 56 95
REMARK H PARENT 17 7 21 29 80 48 48 59
REMARK Flexibility Score: inf
ROOT
ATOM      1  C   UNL A   1      32.976  30.223  27.134  1.00  0.00     0.118 C 
ENDROOT
BRANCH   1   2
ATOM      2  C   UNL A   1      32.030  29.240  26.443  1.00  0.00     0.042 C 
BRANCH   2   3
ATOM      3  C   UNL A   1      31.940  29.527  24.960  1.00  0.00     0.118 C 
BRANCH   3   4
ATOM      4  N   UNL A   1      30.737  30.096  24.407  1.00  0.00    -0.352 N 
ATOM      5  C   UNL A   1      29.863  29.539  23.521  1.00  0.00     0.244 C 
ATOM      6  O   UNL A   1      28.765  30.061  23.331  1.00  0.00    -0.270 OA
ATOM      7  H   UNL A   1      30.516  31.007  24.708  1.00  0.00     0.163 HD
BRANCH   5   8
ATOM      8  C   UNL A   1      30.281  28.441  22.614  1.00  0.00     0.075 C 
ATOM      9  C   UNL A   1      30.729  27.190  22.823  1.00  0.00     0.057 C 
BRANCH   9  10
ATOM     10  C   UNL A   1      30.997  26.490  24.041  1.00  0.00     0.175 A 
ATOM     11  C   UNL A   1      37.292  23.781  25.237  1.00  0.00     0.008 C 
ATOM     12  C   UNL A   1      36.315  23.030  24.345  1.00  0.00    -0.009 C 
ATOM     13  C   UNL A   1      36.224  21.557  24.780  1.00  0.00     0.009 C 
ATOM     14  C   UNL A   1      34.939  23.727  24.293  1.00  0.00     0.041 C 
ATOM     15  C   UNL A   1      35.440  21.316  26.080  1.00  0.00     0.047 C 
ATOM     16  C   UNL A   1      34.053  23.393  25.454  1.00  0.00    -0.020 A 
ATOM     17  C   UNL A   1      34.300  22.282  26.244  1.00  0.00     0.011 A 
ATOM     18  C   UNL A   1      32.809  23.984  25.827  1.00  0.00     0.060 A 
ATOM     19  S   UNL A   1      33.128  22.059  27.469  1.00  0.00    -0.120 S 
ATOM     20  C   UNL A   1      32.128  23.282  26.817  1.00  0.00     0.129 A 
ATOM     21  C   UNL A   1      32.012  25.089  25.246  1.00  0.00     0.168 A 
ATOM     22  N   UNL A   1      30.820  23.437  27.220  1.00  0.00    -0.225 NA
ATOM     23  N   UNL A   1      30.700  25.165  25.618  1.00  0.00    -0.201 N 
ATOM     24  N   UNL A   1      32.254  25.968  24.299  1.00  0.00    -0.207 NA
ATOM     25  C   UNL A   1      30.118  24.322  26.564  1.00  0.00     0.227 A 
ATOM     26  N   UNL A   1      30.023  26.054  24.862  1.00  0.00    -0.145 NA
ENDBRANCH   9  10
ENDBRANCH   5   8
ENDBRANCH   3   4
ENDBRANCH   2   3
ENDBRANCH   1   2
BRANCH   1  27
ATOM     27  N   UNL A   1      32.702  31.655  26.852  1.00  0.00    -0.352 N 
ATOM     28  C   UNL A   1      32.949  32.776  27.662  1.00  0.00     0.251 C 
ATOM     29  H   UNL A   1      32.293  31.845  25.977  1.00  0.00     0.163 HD
ATOM     30  O   UNL A   1      32.184  33.722  27.636  1.00  0.00    -0.269 OA
BRANCH  28  31
ATOM     31  C   UNL A   1      34.157  32.781  28.525  1.00  0.00     0.039 A 
ATOM     32  C   UNL A   1      34.348  32.037  29.691  1.00  0.00     0.014 A 
ATOM     33  C   UNL A   1      35.187  33.568  28.069  1.00  0.00     0.014 A 
ATOM     34  C   UNL A   1      35.628  32.038  30.270  1.00  0.00     0.010 A 
ATOM     35  C   UNL A   1      36.463  33.205  28.345  1.00  0.00     0.010 A 
ATOM     36  C   UNL A   1      36.705  32.590  29.545  1.00  0.00    -0.014 A 
BRANCH  36  37
ATOM     37  C   UNL A   1      38.098  32.198  29.716  1.00  0.00     0.031 A 
ATOM     38  C   UNL A   1      38.229  30.802  29.240  1.00  0.00     0.074 A 
ATOM     39  C   UNL A   1      39.155  33.024  29.915  1.00  0.00     0.049 A 
ATOM     40  N   UNL A   1      38.001  29.756  29.963  1.00  0.00    -0.248 NA
ATOM     41  C   UNL A   1      38.184  30.527  27.786  1.00  0.00     0.031 C 
ATOM     42  C   UNL A   1      39.215  34.481  30.071  1.00  0.00     0.029 A 
ATOM     43  N   UNL A   1      40.472  32.679  30.004  1.00  0.00    -0.354 N 
ATOM     44  C   UNL A   1      38.176  28.694  29.098  1.00  0.00     0.074 A 
ATOM     45  C   UNL A   1      37.904  29.219  27.792  1.00  0.00     0.031 C 
ATOM     46  C   UNL A   1      40.509  34.900  30.068  1.00  0.00     0.029 A 
ATOM     47  C   UNL A   1      41.387  33.739  30.049  1.00  0.00     0.049 A 
ATOM     48  H   UNL A   1      40.762  31.739  30.035  1.00  0.00     0.167 HD
ATOM     49  C   UNL A   1      38.938  27.638  29.490  1.00  0.00     0.034 A 
ATOM     50  C   UNL A   1      42.751  33.644  30.159  1.00  0.00     0.034 A 
ATOM     51  C   UNL A   1      39.177  27.701  30.924  1.00  0.00     0.049 A 
ATOM     52  C   UNL A   1      42.998  32.304  30.762  1.00  0.00     0.074 A 
ATOM     53  C   UNL A   1      38.371  27.735  32.046  1.00  0.00     0.029 A 
ATOM     54  N   UNL A   1      40.383  28.241  31.318  1.00  0.00    -0.354 N 
ATOM     55  N   UNL A   1      42.586  31.979  31.959  1.00  0.00    -0.248 NA
ATOM     56  C   UNL A   1      43.190  31.194  29.843  1.00  0.00     0.031 C 
ATOM     57  C   UNL A   1      38.968  28.710  32.906  1.00  0.00     0.029 A 
ATOM     58  C   UNL A   1      40.167  29.141  32.334  1.00  0.00     0.049 A 
ATOM     59  H   UNL A   1      41.260  28.017  30.932  1.00  0.00     0.167 HD
ATOM     60  C   UNL A   1      42.049  30.706  31.818  1.00  0.00     0.074 A 
ATOM     61  C   UNL A   1      42.498  30.256  30.495  1.00  0.00     0.031 C 
ATOM     62  C   UNL A   1      41.038  30.270  32.630  1.00  0.00     0.034 A 
BRANCH  49  63
ATOM     63  C   UNL A   1      39.828  26.848  28.557  1.00  0.00     0.023 A 
ATOM     64  C   UNL A   1      40.861  27.557  27.922  1.00  0.00     0.031 A 
ATOM     65  C   UNL A   1      39.591  25.540  28.066  1.00  0.00     0.131 A 
ATOM     66  C   UNL A   1      41.548  27.004  26.829  1.00  0.00     0.055 A 
ATOM     67  C   UNL A   1      40.309  24.978  27.010  1.00  0.00     0.041 A 
ATOM     68  F   UNL A   1      38.605  24.753  28.508  1.00  0.00    -0.206 F 
ATOM     69  C   UNL A   1      41.279  25.719  26.366  1.00  0.00     0.022 A 
BRANCH  66  70
ATOM     70  S   UNL A   1      42.738  28.042  25.949  1.00  0.00     0.124 S 
ATOM     71  O   UNL A   1      42.356  27.815  24.560  1.00  0.00    -0.237 OA
ATOM     72  O   UNL A   1      42.438  29.363  26.493  1.00  0.00    -0.237 OA
ATOM     73  O   UNL A   1      44.028  27.486  26.345  1.00  0.00    -0.744 OA
ENDBRANCH  66  70
ENDBRANCH  49  63
BRANCH  50  74
ATOM     74  C   UNL A   1      43.809  34.328  29.323  1.00  0.00     0.023 A 
ATOM     75  C   UNL A   1      44.269  33.808  28.078  1.00  0.00     0.031 A 
ATOM     76  C   UNL A   1      44.175  35.660  29.605  1.00  0.00     0.131 A 
ATOM     77  C   UNL A   1      45.029  34.614  27.186  1.00  0.00     0.055 A 
ATOM     78  C   UNL A   1      44.910  36.453  28.714  1.00  0.00     0.041 A 
ATOM     79  F   UNL A   1      43.756  36.270  30.723  1.00  0.00    -0.206 F 
ATOM     80  C   UNL A   1      45.328  35.940  27.496  1.00  0.00     0.022 A 
BRANCH  77  81
ATOM     81  S   UNL A   1      45.564  33.996  25.546  1.00  0.00     0.124 S 
ATOM     82  O   UNL A   1      44.403  34.290  24.713  1.00  0.00    -0.237 OA
ATOM     83  O   UNL A   1      46.765  34.780  25.284  1.00  0.00    -0.237 OA
ATOM     84  O   UNL A   1      45.805  32.571  25.779  1.00  0.00    -0.744 OA
ENDBRANCH  77  81
ENDBRANCH  50  74
BRANCH  62  85
ATOM     85  C   UNL A   1      40.721  31.073  33.885  1.00  0.00     0.023 A 
ATOM     86  C   UNL A   1      39.658  31.998  34.052  1.00  0.00     0.031 A 
ATOM     87  C   UNL A   1      41.489  30.759  35.019  1.00  0.00     0.131 A 
ATOM     88  C   UNL A   1      39.404  32.559  35.329  1.00  0.00     0.055 A 
ATOM     89  C   UNL A   1      41.221  31.295  36.276  1.00  0.00     0.041 A 
ATOM     90  F   UNL A   1      42.496  29.874  34.928  1.00  0.00    -0.206 F 
ATOM     91  C   UNL A   1      40.179  32.199  36.436  1.00  0.00     0.022 A 
BRANCH  88  92
ATOM     92  S   UNL A   1      38.045  33.756  35.590  1.00  0.00     0.124 S 
ATOM     93  O   UNL A   1      36.847  32.948  35.391  1.00  0.00    -0.237 OA
ATOM     94  O   UNL A   1      38.281  34.223  36.953  1.00  0.00    -0.237 OA
ATOM     95  O   UNL A   1      38.274  34.768  34.556  1.00  0.00    -0.744 OA
ENDBRANCH  88  92
ENDBRANCH  62  85
ENDBRANCH  36  37
ENDBRANCH  28  31
ENDBRANCH   1  27
TORSDOF 14
ENDMDL
MODEL 3
REMARK VINA RESULT:     -13.5      1.452      1.663
REMARK SMILES C[C@H]1CCc2sc3ncn4nc(/C=C\C(=O)NCCCNC(=O)c5ccc(-c6c7nc(c(-c8cc(S(=O)(=O)[O-])ccc8F)c8ccc([nH]8)c(-c8cc(S(=O)(=O)[O-])ccc8F)c8nc(c(-c9cc(S(=O)(=O)[O-])ccc9F)c9ccc6[nH]9)C=C8)C=C7)cc5)nc4c3c2C1
REMARK SMILES IDX 20 1 19 2 18 3 17 4 15 5 16 6 14 8 13 9 12 10 1 11 2 12 3 13
REMARK SMILES IDX 91 14 4 15 90 16 5 17 89 18 6 19 7 20 88 21 8 22 10 23 87 24
REMARK SMILES IDX 9 25 11 26 21 27 22 28 23 30 24 31 25 32 86 33 26 34 85 35
REMARK SMILES IDX 27 36 28 37 29 38 79 39 30 40 84 41 78 42 80 43 31 44 83 45
REMARK SMILES IDX 77 46 76 47 32 49 64 50 44 51 63 52 45 53 48 54 62 55 81 56
REMARK SMILES IDX 46 57 47 58 61 60 82 61 49 62 33 63 34 64 42 65 35 66 41 67
REMARK SMILES IDX 43 68 40 69 36 70 37 71 38 72 39 73 65 74 66 75 74 76 67 77
REMARK SMILES IDX 73 78 75 79 72 80 68 81 69 82 70 83 71 84 50 85 51 86 59 87
REMARK SMILES IDX 52 88 58 89 60 90 57 91 53 92 54 93 55 94 56 95
REMARK H PARENT 17 7 21 29 80 48 48 59
REMARK Flexibility Score: inf
ROOT
ATOM      1  C   UNL A   1      35.142  29.423  27.590  1.00  0.00     0.118 C 
ENDROOT
BRANCH   1   2
ATOM      2  C   UNL A   1      33.626  29.307  27.429  1.00  0.00     0.042 C 
BRANCH   2   3
ATOM      3  C   UNL A   1      33.197  29.721  26.038  1.00  0.00     0.118 C 
BRANCH   3   4
ATOM      4  N   UNL A   1      33.868  29.179  24.884  1.00  0.00    -0.352 N 
ATOM      5  C   UNL A   1      33.339  28.842  23.674  1.00  0.00     0.244 C 
ATOM      6  O   UNL A   1      34.083  28.615  22.720  1.00  0.00    -0.270 OA
ATOM      7  H   UNL A   1      34.837  29.033  24.982  1.00  0.00     0.163 HD
BRANCH   5   8
ATOM      8  C   UNL A   1      31.897  28.525  23.525  1.00  0.00     0.075 C 
ATOM      9  C   UNL A   1      31.082  27.631  24.114  1.00  0.00     0.057 C 
BRANCH   9  10
ATOM     10  C   UNL A   1      31.358  26.624  25.090  1.00  0.00     0.175 A 
ATOM     11  C   UNL A   1      37.768  23.996  25.732  1.00  0.00     0.008 C 
ATOM     12  C   UNL A   1      36.862  23.487  24.620  1.00  0.00    -0.009 C 
ATOM     13  C   UNL A   1      36.846  21.948  24.611  1.00  0.00     0.009 C 
ATOM     14  C   UNL A   1      35.448  24.101  24.711  1.00  0.00     0.041 C 
ATOM     15  C   UNL A   1      36.042  21.305  25.753  1.00  0.00     0.047 C 
ATOM     16  C   UNL A   1      34.552  23.403  25.688  1.00  0.00    -0.020 A 
ATOM     17  C   UNL A   1      34.843  22.125  26.136  1.00  0.00     0.011 A 
ATOM     18  C   UNL A   1      33.266  23.800  26.160  1.00  0.00     0.060 A 
ATOM     19  S   UNL A   1      33.653  21.501  27.194  1.00  0.00    -0.120 S 
ATOM     20  C   UNL A   1      32.601  22.810  26.877  1.00  0.00     0.129 A 
ATOM     21  C   UNL A   1      32.421  24.986  25.887  1.00  0.00     0.168 A 
ATOM     22  N   UNL A   1      31.275  22.778  27.251  1.00  0.00    -0.225 NA
ATOM     23  N   UNL A   1      31.097  24.886  26.208  1.00  0.00    -0.201 N 
ATOM     24  N   UNL A   1      32.636  26.111  25.242  1.00  0.00    -0.207 NA
ATOM     25  C   UNL A   1      30.541  23.780  26.846  1.00  0.00     0.227 A 
ATOM     26  N   UNL A   1      30.389  25.922  25.709  1.00  0.00    -0.145 NA
ENDBRANCH   9  10
ENDBRANCH   5   8
ENDBRANCH   3   4
ENDBRANCH   2   3
ENDBRANCH   1   2
BRANCH   1  27
ATOM     27  N   UNL A   1      35.594  29.870  28.932  1.00  0.00    -0.352 N 
ATOM     28  C   UNL A   1      36.632  29.358  29.729  1.00  0.00     0.251 C 
ATOM     29  H   UNL A   1      35.100  30.630  29.315  1.00  0.00     0.163 HD
ATOM     30  O   UNL A   1      36.519  29.352  30.940  1.00  0.00    -0.269 OA
BRANCH  28  31
ATOM     31  C   UNL A   1      37.858  28.848  29.063  1.00  0.00     0.039 A 
ATOM     32  C   UNL A   1      38.547  29.458  28.012  1.00  0.00     0.014 A 
ATOM     33  C   UNL A   1      38.363  27.687  29.597  1.00  0.00     0.014 A 
ATOM     34  C   UNL A   1      39.788  28.917  27.637  1.00  0.00     0.010 A 
ATOM     35  C   UNL A   1      39.699  27.470  29.552  1.00  0.00     0.010 A 
ATOM     36  C   UNL A   1      40.386  27.942  28.464  1.00  0.00    -0.014 A 
BRANCH  36  37
ATOM     37  C   UNL A   1      41.819  27.699  28.544  1.00  0.00     0.031 A 
ATOM     38  C   UNL A   1      42.121  26.529  27.685  1.00  0.00     0.074 A 
ATOM     39  C   UNL A   1      42.765  28.558  28.996  1.00  0.00     0.049 A 
ATOM     40  N   UNL A   1      42.041  25.298  28.069  1.00  0.00    -0.248 NA
ATOM     41  C   UNL A   1      42.087  26.685  26.214  1.00  0.00     0.031 C 
ATOM     42  C   UNL A   1      42.641  29.902  29.570  1.00  0.00     0.029 A 
ATOM     43  N   UNL A   1      44.117  28.373  29.010  1.00  0.00    -0.354 N 
ATOM     44  C   UNL A   1      42.336  24.565  26.937  1.00  0.00     0.074 A 
ATOM     45  C   UNL A   1      41.978  25.408  25.834  1.00  0.00     0.031 C 
ATOM     46  C   UNL A   1      43.870  30.466  29.716  1.00  0.00     0.029 A 
ATOM     47  C   UNL A   1      44.889  29.482  29.381  1.00  0.00     0.049 A 
ATOM     48  H   UNL A   1      44.525  27.510  28.773  1.00  0.00     0.167 HD
ATOM     49  C   UNL A   1      43.234  23.547  27.021  1.00  0.00     0.034 A 
ATOM     50  C   UNL A   1      46.256  29.534  29.487  1.00  0.00     0.034 A 
ATOM     51  C   UNL A   1      43.487  23.220  28.416  1.00  0.00     0.049 A 
ATOM     52  C   UNL A   1      46.683  28.119  29.681  1.00  0.00     0.074 A 
ATOM     53  C   UNL A   1      42.702  22.823  29.483  1.00  0.00     0.029 A 
ATOM     54  N   UNL A   1      44.619  23.772  28.976  1.00  0.00    -0.354 N 
ATOM     55  N   UNL A   1      46.335  27.411  30.722  1.00  0.00    -0.248 NA
ATOM     56  C   UNL A   1      47.000  27.359  28.482  1.00  0.00     0.031 C 
ATOM     57  C   UNL A   1      43.183  23.574  30.601  1.00  0.00     0.029 A 
ATOM     58  C   UNL A   1      44.307  24.302  30.205  1.00  0.00     0.049 A 
ATOM     59  H   UNL A   1      45.512  23.784  28.561  1.00  0.00     0.167 HD
ATOM     60  C   UNL A   1      45.964  26.176  30.206  1.00  0.00     0.074 A 
ATOM     61  C   UNL A   1      46.444  26.191  28.820  1.00  0.00     0.031 C 
ATOM     62  C   UNL A   1      45.031  25.398  30.834  1.00  0.00     0.034 A 
BRANCH  49  63
ATOM     63  C   UNL A   1      44.202  23.183  25.919  1.00  0.00     0.023 A 
ATOM     64  C   UNL A   1      44.154  21.860  25.450  1.00  0.00     0.031 A 
ATOM     65  C   UNL A   1      45.310  23.949  25.478  1.00  0.00     0.131 A 
ATOM     66  C   UNL A   1      45.188  21.338  24.654  1.00  0.00     0.055 A 
ATOM     67  C   UNL A   1      46.311  23.439  24.649  1.00  0.00     0.041 A 
ATOM     68  F   UNL A   1      45.548  25.201  25.880  1.00  0.00    -0.206 F 
ATOM     69  C   UNL A   1      46.268  22.119  24.251  1.00  0.00     0.022 A 
BRANCH  66  70
ATOM     70  S   UNL A   1      45.148  19.580  24.239  1.00  0.00     0.124 S 
ATOM     71  O   UNL A   1      46.565  19.237  24.272  1.00  0.00    -0.237 OA
ATOM     72  O   UNL A   1      44.328  19.039  25.318  1.00  0.00    -0.237 OA
ATOM     73  O   UNL A   1      44.528  19.560  22.918  1.00  0.00    -0.744 OA
ENDBRANCH  66  70
ENDBRANCH  49  63
BRANCH  50  74
ATOM     74  C   UNL A   1      47.203  30.560  28.909  1.00  0.00     0.023 A 
ATOM     75  C   UNL A   1      48.421  30.937  29.546  1.00  0.00     0.031 A 
ATOM     76  C   UNL A   1      47.058  30.974  27.569  1.00  0.00     0.131 A 
ATOM     77  C   UNL A   1      49.419  31.666  28.842  1.00  0.00     0.055 A 
ATOM     78  C   UNL A   1      48.052  31.677  26.876  1.00  0.00     0.041 A 
ATOM     79  F   UNL A   1      45.977  30.634  26.853  1.00  0.00    -0.206 F 
ATOM     80  C   UNL A   1      49.242  32.014  27.503  1.00  0.00     0.022 A 
BRANCH  77  81
ATOM     81  S   UNL A   1      51.026  32.093  29.612  1.00  0.00     0.124 S 
ATOM     82  O   UNL A   1      50.632  33.065  30.625  1.00  0.00    -0.237 OA
ATOM     83  O   UNL A   1      51.501  30.803  30.101  1.00  0.00    -0.237 OA
ATOM     84  O   UNL A   1      51.802  32.647  28.501  1.00  0.00    -0.744 OA
ENDBRANCH  77  81
ENDBRANCH  50  74
BRANCH  62  85
ATOM     85  C   UNL A   1      44.635  25.754  32.262  1.00  0.00     0.023 A 
ATOM     86  C   UNL A   1      43.627  26.671  32.656  1.00  0.00     0.031 A 
ATOM     87  C   UNL A   1      45.250  24.995  33.272  1.00  0.00     0.131 A 
ATOM     88  C   UNL A   1      43.274  26.787  34.024  1.00  0.00     0.055 A 
ATOM     89  C   UNL A   1      44.884  25.097  34.612  1.00  0.00     0.041 A 
ATOM     90  F   UNL A   1      46.197  24.095  32.958  1.00  0.00    -0.206 F 
ATOM     91  C   UNL A   1      43.895  25.994  34.994  1.00  0.00     0.022 A 
BRANCH  88  92
ATOM     92  S   UNL A   1      41.980  27.957  34.578  1.00  0.00     0.124 S 
ATOM     93  O   UNL A   1      42.072  27.892  36.032  1.00  0.00    -0.237 OA
ATOM     94  O   UNL A   1      42.397  29.216  33.967  1.00  0.00    -0.237 OA
ATOM     95  O   UNL A   1      40.746  27.395  34.022  1.00  0.00    -0.744 OA
ENDBRANCH  88  92
ENDBRANCH  62  85
ENDBRANCH  36  37
ENDBRANCH  28  31
ENDBRANCH   1  27
TORSDOF 14
ENDMDL
