MODEL 1
REMARK VINA RESULT:     -13.6      0.000      0.000
REMARK SMILES O=C(NCCCNC(=O)c1ccc2nc(-c3c[nH]nc3-c3ccc(F)cc3F)[nH]c2c1)c1ccc(-c2c3nc(c(-c4cc(S(=O)(=O)[O-])ccc4F)c4ccc([nH]4)c(-c4cc(S(=O)(=O)[O-])ccc4F)c4nc(c(-c5cc(S(=O)(=O)[O-])ccc5F)c5ccc2[nH]5)C=C4)C=C3)cc1
REMARK SMILES IDX 4 1 3 2 1 3 2 4 32 6 33 7 94 8 34 9 93 10 35 11 36 12 37 13
REMARK SMILES IDX 87 14 38 15 92 16 86 17 88 18 39 19 91 20 85 21 84 22 40 24
REMARK SMILES IDX 72 25 52 26 71 27 53 28 56 29 70 30 89 31 54 32 55 33 69 35
REMARK SMILES IDX 90 36 57 37 41 38 42 39 50 40 43 41 49 42 51 43 48 44 44 45
REMARK SMILES IDX 45 46 46 47 47 48 73 49 74 50 82 51 75 52 81 53 83 54 80 55
REMARK SMILES IDX 76 56 77 57 78 58 79 59 58 60 59 61 67 62 60 63 66 64 68 65
REMARK SMILES IDX 65 66 61 67 62 68 63 69 64 70 5 71 6 72 7 73 8 74 9 76 10 77
REMARK SMILES IDX 11 78 31 79 12 80 30 81 13 82 29 83 14 84 15 85 16 87 17 88
REMARK SMILES IDX 20 89 18 90 19 91 21 93 22 94 27 95 23 96 26 97 28 98 24 99
REMARK SMILES IDX 25 100
REMARK H PARENT 3 5 88 23 56 34 7 75 29 86 18 92
REMARK Flexibility Score: inf
ROOT
ATOM      1  C   UNL A   1      37.015  22.287  24.244  1.00  0.00     0.118 C 
ENDROOT
BRANCH   1   2
ATOM      2  N   UNL A   1      37.606  21.132  24.910  1.00  0.00    -0.352 N 
ATOM      3  O   UNL A   1      39.140  19.952  26.060  1.00  0.00    -0.269 OA
ATOM      4  C   UNL A   1      38.700  21.054  25.741  1.00  0.00     0.251 C 
ATOM      5  H   UNL A   1      37.154  20.275  24.738  1.00  0.00     0.163 HD
BRANCH   4   6
ATOM      6  C   UNL A   1      39.352  22.287  26.231  1.00  0.00     0.039 A 
ATOM      7  C   UNL A   1      38.787  23.536  25.980  1.00  0.00     0.014 A 
ATOM      8  C   UNL A   1      40.542  22.195  26.960  1.00  0.00     0.014 A 
ATOM      9  C   UNL A   1      39.493  24.690  26.292  1.00  0.00     0.010 A 
ATOM     10  C   UNL A   1      41.196  23.361  27.377  1.00  0.00     0.010 A 
ATOM     11  C   UNL A   1      40.694  24.620  27.015  1.00  0.00    -0.014 A 
BRANCH  11  12
ATOM     12  C   UNL A   1      41.360  25.887  27.417  1.00  0.00     0.031 A 
ATOM     13  C   UNL A   1      42.731  26.245  26.913  1.00  0.00     0.074 A 
ATOM     14  C   UNL A   1      40.677  26.750  28.197  1.00  0.00     0.049 A 
ATOM     15  N   UNL A   1      43.432  27.330  27.134  1.00  0.00    -0.248 NA
ATOM     16  C   UNL A   1      43.409  25.258  26.061  1.00  0.00     0.031 C 
ATOM     17  C   UNL A   1      39.341  26.501  28.752  1.00  0.00     0.029 A 
ATOM     18  N   UNL A   1      40.984  28.011  28.635  1.00  0.00    -0.354 N 
ATOM     19  C   UNL A   1      44.634  27.155  26.455  1.00  0.00     0.074 A 
ATOM     20  C   UNL A   1      44.582  25.840  25.850  1.00  0.00     0.031 C 
ATOM     21  C   UNL A   1      38.923  27.597  29.400  1.00  0.00     0.029 A 
ATOM     22  C   UNL A   1      39.984  28.594  29.379  1.00  0.00     0.049 A 
ATOM     23  H   UNL A   1      41.839  28.457  28.438  1.00  0.00     0.167 HD
ATOM     24  C   UNL A   1      45.676  28.018  26.339  1.00  0.00     0.034 A 
ATOM     25  C   UNL A   1      39.930  29.791  29.994  1.00  0.00     0.034 A 
ATOM     26  C   UNL A   1      45.712  29.324  26.956  1.00  0.00     0.049 A 
ATOM     27  C   UNL A   1      41.112  30.714  29.874  1.00  0.00     0.074 A 
ATOM     28  C   UNL A   1      46.719  30.273  26.910  1.00  0.00     0.029 A 
ATOM     29  N   UNL A   1      44.695  29.866  27.733  1.00  0.00    -0.354 N 
ATOM     30  N   UNL A   1      42.240  30.528  29.229  1.00  0.00    -0.248 NA
ATOM     31  C   UNL A   1      41.010  32.007  30.557  1.00  0.00     0.031 C 
ATOM     32  C   UNL A   1      46.336  31.363  27.703  1.00  0.00     0.029 A 
ATOM     33  C   UNL A   1      45.060  31.126  28.187  1.00  0.00     0.049 A 
ATOM     34  H   UNL A   1      43.841  29.422  27.933  1.00  0.00     0.167 HD
ATOM     35  C   UNL A   1      42.979  31.689  29.421  1.00  0.00     0.074 A 
ATOM     36  C   UNL A   1      42.153  32.580  30.211  1.00  0.00     0.031 C 
ATOM     37  C   UNL A   1      44.231  31.992  28.991  1.00  0.00     0.034 A 
BRANCH  24  38
ATOM     38  C   UNL A   1      46.875  27.557  25.543  1.00  0.00     0.023 A 
ATOM     39  C   UNL A   1      47.073  27.956  24.209  1.00  0.00     0.031 A 
ATOM     40  C   UNL A   1      47.826  26.696  26.119  1.00  0.00     0.131 A 
ATOM     41  C   UNL A   1      48.158  27.450  23.478  1.00  0.00     0.055 A 
ATOM     42  C   UNL A   1      48.945  26.253  25.409  1.00  0.00     0.041 A 
ATOM     43  F   UNL A   1      47.681  26.264  27.381  1.00  0.00    -0.206 F 
ATOM     44  C   UNL A   1      49.109  26.619  24.076  1.00  0.00     0.022 A 
BRANCH  41  45
ATOM     45  S   UNL A   1      48.242  27.792  21.698  1.00  0.00     0.124 S 
ATOM     46  O   UNL A   1      48.525  26.465  21.154  1.00  0.00    -0.237 OA
ATOM     47  O   UNL A   1      46.915  28.327  21.416  1.00  0.00    -0.237 OA
ATOM     48  O   UNL A   1      49.338  28.750  21.584  1.00  0.00    -0.744 OA
ENDBRANCH  41  45
ENDBRANCH  24  38
BRANCH  25  49
ATOM     49  C   UNL A   1      38.739  30.164  30.810  1.00  0.00     0.023 A 
ATOM     50  C   UNL A   1      37.693  30.924  30.267  1.00  0.00     0.031 A 
ATOM     51  C   UNL A   1      38.650  29.789  32.163  1.00  0.00     0.131 A 
ATOM     52  C   UNL A   1      36.625  31.326  31.085  1.00  0.00     0.055 A 
ATOM     53  C   UNL A   1      37.558  30.138  32.956  1.00  0.00     0.041 A 
ATOM     54  F   UNL A   1      39.622  29.056  32.731  1.00  0.00    -0.206 F 
ATOM     55  C   UNL A   1      36.543  30.926  32.421  1.00  0.00     0.022 A 
BRANCH  52  56
ATOM     56  S   UNL A   1      35.390  32.465  30.402  1.00  0.00     0.124 S 
ATOM     57  O   UNL A   1      36.189  33.662  30.161  1.00  0.00    -0.237 OA
ATOM     58  O   UNL A   1      34.940  31.745  29.217  1.00  0.00    -0.237 OA
ATOM     59  O   UNL A   1      34.404  32.578  31.474  1.00  0.00    -0.744 OA
ENDBRANCH  52  56
ENDBRANCH  25  49
BRANCH  37  60
ATOM     60  C   UNL A   1      44.752  33.361  29.352  1.00  0.00     0.023 A 
ATOM     61  C   UNL A   1      44.475  34.486  28.555  1.00  0.00     0.031 A 
ATOM     62  C   UNL A   1      45.572  33.532  30.480  1.00  0.00     0.131 A 
ATOM     63  C   UNL A   1      45.071  35.719  28.858  1.00  0.00     0.055 A 
ATOM     64  C   UNL A   1      46.113  34.775  30.812  1.00  0.00     0.041 A 
ATOM     65  F   UNL A   1      45.870  32.490  31.273  1.00  0.00    -0.206 F 
ATOM     66  C   UNL A   1      45.877  35.874  29.990  1.00  0.00     0.022 A 
BRANCH  63  67
ATOM     67  S   UNL A   1      44.866  37.093  27.693  1.00  0.00     0.124 S 
ATOM     68  O   UNL A   1      44.736  38.236  28.592  1.00  0.00    -0.237 OA
ATOM     69  O   UNL A   1      46.100  37.031  26.917  1.00  0.00    -0.237 OA
ATOM     70  O   UNL A   1      43.653  36.742  26.957  1.00  0.00    -0.744 OA
ENDBRANCH  63  67
ENDBRANCH  37  60
ENDBRANCH  11  12
ENDBRANCH   4   6
ENDBRANCH   1   2
BRANCH   1  71
ATOM     71  C   UNL A   1      35.499  22.329  24.365  1.00  0.00     0.042 C 
BRANCH  71  72
ATOM     72  C   UNL A   1      34.955  21.517  25.532  1.00  0.00     0.118 C 
BRANCH  72  73
ATOM     73  N   UNL A   1      34.005  20.506  25.090  1.00  0.00    -0.352 N 
ATOM     74  C   UNL A   1      32.636  20.559  25.079  1.00  0.00     0.251 C 
ATOM     75  H   UNL A   1      34.400  19.671  24.753  1.00  0.00     0.163 HD
ATOM     76  O   UNL A   1      31.970  19.546  24.890  1.00  0.00    -0.269 OA
BRANCH  74  77
ATOM     77  C   UNL A   1      31.956  21.854  25.266  1.00  0.00     0.042 A 
ATOM     78  C   UNL A   1      31.627  22.275  26.562  1.00  0.00     0.016 A 
ATOM     79  C   UNL A   1      31.727  22.659  24.139  1.00  0.00     0.042 A 
ATOM     80  C   UNL A   1      31.053  23.529  26.775  1.00  0.00     0.031 A 
ATOM     81  C   UNL A   1      31.148  23.904  24.387  1.00  0.00     0.067 A 
ATOM     82  C   UNL A   1      30.851  24.360  25.667  1.00  0.00     0.089 A 
ATOM     83  N   UNL A   1      30.760  24.938  23.567  1.00  0.00    -0.338 N 
ATOM     84  N   UNL A   1      30.430  25.656  25.637  1.00  0.00    -0.228 NA
ATOM     85  C   UNL A   1      30.420  25.999  24.367  1.00  0.00     0.142 A 
ATOM     86  H   UNL A   1      30.731  24.919  22.582  1.00  0.00     0.168 HD
BRANCH  85  87
ATOM     87  C   UNL A   1      30.160  27.381  23.913  1.00  0.00     0.063 A 
ATOM     88  C   UNL A   1      29.281  27.788  22.943  1.00  0.00     0.117 A 
ATOM     89  C   UNL A   1      30.806  28.562  24.379  1.00  0.00     0.106 A 
ATOM     90  N   UNL A   1      29.357  29.152  22.946  1.00  0.00    -0.284 N 
ATOM     91  N   UNL A   1      30.311  29.645  23.755  1.00  0.00    -0.175 NA
ATOM     92  H   UNL A   1      28.767  29.724  22.403  1.00  0.00     0.189 HD
BRANCH  89  93
ATOM     93  C   UNL A   1      31.962  28.643  25.267  1.00  0.00     0.039 A 
ATOM     94  C   UNL A   1      31.810  29.215  26.544  1.00  0.00     0.016 A 
ATOM     95  C   UNL A   1      33.225  28.194  24.877  1.00  0.00     0.135 A 
ATOM     96  C   UNL A   1      32.906  29.348  27.398  1.00  0.00     0.040 A 
ATOM     97  C   UNL A   1      34.322  28.317  25.729  1.00  0.00     0.079 A 
ATOM     98  F   UNL A   1      33.423  27.653  23.665  1.00  0.00    -0.206 F 
ATOM     99  C   UNL A   1      34.151  28.896  26.981  1.00  0.00     0.126 A 
ATOM    100  F   UNL A   1      35.204  29.025  27.799  1.00  0.00    -0.207 F 
ENDBRANCH  89  93
ENDBRANCH  85  87
ENDBRANCH  74  77
ENDBRANCH  72  73
ENDBRANCH  71  72
ENDBRANCH   1  71
TORSDOF 15
ENDMDL
MODEL 2
REMARK VINA RESULT:     -13.4      4.969     10.089
REMARK SMILES O=C(NCCCNC(=O)c1ccc2nc(-c3c[nH]nc3-c3ccc(F)cc3F)[nH]c2c1)c1ccc(-c2c3nc(c(-c4cc(S(=O)(=O)[O-])ccc4F)c4ccc([nH]4)c(-c4cc(S(=O)(=O)[O-])ccc4F)c4nc(c(-c5cc(S(=O)(=O)[O-])ccc5F)c5ccc2[nH]5)C=C4)C=C3)cc1
REMARK SMILES IDX 4 1 3 2 1 3 2 4 32 6 33 7 94 8 34 9 93 10 35 11 36 12 37 13
REMARK SMILES IDX 87 14 38 15 92 16 86 17 88 18 39 19 91 20 85 21 84 22 40 24
REMARK SMILES IDX 72 25 52 26 71 27 53 28 56 29 70 30 89 31 54 32 55 33 69 35
REMARK SMILES IDX 90 36 57 37 41 38 42 39 50 40 43 41 49 42 51 43 48 44 44 45
REMARK SMILES IDX 45 46 46 47 47 48 73 49 74 50 82 51 75 52 81 53 83 54 80 55
REMARK SMILES IDX 76 56 77 57 78 58 79 59 58 60 59 61 67 62 60 63 66 64 68 65
REMARK SMILES IDX 65 66 61 67 62 68 63 69 64 70 5 71 6 72 7 73 8 74 9 76 10 77
REMARK SMILES IDX 11 78 31 79 12 80 30 81 13 82 29 83 14 84 15 85 16 87 17 88
REMARK SMILES IDX 20 89 18 90 19 91 21 93 22 94 27 95 23 96 26 97 28 98 24 99
REMARK SMILES IDX 25 100
REMARK H PARENT 3 5 88 23 56 34 7 75 29 86 18 92
REMARK Flexibility Score: inf
ROOT
ATOM      1  C   UNL A   1      33.409  29.553  26.114  1.00  0.00     0.118 C 
ENDROOT
BRANCH   1   2
ATOM      2  N   UNL A   1      33.136  30.910  26.572  1.00  0.00    -0.352 N 
ATOM      3  O   UNL A   1      33.307  32.744  27.867  1.00  0.00    -0.269 OA
ATOM      4  C   UNL A   1      33.804  31.684  27.493  1.00  0.00     0.251 C 
ATOM      5  H   UNL A   1      32.353  31.340  26.159  1.00  0.00     0.163 HD
BRANCH   4   6
ATOM      6  C   UNL A   1      35.101  31.235  28.044  1.00  0.00     0.039 A 
ATOM      7  C   UNL A   1      35.237  29.957  28.583  1.00  0.00     0.014 A 
ATOM      8  C   UNL A   1      36.200  32.099  28.012  1.00  0.00     0.014 A 
ATOM      9  C   UNL A   1      36.403  29.609  29.251  1.00  0.00     0.010 A 
ATOM     10  C   UNL A   1      37.414  31.702  28.585  1.00  0.00     0.010 A 
ATOM     11  C   UNL A   1      37.516  30.466  29.240  1.00  0.00    -0.014 A 
BRANCH  11  12
ATOM     12  C   UNL A   1      38.777  30.005  29.879  1.00  0.00     0.031 A 
ATOM     13  C   UNL A   1      39.174  30.470  31.253  1.00  0.00     0.074 A 
ATOM     14  C   UNL A   1      39.534  29.101  29.223  1.00  0.00     0.049 A 
ATOM     15  N   UNL A   1      40.218  30.130  31.968  1.00  0.00    -0.248 NA
ATOM     16  C   UNL A   1      38.295  31.449  31.908  1.00  0.00     0.031 C 
ATOM     17  C   UNL A   1      39.248  28.586  27.879  1.00  0.00     0.029 A 
ATOM     18  N   UNL A   1      40.670  28.432  29.596  1.00  0.00    -0.354 N 
ATOM     19  C   UNL A   1      40.126  30.855  33.151  1.00  0.00     0.074 A 
ATOM     20  C   UNL A   1      38.946  31.686  33.039  1.00  0.00     0.031 C 
ATOM     21  C   UNL A   1      40.146  27.641  27.569  1.00  0.00     0.029 A 
ATOM     22  C   UNL A   1      41.115  27.536  28.652  1.00  0.00     0.049 A 
ATOM     23  H   UNL A   1      41.124  28.578  30.457  1.00  0.00     0.167 HD
ATOM     24  C   UNL A   1      40.945  30.820  34.233  1.00  0.00     0.034 A 
ATOM     25  C   UNL A   1      42.195  26.731  28.644  1.00  0.00     0.034 A 
ATOM     26  C   UNL A   1      42.123  29.988  34.325  1.00  0.00     0.049 A 
ATOM     27  C   UNL A   1      43.102  26.736  29.845  1.00  0.00     0.074 A 
ATOM     28  C   UNL A   1      43.027  29.881  35.369  1.00  0.00     0.029 A 
ATOM     29  N   UNL A   1      42.564  29.120  33.333  1.00  0.00    -0.354 N 
ATOM     30  N   UNL A   1      42.998  27.432  30.953  1.00  0.00    -0.248 NA
ATOM     31  C   UNL A   1      44.264  25.844  29.796  1.00  0.00     0.031 C 
ATOM     32  C   UNL A   1      44.040  28.993  34.988  1.00  0.00     0.029 A 
ATOM     33  C   UNL A   1      43.735  28.491  33.733  1.00  0.00     0.049 A 
ATOM     34  H   UNL A   1      42.113  28.973  32.471  1.00  0.00     0.167 HD
ATOM     35  C   UNL A   1      44.080  27.051  31.739  1.00  0.00     0.074 A 
ATOM     36  C   UNL A   1      44.799  26.039  30.991  1.00  0.00     0.031 C 
ATOM     37  C   UNL A   1      44.450  27.499  32.965  1.00  0.00     0.034 A 
BRANCH  24  38
ATOM     38  C   UNL A   1      40.610  31.734  35.389  1.00  0.00     0.023 A 
ATOM     39  C   UNL A   1      39.556  31.448  36.275  1.00  0.00     0.031 A 
ATOM     40  C   UNL A   1      41.345  32.914  35.601  1.00  0.00     0.131 A 
ATOM     41  C   UNL A   1      39.227  32.357  37.292  1.00  0.00     0.055 A 
ATOM     42  C   UNL A   1      41.059  33.780  36.661  1.00  0.00     0.041 A 
ATOM     43  F   UNL A   1      42.349  33.252  34.778  1.00  0.00    -0.206 F 
ATOM     44  C   UNL A   1      39.987  33.510  37.506  1.00  0.00     0.022 A 
BRANCH  41  45
ATOM     45  S   UNL A   1      37.715  32.074  38.255  1.00  0.00     0.124 S 
ATOM     46  O   UNL A   1      38.202  32.228  39.624  1.00  0.00    -0.237 OA
ATOM     47  O   UNL A   1      36.830  33.127  37.771  1.00  0.00    -0.237 OA
ATOM     48  O   UNL A   1      37.326  30.714  37.889  1.00  0.00    -0.744 OA
ENDBRANCH  41  45
ENDBRANCH  24  38
BRANCH  25  49
ATOM     49  C   UNL A   1      42.500  25.892  27.450  1.00  0.00     0.023 A 
ATOM     50  C   UNL A   1      42.081  24.557  27.371  1.00  0.00     0.031 A 
ATOM     51  C   UNL A   1      43.249  26.413  26.379  1.00  0.00     0.131 A 
ATOM     52  C   UNL A   1      42.454  23.772  26.269  1.00  0.00     0.055 A 
ATOM     53  C   UNL A   1      43.565  25.648  25.257  1.00  0.00     0.041 A 
ATOM     54  F   UNL A   1      43.671  27.688  26.401  1.00  0.00    -0.206 F 
ATOM     55  C   UNL A   1      43.180  24.312  25.205  1.00  0.00     0.022 A 
BRANCH  52  56
ATOM     56  S   UNL A   1      42.058  22.002  26.290  1.00  0.00     0.124 S 
ATOM     57  O   UNL A   1      40.620  22.014  26.049  1.00  0.00    -0.237 OA
ATOM     58  O   UNL A   1      42.888  21.495  25.203  1.00  0.00    -0.237 OA
ATOM     59  O   UNL A   1      42.463  21.581  27.630  1.00  0.00    -0.744 OA
ENDBRANCH  52  56
ENDBRANCH  25  49
BRANCH  37  60
ATOM     60  C   UNL A   1      45.678  26.864  33.570  1.00  0.00     0.023 A 
ATOM     61  C   UNL A   1      45.591  25.702  34.358  1.00  0.00     0.031 A 
ATOM     62  C   UNL A   1      46.941  27.453  33.393  1.00  0.00     0.131 A 
ATOM     63  C   UNL A   1      46.736  25.207  34.999  1.00  0.00     0.055 A 
ATOM     64  C   UNL A   1      48.088  26.920  33.982  1.00  0.00     0.041 A 
ATOM     65  F   UNL A   1      47.079  28.565  32.653  1.00  0.00    -0.206 F 
ATOM     66  C   UNL A   1      47.987  25.799  34.803  1.00  0.00     0.022 A 
BRANCH  63  67
ATOM     67  S   UNL A   1      46.551  23.839  36.175  1.00  0.00     0.124 S 
ATOM     68  O   UNL A   1      47.151  22.727  35.445  1.00  0.00    -0.237 OA
ATOM     69  O   UNL A   1      47.299  24.320  37.332  1.00  0.00    -0.237 OA
ATOM     70  O   UNL A   1      45.105  23.746  36.369  1.00  0.00    -0.744 OA
ENDBRANCH  63  67
ENDBRANCH  37  60
ENDBRANCH  11  12
ENDBRANCH   4   6
ENDBRANCH   1   2
BRANCH   1  71
ATOM     71  C   UNL A   1      32.661  29.197  24.837  1.00  0.00     0.042 C 
BRANCH  71  72
ATOM     72  C   UNL A   1      31.373  28.424  25.077  1.00  0.00     0.118 C 
BRANCH  72  73
ATOM     73  N   UNL A   1      30.417  28.620  23.996  1.00  0.00    -0.352 N 
ATOM     74  C   UNL A   1      30.323  27.956  22.801  1.00  0.00     0.251 C 
ATOM     75  H   UNL A   1      29.747  29.324  24.144  1.00  0.00     0.163 HD
ATOM     76  O   UNL A   1      29.609  28.384  21.900  1.00  0.00    -0.269 OA
BRANCH  74  77
ATOM     77  C   UNL A   1      31.066  26.698  22.607  1.00  0.00     0.042 A 
ATOM     78  C   UNL A   1      32.192  26.688  21.772  1.00  0.00     0.016 A 
ATOM     79  C   UNL A   1      30.662  25.563  23.328  1.00  0.00     0.042 A 
ATOM     80  C   UNL A   1      32.959  25.531  21.630  1.00  0.00     0.031 A 
ATOM     81  C   UNL A   1      31.447  24.422  23.159  1.00  0.00     0.067 A 
ATOM     82  C   UNL A   1      32.591  24.400  22.369  1.00  0.00     0.089 A 
ATOM     83  N   UNL A   1      31.366  23.145  23.663  1.00  0.00    -0.338 N 
ATOM     84  N   UNL A   1      33.246  23.211  22.494  1.00  0.00    -0.228 NA
ATOM     85  C   UNL A   1      32.513  22.483  23.309  1.00  0.00     0.142 A 
ATOM     86  H   UNL A   1      30.617  22.773  24.185  1.00  0.00     0.168 HD
BRANCH  85  87
ATOM     87  C   UNL A   1      32.951  21.168  23.821  1.00  0.00     0.063 A 
ATOM     88  C   UNL A   1      32.248  19.991  23.807  1.00  0.00     0.117 A 
ATOM     89  C   UNL A   1      34.190  20.878  24.464  1.00  0.00     0.106 A 
ATOM     90  N   UNL A   1      33.103  19.061  24.324  1.00  0.00    -0.284 N 
ATOM     91  N   UNL A   1      34.256  19.575  24.786  1.00  0.00    -0.175 NA
ATOM     92  H   UNL A   1      32.894  18.099  24.357  1.00  0.00     0.189 HD
BRANCH  89  93
ATOM     93  C   UNL A   1      35.201  21.836  24.900  1.00  0.00     0.039 A 
ATOM     94  C   UNL A   1      36.461  21.840  24.272  1.00  0.00     0.016 A 
ATOM     95  C   UNL A   1      34.968  22.734  25.943  1.00  0.00     0.135 A 
ATOM     96  C   UNL A   1      37.465  22.711  24.696  1.00  0.00     0.040 A 
ATOM     97  C   UNL A   1      35.964  23.612  26.367  1.00  0.00     0.079 A 
ATOM     98  F   UNL A   1      33.788  22.759  26.582  1.00  0.00    -0.206 F 
ATOM     99  C   UNL A   1      37.204  23.589  25.740  1.00  0.00     0.126 A 
ATOM    100  F   UNL A   1      38.168  24.426  26.150  1.00  0.00    -0.207 F 
ENDBRANCH  89  93
ENDBRANCH  85  87
ENDBRANCH  74  77
ENDBRANCH  72  73
ENDBRANCH  71  72
ENDBRANCH   1  71
TORSDOF 15
ENDMDL
MODEL 3
REMARK VINA RESULT:     -13.4      4.663      9.650
REMARK SMILES O=C(NCCCNC(=O)c1ccc2nc(-c3c[nH]nc3-c3ccc(F)cc3F)[nH]c2c1)c1ccc(-c2c3nc(c(-c4cc(S(=O)(=O)[O-])ccc4F)c4ccc([nH]4)c(-c4cc(S(=O)(=O)[O-])ccc4F)c4nc(c(-c5cc(S(=O)(=O)[O-])ccc5F)c5ccc2[nH]5)C=C4)C=C3)cc1
REMARK SMILES IDX 4 1 3 2 1 3 2 4 32 6 33 7 94 8 34 9 93 10 35 11 36 12 37 13
REMARK SMILES IDX 87 14 38 15 92 16 86 17 88 18 39 19 91 20 85 21 84 22 40 24
REMARK SMILES IDX 72 25 52 26 71 27 53 28 56 29 70 30 89 31 54 32 55 33 69 35
REMARK SMILES IDX 90 36 57 37 41 38 42 39 50 40 43 41 49 42 51 43 48 44 44 45
REMARK SMILES IDX 45 46 46 47 47 48 73 49 74 50 82 51 75 52 81 53 83 54 80 55
REMARK SMILES IDX 76 56 77 57 78 58 79 59 58 60 59 61 67 62 60 63 66 64 68 65
REMARK SMILES IDX 65 66 61 67 62 68 63 69 64 70 5 71 6 72 7 73 8 74 9 76 10 77
REMARK SMILES IDX 11 78 31 79 12 80 30 81 13 82 29 83 14 84 15 85 16 87 17 88
REMARK SMILES IDX 20 89 18 90 19 91 21 93 22 94 27 95 23 96 26 97 28 98 24 99
REMARK SMILES IDX 25 100
REMARK H PARENT 3 5 88 23 56 34 7 75 29 86 18 92
REMARK Flexibility Score: inf
ROOT
ATOM      1  C   UNL A   1      34.063  29.085  26.252  1.00  0.00     0.118 C 
ENDROOT
BRANCH   1   2
ATOM      2  N   UNL A   1      33.776  30.436  26.722  1.00  0.00    -0.352 N 
ATOM      3  O   UNL A   1      33.907  32.249  28.049  1.00  0.00    -0.269 OA
ATOM      4  C   UNL A   1      34.415  31.195  27.675  1.00  0.00     0.251 C 
ATOM      5  H   UNL A   1      33.006  30.872  26.291  1.00  0.00     0.163 HD
BRANCH   4   6
ATOM      6  C   UNL A   1      35.694  30.736  28.259  1.00  0.00     0.039 A 
ATOM      7  C   UNL A   1      36.904  31.279  27.830  1.00  0.00     0.014 A 
ATOM      8  C   UNL A   1      35.684  29.755  29.256  1.00  0.00     0.014 A 
ATOM      9  C   UNL A   1      38.101  30.721  28.258  1.00  0.00     0.010 A 
ATOM     10  C   UNL A   1      36.894  29.274  29.771  1.00  0.00     0.010 A 
ATOM     11  C   UNL A   1      38.114  29.728  29.251  1.00  0.00    -0.014 A 
BRANCH  11  12
ATOM     12  C   UNL A   1      39.425  29.237  29.750  1.00  0.00     0.031 A 
ATOM     13  C   UNL A   1      40.091  29.859  30.947  1.00  0.00     0.074 A 
ATOM     14  C   UNL A   1      39.981  28.167  29.144  1.00  0.00     0.049 A 
ATOM     15  N   UNL A   1      41.212  29.521  31.534  1.00  0.00    -0.248 NA
ATOM     16  C   UNL A   1      39.421  31.015  31.558  1.00  0.00     0.031 C 
ATOM     17  C   UNL A   1      39.426  27.488  27.968  1.00  0.00     0.029 A 
ATOM     18  N   UNL A   1      41.106  27.443  29.440  1.00  0.00    -0.354 N 
ATOM     19  C   UNL A   1      41.386  30.423  32.579  1.00  0.00     0.074 A 
ATOM     20  C   UNL A   1      40.275  31.349  32.517  1.00  0.00     0.031 C 
ATOM     21  C   UNL A   1      40.177  26.416  27.683  1.00  0.00     0.029 A 
ATOM     22  C   UNL A   1      41.307  26.372  28.601  1.00  0.00     0.049 A 
ATOM     23  H   UNL A   1      41.713  27.669  30.181  1.00  0.00     0.167 HD
ATOM     24  C   UNL A   1      42.374  30.464  33.509  1.00  0.00     0.034 A 
ATOM     25  C   UNL A   1      42.301  25.464  28.558  1.00  0.00     0.034 A 
ATOM     26  C   UNL A   1      43.478  29.533  33.551  1.00  0.00     0.049 A 
ATOM     27  C   UNL A   1      43.400  25.553  29.582  1.00  0.00     0.074 A 
ATOM     28  C   UNL A   1      44.538  29.489  34.442  1.00  0.00     0.029 A 
ATOM     29  N   UNL A   1      43.669  28.483  32.661  1.00  0.00    -0.354 N 
ATOM     30  N   UNL A   1      43.546  26.416  30.561  1.00  0.00    -0.248 NA
ATOM     31  C   UNL A   1      44.459  24.543  29.500  1.00  0.00     0.031 C 
ATOM     32  C   UNL A   1      45.395  28.450  34.060  1.00  0.00     0.029 A 
ATOM     33  C   UNL A   1      44.837  27.799  32.972  1.00  0.00     0.049 A 
ATOM     34  H   UNL A   1      43.065  28.256  31.919  1.00  0.00     0.167 HD
ATOM     35  C   UNL A   1      44.713  26.044  31.218  1.00  0.00     0.074 A 
ATOM     36  C   UNL A   1      45.208  24.859  30.546  1.00  0.00     0.031 C 
ATOM     37  C   UNL A   1      45.325  26.631  32.278  1.00  0.00     0.034 A 
BRANCH  24  38
ATOM     38  C   UNL A   1      42.319  31.574  34.533  1.00  0.00     0.023 A 
ATOM     39  C   UNL A   1      41.408  31.546  35.604  1.00  0.00     0.031 A 
ATOM     40  C   UNL A   1      43.180  32.681  34.431  1.00  0.00     0.131 A 
ATOM     41  C   UNL A   1      41.336  32.629  36.493  1.00  0.00     0.055 A 
ATOM     42  C   UNL A   1      43.154  33.723  35.363  1.00  0.00     0.041 A 
ATOM     43  F   UNL A   1      44.058  32.774  33.421  1.00  0.00    -0.206 F 
ATOM     44  C   UNL A   1      42.219  33.707  36.394  1.00  0.00     0.022 A 
BRANCH  41  45
ATOM     45  S   UNL A   1      39.988  32.668  37.707  1.00  0.00     0.124 S 
ATOM     46  O   UNL A   1      39.518  34.047  37.584  1.00  0.00    -0.237 OA
ATOM     47  O   UNL A   1      39.082  31.640  37.208  1.00  0.00    -0.237 OA
ATOM     48  O   UNL A   1      40.654  32.354  38.969  1.00  0.00    -0.744 OA
ENDBRANCH  41  45
ENDBRANCH  24  38
BRANCH  25  49
ATOM     49  C   UNL A   1      42.325  24.425  27.489  1.00  0.00     0.023 A 
ATOM     50  C   UNL A   1      41.663  23.200  27.647  1.00  0.00     0.031 A 
ATOM     51  C   UNL A   1      43.046  24.637  26.298  1.00  0.00     0.131 A 
ATOM     52  C   UNL A   1      41.773  22.213  26.654  1.00  0.00     0.055 A 
ATOM     53  C   UNL A   1      43.102  23.678  25.288  1.00  0.00     0.041 A 
ATOM     54  F   UNL A   1      43.694  25.795  26.093  1.00  0.00    -0.206 F 
ATOM     55  C   UNL A   1      42.475  22.449  25.470  1.00  0.00     0.022 A 
BRANCH  52  56
ATOM     56  S   UNL A   1      41.064  20.575  26.977  1.00  0.00     0.124 S 
ATOM     57  O   UNL A   1      40.771  20.653  28.404  1.00  0.00    -0.237 OA
ATOM     58  O   UNL A   1      39.911  20.565  26.085  1.00  0.00    -0.237 OA
ATOM     59  O   UNL A   1      42.143  19.661  26.610  1.00  0.00    -0.744 OA
ENDBRANCH  52  56
ENDBRANCH  25  49
BRANCH  37  60
ATOM     60  C   UNL A   1      46.584  25.966  32.779  1.00  0.00     0.023 A 
ATOM     61  C   UNL A   1      47.804  26.091  32.092  1.00  0.00     0.031 A 
ATOM     62  C   UNL A   1      46.550  25.162  33.931  1.00  0.00     0.131 A 
ATOM     63  C   UNL A   1      48.925  25.366  32.523  1.00  0.00     0.055 A 
ATOM     64  C   UNL A   1      47.683  24.492  34.391  1.00  0.00     0.041 A 
ATOM     65  F   UNL A   1      45.409  25.007  34.623  1.00  0.00    -0.206 F 
ATOM     66  C   UNL A   1      48.876  24.579  33.677  1.00  0.00     0.022 A 
BRANCH  63  67
ATOM     67  S   UNL A   1      50.418  25.381  31.495  1.00  0.00     0.124 S 
ATOM     68  O   UNL A   1      49.891  25.800  30.200  1.00  0.00    -0.237 OA
ATOM     69  O   UNL A   1      51.261  26.351  32.184  1.00  0.00    -0.237 OA
ATOM     70  O   UNL A   1      50.890  23.999  31.554  1.00  0.00    -0.744 OA
ENDBRANCH  63  67
ENDBRANCH  37  60
ENDBRANCH  11  12
ENDBRANCH   4   6
ENDBRANCH   1   2
BRANCH   1  71
ATOM     71  C   UNL A   1      32.938  28.500  25.410  1.00  0.00     0.042 C 
BRANCH  71  72
ATOM     72  C   UNL A   1      32.954  28.960  23.961  1.00  0.00     0.118 C 
BRANCH  72  73
ATOM     73  N   UNL A   1      31.609  29.063  23.412  1.00  0.00    -0.352 N 
ATOM     74  C   UNL A   1      30.942  28.183  22.602  1.00  0.00     0.251 C 
ATOM     75  H   UNL A   1      31.111  29.876  23.656  1.00  0.00     0.163 HD
ATOM     76  O   UNL A   1      29.903  28.512  22.039  1.00  0.00    -0.269 OA
BRANCH  74  77
ATOM     77  C   UNL A   1      31.463  26.815  22.428  1.00  0.00     0.042 A 
ATOM     78  C   UNL A   1      32.334  26.543  21.363  1.00  0.00     0.016 A 
ATOM     79  C   UNL A   1      31.125  25.843  23.384  1.00  0.00     0.042 A 
ATOM     80  C   UNL A   1      32.903  25.277  21.220  1.00  0.00     0.031 A 
ATOM     81  C   UNL A   1      31.707  24.587  23.208  1.00  0.00     0.067 A 
ATOM     82  C   UNL A   1      32.606  24.306  22.184  1.00  0.00     0.089 A 
ATOM     83  N   UNL A   1      31.610  23.403  23.900  1.00  0.00    -0.338 N 
ATOM     84  N   UNL A   1      33.131  23.056  22.327  1.00  0.00    -0.228 NA
ATOM     85  C   UNL A   1      32.547  22.543  23.389  1.00  0.00     0.142 A 
ATOM     86  H   UNL A   1      30.979  23.208  24.632  1.00  0.00     0.168 HD
BRANCH  85  87
ATOM     87  C   UNL A   1      32.947  21.246  23.974  1.00  0.00     0.063 A 
ATOM     88  C   UNL A   1      32.195  20.103  24.059  1.00  0.00     0.117 A 
ATOM     89  C   UNL A   1      34.192  20.945  24.598  1.00  0.00     0.106 A 
ATOM     90  N   UNL A   1      33.028  19.171  24.611  1.00  0.00    -0.284 N 
ATOM     91  N   UNL A   1      34.215  19.663  25.003  1.00  0.00    -0.175 NA
ATOM     92  H   UNL A   1      32.780  18.224  24.713  1.00  0.00     0.189 HD
BRANCH  89  93
ATOM     93  C   UNL A   1      35.257  21.883  24.939  1.00  0.00     0.039 A 
ATOM     94  C   UNL A   1      36.483  21.814  24.251  1.00  0.00     0.016 A 
ATOM     95  C   UNL A   1      35.107  22.834  25.950  1.00  0.00     0.135 A 
ATOM     96  C   UNL A   1      37.536  22.666  24.586  1.00  0.00     0.040 A 
ATOM     97  C   UNL A   1      36.152  23.694  26.284  1.00  0.00     0.079 A 
ATOM     98  F   UNL A   1      33.962  22.931  26.644  1.00  0.00    -0.206 F 
ATOM     99  C   UNL A   1      37.358  23.598  25.600  1.00  0.00     0.126 A 
ATOM    100  F   UNL A   1      38.368  24.417  25.923  1.00  0.00    -0.207 F 
ENDBRANCH  89  93
ENDBRANCH  85  87
ENDBRANCH  74  77
ENDBRANCH  72  73
ENDBRANCH  71  72
ENDBRANCH   1  71
TORSDOF 15
ENDMDL
