MODEL 1
REMARK VINA RESULT:     -12.5      0.000      0.000
REMARK SMILES O=C(NCCCNC(=O)c1cc(-c2cccc(Cl)c2)ccc1Cl)c1ccc(-c2c3nc(c(-c4cc(S(=O)(=O)[O-])ccc4F)c4ccc([nH]4)c(-c4cc(S(=O)(=O)[O-])ccc4F)c4nc(c(-c5cc(S(=O)(=O)[O-])ccc5F)c5ccc2[nH]5)C=C4)C=C3)cc1
REMARK SMILES IDX 4 1 3 2 1 3 2 4 24 6 25 7 86 8 26 9 85 10 27 11 28 12 29 13
REMARK SMILES IDX 79 14 30 15 84 16 78 17 80 18 31 19 83 20 77 21 76 22 32 24
REMARK SMILES IDX 64 25 44 26 63 27 45 28 48 29 62 30 81 31 46 32 47 33 61 35
REMARK SMILES IDX 82 36 49 37 33 38 34 39 42 40 35 41 41 42 43 43 40 44 36 45
REMARK SMILES IDX 37 46 38 47 39 48 65 49 66 50 74 51 67 52 73 53 75 54 72 55
REMARK SMILES IDX 68 56 69 57 70 58 71 59 50 60 51 61 59 62 52 63 58 64 60 65
REMARK SMILES IDX 57 66 53 67 54 68 55 69 56 70 5 71 6 72 7 73 8 74 9 76 10 77
REMARK SMILES IDX 11 78 22 79 12 80 21 81 23 82 20 83 13 84 14 85 19 86 15 87
REMARK SMILES IDX 17 88 16 89 18 90
REMARK H PARENT 3 5 80 23 48 34 7 75
REMARK Flexibility Score: inf
ROOT
ATOM      1  C   UNL A   1      36.242  22.364  25.669  1.00  0.00     0.118 C 
ENDROOT
BRANCH   1   2
ATOM      2  N   UNL A   1      37.243  21.302  25.676  1.00  0.00    -0.352 N 
ATOM      3  O   UNL A   1      39.271  20.332  25.747  1.00  0.00    -0.269 OA
ATOM      4  C   UNL A   1      38.590  21.337  25.950  1.00  0.00     0.251 C 
ATOM      5  H   UNL A   1      36.895  20.410  25.447  1.00  0.00     0.163 HD
BRANCH   4   6
ATOM      6  C   UNL A   1      39.231  22.573  26.453  1.00  0.00     0.039 A 
ATOM      7  C   UNL A   1      38.774  23.830  26.062  1.00  0.00     0.014 A 
ATOM      8  C   UNL A   1      40.301  22.474  27.351  1.00  0.00     0.014 A 
ATOM      9  C   UNL A   1      39.501  24.966  26.397  1.00  0.00     0.010 A 
ATOM     10  C   UNL A   1      40.960  23.631  27.782  1.00  0.00     0.010 A 
ATOM     11  C   UNL A   1      40.597  24.887  27.271  1.00  0.00    -0.014 A 
BRANCH  11  12
ATOM     12  C   UNL A   1      41.313  26.136  27.644  1.00  0.00     0.031 A 
ATOM     13  C   UNL A   1      42.670  26.458  27.075  1.00  0.00     0.074 A 
ATOM     14  C   UNL A   1      40.700  27.016  28.461  1.00  0.00     0.049 A 
ATOM     15  N   UNL A   1      43.407  27.527  27.247  1.00  0.00    -0.248 NA
ATOM     16  C   UNL A   1      43.286  25.443  26.209  1.00  0.00     0.031 C 
ATOM     17  C   UNL A   1      39.388  26.809  29.083  1.00  0.00     0.029 A 
ATOM     18  N   UNL A   1      41.070  28.267  28.883  1.00  0.00    -0.354 N 
ATOM     19  C   UNL A   1      44.581  27.305  26.536  1.00  0.00     0.074 A 
ATOM     20  C   UNL A   1      44.471  25.983  25.957  1.00  0.00     0.031 C 
ATOM     21  C   UNL A   1      39.033  27.921  29.741  1.00  0.00     0.029 A 
ATOM     22  C   UNL A   1      40.118  28.891  29.655  1.00  0.00     0.049 A 
ATOM     23  H   UNL A   1      41.934  28.678  28.655  1.00  0.00     0.167 HD
ATOM     24  C   UNL A   1      45.647  28.132  26.375  1.00  0.00     0.034 A 
ATOM     25  C   UNL A   1      40.117  30.104  30.240  1.00  0.00     0.034 A 
ATOM     26  C   UNL A   1      45.732  29.456  26.948  1.00  0.00     0.049 A 
ATOM     27  C   UNL A   1      41.320  30.990  30.063  1.00  0.00     0.074 A 
ATOM     28  C   UNL A   1      46.745  30.390  26.813  1.00  0.00     0.029 A 
ATOM     29  N   UNL A   1      44.773  30.031  27.772  1.00  0.00    -0.354 N 
ATOM     30  N   UNL A   1      42.414  30.769  29.372  1.00  0.00    -0.248 NA
ATOM     31  C   UNL A   1      41.284  32.287  30.747  1.00  0.00     0.031 C 
ATOM     32  C   UNL A   1      46.429  31.501  27.606  1.00  0.00     0.029 A 
ATOM     33  C   UNL A   1      45.185  31.293  28.179  1.00  0.00     0.049 A 
ATOM     34  H   UNL A   1      43.923  29.607  28.030  1.00  0.00     0.167 HD
ATOM     35  C   UNL A   1      43.192  31.912  29.525  1.00  0.00     0.074 A 
ATOM     36  C   UNL A   1      42.429  32.826  30.354  1.00  0.00     0.031 C 
ATOM     37  C   UNL A   1      44.424  32.183  29.025  1.00  0.00     0.034 A 
BRANCH  24  38
ATOM     38  C   UNL A   1      46.826  27.601  25.590  1.00  0.00     0.023 A 
ATOM     39  C   UNL A   1      47.083  28.002  24.266  1.00  0.00     0.031 A 
ATOM     40  C   UNL A   1      47.691  26.654  26.167  1.00  0.00     0.131 A 
ATOM     41  C   UNL A   1      48.125  27.403  23.542  1.00  0.00     0.055 A 
ATOM     42  C   UNL A   1      48.776  26.120  25.467  1.00  0.00     0.041 A 
ATOM     43  F   UNL A   1      47.488  26.216  27.420  1.00  0.00    -0.206 F 
ATOM     44  C   UNL A   1      48.988  26.482  24.140  1.00  0.00     0.022 A 
BRANCH  41  45
ATOM     45  S   UNL A   1      48.245  27.732  21.761  1.00  0.00     0.124 S 
ATOM     46  O   UNL A   1      46.940  28.327  21.480  1.00  0.00    -0.237 OA
ATOM     47  O   UNL A   1      49.388  28.633  21.683  1.00  0.00    -0.237 OA
ATOM     48  O   UNL A   1      48.454  26.407  21.180  1.00  0.00    -0.744 OA
ENDBRANCH  41  45
ENDBRANCH  24  38
BRANCH  25  49
ATOM     49  C   UNL A   1      38.954  30.541  31.060  1.00  0.00     0.023 A 
ATOM     50  C   UNL A   1      37.973  31.394  30.530  1.00  0.00     0.031 A 
ATOM     51  C   UNL A   1      38.816  30.126  32.397  1.00  0.00     0.131 A 
ATOM     52  C   UNL A   1      36.917  31.833  31.343  1.00  0.00     0.055 A 
ATOM     53  C   UNL A   1      37.735  30.522  33.185  1.00  0.00     0.041 A 
ATOM     54  F   UNL A   1      39.724  29.306  32.950  1.00  0.00    -0.206 F 
ATOM     55  C   UNL A   1      36.783  31.391  32.661  1.00  0.00     0.022 A 
BRANCH  52  56
ATOM     56  S   UNL A   1      35.751  33.048  30.670  1.00  0.00     0.124 S 
ATOM     57  O   UNL A   1      34.469  32.398  30.916  1.00  0.00    -0.237 OA
ATOM     58  O   UNL A   1      36.039  34.226  31.481  1.00  0.00    -0.237 OA
ATOM     59  O   UNL A   1      36.140  33.151  29.265  1.00  0.00    -0.744 OA
ENDBRANCH  52  56
ENDBRANCH  25  49
BRANCH  37  60
ATOM     60  C   UNL A   1      44.996  33.542  29.343  1.00  0.00     0.023 A 
ATOM     61  C   UNL A   1      44.791  34.646  28.496  1.00  0.00     0.031 A 
ATOM     62  C   UNL A   1      45.793  33.725  30.487  1.00  0.00     0.131 A 
ATOM     63  C   UNL A   1      45.430  35.864  28.769  1.00  0.00     0.055 A 
ATOM     64  C   UNL A   1      46.377  34.956  30.786  1.00  0.00     0.041 A 
ATOM     65  F   UNL A   1      46.024  32.704  31.328  1.00  0.00    -0.206 F 
ATOM     66  C   UNL A   1      46.210  36.031  29.917  1.00  0.00     0.022 A 
BRANCH  63  67
ATOM     67  S   UNL A   1      45.316  37.201  27.547  1.00  0.00     0.124 S 
ATOM     68  O   UNL A   1      45.740  38.360  28.324  1.00  0.00    -0.237 OA
ATOM     69  O   UNL A   1      46.243  36.755  26.510  1.00  0.00    -0.237 OA
ATOM     70  O   UNL A   1      43.906  37.193  27.162  1.00  0.00    -0.744 OA
ENDBRANCH  63  67
ENDBRANCH  37  60
ENDBRANCH  11  12
ENDBRANCH   4   6
ENDBRANCH   1   2
BRANCH   1  71
ATOM     71  C   UNL A   1      35.586  22.566  24.311  1.00  0.00     0.042 C 
BRANCH  71  72
ATOM     72  C   UNL A   1      34.495  23.625  24.296  1.00  0.00     0.118 C 
BRANCH  72  73
ATOM     73  N   UNL A   1      34.326  24.246  22.989  1.00  0.00    -0.352 N 
ATOM     74  C   UNL A   1      33.496  25.268  22.606  1.00  0.00     0.252 C 
ATOM     75  H   UNL A   1      34.892  23.877  22.273  1.00  0.00     0.163 HD
ATOM     76  O   UNL A   1      33.446  25.619  21.430  1.00  0.00    -0.269 OA
BRANCH  74  77
ATOM     77  C   UNL A   1      32.616  25.924  23.589  1.00  0.00     0.059 A 
ATOM     78  C   UNL A   1      33.138  27.039  24.269  1.00  0.00     0.024 A 
ATOM     79  C   UNL A   1      31.347  25.437  23.912  1.00  0.00     0.053 A 
ATOM     80  C   UNL A   1      32.379  27.709  25.240  1.00  0.00    -0.017 A 
ATOM     81  C   UNL A   1      30.555  26.138  24.819  1.00  0.00     0.022 A 
ATOM     82  Cl  UNL A   1      30.717  23.951  23.289  1.00  0.00    -0.083 Cl
ATOM     83  C   UNL A   1      31.064  27.267  25.467  1.00  0.00     0.010 A 
BRANCH  80  84
ATOM     84  C   UNL A   1      32.953  28.791  26.057  1.00  0.00    -0.017 A 
ATOM     85  C   UNL A   1      32.201  29.957  26.301  1.00  0.00     0.009 A 
ATOM     86  C   UNL A   1      34.231  28.699  26.627  1.00  0.00     0.029 A 
ATOM     87  C   UNL A   1      32.707  31.001  27.079  1.00  0.00     0.002 A 
ATOM     88  C   UNL A   1      34.735  29.745  27.404  1.00  0.00     0.041 A 
ATOM     89  C   UNL A   1      33.980  30.894  27.631  1.00  0.00     0.020 A 
ATOM     90  Cl  UNL A   1      36.306  29.619  28.097  1.00  0.00    -0.084 Cl
ENDBRANCH  80  84
ENDBRANCH  74  77
ENDBRANCH  72  73
ENDBRANCH  71  72
ENDBRANCH   1  71
TORSDOF 14
ENDMDL
MODEL 2
REMARK VINA RESULT:     -12.5      1.496      7.793
REMARK SMILES O=C(NCCCNC(=O)c1cc(-c2cccc(Cl)c2)ccc1Cl)c1ccc(-c2c3nc(c(-c4cc(S(=O)(=O)[O-])ccc4F)c4ccc([nH]4)c(-c4cc(S(=O)(=O)[O-])ccc4F)c4nc(c(-c5cc(S(=O)(=O)[O-])ccc5F)c5ccc2[nH]5)C=C4)C=C3)cc1
REMARK SMILES IDX 4 1 3 2 1 3 2 4 24 6 25 7 86 8 26 9 85 10 27 11 28 12 29 13
REMARK SMILES IDX 79 14 30 15 84 16 78 17 80 18 31 19 83 20 77 21 76 22 32 24
REMARK SMILES IDX 64 25 44 26 63 27 45 28 48 29 62 30 81 31 46 32 47 33 61 35
REMARK SMILES IDX 82 36 49 37 33 38 34 39 42 40 35 41 41 42 43 43 40 44 36 45
REMARK SMILES IDX 37 46 38 47 39 48 65 49 66 50 74 51 67 52 73 53 75 54 72 55
REMARK SMILES IDX 68 56 69 57 70 58 71 59 50 60 51 61 59 62 52 63 58 64 60 65
REMARK SMILES IDX 57 66 53 67 54 68 55 69 56 70 5 71 6 72 7 73 8 74 9 76 10 77
REMARK SMILES IDX 11 78 22 79 12 80 21 81 23 82 20 83 13 84 14 85 19 86 15 87
REMARK SMILES IDX 17 88 16 89 18 90
REMARK H PARENT 3 5 80 23 48 34 7 75
REMARK Flexibility Score: inf
ROOT
ATOM      1  C   UNL A   1      35.719  22.033  25.734  1.00  0.00     0.118 C 
ENDROOT
BRANCH   1   2
ATOM      2  N   UNL A   1      36.743  21.003  25.594  1.00  0.00    -0.352 N 
ATOM      3  O   UNL A   1      38.791  20.096  25.384  1.00  0.00    -0.269 OA
ATOM      4  C   UNL A   1      38.113  21.076  25.690  1.00  0.00     0.251 C 
ATOM      5  H   UNL A   1      36.394  20.103  25.397  1.00  0.00     0.163 HD
BRANCH   4   6
ATOM      6  C   UNL A   1      38.778  22.325  26.126  1.00  0.00     0.039 A 
ATOM      7  C   UNL A   1      38.225  23.572  25.838  1.00  0.00     0.014 A 
ATOM      8  C   UNL A   1      39.971  22.250  26.853  1.00  0.00     0.014 A 
ATOM      9  C   UNL A   1      38.953  24.728  26.092  1.00  0.00     0.010 A 
ATOM     10  C   UNL A   1      40.646  23.422  27.213  1.00  0.00     0.010 A 
ATOM     11  C   UNL A   1      40.169  24.673  26.793  1.00  0.00    -0.014 A 
BRANCH  11  12
ATOM     12  C   UNL A   1      40.888  25.941  27.089  1.00  0.00     0.031 A 
ATOM     13  C   UNL A   1      40.293  26.980  28.003  1.00  0.00     0.074 A 
ATOM     14  C   UNL A   1      42.119  26.124  26.572  1.00  0.00     0.049 A 
ATOM     15  N   UNL A   1      40.809  28.112  28.414  1.00  0.00    -0.248 NA
ATOM     16  C   UNL A   1      38.939  26.722  28.513  1.00  0.00     0.031 C 
ATOM     17  C   UNL A   1      42.796  25.191  25.665  1.00  0.00     0.029 A 
ATOM     18  N   UNL A   1      43.036  27.127  26.754  1.00  0.00    -0.354 N 
ATOM     19  C   UNL A   1      39.837  28.713  29.207  1.00  0.00     0.074 A 
ATOM     20  C   UNL A   1      38.687  27.833  29.190  1.00  0.00     0.031 C 
ATOM     21  C   UNL A   1      44.041  25.628  25.433  1.00  0.00     0.029 A 
ATOM     22  C   UNL A   1      44.231  26.906  26.109  1.00  0.00     0.049 A 
ATOM     23  H   UNL A   1      42.856  27.929  27.296  1.00  0.00     0.167 HD
ATOM     24  C   UNL A   1      39.903  29.885  29.891  1.00  0.00     0.034 A 
ATOM     25  C   UNL A   1      45.351  27.649  26.055  1.00  0.00     0.034 A 
ATOM     26  C   UNL A   1      41.066  30.742  29.908  1.00  0.00     0.049 A 
ATOM     27  C   UNL A   1      45.389  28.953  26.804  1.00  0.00     0.074 A 
ATOM     28  C   UNL A   1      41.254  31.927  30.600  1.00  0.00     0.029 A 
ATOM     29  N   UNL A   1      42.236  30.513  29.196  1.00  0.00    -0.354 N 
ATOM     30  N   UNL A   1      44.466  29.496  27.563  1.00  0.00    -0.248 NA
ATOM     31  C   UNL A   1      46.620  29.741  26.687  1.00  0.00     0.031 C 
ATOM     32  C   UNL A   1      42.508  32.445  30.255  1.00  0.00     0.029 A 
ATOM     33  C   UNL A   1      43.136  31.549  29.405  1.00  0.00     0.049 A 
ATOM     34  H   UNL A   1      42.404  29.728  28.625  1.00  0.00     0.167 HD
ATOM     35  C   UNL A   1      45.014  30.686  28.029  1.00  0.00     0.074 A 
ATOM     36  C   UNL A   1      46.356  30.766  27.483  1.00  0.00     0.031 C 
ATOM     37  C   UNL A   1      44.461  31.627  28.835  1.00  0.00     0.034 A 
BRANCH  24  38
ATOM     38  C   UNL A   1      38.660  30.328  30.631  1.00  0.00     0.023 A 
ATOM     39  C   UNL A   1      37.742  31.236  30.073  1.00  0.00     0.031 A 
ATOM     40  C   UNL A   1      38.406  29.856  31.931  1.00  0.00     0.131 A 
ATOM     41  C   UNL A   1      36.661  31.700  30.838  1.00  0.00     0.055 A 
ATOM     42  C   UNL A   1      37.284  30.260  32.658  1.00  0.00     0.041 A 
ATOM     43  F   UNL A   1      39.254  29.002  32.527  1.00  0.00    -0.206 F 
ATOM     44  C   UNL A   1      36.412  31.200  32.119  1.00  0.00     0.022 A 
BRANCH  41  45
ATOM     45  S   UNL A   1      35.670  33.077  30.195  1.00  0.00     0.124 S 
ATOM     46  O   UNL A   1      34.309  32.618  30.468  1.00  0.00    -0.237 OA
ATOM     47  O   UNL A   1      36.136  34.202  30.995  1.00  0.00    -0.237 OA
ATOM     48  O   UNL A   1      36.028  33.127  28.778  1.00  0.00    -0.744 OA
ENDBRANCH  41  45
ENDBRANCH  24  38
BRANCH  25  49
ATOM     49  C   UNL A   1      46.518  27.191  25.250  1.00  0.00     0.023 A 
ATOM     50  C   UNL A   1      46.868  27.833  24.051  1.00  0.00     0.031 A 
ATOM     51  C   UNL A   1      47.292  26.091  25.661  1.00  0.00     0.131 A 
ATOM     52  C   UNL A   1      47.940  27.347  23.287  1.00  0.00     0.055 A 
ATOM     53  C   UNL A   1      48.388  25.644  24.924  1.00  0.00     0.041 A 
ATOM     54  F   UNL A   1      47.001  25.445  26.802  1.00  0.00    -0.206 F 
ATOM     55  C   UNL A   1      48.711  26.267  23.723  1.00  0.00     0.022 A 
BRANCH  52  56
ATOM     56  S   UNL A   1      48.272  28.108  21.675  1.00  0.00     0.124 S 
ATOM     57  O   UNL A   1      48.088  26.980  20.770  1.00  0.00    -0.237 OA
ATOM     58  O   UNL A   1      47.253  29.151  21.617  1.00  0.00    -0.237 OA
ATOM     59  O   UNL A   1      49.646  28.589  21.803  1.00  0.00    -0.744 OA
ENDBRANCH  52  56
ENDBRANCH  25  49
BRANCH  37  60
ATOM     60  C   UNL A   1      45.334  32.804  29.194  1.00  0.00     0.023 A 
ATOM     61  C   UNL A   1      45.383  33.958  28.392  1.00  0.00     0.031 A 
ATOM     62  C   UNL A   1      46.160  32.752  30.331  1.00  0.00     0.131 A 
ATOM     63  C   UNL A   1      46.289  34.984  28.699  1.00  0.00     0.055 A 
ATOM     64  C   UNL A   1      47.015  33.802  30.665  1.00  0.00     0.041 A 
ATOM     65  F   UNL A   1      46.155  31.673  31.130  1.00  0.00    -0.206 F 
ATOM     66  C   UNL A   1      47.095  34.920  29.839  1.00  0.00     0.022 A 
BRANCH  63  67
ATOM     67  S   UNL A   1      46.477  36.358  27.530  1.00  0.00     0.124 S 
ATOM     68  O   UNL A   1      47.205  37.339  28.328  1.00  0.00    -0.237 OA
ATOM     69  O   UNL A   1      47.228  35.740  26.441  1.00  0.00    -0.237 OA
ATOM     70  O   UNL A   1      45.100  36.723  27.204  1.00  0.00    -0.744 OA
ENDBRANCH  63  67
ENDBRANCH  37  60
ENDBRANCH  11  12
ENDBRANCH   4   6
ENDBRANCH   1   2
BRANCH   1  71
ATOM     71  C   UNL A   1      34.451  21.536  26.412  1.00  0.00     0.042 C 
BRANCH  71  72
ATOM     72  C   UNL A   1      33.972  22.409  27.561  1.00  0.00     0.118 C 
BRANCH  72  73
ATOM     73  N   UNL A   1      32.531  22.613  27.555  1.00  0.00    -0.352 N 
ATOM     74  C   UNL A   1      31.783  23.561  26.904  1.00  0.00     0.252 C 
ATOM     75  H   UNL A   1      32.015  21.975  28.099  1.00  0.00     0.163 HD
ATOM     76  O   UNL A   1      30.567  23.615  27.073  1.00  0.00    -0.269 OA
BRANCH  74  77
ATOM     77  C   UNL A   1      32.432  24.559  26.037  1.00  0.00     0.059 A 
ATOM     78  C   UNL A   1      32.679  25.825  26.596  1.00  0.00     0.024 A 
ATOM     79  C   UNL A   1      32.728  24.316  24.693  1.00  0.00     0.053 A 
ATOM     80  C   UNL A   1      33.270  26.845  25.834  1.00  0.00    -0.017 A 
ATOM     81  C   UNL A   1      33.384  25.295  23.949  1.00  0.00     0.022 A 
ATOM     82  Cl  UNL A   1      32.260  22.870  23.867  1.00  0.00    -0.083 Cl
ATOM     83  C   UNL A   1      33.660  26.541  24.519  1.00  0.00     0.010 A 
BRANCH  80  84
ATOM     84  C   UNL A   1      33.413  28.214  26.356  1.00  0.00    -0.017 A 
ATOM     85  C   UNL A   1      34.597  28.588  27.022  1.00  0.00     0.009 A 
ATOM     86  C   UNL A   1      32.410  29.182  26.199  1.00  0.00     0.029 A 
ATOM     87  C   UNL A   1      34.774  29.880  27.523  1.00  0.00     0.002 A 
ATOM     88  C   UNL A   1      32.590  30.474  26.701  1.00  0.00     0.041 A 
ATOM     89  C   UNL A   1      33.766  30.825  27.363  1.00  0.00     0.020 A 
ATOM     90  Cl  UNL A   1      31.352  31.652  26.501  1.00  0.00    -0.084 Cl
ENDBRANCH  80  84
ENDBRANCH  74  77
ENDBRANCH  72  73
ENDBRANCH  71  72
ENDBRANCH   1  71
TORSDOF 14
ENDMDL
MODEL 3
REMARK VINA RESULT:     -12.4      1.362      1.926
REMARK SMILES O=C(NCCCNC(=O)c1cc(-c2cccc(Cl)c2)ccc1Cl)c1ccc(-c2c3nc(c(-c4cc(S(=O)(=O)[O-])ccc4F)c4ccc([nH]4)c(-c4cc(S(=O)(=O)[O-])ccc4F)c4nc(c(-c5cc(S(=O)(=O)[O-])ccc5F)c5ccc2[nH]5)C=C4)C=C3)cc1
REMARK SMILES IDX 4 1 3 2 1 3 2 4 24 6 25 7 86 8 26 9 85 10 27 11 28 12 29 13
REMARK SMILES IDX 79 14 30 15 84 16 78 17 80 18 31 19 83 20 77 21 76 22 32 24
REMARK SMILES IDX 64 25 44 26 63 27 45 28 48 29 62 30 81 31 46 32 47 33 61 35
REMARK SMILES IDX 82 36 49 37 33 38 34 39 42 40 35 41 41 42 43 43 40 44 36 45
REMARK SMILES IDX 37 46 38 47 39 48 65 49 66 50 74 51 67 52 73 53 75 54 72 55
REMARK SMILES IDX 68 56 69 57 70 58 71 59 50 60 51 61 59 62 52 63 58 64 60 65
REMARK SMILES IDX 57 66 53 67 54 68 55 69 56 70 5 71 6 72 7 73 8 74 9 76 10 77
REMARK SMILES IDX 11 78 22 79 12 80 21 81 23 82 20 83 13 84 14 85 19 86 15 87
REMARK SMILES IDX 17 88 16 89 18 90
REMARK H PARENT 3 5 80 23 48 34 7 75
REMARK Flexibility Score: inf
ROOT
ATOM      1  C   UNL A   1      36.341  22.078  25.376  1.00  0.00     0.118 C 
ENDROOT
BRANCH   1   2
ATOM      2  N   UNL A   1      37.335  21.016  25.487  1.00  0.00    -0.352 N 
ATOM      3  O   UNL A   1      39.351  20.048  25.727  1.00  0.00    -0.269 OA
ATOM      4  C   UNL A   1      38.661  21.059  25.849  1.00  0.00     0.251 C 
ATOM      5  H   UNL A   1      37.001  20.117  25.265  1.00  0.00     0.163 HD
BRANCH   4   6
ATOM      6  C   UNL A   1      39.271  22.311  26.353  1.00  0.00     0.039 A 
ATOM      7  C   UNL A   1      38.794  23.556  25.947  1.00  0.00     0.014 A 
ATOM      8  C   UNL A   1      40.330  22.240  27.265  1.00  0.00     0.014 A 
ATOM      9  C   UNL A   1      39.493  24.709  26.284  1.00  0.00     0.010 A 
ATOM     10  C   UNL A   1      40.960  23.413  27.698  1.00  0.00     0.010 A 
ATOM     11  C   UNL A   1      40.579  24.657  27.173  1.00  0.00    -0.014 A 
BRANCH  11  12
ATOM     12  C   UNL A   1      41.265  25.924  27.547  1.00  0.00     0.031 A 
ATOM     13  C   UNL A   1      42.617  26.274  26.984  1.00  0.00     0.074 A 
ATOM     14  C   UNL A   1      40.627  26.791  28.359  1.00  0.00     0.049 A 
ATOM     15  N   UNL A   1      43.328  27.360  27.158  1.00  0.00    -0.248 NA
ATOM     16  C   UNL A   1      43.261  25.271  26.124  1.00  0.00     0.031 C 
ATOM     17  C   UNL A   1      39.317  26.556  28.974  1.00  0.00     0.029 A 
ATOM     18  N   UNL A   1      40.966  28.050  28.780  1.00  0.00    -0.354 N 
ATOM     19  C   UNL A   1      44.512  27.163  26.454  1.00  0.00     0.074 A 
ATOM     20  C   UNL A   1      44.434  25.837  25.878  1.00  0.00     0.031 C 
ATOM     21  C   UNL A   1      38.933  27.661  29.627  1.00  0.00     0.029 A 
ATOM     22  C   UNL A   1      39.997  28.655  29.545  1.00  0.00     0.049 A 
ATOM     23  H   UNL A   1      41.823  28.481  28.555  1.00  0.00     0.167 HD
ATOM     24  C   UNL A   1      45.559  28.013  26.297  1.00  0.00     0.034 A 
ATOM     25  C   UNL A   1      39.966  29.868  30.127  1.00  0.00     0.034 A 
ATOM     26  C   UNL A   1      45.612  29.340  26.867  1.00  0.00     0.049 A 
ATOM     27  C   UNL A   1      41.149  30.782  29.955  1.00  0.00     0.074 A 
ATOM     28  C   UNL A   1      46.604  30.297  26.736  1.00  0.00     0.029 A 
ATOM     29  N   UNL A   1      44.635  29.896  27.685  1.00  0.00    -0.354 N 
ATOM     30  N   UNL A   1      42.251  30.584  29.270  1.00  0.00    -0.248 NA
ATOM     31  C   UNL A   1      41.080  32.079  30.635  1.00  0.00     0.031 C 
ATOM     32  C   UNL A   1      46.259  31.402  27.524  1.00  0.00     0.029 A 
ATOM     33  C   UNL A   1      45.016  31.167  28.091  1.00  0.00     0.049 A 
ATOM     34  H   UNL A   1      43.794  29.452  27.938  1.00  0.00     0.167 HD
ATOM     35  C   UNL A   1      43.003  31.744  29.424  1.00  0.00     0.074 A 
ATOM     36  C   UNL A   1      42.215  32.642  30.247  1.00  0.00     0.031 C 
ATOM     37  C   UNL A   1      44.231  32.042  28.931  1.00  0.00     0.034 A 
BRANCH  24  38
ATOM     38  C   UNL A   1      46.754  27.507  25.519  1.00  0.00     0.023 A 
ATOM     39  C   UNL A   1      47.038  27.951  24.215  1.00  0.00     0.031 A 
ATOM     40  C   UNL A   1      47.607  26.541  26.083  1.00  0.00     0.131 A 
ATOM     41  C   UNL A   1      48.095  27.375  23.492  1.00  0.00     0.055 A 
ATOM     42  C   UNL A   1      48.706  26.030  25.388  1.00  0.00     0.041 A 
ATOM     43  F   UNL A   1      47.379  26.064  27.317  1.00  0.00    -0.206 F 
ATOM     44  C   UNL A   1      48.946  26.434  24.079  1.00  0.00     0.022 A 
BRANCH  41  45
ATOM     45  S   UNL A   1      48.251  27.760  21.726  1.00  0.00     0.124 S 
ATOM     46  O   UNL A   1      49.333  28.743  21.731  1.00  0.00    -0.237 OA
ATOM     47  O   UNL A   1      48.572  26.462  21.147  1.00  0.00    -0.237 OA
ATOM     48  O   UNL A   1      46.937  28.294  21.373  1.00  0.00    -0.744 OA
ENDBRANCH  41  45
ENDBRANCH  24  38
BRANCH  25  49
ATOM     49  C   UNL A   1      38.788  30.282  30.940  1.00  0.00     0.023 A 
ATOM     50  C   UNL A   1      37.715  30.975  30.360  1.00  0.00     0.031 A 
ATOM     51  C   UNL A   1      38.729  30.004  32.318  1.00  0.00     0.131 A 
ATOM     52  C   UNL A   1      36.643  31.398  31.162  1.00  0.00     0.055 A 
ATOM     53  C   UNL A   1      37.637  30.381  33.100  1.00  0.00     0.041 A 
ATOM     54  F   UNL A   1      39.728  29.339  32.920  1.00  0.00    -0.206 F 
ATOM     55  C   UNL A   1      36.590  31.093  32.523  1.00  0.00     0.022 A 
BRANCH  52  56
ATOM     56  S   UNL A   1      35.346  32.417  30.409  1.00  0.00     0.124 S 
ATOM     57  O   UNL A   1      35.004  31.638  29.225  1.00  0.00    -0.237 OA
ATOM     58  O   UNL A   1      34.339  32.456  31.465  1.00  0.00    -0.237 OA
ATOM     59  O   UNL A   1      36.019  33.688  30.148  1.00  0.00    -0.744 OA
ENDBRANCH  52  56
ENDBRANCH  25  49
BRANCH  37  60
ATOM     60  C   UNL A   1      44.771  33.414  29.249  1.00  0.00     0.023 A 
ATOM     61  C   UNL A   1      44.427  34.539  28.477  1.00  0.00     0.031 A 
ATOM     62  C   UNL A   1      45.674  33.591  30.311  1.00  0.00     0.131 A 
ATOM     63  C   UNL A   1      45.035  35.776  28.737  1.00  0.00     0.055 A 
ATOM     64  C   UNL A   1      46.230  34.836  30.603  1.00  0.00     0.041 A 
ATOM     65  F   UNL A   1      46.040  32.550  31.077  1.00  0.00    -0.206 F 
ATOM     66  C   UNL A   1      45.924  35.935  29.805  1.00  0.00     0.022 A 
BRANCH  63  67
ATOM     67  S   UNL A   1      44.732  37.153  27.595  1.00  0.00     0.124 S 
ATOM     68  O   UNL A   1      44.360  38.228  28.507  1.00  0.00    -0.237 OA
ATOM     69  O   UNL A   1      46.025  37.298  26.932  1.00  0.00    -0.237 OA
ATOM     70  O   UNL A   1      43.651  36.659  26.743  1.00  0.00    -0.744 OA
ENDBRANCH  63  67
ENDBRANCH  37  60
ENDBRANCH  11  12
ENDBRANCH   4   6
ENDBRANCH   1   2
BRANCH   1  71
ATOM     71  C   UNL A   1      35.104  21.838  26.230  1.00  0.00     0.042 C 
BRANCH  71  72
ATOM     72  C   UNL A   1      34.237  20.680  25.762  1.00  0.00     0.118 C 
BRANCH  72  73
ATOM     73  N   UNL A   1      32.817  20.905  25.997  1.00  0.00    -0.352 N 
ATOM     74  C   UNL A   1      31.959  21.787  25.392  1.00  0.00     0.252 C 
ATOM     75  H   UNL A   1      32.413  20.339  26.694  1.00  0.00     0.163 HD
ATOM     76  O   UNL A   1      30.794  21.879  25.774  1.00  0.00    -0.269 OA
BRANCH  74  77
ATOM     77  C   UNL A   1      32.434  22.673  24.316  1.00  0.00     0.059 A 
ATOM     78  C   UNL A   1      32.697  24.011  24.661  1.00  0.00     0.024 A 
ATOM     79  C   UNL A   1      32.549  22.255  22.988  1.00  0.00     0.053 A 
ATOM     80  C   UNL A   1      33.129  24.931  23.693  1.00  0.00    -0.017 A 
ATOM     81  C   UNL A   1      33.049  23.139  22.033  1.00  0.00     0.022 A 
ATOM     82  Cl  UNL A   1      32.037  20.698  22.437  1.00  0.00    -0.083 Cl
ATOM     83  C   UNL A   1      33.344  24.459  22.387  1.00  0.00     0.010 A 
BRANCH  80  84
ATOM     84  C   UNL A   1      33.281  26.362  24.003  1.00  0.00    -0.017 A 
ATOM     85  C   UNL A   1      33.031  27.324  23.004  1.00  0.00     0.009 A 
ATOM     86  C   UNL A   1      33.653  26.815  25.277  1.00  0.00     0.029 A 
ATOM     87  C   UNL A   1      33.156  28.691  23.262  1.00  0.00     0.002 A 
ATOM     88  C   UNL A   1      33.777  28.183  25.532  1.00  0.00     0.041 A 
ATOM     89  C   UNL A   1      33.531  29.121  24.531  1.00  0.00     0.020 A 
ATOM     90  Cl  UNL A   1      34.233  28.725  27.101  1.00  0.00    -0.084 Cl
ENDBRANCH  80  84
ENDBRANCH  74  77
ENDBRANCH  72  73
ENDBRANCH  71  72
ENDBRANCH   1  71
TORSDOF 14
ENDMDL
