MODEL 1
REMARK VINA RESULT:     -13.2      0.000      0.000
REMARK SMILES Cc1cc(S(F)(F)(F)(F)F)cc2c1O[C@H](C(F)(F)F)C(C(=O)NCCCNC(=O)c1ccc(-c3c4nc(c(-c5cc(S(=O)(=O)[O-])ccc5F)c5ccc([nH]5)c(-c5cc(S(=O)(=O)[O-])ccc5F)c5nc(c(-c6cc(S(=O)(=O)[O-])ccc6F)c6ccc3[nH]6)C=C5)C=C4)cc1)=C2
REMARK SMILES IDX 26 1 25 2 24 3 23 4 21 5 22 6 20 8 1 9 2 10 3 11 13 12 4 13
REMARK SMILES IDX 12 14 14 15 11 16 93 17 15 18 5 19 6 20 7 21 8 22 9 23 10 24
REMARK SMILES IDX 16 25 17 26 18 27 19 28 27 29 28 30 29 32 30 33 31 34 92 35
REMARK SMILES IDX 32 36 91 37 33 38 34 39 35 40 85 41 36 42 90 43 84 44 86 45
REMARK SMILES IDX 37 46 89 47 83 48 82 49 38 51 70 52 50 53 69 54 51 55 54 56
REMARK SMILES IDX 68 57 87 58 52 59 53 60 67 62 88 63 55 64 39 65 40 66 48 67
REMARK SMILES IDX 41 68 47 69 49 70 46 71 42 72 43 73 44 74 45 75 71 76 72 77
REMARK SMILES IDX 80 78 73 79 79 80 81 81 78 82 74 83 75 84 76 85 77 86 56 87
REMARK SMILES IDX 57 88 65 89 58 90 64 91 66 92 63 93 59 94 60 95 61 96 62 97
REMARK H PARENT 23 7 27 31 86 50 54 61
REMARK Flexibility Score: inf
ROOT
ATOM      1  C   UNL A   1      38.805  20.589  25.719  1.00  0.00     0.118 C 
ENDROOT
BRANCH   1   2
ATOM      2  C   UNL A   1      37.784  20.149  24.684  1.00  0.00     0.042 C 
BRANCH   2   3
ATOM      3  C   UNL A   1      36.582  21.080  24.731  1.00  0.00     0.118 C 
BRANCH   3   4
ATOM      4  N   UNL A   1      35.714  20.702  25.856  1.00  0.00    -0.352 N 
ATOM      5  C   UNL A   1      34.450  21.419  26.081  1.00  0.00     0.251 C 
ATOM      6  O   UNL A   1      33.700  21.092  27.054  1.00  0.00    -0.270 OA
ATOM      7  H   UNL A   1      35.978  19.969  26.457  1.00  0.00     0.163 HD
BRANCH   5   8
ATOM      8  C   UNL A   1      34.042  22.551  25.153  1.00  0.00     0.067 C 
ATOM      9  C   UNL A   1      32.905  25.345  21.071  1.00  0.00     0.048 C 
ATOM     10  C   UNL A   1      32.918  25.639  22.562  1.00  0.00    -0.007 A 
ATOM     11  C   UNL A   1      32.748  26.905  23.079  1.00  0.00     0.031 A 
ATOM     12  C   UNL A   1      33.291  24.597  23.410  1.00  0.00     0.130 A 
ATOM     13  C   UNL A   1      32.950  27.151  24.432  1.00  0.00     0.108 A 
ATOM     14  C   UNL A   1      33.491  24.852  24.785  1.00  0.00     0.019 A 
ATOM     15  O   UNL A   1      33.490  23.228  22.920  1.00  0.00    -0.475 OA
ATOM     16  C   UNL A   1      33.310  26.144  25.282  1.00  0.00     0.036 A 
ATOM     17  C   UNL A   1      33.884  23.740  25.652  1.00  0.00     0.025 C 
ATOM     18  C   UNL A   1      33.852  22.270  23.800  1.00  0.00     0.314 C 
BRANCH  13  19
ATOM     19  S   UNL A   1      32.732  28.829  25.075  1.00  0.00     0.310 S 
ATOM     20  F   UNL A   1      32.729  28.208  26.535  1.00  0.00    -0.094 F 
ATOM     21  F   UNL A   1      31.168  28.637  25.065  1.00  0.00    -0.094 F 
ATOM     22  F   UNL A   1      32.583  30.227  25.736  1.00  0.00    -0.094 F 
ATOM     23  F   UNL A   1      34.302  28.943  25.206  1.00  0.00    -0.094 F 
ATOM     24  F   UNL A   1      32.900  27.363  24.509  1.00  0.00    -0.094 F 
ENDBRANCH  13  19
BRANCH  18  25
ATOM     25  C   UNL A   1      32.626  21.372  23.824  1.00  0.00     0.429 C 
ATOM     26  F   UNL A   1      32.012  21.427  22.646  1.00  0.00    -0.167 F 
ATOM     27  F   UNL A   1      32.998  20.120  24.074  1.00  0.00    -0.167 F 
ATOM     28  F   UNL A   1      31.793  21.786  24.777  1.00  0.00    -0.167 F 
ENDBRANCH  18  25
ENDBRANCH   5   8
ENDBRANCH   3   4
ENDBRANCH   2   3
ENDBRANCH   1   2
BRANCH   1  29
ATOM     29  N   UNL A   1      39.777  19.508  25.937  1.00  0.00    -0.352 N 
ATOM     30  C   UNL A   1      41.122  19.821  26.444  1.00  0.00     0.251 C 
ATOM     31  H   UNL A   1      39.529  18.576  25.745  1.00  0.00     0.163 HD
ATOM     32  O   UNL A   1      41.963  18.887  26.633  1.00  0.00    -0.269 OA
BRANCH  30  33
ATOM     33  C   UNL A   1      41.506  21.261  26.742  1.00  0.00     0.039 A 
ATOM     34  C   UNL A   1      41.912  22.116  25.722  1.00  0.00     0.014 A 
ATOM     35  C   UNL A   1      41.462  21.731  27.970  1.00  0.00     0.014 A 
ATOM     36  C   UNL A   1      41.761  23.500  25.962  1.00  0.00     0.010 A 
ATOM     37  C   UNL A   1      41.825  23.054  28.245  1.00  0.00     0.010 A 
ATOM     38  C   UNL A   1      41.972  23.927  27.272  1.00  0.00    -0.014 A 
BRANCH  38  39
ATOM     39  C   UNL A   1      42.361  25.365  27.569  1.00  0.00     0.031 A 
ATOM     40  C   UNL A   1      41.405  26.197  28.154  1.00  0.00     0.074 A 
ATOM     41  C   UNL A   1      43.644  25.772  27.242  1.00  0.00     0.049 A 
ATOM     42  N   UNL A   1      41.550  27.470  28.525  1.00  0.00    -0.248 NA
ATOM     43  C   UNL A   1      40.032  25.777  28.471  1.00  0.00     0.031 C 
ATOM     44  C   UNL A   1      44.618  24.938  26.660  1.00  0.00     0.029 A 
ATOM     45  N   UNL A   1      44.205  27.019  27.413  1.00  0.00    -0.354 N 
ATOM     46  C   UNL A   1      40.418  27.925  29.067  1.00  0.00     0.074 A 
ATOM     47  C   UNL A   1      39.424  26.844  29.034  1.00  0.00     0.031 C 
ATOM     48  C   UNL A   1      45.745  25.673  26.470  1.00  0.00     0.029 A 
ATOM     49  C   UNL A   1      45.495  26.979  26.932  1.00  0.00     0.049 A 
ATOM     50  H   UNL A   1      43.760  27.803  27.809  1.00  0.00     0.167 HD
ATOM     51  C   UNL A   1      40.178  29.197  29.587  1.00  0.00     0.034 A 
ATOM     52  C   UNL A   1      46.417  28.013  26.889  1.00  0.00     0.034 A 
ATOM     53  C   UNL A   1      41.113  30.218  29.583  1.00  0.00     0.049 A 
ATOM     54  C   UNL A   1      46.157  29.304  27.357  1.00  0.00     0.074 A 
ATOM     55  C   UNL A   1      40.890  31.504  30.112  1.00  0.00     0.029 A 
ATOM     56  N   UNL A   1      42.396  30.186  29.081  1.00  0.00    -0.354 N 
ATOM     57  N   UNL A   1      45.038  29.746  27.934  1.00  0.00    -0.248 NA
ATOM     58  C   UNL A   1      47.114  30.416  27.287  1.00  0.00     0.031 C 
ATOM     59  C   UNL A   1      42.018  32.241  29.922  1.00  0.00     0.029 A 
ATOM     60  C   UNL A   1      42.965  31.426  29.271  1.00  0.00     0.049 A 
ATOM     61  H   UNL A   1      42.831  29.411  28.658  1.00  0.00     0.167 HD
ATOM     62  C   UNL A   1      45.171  31.031  28.267  1.00  0.00     0.074 A 
ATOM     63  C   UNL A   1      46.504  31.483  27.848  1.00  0.00     0.031 C 
ATOM     64  C   UNL A   1      44.234  31.846  28.905  1.00  0.00     0.034 A 
BRANCH  51  65
ATOM     65  C   UNL A   1      38.812  29.477  30.194  1.00  0.00     0.023 A 
ATOM     66  C   UNL A   1      37.857  30.157  29.430  1.00  0.00     0.031 A 
ATOM     67  C   UNL A   1      38.543  29.095  31.424  1.00  0.00     0.131 A 
ATOM     68  C   UNL A   1      36.775  30.651  29.990  1.00  0.00     0.055 A 
ATOM     69  C   UNL A   1      37.285  29.388  31.947  1.00  0.00     0.041 A 
ATOM     70  F   UNL A   1      39.448  28.446  32.150  1.00  0.00    -0.206 F 
ATOM     71  C   UNL A   1      36.598  30.474  31.358  1.00  0.00     0.022 A 
BRANCH  68  72
ATOM     72  S   UNL A   1      35.544  31.541  29.005  1.00  0.00     0.124 S 
ATOM     73  O   UNL A   1      34.623  32.336  29.934  1.00  0.00    -0.237 OA
ATOM     74  O   UNL A   1      36.254  32.500  28.047  1.00  0.00    -0.237 OA
ATOM     75  O   UNL A   1      34.616  30.421  28.107  1.00  0.00    -0.744 OA
ENDBRANCH  68  72
ENDBRANCH  51  65
BRANCH  52  76
ATOM     76  C   UNL A   1      47.788  27.727  26.298  1.00  0.00     0.023 A 
ATOM     77  C   UNL A   1      47.975  27.739  24.911  1.00  0.00     0.031 A 
ATOM     78  C   UNL A   1      48.790  27.473  27.111  1.00  0.00     0.131 A 
ATOM     79  C   UNL A   1      49.075  27.255  24.376  1.00  0.00     0.055 A 
ATOM     80  C   UNL A   1      50.042  27.211  26.556  1.00  0.00     0.041 A 
ATOM     81  F   UNL A   1      48.615  27.465  28.429  1.00  0.00    -0.206 F 
ATOM     82  C   UNL A   1      50.050  26.740  25.224  1.00  0.00     0.022 A 
BRANCH  79  83
ATOM     83  S   UNL A   1      49.314  27.259  22.582  1.00  0.00     0.124 S 
ATOM     84  O   UNL A   1      48.650  26.019  21.976  1.00  0.00    -0.237 OA
ATOM     85  O   UNL A   1      48.681  28.519  21.986  1.00  0.00    -0.237 OA
ATOM     86  O   UNL A   1      50.986  27.240  22.230  1.00  0.00    -0.744 OA
ENDBRANCH  79  83
ENDBRANCH  52  76
BRANCH  64  87
ATOM     87  C   UNL A   1      44.629  33.280  29.217  1.00  0.00     0.023 A 
ATOM     88  C   UNL A   1      44.217  34.312  28.366  1.00  0.00     0.031 A 
ATOM     89  C   UNL A   1      45.353  33.537  30.286  1.00  0.00     0.131 A 
ATOM     90  C   UNL A   1      44.744  35.514  28.462  1.00  0.00     0.055 A 
ATOM     91  C   UNL A   1      45.703  34.861  30.545  1.00  0.00     0.041 A 
ATOM     92  F   UNL A   1      45.742  32.558  31.097  1.00  0.00    -0.206 F 
ATOM     93  C   UNL A   1      45.712  35.735  29.435  1.00  0.00     0.022 A 
BRANCH  90  94
ATOM     94  S   UNL A   1      44.222  36.846  27.354  1.00  0.00     0.124 S 
ATOM     95  O   UNL A   1      45.417  37.313  26.520  1.00  0.00    -0.237 OA
ATOM     96  O   UNL A   1      43.120  36.333  26.423  1.00  0.00    -0.237 OA
ATOM     97  O   UNL A   1      43.625  38.155  28.278  1.00  0.00    -0.744 OA
ENDBRANCH  90  94
ENDBRANCH  64  87
ENDBRANCH  38  39
ENDBRANCH  30  33
ENDBRANCH   1  29
TORSDOF 15
ENDMDL
MODEL 2
REMARK VINA RESULT:     -13.2      1.696      7.563
REMARK SMILES Cc1cc(S(F)(F)(F)(F)F)cc2c1O[C@H](C(F)(F)F)C(C(=O)NCCCNC(=O)c1ccc(-c3c4nc(c(-c5cc(S(=O)(=O)[O-])ccc5F)c5ccc([nH]5)c(-c5cc(S(=O)(=O)[O-])ccc5F)c5nc(c(-c6cc(S(=O)(=O)[O-])ccc6F)c6ccc3[nH]6)C=C5)C=C4)cc1)=C2
REMARK SMILES IDX 26 1 25 2 24 3 23 4 21 5 22 6 20 8 1 9 2 10 3 11 13 12 4 13
REMARK SMILES IDX 12 14 14 15 11 16 93 17 15 18 5 19 6 20 7 21 8 22 9 23 10 24
REMARK SMILES IDX 16 25 17 26 18 27 19 28 27 29 28 30 29 32 30 33 31 34 92 35
REMARK SMILES IDX 32 36 91 37 33 38 34 39 35 40 85 41 36 42 90 43 84 44 86 45
REMARK SMILES IDX 37 46 89 47 83 48 82 49 38 51 70 52 50 53 69 54 51 55 54 56
REMARK SMILES IDX 68 57 87 58 52 59 53 60 67 62 88 63 55 64 39 65 40 66 48 67
REMARK SMILES IDX 41 68 47 69 49 70 46 71 42 72 43 73 44 74 45 75 71 76 72 77
REMARK SMILES IDX 80 78 73 79 79 80 81 81 78 82 74 83 75 84 76 85 77 86 56 87
REMARK SMILES IDX 57 88 65 89 58 90 64 91 66 92 63 93 59 94 60 95 61 96 62 97
REMARK H PARENT 23 7 27 31 86 50 54 61
REMARK Flexibility Score: inf
ROOT
ATOM      1  C   UNL A   1      38.922  20.435  25.752  1.00  0.00     0.118 C 
ENDROOT
BRANCH   1   2
ATOM      2  C   UNL A   1      37.849  20.193  24.704  1.00  0.00     0.042 C 
BRANCH   2   3
ATOM      3  C   UNL A   1      36.712  21.184  24.905  1.00  0.00     0.118 C 
BRANCH   3   4
ATOM      4  N   UNL A   1      35.659  20.563  25.720  1.00  0.00    -0.352 N 
ATOM      5  C   UNL A   1      34.366  21.241  25.889  1.00  0.00     0.251 C 
ATOM      6  O   UNL A   1      33.455  20.703  26.596  1.00  0.00    -0.270 OA
ATOM      7  H   UNL A   1      35.820  19.693  26.152  1.00  0.00     0.163 HD
BRANCH   5   8
ATOM      8  C   UNL A   1      34.118  22.583  25.222  1.00  0.00     0.067 C 
ATOM      9  C   UNL A   1      33.528  26.311  21.829  1.00  0.00     0.048 C 
ATOM     10  C   UNL A   1      33.436  26.261  23.345  1.00  0.00    -0.007 A 
ATOM     11  C   UNL A   1      33.311  27.388  24.128  1.00  0.00     0.031 A 
ATOM     12  C   UNL A   1      33.662  25.026  23.953  1.00  0.00     0.130 A 
ATOM     13  C   UNL A   1      33.416  27.305  25.511  1.00  0.00     0.108 A 
ATOM     14  C   UNL A   1      33.762  24.947  25.360  1.00  0.00     0.019 A 
ATOM     15  O   UNL A   1      33.805  23.790  23.174  1.00  0.00    -0.475 OA
ATOM     16  C   UNL A   1      33.631  26.106  26.128  1.00  0.00     0.036 A 
ATOM     17  C   UNL A   1      34.002  23.639  25.971  1.00  0.00     0.025 C 
ATOM     18  C   UNL A   1      34.024  22.631  23.832  1.00  0.00     0.314 C 
BRANCH  13  19
ATOM     19  S   UNL A   1      33.262  28.808  26.508  1.00  0.00     0.310 S 
ATOM     20  F   UNL A   1      33.271  29.639  25.157  1.00  0.00    -0.094 F 
ATOM     21  F   UNL A   1      34.831  28.961  26.531  1.00  0.00    -0.094 F 
ATOM     22  F   UNL A   1      33.093  30.156  27.263  1.00  0.00    -0.094 F 
ATOM     23  F   UNL A   1      31.694  28.708  26.351  1.00  0.00    -0.094 F 
ATOM     24  F   UNL A   1      33.419  27.496  25.642  1.00  0.00    -0.094 F 
ENDBRANCH  13  19
BRANCH  18  25
ATOM     25  C   UNL A   1      32.740  21.862  23.567  1.00  0.00     0.429 C 
ATOM     26  F   UNL A   1      32.989  20.556  23.608  1.00  0.00    -0.167 F 
ATOM     27  F   UNL A   1      31.838  22.173  24.494  1.00  0.00    -0.167 F 
ATOM     28  F   UNL A   1      32.270  22.185  22.365  1.00  0.00    -0.167 F 
ENDBRANCH  18  25
ENDBRANCH   5   8
ENDBRANCH   3   4
ENDBRANCH   2   3
ENDBRANCH   1   2
BRANCH   1  29
ATOM     29  N   UNL A   1      39.857  19.300  25.765  1.00  0.00    -0.352 N 
ATOM     30  C   UNL A   1      41.278  19.523  26.069  1.00  0.00     0.251 C 
ATOM     31  H   UNL A   1      39.532  18.392  25.572  1.00  0.00     0.163 HD
ATOM     32  O   UNL A   1      42.086  18.542  26.082  1.00  0.00    -0.269 OA
BRANCH  30  33
ATOM     33  C   UNL A   1      41.780  20.926  26.370  1.00  0.00     0.039 A 
ATOM     34  C   UNL A   1      41.773  21.423  27.669  1.00  0.00     0.014 A 
ATOM     35  C   UNL A   1      42.234  21.700  25.408  1.00  0.00     0.014 A 
ATOM     36  C   UNL A   1      42.682  22.467  27.951  1.00  0.00     0.010 A 
ATOM     37  C   UNL A   1      42.688  22.995  25.684  1.00  0.00     0.010 A 
ATOM     38  C   UNL A   1      42.912  23.379  26.922  1.00  0.00    -0.014 A 
BRANCH  38  39
ATOM     39  C   UNL A   1      43.409  24.784  27.223  1.00  0.00     0.031 A 
ATOM     40  C   UNL A   1      44.774  25.041  27.080  1.00  0.00     0.074 A 
ATOM     41  C   UNL A   1      42.480  25.730  27.624  1.00  0.00     0.049 A 
ATOM     42  N   UNL A   1      45.406  26.202  27.260  1.00  0.00    -0.248 NA
ATOM     43  C   UNL A   1      45.766  24.030  26.689  1.00  0.00     0.031 C 
ATOM     44  C   UNL A   1      41.102  25.481  27.762  1.00  0.00     0.029 A 
ATOM     45  N   UNL A   1      42.706  27.048  27.953  1.00  0.00    -0.354 N 
ATOM     46  C   UNL A   1      46.709  26.061  27.010  1.00  0.00     0.074 A 
ATOM     47  C   UNL A   1      46.960  24.660  26.645  1.00  0.00     0.031 C 
ATOM     48  C   UNL A   1      40.505  26.628  28.181  1.00  0.00     0.029 A 
ATOM     49  C   UNL A   1      41.502  27.614  28.309  1.00  0.00     0.049 A 
ATOM     50  H   UNL A   1      43.577  27.507  27.937  1.00  0.00     0.167 HD
ATOM     51  C   UNL A   1      47.697  27.044  27.071  1.00  0.00     0.034 A 
ATOM     52  C   UNL A   1      41.265  28.914  28.728  1.00  0.00     0.034 A 
ATOM     53  C   UNL A   1      47.454  28.355  27.447  1.00  0.00     0.049 A 
ATOM     54  C   UNL A   1      42.264  29.884  28.846  1.00  0.00     0.074 A 
ATOM     55  C   UNL A   1      48.436  29.362  27.506  1.00  0.00     0.029 A 
ATOM     56  N   UNL A   1      46.254  28.915  27.827  1.00  0.00    -0.354 N 
ATOM     57  N   UNL A   1      43.560  29.752  28.558  1.00  0.00    -0.248 NA
ATOM     58  C   UNL A   1      42.031  31.255  29.318  1.00  0.00     0.031 C 
ATOM     59  C   UNL A   1      47.841  30.510  27.925  1.00  0.00     0.029 A 
ATOM     60  C   UNL A   1      46.474  30.240  28.135  1.00  0.00     0.049 A 
ATOM     61  H   UNL A   1      45.387  28.449  27.872  1.00  0.00     0.167 HD
ATOM     62  C   UNL A   1      44.198  30.903  28.777  1.00  0.00     0.074 A 
ATOM     63  C   UNL A   1      43.226  31.884  29.276  1.00  0.00     0.031 C 
ATOM     64  C   UNL A   1      45.553  31.176  28.578  1.00  0.00     0.034 A 
BRANCH  51  65
ATOM     65  C   UNL A   1      49.120  26.656  26.702  1.00  0.00     0.023 A 
ATOM     66  C   UNL A   1      49.642  27.079  25.475  1.00  0.00     0.031 A 
ATOM     67  C   UNL A   1      49.840  25.923  27.524  1.00  0.00     0.131 A 
ATOM     68  C   UNL A   1      50.752  26.557  25.000  1.00  0.00     0.055 A 
ATOM     69  C   UNL A   1      51.134  25.576  27.140  1.00  0.00     0.041 A 
ATOM     70  F   UNL A   1      49.346  25.523  28.692  1.00  0.00    -0.206 F 
ATOM     71  C   UNL A   1      51.398  25.581  25.751  1.00  0.00     0.022 A 
BRANCH  68  72
ATOM     72  S   UNL A   1      51.423  27.095  23.407  1.00  0.00     0.124 S 
ATOM     73  O   UNL A   1      52.674  26.277  23.077  1.00  0.00    -0.237 OA
ATOM     74  O   UNL A   1      50.373  26.884  22.314  1.00  0.00    -0.237 OA
ATOM     75  O   UNL A   1      51.832  28.753  23.492  1.00  0.00    -0.744 OA
ENDBRANCH  68  72
ENDBRANCH  51  65
BRANCH  52  76
ATOM     76  C   UNL A   1      39.839  29.306  29.080  1.00  0.00     0.023 A 
ATOM     77  C   UNL A   1      39.444  29.405  30.418  1.00  0.00     0.031 A 
ATOM     78  C   UNL A   1      38.989  29.553  28.106  1.00  0.00     0.131 A 
ATOM     79  C   UNL A   1      38.172  29.494  30.740  1.00  0.00     0.055 A 
ATOM     80  C   UNL A   1      37.684  29.910  28.443  1.00  0.00     0.041 A 
ATOM     81  F   UNL A   1      39.364  29.463  26.834  1.00  0.00    -0.206 F 
ATOM     82  C   UNL A   1      37.230  29.498  29.716  1.00  0.00     0.022 A 
BRANCH  79  83
ATOM     83  S   UNL A   1      37.658  29.609  32.471  1.00  0.00     0.124 S 
ATOM     84  O   UNL A   1      37.412  28.204  33.025  1.00  0.00    -0.237 OA
ATOM     85  O   UNL A   1      38.759  30.293  33.286  1.00  0.00    -0.237 OA
ATOM     86  O   UNL A   1      36.219  30.526  32.579  1.00  0.00    -0.744 OA
ENDBRANCH  79  83
ENDBRANCH  52  76
BRANCH  64  87
ATOM     87  C   UNL A   1      46.048  32.584  28.863  1.00  0.00     0.023 A 
ATOM     88  C   UNL A   1      46.067  33.532  27.834  1.00  0.00     0.031 A 
ATOM     89  C   UNL A   1      46.451  32.898  30.076  1.00  0.00     0.131 A 
ATOM     90  C   UNL A   1      46.716  34.668  27.978  1.00  0.00     0.055 A 
ATOM     91  C   UNL A   1      46.902  34.197  30.307  1.00  0.00     0.041 A 
ATOM     92  F   UNL A   1      46.429  31.999  31.055  1.00  0.00    -0.206 F 
ATOM     93  C   UNL A   1      47.372  34.906  29.180  1.00  0.00     0.022 A 
BRANCH  90  94
ATOM     94  S   UNL A   1      46.752  35.890  26.643  1.00  0.00     0.124 S 
ATOM     95  O   UNL A   1      46.041  35.322  25.412  1.00  0.00    -0.237 OA
ATOM     96  O   UNL A   1      46.041  37.166  27.099  1.00  0.00    -0.237 OA
ATOM     97  O   UNL A   1      48.376  36.252  26.246  1.00  0.00    -0.744 OA
ENDBRANCH  90  94
ENDBRANCH  64  87
ENDBRANCH  38  39
ENDBRANCH  30  33
ENDBRANCH   1  29
TORSDOF 15
ENDMDL
MODEL 3
REMARK VINA RESULT:     -13.2      0.473      7.242
REMARK SMILES Cc1cc(S(F)(F)(F)(F)F)cc2c1O[C@H](C(F)(F)F)C(C(=O)NCCCNC(=O)c1ccc(-c3c4nc(c(-c5cc(S(=O)(=O)[O-])ccc5F)c5ccc([nH]5)c(-c5cc(S(=O)(=O)[O-])ccc5F)c5nc(c(-c6cc(S(=O)(=O)[O-])ccc6F)c6ccc3[nH]6)C=C5)C=C4)cc1)=C2
REMARK SMILES IDX 26 1 25 2 24 3 23 4 21 5 22 6 20 8 1 9 2 10 3 11 13 12 4 13
REMARK SMILES IDX 12 14 14 15 11 16 93 17 15 18 5 19 6 20 7 21 8 22 9 23 10 24
REMARK SMILES IDX 16 25 17 26 18 27 19 28 27 29 28 30 29 32 30 33 31 34 92 35
REMARK SMILES IDX 32 36 91 37 33 38 34 39 35 40 85 41 36 42 90 43 84 44 86 45
REMARK SMILES IDX 37 46 89 47 83 48 82 49 38 51 70 52 50 53 69 54 51 55 54 56
REMARK SMILES IDX 68 57 87 58 52 59 53 60 67 62 88 63 55 64 39 65 40 66 48 67
REMARK SMILES IDX 41 68 47 69 49 70 46 71 42 72 43 73 44 74 45 75 71 76 72 77
REMARK SMILES IDX 80 78 73 79 79 80 81 81 78 82 74 83 75 84 76 85 77 86 56 87
REMARK SMILES IDX 57 88 65 89 58 90 64 91 66 92 63 93 59 94 60 95 61 96 62 97
REMARK H PARENT 23 7 27 31 86 50 54 61
REMARK Flexibility Score: inf
ROOT
ATOM      1  C   UNL A   1      38.704  20.362  25.735  1.00  0.00     0.118 C 
ENDROOT
BRANCH   1   2
ATOM      2  C   UNL A   1      37.699  20.096  24.626  1.00  0.00     0.042 C 
BRANCH   2   3
ATOM      3  C   UNL A   1      36.557  21.096  24.727  1.00  0.00     0.118 C 
BRANCH   3   4
ATOM      4  N   UNL A   1      35.660  20.705  25.823  1.00  0.00    -0.352 N 
ATOM      5  C   UNL A   1      34.383  21.408  26.012  1.00  0.00     0.251 C 
ATOM      6  O   UNL A   1      33.606  21.070  26.960  1.00  0.00    -0.270 OA
ATOM      7  H   UNL A   1      35.913  19.972  26.429  1.00  0.00     0.163 HD
BRANCH   5   8
ATOM      8  C   UNL A   1      33.991  22.539  25.075  1.00  0.00     0.067 C 
ATOM      9  C   UNL A   1      32.903  25.321  20.972  1.00  0.00     0.048 C 
ATOM     10  C   UNL A   1      32.913  25.625  22.462  1.00  0.00    -0.007 A 
ATOM     11  C   UNL A   1      32.755  26.895  22.971  1.00  0.00     0.031 A 
ATOM     12  C   UNL A   1      33.271  24.583  23.317  1.00  0.00     0.130 A 
ATOM     13  C   UNL A   1      32.955  27.147  24.322  1.00  0.00     0.108 A 
ATOM     14  C   UNL A   1      33.468  24.844  24.692  1.00  0.00     0.019 A 
ATOM     15  O   UNL A   1      33.455  23.209  22.836  1.00  0.00    -0.475 OA
ATOM     16  C   UNL A   1      33.301  26.141  25.180  1.00  0.00     0.036 A 
ATOM     17  C   UNL A   1      33.844  23.732  25.567  1.00  0.00     0.025 C 
ATOM     18  C   UNL A   1      33.803  22.252  23.723  1.00  0.00     0.314 C 
BRANCH  13  19
ATOM     19  S   UNL A   1      32.754  28.831  24.955  1.00  0.00     0.310 S 
ATOM     20  F   UNL A   1      32.802  28.226  26.420  1.00  0.00    -0.094 F 
ATOM     21  F   UNL A   1      31.191  28.635  25.000  1.00  0.00    -0.094 F 
ATOM     22  F   UNL A   1      32.623  30.236  25.606  1.00  0.00    -0.094 F 
ATOM     23  F   UNL A   1      34.327  28.951  25.031  1.00  0.00    -0.094 F 
ATOM     24  F   UNL A   1      32.907  27.360  24.399  1.00  0.00    -0.094 F 
ENDBRANCH  13  19
BRANCH  18  25
ATOM     25  C   UNL A   1      32.567  21.369  23.748  1.00  0.00     0.429 C 
ATOM     26  F   UNL A   1      32.916  20.125  24.063  1.00  0.00    -0.167 F 
ATOM     27  F   UNL A   1      31.709  21.833  24.653  1.00  0.00    -0.167 F 
ATOM     28  F   UNL A   1      31.992  21.377  22.547  1.00  0.00    -0.167 F 
ENDBRANCH  18  25
ENDBRANCH   5   8
ENDBRANCH   3   4
ENDBRANCH   2   3
ENDBRANCH   1   2
BRANCH   1  29
ATOM     29  N   UNL A   1      39.673  19.258  25.792  1.00  0.00    -0.352 N 
ATOM     30  C   UNL A   1      41.070  19.526  26.160  1.00  0.00     0.251 C 
ATOM     31  H   UNL A   1      39.386  18.340  25.585  1.00  0.00     0.163 HD
ATOM     32  O   UNL A   1      41.909  18.572  26.210  1.00  0.00    -0.269 OA
BRANCH  30  33
ATOM     33  C   UNL A   1      41.513  20.944  26.481  1.00  0.00     0.039 A 
ATOM     34  C   UNL A   1      41.934  21.805  25.472  1.00  0.00     0.014 A 
ATOM     35  C   UNL A   1      41.507  21.389  27.719  1.00  0.00     0.014 A 
ATOM     36  C   UNL A   1      41.839  23.189  25.743  1.00  0.00     0.010 A 
ATOM     37  C   UNL A   1      41.924  22.692  28.015  1.00  0.00     0.010 A 
ATOM     38  C   UNL A   1      42.087  23.580  27.057  1.00  0.00    -0.014 A 
BRANCH  38  39
ATOM     39  C   UNL A   1      42.536  24.996  27.378  1.00  0.00     0.031 A 
ATOM     40  C   UNL A   1      43.847  25.356  27.062  1.00  0.00     0.074 A 
ATOM     41  C   UNL A   1      41.618  25.851  27.965  1.00  0.00     0.049 A 
ATOM     42  N   UNL A   1      44.426  26.546  27.227  1.00  0.00    -0.248 NA
ATOM     43  C   UNL A   1      44.833  24.440  26.469  1.00  0.00     0.031 C 
ATOM     44  C   UNL A   1      40.292  25.498  28.279  1.00  0.00     0.029 A 
ATOM     45  N   UNL A   1      41.808  27.161  28.346  1.00  0.00    -0.354 N 
ATOM     46  C   UNL A   1      45.686  26.511  26.788  1.00  0.00     0.074 A 
ATOM     47  C   UNL A   1      45.967  25.154  26.300  1.00  0.00     0.031 C 
ATOM     48  C   UNL A   1      39.693  26.576  28.852  1.00  0.00     0.029 A 
ATOM     49  C   UNL A   1      40.635  27.620  28.904  1.00  0.00     0.049 A 
ATOM     50  H   UNL A   1      42.637  27.680  28.238  1.00  0.00     0.167 HD
ATOM     51  C   UNL A   1      46.610  27.556  26.774  1.00  0.00     0.034 A 
ATOM     52  C   UNL A   1      40.382  28.875  29.436  1.00  0.00     0.034 A 
ATOM     53  C   UNL A   1      46.344  28.824  27.267  1.00  0.00     0.049 A 
ATOM     54  C   UNL A   1      41.326  29.904  29.476  1.00  0.00     0.074 A 
ATOM     55  C   UNL A   1      47.261  29.892  27.253  1.00  0.00     0.029 A 
ATOM     56  N   UNL A   1      45.179  29.276  27.847  1.00  0.00    -0.354 N 
ATOM     57  N   UNL A   1      42.573  29.879  29.002  1.00  0.00    -0.248 NA
ATOM     58  C   UNL A   1      41.081  31.227  30.066  1.00  0.00     0.031 C 
ATOM     59  C   UNL A   1      46.663  30.970  27.827  1.00  0.00     0.029 A 
ATOM     60  C   UNL A   1      45.360  30.593  28.208  1.00  0.00     0.049 A 
ATOM     61  H   UNL A   1      44.358  28.749  27.982  1.00  0.00     0.167 HD
ATOM     62  C   UNL A   1      43.164  31.058  29.205  1.00  0.00     0.074 A 
ATOM     63  C   UNL A   1      42.216  31.939  29.899  1.00  0.00     0.031 C 
ATOM     64  C   UNL A   1      44.456  31.436  28.835  1.00  0.00     0.034 A 
BRANCH  51  65
ATOM     65  C   UNL A   1      47.986  27.290  26.185  1.00  0.00     0.023 A 
ATOM     66  C   UNL A   1      48.178  27.454  24.809  1.00  0.00     0.031 A 
ATOM     67  C   UNL A   1      48.975  26.901  26.962  1.00  0.00     0.131 A 
ATOM     68  C   UNL A   1      49.258  26.988  24.220  1.00  0.00     0.055 A 
ATOM     69  C   UNL A   1      50.215  26.651  26.378  1.00  0.00     0.041 A 
ATOM     70  F   UNL A   1      48.795  26.748  28.270  1.00  0.00    -0.206 F 
ATOM     71  C   UNL A   1      50.208  26.338  25.000  1.00  0.00     0.022 A 
BRANCH  68  72
ATOM     72  S   UNL A   1      49.502  27.188  22.437  1.00  0.00     0.124 S 
ATOM     73  O   UNL A   1      48.975  28.557  22.001  1.00  0.00    -0.237 OA
ATOM     74  O   UNL A   1      50.994  27.088  22.112  1.00  0.00    -0.237 OA
ATOM     75  O   UNL A   1      48.653  25.960  21.605  1.00  0.00    -0.744 OA
ENDBRANCH  68  72
ENDBRANCH  51  65
BRANCH  52  76
ATOM     76  C   UNL A   1      39.001  29.145  30.010  1.00  0.00     0.023 A 
ATOM     77  C   UNL A   1      38.054  29.856  29.264  1.00  0.00     0.031 A 
ATOM     78  C   UNL A   1      38.713  28.697  31.213  1.00  0.00     0.131 A 
ATOM     79  C   UNL A   1      36.957  30.313  29.829  1.00  0.00     0.055 A 
ATOM     80  C   UNL A   1      37.442  28.953  31.727  1.00  0.00     0.041 A 
ATOM     81  F   UNL A   1      39.611  28.018  31.921  1.00  0.00    -0.206 F 
ATOM     82  C   UNL A   1      36.758  30.063  31.183  1.00  0.00     0.022 A 
BRANCH  79  83
ATOM     83  S   UNL A   1      35.737  31.243  28.869  1.00  0.00     0.124 S 
ATOM     84  O   UNL A   1      34.772  31.953  29.822  1.00  0.00    -0.237 OA
ATOM     85  O   UNL A   1      36.454  32.280  28.002  1.00  0.00    -0.237 OA
ATOM     86  O   UNL A   1      34.862  30.170  27.867  1.00  0.00    -0.744 OA
ENDBRANCH  79  83
ENDBRANCH  52  76
BRANCH  64  87
ATOM     87  C   UNL A   1      44.900  32.857  29.141  1.00  0.00     0.023 A 
ATOM     88  C   UNL A   1      44.729  33.857  28.177  1.00  0.00     0.031 A 
ATOM     89  C   UNL A   1      45.439  33.133  30.309  1.00  0.00     0.131 A 
ATOM     90  C   UNL A   1      45.322  35.025  28.306  1.00  0.00     0.055 A 
ATOM     91  C   UNL A   1      45.839  34.445  30.560  1.00  0.00     0.041 A 
ATOM     92  F   UNL A   1      45.599  32.185  31.227  1.00  0.00    -0.206 F 
ATOM     93  C   UNL A   1      46.115  35.243  29.428  1.00  0.00     0.022 A 
BRANCH  90  94
ATOM     94  S   UNL A   1      45.112  36.315  27.054  1.00  0.00     0.124 S 
ATOM     95  O   UNL A   1      45.463  37.676  27.661  1.00  0.00    -0.237 OA
ATOM     96  O   UNL A   1      46.038  36.031  25.868  1.00  0.00    -0.237 OA
ATOM     97  O   UNL A   1      43.488  36.331  26.519  1.00  0.00    -0.744 OA
ENDBRANCH  90  94
ENDBRANCH  64  87
ENDBRANCH  38  39
ENDBRANCH  30  33
ENDBRANCH   1  29
TORSDOF 15
ENDMDL
