MODEL 1
REMARK VINA RESULT:     -12.9      0.000      0.000
REMARK SMILES Cc1ccc(Nc2c(F)cccc2Cl)c(CC(=O)NCCCNC(=O)c2ccc(-c3c4nc(c(-c5cc(S(=O)(=O)[O-])ccc5F)c5ccc([nH]5)c(-c5cc(S(=O)(=O)[O-])ccc5F)c5nc(c(-c6cc(S(=O)(=O)[O-])ccc6F)c6ccc3[nH]6)C=C5)C=C4)cc2)c1
REMARK SMILES IDX 21 1 20 2 19 3 17 4 18 5 16 7 15 8 1 9 2 10 3 11 89 12 4 13
REMARK SMILES IDX 5 14 6 15 7 17 8 18 13 19 9 20 10 21 12 22 14 23 11 24 22 25
REMARK SMILES IDX 23 26 24 27 25 29 26 30 27 31 88 32 28 33 87 34 29 35 30 36
REMARK SMILES IDX 31 37 81 38 32 39 86 40 80 41 82 42 33 43 85 44 79 45 78 46
REMARK SMILES IDX 34 48 66 49 46 50 65 51 47 52 50 53 64 54 83 55 48 56 49 57
REMARK SMILES IDX 63 59 84 60 51 61 35 62 36 63 44 64 37 65 43 66 45 67 42 68
REMARK SMILES IDX 38 69 39 70 40 71 41 72 67 73 68 74 76 75 69 76 75 77 77 78
REMARK SMILES IDX 74 79 70 80 71 81 72 82 73 83 52 84 53 85 61 86 54 87 60 88
REMARK SMILES IDX 62 89 59 90 55 91 56 92 57 93 58 94
REMARK H PARENT 19 6 6 16 23 28 82 47 50 58
REMARK Flexibility Score: inf
ROOT
ATOM      1  C   UNL A   1      32.828  30.785  27.179  1.00  0.00     0.042 C 
ENDROOT
BRANCH   1   2
ATOM      2  C   UNL A   1      32.231  29.947  26.051  1.00  0.00     0.117 C 
BRANCH   2   3
ATOM      3  N   UNL A   1      31.800  28.635  26.509  1.00  0.00    -0.356 N 
ATOM      4  C   UNL A   1      32.329  27.409  26.229  1.00  0.00     0.224 C 
ATOM      5  O   UNL A   1      31.740  26.381  26.574  1.00  0.00    -0.275 OA
ATOM      6  H   UNL A   1      31.016  28.633  27.105  1.00  0.00     0.163 HD
BRANCH   4   7
ATOM      7  C   UNL A   1      33.647  27.297  25.478  1.00  0.00     0.137 C 
BRANCH   7   8
ATOM      8  C   UNL A   1      33.915  25.925  24.898  1.00  0.00    -0.015 A 
ATOM      9  C   UNL A   1      35.752  22.790  26.090  1.00  0.00     0.044 C 
ATOM     10  C   UNL A   1      34.949  23.730  25.245  1.00  0.00    -0.051 A 
ATOM     11  C   UNL A   1      34.626  23.390  23.934  1.00  0.00     0.005 A 
ATOM     12  C   UNL A   1      34.556  24.979  25.729  1.00  0.00     0.009 A 
ATOM     13  C   UNL A   1      33.946  24.298  23.118  1.00  0.00     0.026 A 
ATOM     14  C   UNL A   1      33.601  25.585  23.564  1.00  0.00     0.042 A 
BRANCH  14  15
ATOM     15  N   UNL A   1      32.943  26.499  22.710  1.00  0.00    -0.352 N 
ATOM     16  H   UNL A   1      33.432  26.734  21.890  1.00  0.00     0.167 HD
BRANCH  15  17
ATOM     17  C   UNL A   1      31.683  27.128  22.863  1.00  0.00     0.094 A 
ATOM     18  C   UNL A   1      31.518  28.518  22.748  1.00  0.00     0.148 A 
ATOM     19  C   UNL A   1      30.552  26.379  23.241  1.00  0.00     0.067 A 
ATOM     20  F   UNL A   1      32.544  29.299  22.377  1.00  0.00    -0.205 F 
ATOM     21  C   UNL A   1      30.292  29.140  22.997  1.00  0.00     0.041 A 
ATOM     22  C   UNL A   1      29.320  26.998  23.495  1.00  0.00     0.023 A 
ATOM     23  Cl  UNL A   1      30.651  24.667  23.459  1.00  0.00    -0.082 Cl
ATOM     24  C   UNL A   1      29.191  28.380  23.377  1.00  0.00     0.005 A 
ENDBRANCH  15  17
ENDBRANCH  14  15
ENDBRANCH   7   8
ENDBRANCH   4   7
ENDBRANCH   2   3
ENDBRANCH   1   2
BRANCH   1  25
ATOM     25  C   UNL A   1      34.221  30.337  27.616  1.00  0.00     0.118 C 
BRANCH  25  26
ATOM     26  N   UNL A   1      34.822  31.240  28.584  1.00  0.00    -0.352 N 
ATOM     27  C   UNL A   1      36.021  31.090  29.289  1.00  0.00     0.251 C 
ATOM     28  H   UNL A   1      34.319  32.067  28.768  1.00  0.00     0.163 HD
ATOM     29  O   UNL A   1      36.427  31.934  30.058  1.00  0.00    -0.269 OA
BRANCH  27  30
ATOM     30  C   UNL A   1      36.839  29.903  28.975  1.00  0.00     0.039 A 
ATOM     31  C   UNL A   1      37.058  28.988  30.009  1.00  0.00     0.014 A 
ATOM     32  C   UNL A   1      37.571  29.840  27.793  1.00  0.00     0.014 A 
ATOM     33  C   UNL A   1      38.171  28.153  29.953  1.00  0.00     0.010 A 
ATOM     34  C   UNL A   1      38.722  29.069  27.772  1.00  0.00     0.010 A 
ATOM     35  C   UNL A   1      39.057  28.279  28.880  1.00  0.00    -0.014 A 
BRANCH  35  36
ATOM     36  C   UNL A   1      40.426  27.771  28.936  1.00  0.00     0.031 A 
ATOM     37  C   UNL A   1      40.768  26.406  28.492  1.00  0.00     0.074 A 
ATOM     38  C   UNL A   1      41.422  28.569  29.381  1.00  0.00     0.049 A 
ATOM     39  N   UNL A   1      41.785  25.737  28.923  1.00  0.00    -0.248 NA
ATOM     40  C   UNL A   1      39.953  25.665  27.539  1.00  0.00     0.031 C 
ATOM     41  C   UNL A   1      42.859  28.329  29.294  1.00  0.00     0.029 A 
ATOM     42  N   UNL A   1      41.302  29.643  30.264  1.00  0.00    -0.354 N 
ATOM     43  C   UNL A   1      41.938  24.640  28.111  1.00  0.00     0.074 A 
ATOM     44  C   UNL A   1      40.731  24.601  27.314  1.00  0.00     0.031 C 
ATOM     45  C   UNL A   1      43.469  29.003  30.279  1.00  0.00     0.029 A 
ATOM     46  C   UNL A   1      42.435  29.600  31.103  1.00  0.00     0.049 A 
ATOM     47  H   UNL A   1      40.571  30.300  30.296  1.00  0.00     0.167 HD
ATOM     48  C   UNL A   1      43.122  23.962  28.099  1.00  0.00     0.034 A 
ATOM     49  C   UNL A   1      42.304  29.469  32.455  1.00  0.00     0.034 A 
ATOM     50  C   UNL A   1      44.084  24.487  29.070  1.00  0.00     0.049 A 
ATOM     51  C   UNL A   1      42.975  28.239  33.030  1.00  0.00     0.074 A 
ATOM     52  C   UNL A   1      45.234  25.256  28.986  1.00  0.00     0.029 A 
ATOM     53  N   UNL A   1      43.780  24.416  30.418  1.00  0.00    -0.354 N 
ATOM     54  N   UNL A   1      43.614  27.347  32.325  1.00  0.00    -0.248 NA
ATOM     55  C   UNL A   1      42.890  27.864  34.443  1.00  0.00     0.031 C 
ATOM     56  C   UNL A   1      45.616  25.637  30.305  1.00  0.00     0.029 A 
ATOM     57  C   UNL A   1      44.704  25.094  31.190  1.00  0.00     0.049 A 
ATOM     58  H   UNL A   1      42.999  23.940  30.784  1.00  0.00     0.167 HD
ATOM     59  C   UNL A   1      43.940  26.279  33.122  1.00  0.00     0.074 A 
ATOM     60  C   UNL A   1      43.476  26.655  34.444  1.00  0.00     0.031 C 
ATOM     61  C   UNL A   1      44.511  25.141  32.631  1.00  0.00     0.034 A 
BRANCH  48  62
ATOM     62  C   UNL A   1      43.498  22.979  27.013  1.00  0.00     0.023 A 
ATOM     63  C   UNL A   1      42.921  21.693  27.011  1.00  0.00     0.031 A 
ATOM     64  C   UNL A   1      44.428  23.226  25.986  1.00  0.00     0.131 A 
ATOM     65  C   UNL A   1      43.353  20.697  26.117  1.00  0.00     0.055 A 
ATOM     66  C   UNL A   1      44.913  22.216  25.143  1.00  0.00     0.041 A 
ATOM     67  F   UNL A   1      44.866  24.465  25.719  1.00  0.00    -0.206 F 
ATOM     68  C   UNL A   1      44.387  20.936  25.218  1.00  0.00     0.022 A 
BRANCH  65  69
ATOM     69  S   UNL A   1      42.532  19.080  26.137  1.00  0.00     0.124 S 
ATOM     70  O   UNL A   1      42.364  18.831  27.565  1.00  0.00    -0.237 OA
ATOM     71  O   UNL A   1      41.315  19.346  25.379  1.00  0.00    -0.237 OA
ATOM     72  O   UNL A   1      43.495  18.204  25.470  1.00  0.00    -0.744 OA
ENDBRANCH  65  69
ENDBRANCH  48  62
BRANCH  49  73
ATOM     73  C   UNL A   1      41.070  30.127  32.979  1.00  0.00     0.023 A 
ATOM     74  C   UNL A   1      41.088  31.538  33.052  1.00  0.00     0.031 A 
ATOM     75  C   UNL A   1      39.825  29.488  33.016  1.00  0.00     0.131 A 
ATOM     76  C   UNL A   1      39.895  32.265  32.951  1.00  0.00     0.055 A 
ATOM     77  C   UNL A   1      38.631  30.222  33.025  1.00  0.00     0.041 A 
ATOM     78  F   UNL A   1      39.734  28.154  32.914  1.00  0.00    -0.206 F 
ATOM     79  C   UNL A   1      38.662  31.615  32.941  1.00  0.00     0.022 A 
BRANCH  76  80
ATOM     80  S   UNL A   1      40.013  34.020  32.497  1.00  0.00     0.124 S 
ATOM     81  O   UNL A   1      39.277  34.068  31.241  1.00  0.00    -0.237 OA
ATOM     82  O   UNL A   1      39.382  34.689  33.636  1.00  0.00    -0.237 OA
ATOM     83  O   UNL A   1      41.450  34.263  32.392  1.00  0.00    -0.744 OA
ENDBRANCH  76  80
ENDBRANCH  49  73
BRANCH  61  84
ATOM     84  C   UNL A   1      44.895  23.959  33.485  1.00  0.00     0.023 A 
ATOM     85  C   UNL A   1      46.236  23.617  33.731  1.00  0.00     0.031 A 
ATOM     86  C   UNL A   1      43.921  23.085  34.020  1.00  0.00     0.131 A 
ATOM     87  C   UNL A   1      46.560  22.509  34.537  1.00  0.00     0.055 A 
ATOM     88  C   UNL A   1      44.249  21.940  34.752  1.00  0.00     0.041 A 
ATOM     89  F   UNL A   1      42.608  23.324  33.888  1.00  0.00    -0.206 F 
ATOM     90  C   UNL A   1      45.576  21.653  35.027  1.00  0.00     0.022 A 
BRANCH  87  91
ATOM     91  S   UNL A   1      48.294  22.246  34.993  1.00  0.00     0.124 S 
ATOM     92  O   UNL A   1      48.954  23.418  34.430  1.00  0.00    -0.237 OA
ATOM     93  O   UNL A   1      48.212  22.203  36.451  1.00  0.00    -0.237 OA
ATOM     94  O   UNL A   1      48.629  20.974  34.356  1.00  0.00    -0.744 OA
ENDBRANCH  87  91
ENDBRANCH  61  84
ENDBRANCH  35  36
ENDBRANCH  27  30
ENDBRANCH  25  26
ENDBRANCH   1  25
TORSDOF 16
ENDMDL
MODEL 2
REMARK VINA RESULT:     -12.9      1.328      2.804
REMARK SMILES Cc1ccc(Nc2c(F)cccc2Cl)c(CC(=O)NCCCNC(=O)c2ccc(-c3c4nc(c(-c5cc(S(=O)(=O)[O-])ccc5F)c5ccc([nH]5)c(-c5cc(S(=O)(=O)[O-])ccc5F)c5nc(c(-c6cc(S(=O)(=O)[O-])ccc6F)c6ccc3[nH]6)C=C5)C=C4)cc2)c1
REMARK SMILES IDX 21 1 20 2 19 3 17 4 18 5 16 7 15 8 1 9 2 10 3 11 89 12 4 13
REMARK SMILES IDX 5 14 6 15 7 17 8 18 13 19 9 20 10 21 12 22 14 23 11 24 22 25
REMARK SMILES IDX 23 26 24 27 25 29 26 30 27 31 88 32 28 33 87 34 29 35 30 36
REMARK SMILES IDX 31 37 81 38 32 39 86 40 80 41 82 42 33 43 85 44 79 45 78 46
REMARK SMILES IDX 34 48 66 49 46 50 65 51 47 52 50 53 64 54 83 55 48 56 49 57
REMARK SMILES IDX 63 59 84 60 51 61 35 62 36 63 44 64 37 65 43 66 45 67 42 68
REMARK SMILES IDX 38 69 39 70 40 71 41 72 67 73 68 74 76 75 69 76 75 77 77 78
REMARK SMILES IDX 74 79 70 80 71 81 72 82 73 83 52 84 53 85 61 86 54 87 60 88
REMARK SMILES IDX 62 89 59 90 55 91 56 92 57 93 58 94
REMARK H PARENT 19 6 6 16 23 28 82 47 50 58
REMARK Flexibility Score: inf
ROOT
ATOM      1  C   UNL A   1      33.029  31.100  27.120  1.00  0.00     0.042 C 
ENDROOT
BRANCH   1   2
ATOM      2  C   UNL A   1      32.199  30.100  26.318  1.00  0.00     0.117 C 
BRANCH   2   3
ATOM      3  N   UNL A   1      32.745  29.873  24.989  1.00  0.00    -0.356 N 
ATOM      4  C   UNL A   1      33.439  28.797  24.515  1.00  0.00     0.224 C 
ATOM      5  O   UNL A   1      33.969  28.836  23.401  1.00  0.00    -0.275 OA
ATOM      6  H   UNL A   1      32.592  30.597  24.339  1.00  0.00     0.163 HD
BRANCH   4   7
ATOM      7  C   UNL A   1      33.572  27.540  25.361  1.00  0.00     0.137 C 
BRANCH   7   8
ATOM      8  C   UNL A   1      32.496  26.506  25.109  1.00  0.00    -0.015 A 
ATOM      9  C   UNL A   1      28.871  26.609  23.894  1.00  0.00     0.044 C 
ATOM     10  C   UNL A   1      30.194  26.095  24.373  1.00  0.00    -0.051 A 
ATOM     11  C   UNL A   1      30.342  24.755  24.718  1.00  0.00     0.005 A 
ATOM     12  C   UNL A   1      31.285  26.952  24.534  1.00  0.00     0.009 A 
ATOM     13  C   UNL A   1      31.551  24.290  25.241  1.00  0.00     0.026 A 
ATOM     14  C   UNL A   1      32.639  25.149  25.473  1.00  0.00     0.042 A 
BRANCH  14  15
ATOM     15  N   UNL A   1      33.843  24.664  26.033  1.00  0.00    -0.352 N 
ATOM     16  H   UNL A   1      34.184  25.176  26.801  1.00  0.00     0.167 HD
BRANCH  15  17
ATOM     17  C   UNL A   1      34.631  23.551  25.651  1.00  0.00     0.094 A 
ATOM     18  C   UNL A   1      35.386  23.534  24.467  1.00  0.00     0.148 A 
ATOM     19  C   UNL A   1      34.604  22.364  26.409  1.00  0.00     0.067 A 
ATOM     20  F   UNL A   1      35.474  24.630  23.698  1.00  0.00    -0.205 F 
ATOM     21  C   UNL A   1      36.080  22.396  24.049  1.00  0.00     0.041 A 
ATOM     22  C   UNL A   1      35.297  21.218  25.994  1.00  0.00     0.023 A 
ATOM     23  Cl  UNL A   1      33.669  22.255  27.860  1.00  0.00    -0.082 Cl
ATOM     24  C   UNL A   1      36.032  21.233  24.810  1.00  0.00     0.005 A 
ENDBRANCH  15  17
ENDBRANCH  14  15
ENDBRANCH   7   8
ENDBRANCH   4   7
ENDBRANCH   2   3
ENDBRANCH   1   2
BRANCH   1  25
ATOM     25  C   UNL A   1      34.337  30.529  27.662  1.00  0.00     0.118 C 
BRANCH  25  26
ATOM     26  N   UNL A   1      34.933  31.369  28.688  1.00  0.00    -0.352 N 
ATOM     27  C   UNL A   1      36.109  31.156  29.415  1.00  0.00     0.251 C 
ATOM     28  H   UNL A   1      34.445  32.198  28.899  1.00  0.00     0.163 HD
ATOM     29  O   UNL A   1      36.514  31.951  30.234  1.00  0.00    -0.269 OA
BRANCH  27  30
ATOM     30  C   UNL A   1      36.907  29.965  29.065  1.00  0.00     0.039 A 
ATOM     31  C   UNL A   1      37.143  29.034  30.081  1.00  0.00     0.014 A 
ATOM     32  C   UNL A   1      37.609  29.911  27.865  1.00  0.00     0.014 A 
ATOM     33  C   UNL A   1      38.245  28.189  29.986  1.00  0.00     0.010 A 
ATOM     34  C   UNL A   1      38.750  29.128  27.804  1.00  0.00     0.010 A 
ATOM     35  C   UNL A   1      39.105  28.321  28.893  1.00  0.00    -0.014 A 
BRANCH  35  36
ATOM     36  C   UNL A   1      40.470  27.798  28.908  1.00  0.00     0.031 A 
ATOM     37  C   UNL A   1      40.779  26.416  28.493  1.00  0.00     0.074 A 
ATOM     38  C   UNL A   1      41.492  28.598  29.286  1.00  0.00     0.049 A 
ATOM     39  N   UNL A   1      41.806  25.749  28.903  1.00  0.00    -0.248 NA
ATOM     40  C   UNL A   1      39.917  25.656  27.599  1.00  0.00     0.031 C 
ATOM     41  C   UNL A   1      42.922  28.338  29.146  1.00  0.00     0.029 A 
ATOM     42  N   UNL A   1      41.421  29.699  30.139  1.00  0.00    -0.354 N 
ATOM     43  C   UNL A   1      41.913  24.625  28.119  1.00  0.00     0.074 A 
ATOM     44  C   UNL A   1      40.673  24.576  27.375  1.00  0.00     0.031 C 
ATOM     45  C   UNL A   1      43.579  29.035  30.084  1.00  0.00     0.029 A 
ATOM     46  C   UNL A   1      42.587  29.669  30.931  1.00  0.00     0.049 A 
ATOM     47  H   UNL A   1      40.698  30.366  30.180  1.00  0.00     0.167 HD
ATOM     48  C   UNL A   1      43.089  23.934  28.079  1.00  0.00     0.034 A 
ATOM     49  C   UNL A   1      42.512  29.582  32.290  1.00  0.00     0.034 A 
ATOM     50  C   UNL A   1      44.096  24.477  28.993  1.00  0.00     0.049 A 
ATOM     51  C   UNL A   1      43.193  28.362  32.876  1.00  0.00     0.074 A 
ATOM     52  C   UNL A   1      45.249  25.229  28.836  1.00  0.00     0.029 A 
ATOM     53  N   UNL A   1      43.848  24.451  30.354  1.00  0.00    -0.354 N 
ATOM     54  N   UNL A   1      43.793  27.441  32.173  1.00  0.00    -0.248 NA
ATOM     55  C   UNL A   1      43.164  28.032  34.302  1.00  0.00     0.031 C 
ATOM     56  C   UNL A   1      45.690  25.647  30.126  1.00  0.00     0.029 A 
ATOM     57  C   UNL A   1      44.810  25.142  31.064  1.00  0.00     0.049 A 
ATOM     58  H   UNL A   1      43.078  23.996  30.767  1.00  0.00     0.167 HD
ATOM     59  C   UNL A   1      44.140  26.395  32.988  1.00  0.00     0.074 A 
ATOM     60  C   UNL A   1      43.737  26.817  34.317  1.00  0.00     0.031 C 
ATOM     61  C   UNL A   1      44.679  25.236  32.510  1.00  0.00     0.034 A 
BRANCH  48  62
ATOM     62  C   UNL A   1      43.408  22.913  27.010  1.00  0.00     0.023 A 
ATOM     63  C   UNL A   1      42.816  21.636  27.070  1.00  0.00     0.031 A 
ATOM     64  C   UNL A   1      44.299  23.117  25.939  1.00  0.00     0.131 A 
ATOM     65  C   UNL A   1      43.199  20.607  26.191  1.00  0.00     0.055 A 
ATOM     66  C   UNL A   1      44.737  22.075  25.109  1.00  0.00     0.041 A 
ATOM     67  F   UNL A   1      44.741  24.340  25.617  1.00  0.00    -0.206 F 
ATOM     68  C   UNL A   1      44.199  20.805  25.244  1.00  0.00     0.022 A 
BRANCH  65  69
ATOM     69  S   UNL A   1      42.359  19.003  26.293  1.00  0.00     0.124 S 
ATOM     70  O   UNL A   1      41.027  19.313  25.787  1.00  0.00    -0.237 OA
ATOM     71  O   UNL A   1      43.196  18.165  25.442  1.00  0.00    -0.237 OA
ATOM     72  O   UNL A   1      42.415  18.682  27.720  1.00  0.00    -0.744 OA
ENDBRANCH  65  69
ENDBRANCH  48  62
BRANCH  49  73
ATOM     73  C   UNL A   1      41.308  30.270  32.844  1.00  0.00     0.023 A 
ATOM     74  C   UNL A   1      41.351  31.681  32.889  1.00  0.00     0.031 A 
ATOM     75  C   UNL A   1      40.055  29.653  32.938  1.00  0.00     0.131 A 
ATOM     76  C   UNL A   1      40.167  32.427  32.816  1.00  0.00     0.055 A 
ATOM     77  C   UNL A   1      38.874  30.406  32.975  1.00  0.00     0.041 A 
ATOM     78  F   UNL A   1      39.939  28.319  32.865  1.00  0.00    -0.206 F 
ATOM     79  C   UNL A   1      38.925  31.797  32.863  1.00  0.00     0.022 A 
BRANCH  76  80
ATOM     80  S   UNL A   1      40.297  34.171  32.324  1.00  0.00     0.124 S 
ATOM     81  O   UNL A   1      40.423  34.849  33.608  1.00  0.00    -0.237 OA
ATOM     82  O   UNL A   1      41.491  34.176  31.477  1.00  0.00    -0.237 OA
ATOM     83  O   UNL A   1      39.056  34.427  31.598  1.00  0.00    -0.744 OA
ENDBRANCH  76  80
ENDBRANCH  49  73
BRANCH  61  84
ATOM     84  C   UNL A   1      45.086  24.075  33.384  1.00  0.00     0.023 A 
ATOM     85  C   UNL A   1      46.402  23.914  33.849  1.00  0.00     0.031 A 
ATOM     86  C   UNL A   1      44.176  23.046  33.718  1.00  0.00     0.131 A 
ATOM     87  C   UNL A   1      46.748  22.822  34.666  1.00  0.00     0.055 A 
ATOM     88  C   UNL A   1      44.544  21.922  34.463  1.00  0.00     0.041 A 
ATOM     89  F   UNL A   1      42.883  23.104  33.369  1.00  0.00    -0.206 F 
ATOM     90  C   UNL A   1      45.834  21.811  34.955  1.00  0.00     0.022 A 
BRANCH  87  91
ATOM     91  S   UNL A   1      48.401  22.782  35.407  1.00  0.00     0.124 S 
ATOM     92  O   UNL A   1      48.116  22.493  36.809  1.00  0.00    -0.237 OA
ATOM     93  O   UNL A   1      49.036  21.703  34.654  1.00  0.00    -0.237 OA
ATOM     94  O   UNL A   1      48.932  24.117  35.141  1.00  0.00    -0.744 OA
ENDBRANCH  87  91
ENDBRANCH  61  84
ENDBRANCH  35  36
ENDBRANCH  27  30
ENDBRANCH  25  26
ENDBRANCH   1  25
TORSDOF 16
ENDMDL
MODEL 3
REMARK VINA RESULT:     -12.7      4.327     10.516
REMARK SMILES Cc1ccc(Nc2c(F)cccc2Cl)c(CC(=O)NCCCNC(=O)c2ccc(-c3c4nc(c(-c5cc(S(=O)(=O)[O-])ccc5F)c5ccc([nH]5)c(-c5cc(S(=O)(=O)[O-])ccc5F)c5nc(c(-c6cc(S(=O)(=O)[O-])ccc6F)c6ccc3[nH]6)C=C5)C=C4)cc2)c1
REMARK SMILES IDX 21 1 20 2 19 3 17 4 18 5 16 7 15 8 1 9 2 10 3 11 89 12 4 13
REMARK SMILES IDX 5 14 6 15 7 17 8 18 13 19 9 20 10 21 12 22 14 23 11 24 22 25
REMARK SMILES IDX 23 26 24 27 25 29 26 30 27 31 88 32 28 33 87 34 29 35 30 36
REMARK SMILES IDX 31 37 81 38 32 39 86 40 80 41 82 42 33 43 85 44 79 45 78 46
REMARK SMILES IDX 34 48 66 49 46 50 65 51 47 52 50 53 64 54 83 55 48 56 49 57
REMARK SMILES IDX 63 59 84 60 51 61 35 62 36 63 44 64 37 65 43 66 45 67 42 68
REMARK SMILES IDX 38 69 39 70 40 71 41 72 67 73 68 74 76 75 69 76 75 77 77 78
REMARK SMILES IDX 74 79 70 80 71 81 72 82 73 83 52 84 53 85 61 86 54 87 60 88
REMARK SMILES IDX 62 89 59 90 55 91 56 92 57 93 58 94
REMARK H PARENT 19 6 6 16 23 28 82 47 50 58
REMARK Flexibility Score: inf
ROOT
ATOM      1  C   UNL A   1      38.020  21.840  25.746  1.00  0.00     0.042 C 
ENDROOT
BRANCH   1   2
ATOM      2  C   UNL A   1      36.536  21.890  25.393  1.00  0.00     0.117 C 
BRANCH   2   3
ATOM      3  N   UNL A   1      35.691  21.469  26.500  1.00  0.00    -0.356 N 
ATOM      4  C   UNL A   1      34.402  21.817  26.781  1.00  0.00     0.224 C 
ATOM      5  O   UNL A   1      33.886  21.490  27.854  1.00  0.00    -0.275 OA
ATOM      6  H   UNL A   1      36.109  20.843  27.135  1.00  0.00     0.163 HD
BRANCH   4   7
ATOM      7  C   UNL A   1      33.590  22.621  25.778  1.00  0.00     0.137 C 
BRANCH   7   8
ATOM      8  C   UNL A   1      33.027  21.801  24.637  1.00  0.00    -0.015 A 
ATOM      9  C   UNL A   1      32.551  18.068  23.959  1.00  0.00     0.044 C 
ATOM     10  C   UNL A   1      32.525  19.556  23.792  1.00  0.00    -0.051 A 
ATOM     11  C   UNL A   1      32.151  20.117  22.574  1.00  0.00     0.005 A 
ATOM     12  C   UNL A   1      32.922  20.405  24.827  1.00  0.00     0.009 A 
ATOM     13  C   UNL A   1      32.203  21.501  22.390  1.00  0.00     0.026 A 
ATOM     14  C   UNL A   1      32.663  22.368  23.396  1.00  0.00     0.042 A 
BRANCH  14  15
ATOM     15  N   UNL A   1      32.737  23.763  23.177  1.00  0.00    -0.352 N 
ATOM     16  H   UNL A   1      33.451  24.054  22.566  1.00  0.00     0.167 HD
BRANCH  15  17
ATOM     17  C   UNL A   1      31.936  24.803  23.708  1.00  0.00     0.094 A 
ATOM     18  C   UNL A   1      30.549  24.867  23.497  1.00  0.00     0.148 A 
ATOM     19  C   UNL A   1      32.529  25.882  24.392  1.00  0.00     0.067 A 
ATOM     20  F   UNL A   1      29.909  23.871  22.866  1.00  0.00    -0.205 F 
ATOM     21  C   UNL A   1      29.783  25.948  23.940  1.00  0.00     0.041 A 
ATOM     22  C   UNL A   1      31.766  26.971  24.837  1.00  0.00     0.023 A 
ATOM     23  Cl  UNL A   1      34.236  25.932  24.667  1.00  0.00    -0.082 Cl
ATOM     24  C   UNL A   1      30.392  27.005  24.607  1.00  0.00     0.005 A 
ENDBRANCH  15  17
ENDBRANCH  14  15
ENDBRANCH   7   8
ENDBRANCH   4   7
ENDBRANCH   2   3
ENDBRANCH   1   2
BRANCH   1  25
ATOM     25  C   UNL A   1      38.699  23.207  25.776  1.00  0.00     0.118 C 
BRANCH  25  26
ATOM     26  N   UNL A   1      40.083  23.136  26.213  1.00  0.00    -0.352 N 
ATOM     27  C   UNL A   1      40.847  24.118  26.854  1.00  0.00     0.251 C 
ATOM     28  H   UNL A   1      40.545  22.285  26.036  1.00  0.00     0.163 HD
ATOM     29  O   UNL A   1      41.995  23.925  27.190  1.00  0.00    -0.269 OA
BRANCH  27  30
ATOM     30  C   UNL A   1      40.161  25.375  27.209  1.00  0.00     0.039 A 
ATOM     31  C   UNL A   1      40.515  26.520  26.490  1.00  0.00     0.014 A 
ATOM     32  C   UNL A   1      39.405  25.464  28.375  1.00  0.00     0.014 A 
ATOM     33  C   UNL A   1      40.308  27.773  27.062  1.00  0.00     0.010 A 
ATOM     34  C   UNL A   1      39.272  26.703  28.980  1.00  0.00     0.010 A 
ATOM     35  C   UNL A   1      39.786  27.847  28.355  1.00  0.00    -0.014 A 
BRANCH  35  36
ATOM     36  C   UNL A   1      39.922  29.044  29.183  1.00  0.00     0.031 A 
ATOM     37  C   UNL A   1      38.884  30.093  29.209  1.00  0.00     0.074 A 
ATOM     38  C   UNL A   1      41.009  29.198  29.970  1.00  0.00     0.049 A 
ATOM     39  N   UNL A   1      39.111  31.330  29.507  1.00  0.00    -0.248 NA
ATOM     40  C   UNL A   1      37.495  29.830  28.859  1.00  0.00     0.031 C 
ATOM     41  C   UNL A   1      41.212  30.190  31.022  1.00  0.00     0.029 A 
ATOM     42  N   UNL A   1      42.273  28.644  29.767  1.00  0.00    -0.354 N 
ATOM     43  C   UNL A   1      37.896  31.945  29.687  1.00  0.00     0.074 A 
ATOM     44  C   UNL A   1      36.924  30.990  29.200  1.00  0.00     0.031 C 
ATOM     45  C   UNL A   1      42.528  30.392  31.175  1.00  0.00     0.029 A 
ATOM     46  C   UNL A   1      43.209  29.629  30.146  1.00  0.00     0.049 A 
ATOM     47  H   UNL A   1      42.473  27.742  29.426  1.00  0.00     0.167 HD
ATOM     48  C   UNL A   1      37.828  33.134  30.353  1.00  0.00     0.034 A 
ATOM     49  C   UNL A   1      44.123  30.110  29.255  1.00  0.00     0.034 A 
ATOM     50  C   UNL A   1      39.147  33.648  30.728  1.00  0.00     0.049 A 
ATOM     51  C   UNL A   1      44.033  31.604  29.015  1.00  0.00     0.074 A 
ATOM     52  C   UNL A   1      39.859  33.733  31.914  1.00  0.00     0.029 A 
ATOM     53  N   UNL A   1      40.043  33.983  29.729  1.00  0.00    -0.354 N 
ATOM     54  N   UNL A   1      43.157  32.391  29.576  1.00  0.00    -0.248 NA
ATOM     55  C   UNL A   1      44.864  32.312  28.040  1.00  0.00     0.031 C 
ATOM     56  C   UNL A   1      41.193  34.130  31.609  1.00  0.00     0.029 A 
ATOM     57  C   UNL A   1      41.289  34.294  30.239  1.00  0.00     0.049 A 
ATOM     58  H   UNL A   1      39.821  33.997  28.769  1.00  0.00     0.167 HD
ATOM     59  C   UNL A   1      43.232  33.638  29.009  1.00  0.00     0.074 A 
ATOM     60  C   UNL A   1      44.325  33.543  28.059  1.00  0.00     0.031 C 
ATOM     61  C   UNL A   1      42.357  34.640  29.314  1.00  0.00     0.034 A 
BRANCH  48  62
ATOM     62  C   UNL A   1      36.535  33.703  30.893  1.00  0.00     0.023 A 
ATOM     63  C   UNL A   1      35.603  34.274  30.004  1.00  0.00     0.031 A 
ATOM     64  C   UNL A   1      36.178  33.747  32.254  1.00  0.00     0.131 A 
ATOM     65  C   UNL A   1      34.463  34.951  30.471  1.00  0.00     0.055 A 
ATOM     66  C   UNL A   1      35.083  34.484  32.726  1.00  0.00     0.041 A 
ATOM     67  F   UNL A   1      36.840  33.036  33.177  1.00  0.00    -0.206 F 
ATOM     68  C   UNL A   1      34.226  35.107  31.833  1.00  0.00     0.022 A 
BRANCH  65  69
ATOM     69  S   UNL A   1      33.280  35.618  29.269  1.00  0.00     0.124 S 
ATOM     70  O   UNL A   1      34.155  36.186  28.249  1.00  0.00    -0.237 OA
ATOM     71  O   UNL A   1      32.529  34.428  28.887  1.00  0.00    -0.237 OA
ATOM     72  O   UNL A   1      32.524  36.600  30.046  1.00  0.00    -0.744 OA
ENDBRANCH  65  69
ENDBRANCH  48  62
BRANCH  49  73
ATOM     73  C   UNL A   1      44.554  29.082  28.262  1.00  0.00     0.023 A 
ATOM     74  C   UNL A   1      45.396  28.054  28.742  1.00  0.00     0.031 A 
ATOM     75  C   UNL A   1      43.883  28.863  27.053  1.00  0.00     0.131 A 
ATOM     76  C   UNL A   1      45.387  26.793  28.134  1.00  0.00     0.055 A 
ATOM     77  C   UNL A   1      43.963  27.633  26.389  1.00  0.00     0.041 A 
ATOM     78  F   UNL A   1      43.040  29.782  26.560  1.00  0.00    -0.206 F 
ATOM     79  C   UNL A   1      44.677  26.574  26.955  1.00  0.00     0.022 A 
BRANCH  76  80
ATOM     80  S   UNL A   1      46.035  25.390  29.090  1.00  0.00     0.124 S 
ATOM     81  O   UNL A   1      47.427  25.337  28.663  1.00  0.00    -0.237 OA
ATOM     82  O   UNL A   1      45.804  25.812  30.473  1.00  0.00    -0.237 OA
ATOM     83  O   UNL A   1      45.206  24.263  28.671  1.00  0.00    -0.744 OA
ENDBRANCH  76  80
ENDBRANCH  49  73
BRANCH  61  84
ATOM     84  C   UNL A   1      42.425  36.024  28.720  1.00  0.00     0.023 A 
ATOM     85  C   UNL A   1      42.916  37.125  29.441  1.00  0.00     0.031 A 
ATOM     86  C   UNL A   1      41.924  36.300  27.427  1.00  0.00     0.131 A 
ATOM     87  C   UNL A   1      42.970  38.404  28.855  1.00  0.00     0.055 A 
ATOM     88  C   UNL A   1      41.905  37.585  26.879  1.00  0.00     0.041 A 
ATOM     89  F   UNL A   1      41.466  35.328  26.624  1.00  0.00    -0.206 F 
ATOM     90  C   UNL A   1      42.443  38.646  27.588  1.00  0.00     0.022 A 
BRANCH  87  91
ATOM     91  S   UNL A   1      43.807  39.736  29.754  1.00  0.00     0.124 S 
ATOM     92  O   UNL A   1      42.895  40.862  29.579  1.00  0.00    -0.237 OA
ATOM     93  O   UNL A   1      43.880  39.182  31.104  1.00  0.00    -0.237 OA
ATOM     94  O   UNL A   1      45.091  39.862  29.068  1.00  0.00    -0.744 OA
ENDBRANCH  87  91
ENDBRANCH  61  84
ENDBRANCH  35  36
ENDBRANCH  27  30
ENDBRANCH  25  26
ENDBRANCH   1  25
TORSDOF 16
ENDMDL
