MODEL 1
REMARK VINA RESULT:     -12.6      0.000      0.000
REMARK SMILES C[C@H](C(=O)NCCCNC(=O)c1ccc(-c2c3nc(c(-c4cc(S(=O)(=O)[O-])ccc4F)c4ccc([nH]4)c(-c4cc(S(=O)(=O)[O-])ccc4F)c4nc(c(-c5cc(S(=O)(=O)[O-])ccc5F)c5ccc2[nH]5)C=C4)C=C3)cc1)c1ccc2c(c1)OCCO2
REMARK SMILES IDX 8 1 7 2 6 3 5 4 3 5 4 6 2 8 1 9 75 10 76 11 80 12 77 13
REMARK SMILES IDX 79 14 78 15 81 16 84 17 82 18 83 19 9 20 10 21 11 23 12 24
REMARK SMILES IDX 13 25 74 26 14 27 73 28 15 29 16 30 17 31 67 32 18 33 72 34
REMARK SMILES IDX 66 35 68 36 19 37 71 38 65 39 64 40 20 42 52 43 32 44 51 45
REMARK SMILES IDX 33 46 36 47 50 48 69 49 34 50 35 51 49 53 70 54 37 55 21 56
REMARK SMILES IDX 22 57 30 58 23 59 29 60 31 61 28 62 24 63 25 64 26 65 27 66
REMARK SMILES IDX 53 67 54 68 62 69 55 70 61 71 63 72 60 73 56 74 57 75 58 76
REMARK SMILES IDX 59 77 38 78 39 79 47 80 40 81 46 82 48 83 45 84 41 85 42 86
REMARK SMILES IDX 43 87 44 88
REMARK H PARENT 5 7 9 22 68 41 36 52
REMARK Flexibility Score: inf
ROOT
ATOM      1  C   UNL A   1      37.578  21.026  24.777  1.00  0.00     0.118 C 
ENDROOT
BRANCH   1   2
ATOM      2  C   UNL A   1      36.277  21.057  25.565  1.00  0.00     0.042 C 
BRANCH   2   3
ATOM      3  C   UNL A   1      35.380  22.266  25.354  1.00  0.00     0.117 C 
BRANCH   3   4
ATOM      4  N   UNL A   1      35.149  22.651  23.969  1.00  0.00    -0.356 N 
ATOM      5  C   UNL A   1      33.984  22.955  23.314  1.00  0.00     0.227 C 
ATOM      6  O   UNL A   1      34.097  23.550  22.235  1.00  0.00    -0.274 OA
ATOM      7  H   UNL A   1      35.959  22.700  23.413  1.00  0.00     0.163 HD
BRANCH   5   8
ATOM      8  C   UNL A   1      32.589  22.496  23.789  1.00  0.00     0.105 C 
ATOM      9  C   UNL A   1      31.589  23.482  23.166  1.00  0.00     0.023 C 
BRANCH   8  10
ATOM     10  C   UNL A   1      32.256  21.023  23.554  1.00  0.00    -0.032 A 
ATOM     11  C   UNL A   1      32.052  20.509  22.259  1.00  0.00     0.008 A 
ATOM     12  C   UNL A   1      32.312  20.123  24.629  1.00  0.00     0.055 A 
ATOM     13  C   UNL A   1      32.169  19.142  22.013  1.00  0.00     0.051 A 
ATOM     14  C   UNL A   1      32.571  18.783  24.369  1.00  0.00     0.161 A 
ATOM     15  C   UNL A   1      32.540  18.308  23.058  1.00  0.00     0.161 A 
ATOM     16  O   UNL A   1      33.039  18.045  25.423  1.00  0.00    -0.486 OA
ATOM     17  O   UNL A   1      33.020  17.062  22.744  1.00  0.00    -0.486 OA
ATOM     18  C   UNL A   1      33.797  16.890  25.031  1.00  0.00     0.271 C 
ATOM     19  C   UNL A   1      34.186  16.864  23.556  1.00  0.00     0.271 C 
ENDBRANCH   8  10
ENDBRANCH   5   8
ENDBRANCH   3   4
ENDBRANCH   2   3
ENDBRANCH   1   2
BRANCH   1  20
ATOM     20  N   UNL A   1      38.618  20.185  25.356  1.00  0.00    -0.352 N 
ATOM     21  C   UNL A   1      39.679  20.496  26.180  1.00  0.00     0.251 C 
ATOM     22  H   UNL A   1      38.551  19.233  25.119  1.00  0.00     0.163 HD
ATOM     23  O   UNL A   1      40.463  19.600  26.493  1.00  0.00    -0.269 OA
BRANCH  21  24
ATOM     24  C   UNL A   1      39.936  21.887  26.638  1.00  0.00     0.039 A 
ATOM     25  C   UNL A   1      40.949  22.100  27.581  1.00  0.00     0.014 A 
ATOM     26  C   UNL A   1      39.217  22.982  26.155  1.00  0.00     0.014 A 
ATOM     27  C   UNL A   1      41.325  23.403  27.930  1.00  0.00     0.010 A 
ATOM     28  C   UNL A   1      39.647  24.281  26.436  1.00  0.00     0.010 A 
ATOM     29  C   UNL A   1      40.730  24.507  27.299  1.00  0.00    -0.014 A 
BRANCH  29  30
ATOM     30  C   UNL A   1      41.276  25.886  27.460  1.00  0.00     0.031 A 
ATOM     31  C   UNL A   1      42.625  26.255  26.902  1.00  0.00     0.074 A 
ATOM     32  C   UNL A   1      40.592  26.781  28.207  1.00  0.00     0.049 A 
ATOM     33  N   UNL A   1      43.307  27.362  27.057  1.00  0.00    -0.248 NA
ATOM     34  C   UNL A   1      43.305  25.243  26.080  1.00  0.00     0.031 C 
ATOM     35  C   UNL A   1      39.293  26.536  28.839  1.00  0.00     0.029 A 
ATOM     36  N   UNL A   1      40.898  28.067  28.581  1.00  0.00    -0.354 N 
ATOM     37  C   UNL A   1      44.503  27.174  26.374  1.00  0.00     0.074 A 
ATOM     38  C   UNL A   1      44.466  25.833  25.828  1.00  0.00     0.031 C 
ATOM     39  C   UNL A   1      38.912  27.634  29.511  1.00  0.00     0.029 A 
ATOM     40  C   UNL A   1      39.961  28.643  29.412  1.00  0.00     0.049 A 
ATOM     41  H   UNL A   1      41.712  28.535  28.285  1.00  0.00     0.167 HD
ATOM     42  C   UNL A   1      45.530  28.044  26.208  1.00  0.00     0.034 A 
ATOM     43  C   UNL A   1      39.955  29.831  30.050  1.00  0.00     0.034 A 
ATOM     44  C   UNL A   1      45.546  29.389  26.731  1.00  0.00     0.049 A 
ATOM     45  C   UNL A   1      41.130  30.761  29.874  1.00  0.00     0.074 A 
ATOM     46  C   UNL A   1      46.494  30.378  26.527  1.00  0.00     0.029 A 
ATOM     47  N   UNL A   1      44.584  29.931  27.571  1.00  0.00    -0.354 N 
ATOM     48  N   UNL A   1      42.216  30.592  29.157  1.00  0.00    -0.248 NA
ATOM     49  C   UNL A   1      41.077  32.041  30.593  1.00  0.00     0.031 C 
ATOM     50  C   UNL A   1      46.146  31.488  27.303  1.00  0.00     0.029 A 
ATOM     51  C   UNL A   1      44.943  31.221  27.935  1.00  0.00     0.049 A 
ATOM     52  H   UNL A   1      43.768  29.468  27.868  1.00  0.00     0.167 HD
ATOM     53  C   UNL A   1      42.962  31.755  29.323  1.00  0.00     0.074 A 
ATOM     54  C   UNL A   1      42.193  32.626  30.185  1.00  0.00     0.031 C 
ATOM     55  C   UNL A   1      44.177  32.074  28.810  1.00  0.00     0.034 A 
BRANCH  42  56
ATOM     56  C   UNL A   1      46.744  27.570  25.449  1.00  0.00     0.023 A 
ATOM     57  C   UNL A   1      46.966  27.921  24.107  1.00  0.00     0.031 A 
ATOM     58  C   UNL A   1      47.716  26.784  26.095  1.00  0.00     0.131 A 
ATOM     59  C   UNL A   1      48.110  27.454  23.443  1.00  0.00     0.055 A 
ATOM     60  C   UNL A   1      48.883  26.376  25.448  1.00  0.00     0.041 A 
ATOM     61  F   UNL A   1      47.549  26.406  27.373  1.00  0.00    -0.206 F 
ATOM     62  C   UNL A   1      49.082  26.705  24.111  1.00  0.00     0.022 A 
BRANCH  59  63
ATOM     63  S   UNL A   1      48.270  27.767  21.664  1.00  0.00     0.124 S 
ATOM     64  O   UNL A   1      49.369  28.729  21.632  1.00  0.00    -0.237 OA
ATOM     65  O   UNL A   1      48.566  26.442  21.134  1.00  0.00    -0.237 OA
ATOM     66  O   UNL A   1      46.965  28.310  21.293  1.00  0.00    -0.744 OA
ENDBRANCH  59  63
ENDBRANCH  42  56
BRANCH  43  67
ATOM     67  C   UNL A   1      38.831  30.205  30.959  1.00  0.00     0.023 A 
ATOM     68  C   UNL A   1      37.720  30.916  30.478  1.00  0.00     0.031 A 
ATOM     69  C   UNL A   1      38.890  29.932  32.337  1.00  0.00     0.131 A 
ATOM     70  C   UNL A   1      36.747  31.385  31.374  1.00  0.00     0.055 A 
ATOM     71  C   UNL A   1      37.887  30.345  33.215  1.00  0.00     0.041 A 
ATOM     72  F   UNL A   1      39.928  29.256  32.852  1.00  0.00    -0.206 F 
ATOM     73  C   UNL A   1      36.816  31.093  32.737  1.00  0.00     0.022 A 
BRANCH  70  74
ATOM     74  S   UNL A   1      35.452  32.490  30.746  1.00  0.00     0.124 S 
ATOM     75  O   UNL A   1      36.175  33.749  30.612  1.00  0.00    -0.237 OA
ATOM     76  O   UNL A   1      35.072  31.831  29.502  1.00  0.00    -0.237 OA
ATOM     77  O   UNL A   1      34.441  32.461  31.801  1.00  0.00    -0.744 OA
ENDBRANCH  70  74
ENDBRANCH  43  67
BRANCH  55  78
ATOM     78  C   UNL A   1      44.728  33.436  29.153  1.00  0.00     0.023 A 
ATOM     79  C   UNL A   1      44.422  34.568  28.379  1.00  0.00     0.031 A 
ATOM     80  C   UNL A   1      45.582  33.599  30.258  1.00  0.00     0.131 A 
ATOM     81  C   UNL A   1      45.006  35.806  28.690  1.00  0.00     0.055 A 
ATOM     82  C   UNL A   1      46.115  34.844  30.597  1.00  0.00     0.041 A 
ATOM     83  F   UNL A   1      45.911  32.550  31.029  1.00  0.00    -0.206 F 
ATOM     84  C   UNL A   1      45.836  35.955  29.803  1.00  0.00     0.022 A 
BRANCH  81  85
ATOM     85  S   UNL A   1      44.726  37.206  27.571  1.00  0.00     0.124 S 
ATOM     86  O   UNL A   1      44.783  38.341  28.486  1.00  0.00    -0.237 OA
ATOM     87  O   UNL A   1      45.839  37.087  26.635  1.00  0.00    -0.237 OA
ATOM     88  O   UNL A   1      43.408  36.933  27.002  1.00  0.00    -0.744 OA
ENDBRANCH  81  85
ENDBRANCH  55  78
ENDBRANCH  29  30
ENDBRANCH  21  24
ENDBRANCH   1  20
TORSDOF 14
ENDMDL
MODEL 2
REMARK VINA RESULT:     -12.6      5.826      8.818
REMARK SMILES C[C@H](C(=O)NCCCNC(=O)c1ccc(-c2c3nc(c(-c4cc(S(=O)(=O)[O-])ccc4F)c4ccc([nH]4)c(-c4cc(S(=O)(=O)[O-])ccc4F)c4nc(c(-c5cc(S(=O)(=O)[O-])ccc5F)c5ccc2[nH]5)C=C4)C=C3)cc1)c1ccc2c(c1)OCCO2
REMARK SMILES IDX 8 1 7 2 6 3 5 4 3 5 4 6 2 8 1 9 75 10 76 11 80 12 77 13
REMARK SMILES IDX 79 14 78 15 81 16 84 17 82 18 83 19 9 20 10 21 11 23 12 24
REMARK SMILES IDX 13 25 74 26 14 27 73 28 15 29 16 30 17 31 67 32 18 33 72 34
REMARK SMILES IDX 66 35 68 36 19 37 71 38 65 39 64 40 20 42 52 43 32 44 51 45
REMARK SMILES IDX 33 46 36 47 50 48 69 49 34 50 35 51 49 53 70 54 37 55 21 56
REMARK SMILES IDX 22 57 30 58 23 59 29 60 31 61 28 62 24 63 25 64 26 65 27 66
REMARK SMILES IDX 53 67 54 68 62 69 55 70 61 71 63 72 60 73 56 74 57 75 58 76
REMARK SMILES IDX 59 77 38 78 39 79 47 80 40 81 46 82 48 83 45 84 41 85 42 86
REMARK SMILES IDX 43 87 44 88
REMARK H PARENT 5 7 9 22 68 41 36 52
REMARK Flexibility Score: inf
ROOT
ATOM      1  C   UNL A   1      32.465  30.449  26.350  1.00  0.00     0.118 C 
ENDROOT
BRANCH   1   2
ATOM      2  C   UNL A   1      31.755  29.402  27.195  1.00  0.00     0.042 C 
BRANCH   2   3
ATOM      3  C   UNL A   1      32.129  27.951  26.940  1.00  0.00     0.117 C 
BRANCH   3   4
ATOM      4  N   UNL A   1      31.026  27.000  26.949  1.00  0.00    -0.356 N 
ATOM      5  C   UNL A   1      30.575  26.155  25.969  1.00  0.00     0.227 C 
ATOM      6  O   UNL A   1      29.830  25.236  26.332  1.00  0.00    -0.274 OA
ATOM      7  H   UNL A   1      30.523  26.958  27.793  1.00  0.00     0.163 HD
BRANCH   5   8
ATOM      8  C   UNL A   1      30.847  26.365  24.464  1.00  0.00     0.105 C 
ATOM      9  C   UNL A   1      31.187  24.976  23.902  1.00  0.00     0.023 C 
BRANCH   8  10
ATOM     10  C   UNL A   1      29.766  27.115  23.688  1.00  0.00    -0.032 A 
ATOM     11  C   UNL A   1      28.397  26.841  23.876  1.00  0.00     0.008 A 
ATOM     12  C   UNL A   1      30.124  28.212  22.890  1.00  0.00     0.055 A 
ATOM     13  C   UNL A   1      27.430  27.775  23.508  1.00  0.00     0.051 A 
ATOM     14  C   UNL A   1      29.182  29.205  22.653  1.00  0.00     0.161 A 
ATOM     15  C   UNL A   1      27.847  28.998  23.002  1.00  0.00     0.161 A 
ATOM     16  O   UNL A   1      29.675  30.421  22.260  1.00  0.00    -0.486 OA
ATOM     17  O   UNL A   1      26.946  30.033  23.005  1.00  0.00    -0.486 OA
ATOM     18  C   UNL A   1      28.802  31.522  22.556  1.00  0.00     0.271 C 
ATOM     19  C   UNL A   1      27.652  31.179  23.499  1.00  0.00     0.271 C 
ENDBRANCH   8  10
ENDBRANCH   5   8
ENDBRANCH   3   4
ENDBRANCH   2   3
ENDBRANCH   1   2
BRANCH   1  20
ATOM     20  N   UNL A   1      32.416  31.800  26.891  1.00  0.00    -0.352 N 
ATOM     21  C   UNL A   1      33.345  32.520  27.613  1.00  0.00     0.251 C 
ATOM     22  H   UNL A   1      31.578  32.282  26.710  1.00  0.00     0.163 HD
ATOM     23  O   UNL A   1      33.040  33.645  28.009  1.00  0.00    -0.269 OA
BRANCH  21  24
ATOM     24  C   UNL A   1      34.668  31.948  27.980  1.00  0.00     0.039 A 
ATOM     25  C   UNL A   1      35.778  32.802  28.001  1.00  0.00     0.014 A 
ATOM     26  C   UNL A   1      34.839  30.604  28.314  1.00  0.00     0.014 A 
ATOM     27  C   UNL A   1      37.011  32.343  28.483  1.00  0.00     0.010 A 
ATOM     28  C   UNL A   1      36.043  30.169  28.874  1.00  0.00     0.010 A 
ATOM     29  C   UNL A   1      37.133  31.043  28.998  1.00  0.00    -0.014 A 
BRANCH  29  30
ATOM     30  C   UNL A   1      38.351  30.610  29.742  1.00  0.00     0.031 A 
ATOM     31  C   UNL A   1      39.280  29.572  29.170  1.00  0.00     0.074 A 
ATOM     32  C   UNL A   1      38.564  31.084  30.990  1.00  0.00     0.049 A 
ATOM     33  N   UNL A   1      40.309  28.988  29.730  1.00  0.00    -0.248 NA
ATOM     34  C   UNL A   1      39.005  29.117  27.799  1.00  0.00     0.031 C 
ATOM     35  C   UNL A   1      37.716  32.063  31.677  1.00  0.00     0.029 A 
ATOM     36  N   UNL A   1      39.540  30.795  31.913  1.00  0.00    -0.354 N 
ATOM     37  C   UNL A   1      40.792  28.081  28.793  1.00  0.00     0.074 A 
ATOM     38  C   UNL A   1      39.922  28.171  27.638  1.00  0.00     0.031 C 
ATOM     39  C   UNL A   1      38.213  32.297  32.901  1.00  0.00     0.029 A 
ATOM     40  C   UNL A   1      39.378  31.446  33.116  1.00  0.00     0.049 A 
ATOM     41  H   UNL A   1      40.285  30.178  31.732  1.00  0.00     0.167 HD
ATOM     42  C   UNL A   1      41.867  27.260  28.884  1.00  0.00     0.034 A 
ATOM     43  C   UNL A   1      40.063  31.350  34.274  1.00  0.00     0.034 A 
ATOM     44  C   UNL A   1      42.745  27.196  30.028  1.00  0.00     0.049 A 
ATOM     45  C   UNL A   1      41.232  30.399  34.354  1.00  0.00     0.074 A 
ATOM     46  C   UNL A   1      43.918  26.474  30.171  1.00  0.00     0.029 A 
ATOM     47  N   UNL A   1      42.544  27.865  31.227  1.00  0.00    -0.354 N 
ATOM     48  N   UNL A   1      41.718  29.609  33.426  1.00  0.00    -0.248 NA
ATOM     49  C   UNL A   1      41.944  30.328  35.637  1.00  0.00     0.031 C 
ATOM     50  C   UNL A   1      44.383  26.644  31.478  1.00  0.00     0.029 A 
ATOM     51  C   UNL A   1      43.542  27.530  32.131  1.00  0.00     0.049 A 
ATOM     52  H   UNL A   1      41.801  28.484  31.410  1.00  0.00     0.167 HD
ATOM     53  C   UNL A   1      42.805  28.966  34.010  1.00  0.00     0.074 A 
ATOM     54  C   UNL A   1      42.919  29.478  35.358  1.00  0.00     0.031 C 
ATOM     55  C   UNL A   1      43.636  28.033  33.479  1.00  0.00     0.034 A 
BRANCH  42  56
ATOM     56  C   UNL A   1      42.151  26.334  27.727  1.00  0.00     0.023 A 
ATOM     57  C   UNL A   1      41.683  25.011  27.701  1.00  0.00     0.031 A 
ATOM     58  C   UNL A   1      42.870  26.803  26.612  1.00  0.00     0.131 A 
ATOM     59  C   UNL A   1      41.974  24.188  26.602  1.00  0.00     0.055 A 
ATOM     60  C   UNL A   1      43.102  25.999  25.494  1.00  0.00     0.041 A 
ATOM     61  F   UNL A   1      43.355  28.054  26.588  1.00  0.00    -0.206 F 
ATOM     62  C   UNL A   1      42.659  24.680  25.489  1.00  0.00     0.022 A 
BRANCH  59  63
ATOM     63  S   UNL A   1      41.519  22.434  26.686  1.00  0.00     0.124 S 
ATOM     64  O   UNL A   1      41.985  21.947  25.390  1.00  0.00    -0.237 OA
ATOM     65  O   UNL A   1      42.263  21.969  27.850  1.00  0.00    -0.237 OA
ATOM     66  O   UNL A   1      40.066  22.465  26.846  1.00  0.00    -0.744 OA
ENDBRANCH  59  63
ENDBRANCH  42  56
BRANCH  43  67
ATOM     67  C   UNL A   1      39.647  32.130  35.476  1.00  0.00     0.023 A 
ATOM     68  C   UNL A   1      38.870  31.540  36.486  1.00  0.00     0.031 A 
ATOM     69  C   UNL A   1      39.948  33.499  35.594  1.00  0.00     0.131 A 
ATOM     70  C   UNL A   1      38.367  32.328  37.534  1.00  0.00     0.055 A 
ATOM     71  C   UNL A   1      39.498  34.264  36.672  1.00  0.00     0.041 A 
ATOM     72  F   UNL A   1      40.687  34.116  34.659  1.00  0.00    -0.206 F 
ATOM     73  C   UNL A   1      38.687  33.683  37.641  1.00  0.00     0.022 A 
BRANCH  70  74
ATOM     74  S   UNL A   1      37.184  31.580  38.688  1.00  0.00     0.124 S 
ATOM     75  O   UNL A   1      36.037  32.472  38.559  1.00  0.00    -0.237 OA
ATOM     76  O   UNL A   1      37.023  30.242  38.129  1.00  0.00    -0.237 OA
ATOM     77  O   UNL A   1      37.879  31.639  39.971  1.00  0.00    -0.744 OA
ENDBRANCH  70  74
ENDBRANCH  43  67
BRANCH  55  78
ATOM     78  C   UNL A   1      44.754  27.532  34.360  1.00  0.00     0.023 A 
ATOM     79  C   UNL A   1      44.598  26.389  35.164  1.00  0.00     0.031 A 
ATOM     80  C   UNL A   1      45.982  28.214  34.406  1.00  0.00     0.131 A 
ATOM     81  C   UNL A   1      45.637  25.992  36.019  1.00  0.00     0.055 A 
ATOM     82  C   UNL A   1      47.033  27.780  35.216  1.00  0.00     0.041 A 
ATOM     83  F   UNL A   1      46.182  29.313  33.661  1.00  0.00    -0.206 F 
ATOM     84  C   UNL A   1      46.859  26.669  36.038  1.00  0.00     0.022 A 
BRANCH  81  85
ATOM     85  S   UNL A   1      45.342  24.619  37.168  1.00  0.00     0.124 S 
ATOM     86  O   UNL A   1      46.478  24.734  38.076  1.00  0.00    -0.237 OA
ATOM     87  O   UNL A   1      44.039  24.956  37.732  1.00  0.00    -0.237 OA
ATOM     88  O   UNL A   1      45.355  23.440  36.304  1.00  0.00    -0.744 OA
ENDBRANCH  81  85
ENDBRANCH  55  78
ENDBRANCH  29  30
ENDBRANCH  21  24
ENDBRANCH   1  20
TORSDOF 14
ENDMDL
MODEL 3
REMARK VINA RESULT:     -12.5      6.254      9.547
REMARK SMILES C[C@H](C(=O)NCCCNC(=O)c1ccc(-c2c3nc(c(-c4cc(S(=O)(=O)[O-])ccc4F)c4ccc([nH]4)c(-c4cc(S(=O)(=O)[O-])ccc4F)c4nc(c(-c5cc(S(=O)(=O)[O-])ccc5F)c5ccc2[nH]5)C=C4)C=C3)cc1)c1ccc2c(c1)OCCO2
REMARK SMILES IDX 8 1 7 2 6 3 5 4 3 5 4 6 2 8 1 9 75 10 76 11 80 12 77 13
REMARK SMILES IDX 79 14 78 15 81 16 84 17 82 18 83 19 9 20 10 21 11 23 12 24
REMARK SMILES IDX 13 25 74 26 14 27 73 28 15 29 16 30 17 31 67 32 18 33 72 34
REMARK SMILES IDX 66 35 68 36 19 37 71 38 65 39 64 40 20 42 52 43 32 44 51 45
REMARK SMILES IDX 33 46 36 47 50 48 69 49 34 50 35 51 49 53 70 54 37 55 21 56
REMARK SMILES IDX 22 57 30 58 23 59 29 60 31 61 28 62 24 63 25 64 26 65 27 66
REMARK SMILES IDX 53 67 54 68 62 69 55 70 61 71 63 72 60 73 56 74 57 75 58 76
REMARK SMILES IDX 59 77 38 78 39 79 47 80 40 81 46 82 48 83 45 84 41 85 42 86
REMARK SMILES IDX 43 87 44 88
REMARK H PARENT 5 7 9 22 68 41 36 52
REMARK Flexibility Score: inf
ROOT
ATOM      1  C   UNL A   1      33.145  31.446  27.157  1.00  0.00     0.118 C 
ENDROOT
BRANCH   1   2
ATOM      2  C   UNL A   1      32.042  30.435  26.880  1.00  0.00     0.042 C 
BRANCH   2   3
ATOM      3  C   UNL A   1      31.768  30.106  25.422  1.00  0.00     0.117 C 
BRANCH   3   4
ATOM      4  N   UNL A   1      32.933  29.766  24.618  1.00  0.00    -0.356 N 
ATOM      5  C   UNL A   1      33.058  28.916  23.550  1.00  0.00     0.227 C 
ATOM      6  O   UNL A   1      34.074  29.047  22.857  1.00  0.00    -0.274 OA
ATOM      7  H   UNL A   1      33.765  30.220  24.883  1.00  0.00     0.163 HD
BRANCH   5   8
ATOM      8  C   UNL A   1      32.079  27.759  23.257  1.00  0.00     0.105 C 
ATOM      9  C   UNL A   1      32.148  26.832  24.480  1.00  0.00     0.023 C 
BRANCH   8  10
ATOM     10  C   UNL A   1      30.665  28.169  22.851  1.00  0.00    -0.032 A 
ATOM     11  C   UNL A   1      29.530  27.501  23.350  1.00  0.00     0.008 A 
ATOM     12  C   UNL A   1      30.474  29.334  22.093  1.00  0.00     0.055 A 
ATOM     13  C   UNL A   1      28.278  28.114  23.325  1.00  0.00     0.051 A 
ATOM     14  C   UNL A   1      29.264  30.010  22.193  1.00  0.00     0.161 A 
ATOM     15  C   UNL A   1      28.184  29.413  22.846  1.00  0.00     0.161 A 
ATOM     16  O   UNL A   1      29.273  31.323  21.804  1.00  0.00    -0.486 OA
ATOM     17  O   UNL A   1      27.065  30.136  23.170  1.00  0.00    -0.486 OA
ATOM     18  C   UNL A   1      28.239  32.113  22.411  1.00  0.00     0.271 C 
ATOM     19  C   UNL A   1      27.527  31.432  23.576  1.00  0.00     0.271 C 
ENDBRANCH   8  10
ENDBRANCH   5   8
ENDBRANCH   3   4
ENDBRANCH   2   3
ENDBRANCH   1   2
BRANCH   1  20
ATOM     20  N   UNL A   1      32.676  32.800  27.415  1.00  0.00    -0.352 N 
ATOM     21  C   UNL A   1      33.161  33.782  28.254  1.00  0.00     0.251 C 
ATOM     22  H   UNL A   1      31.876  33.059  26.904  1.00  0.00     0.163 HD
ATOM     23  O   UNL A   1      32.544  34.843  28.336  1.00  0.00    -0.269 OA
BRANCH  21  24
ATOM     24  C   UNL A   1      34.362  33.564  29.104  1.00  0.00     0.039 A 
ATOM     25  C   UNL A   1      34.229  32.774  30.252  1.00  0.00     0.014 A 
ATOM     26  C   UNL A   1      35.610  34.106  28.794  1.00  0.00     0.014 A 
ATOM     27  C   UNL A   1      35.359  32.420  31.000  1.00  0.00     0.010 A 
ATOM     28  C   UNL A   1      36.748  33.685  29.487  1.00  0.00     0.010 A 
ATOM     29  C   UNL A   1      36.640  32.808  30.577  1.00  0.00    -0.014 A 
BRANCH  29  30
ATOM     30  C   UNL A   1      37.872  32.244  31.201  1.00  0.00     0.031 A 
ATOM     31  C   UNL A   1      38.615  31.105  30.557  1.00  0.00     0.074 A 
ATOM     32  C   UNL A   1      38.262  32.699  32.413  1.00  0.00     0.049 A 
ATOM     33  N   UNL A   1      39.624  30.411  31.021  1.00  0.00    -0.248 NA
ATOM     34  C   UNL A   1      38.153  30.675  29.229  1.00  0.00     0.031 C 
ATOM     35  C   UNL A   1      37.604  33.771  33.165  1.00  0.00     0.029 A 
ATOM     36  N   UNL A   1      39.289  32.306  33.238  1.00  0.00    -0.354 N 
ATOM     37  C   UNL A   1      39.905  29.450  30.055  1.00  0.00     0.074 A 
ATOM     38  C   UNL A   1      38.937  29.632  28.993  1.00  0.00     0.031 C 
ATOM     39  C   UNL A   1      38.246  33.955  34.329  1.00  0.00     0.029 A 
ATOM     40  C   UNL A   1      39.324  32.979  34.440  1.00  0.00     0.049 A 
ATOM     41  H   UNL A   1      39.939  31.608  32.994  1.00  0.00     0.167 HD
ATOM     42  C   UNL A   1      40.885  28.513  30.052  1.00  0.00     0.034 A 
ATOM     43  C   UNL A   1      40.110  32.813  35.524  1.00  0.00     0.034 A 
ATOM     44  C   UNL A   1      41.862  28.358  31.102  1.00  0.00     0.049 A 
ATOM     45  C   UNL A   1      41.167  31.736  35.503  1.00  0.00     0.074 A 
ATOM     46  C   UNL A   1      42.955  27.508  31.138  1.00  0.00     0.029 A 
ATOM     47  N   UNL A   1      41.861  29.052  32.303  1.00  0.00    -0.354 N 
ATOM     48  N   UNL A   1      41.464  30.891  34.545  1.00  0.00    -0.248 NA
ATOM     49  C   UNL A   1      41.994  31.593  36.709  1.00  0.00     0.031 C 
ATOM     50  C   UNL A   1      43.568  27.632  32.389  1.00  0.00     0.029 A 
ATOM     51  C   UNL A   1      42.902  28.611  33.108  1.00  0.00     0.049 A 
ATOM     52  H   UNL A   1      41.215  29.752  32.550  1.00  0.00     0.167 HD
ATOM     53  C   UNL A   1      42.526  30.132  35.026  1.00  0.00     0.074 A 
ATOM     54  C   UNL A   1      42.834  30.636  36.347  1.00  0.00     0.031 C 
ATOM     55  C   UNL A   1      43.189  29.108  34.431  1.00  0.00     0.034 A 
BRANCH  42  56
ATOM     56  C   UNL A   1      40.944  27.555  28.888  1.00  0.00     0.023 A 
ATOM     57  C   UNL A   1      41.888  27.695  27.858  1.00  0.00     0.031 A 
ATOM     58  C   UNL A   1      40.063  26.459  28.833  1.00  0.00     0.131 A 
ATOM     59  C   UNL A   1      41.903  26.778  26.795  1.00  0.00     0.055 A 
ATOM     60  C   UNL A   1      40.125  25.515  27.807  1.00  0.00     0.041 A 
ATOM     61  F   UNL A   1      39.130  26.285  29.783  1.00  0.00    -0.206 F 
ATOM     62  C   UNL A   1      41.044  25.676  26.775  1.00  0.00     0.022 A 
BRANCH  59  63
ATOM     63  S   UNL A   1      43.005  27.095  25.390  1.00  0.00     0.124 S 
ATOM     64  O   UNL A   1      44.234  27.505  26.066  1.00  0.00    -0.237 OA
ATOM     65  O   UNL A   1      43.046  25.800  24.721  1.00  0.00    -0.237 OA
ATOM     66  O   UNL A   1      42.324  28.157  24.653  1.00  0.00    -0.744 OA
ENDBRANCH  59  63
ENDBRANCH  42  56
BRANCH  43  67
ATOM     67  C   UNL A   1      39.908  33.642  36.749  1.00  0.00     0.023 A 
ATOM     68  C   UNL A   1      39.236  33.125  37.868  1.00  0.00     0.031 A 
ATOM     69  C   UNL A   1      40.309  34.989  36.788  1.00  0.00     0.131 A 
ATOM     70  C   UNL A   1      38.929  33.964  38.951  1.00  0.00     0.055 A 
ATOM     71  C   UNL A   1      40.057  35.803  37.894  1.00  0.00     0.041 A 
ATOM     72  F   UNL A   1      40.955  35.537  35.747  1.00  0.00    -0.206 F 
ATOM     73  C   UNL A   1      39.346  35.296  38.977  1.00  0.00     0.022 A 
BRANCH  70  74
ATOM     74  S   UNL A   1      37.865  33.320  40.271  1.00  0.00     0.124 S 
ATOM     75  O   UNL A   1      38.740  32.342  40.908  1.00  0.00    -0.237 OA
ATOM     76  O   UNL A   1      37.580  34.525  41.043  1.00  0.00    -0.237 OA
ATOM     77  O   UNL A   1      36.726  32.761  39.546  1.00  0.00    -0.744 OA
ENDBRANCH  70  74
ENDBRANCH  43  67
BRANCH  55  78
ATOM     78  C   UNL A   1      44.327  28.489  35.203  1.00  0.00     0.023 A 
ATOM     79  C   UNL A   1      44.107  27.467  36.143  1.00  0.00     0.031 A 
ATOM     80  C   UNL A   1      45.645  28.937  35.007  1.00  0.00     0.131 A 
ATOM     81  C   UNL A   1      45.183  26.962  36.889  1.00  0.00     0.055 A 
ATOM     82  C   UNL A   1      46.719  28.391  35.711  1.00  0.00     0.041 A 
ATOM     83  F   UNL A   1      45.912  29.914  34.124  1.00  0.00    -0.206 F 
ATOM     84  C   UNL A   1      46.489  27.405  36.668  1.00  0.00     0.022 A 
BRANCH  81  85
ATOM     85  S   UNL A   1      44.840  25.769  38.212  1.00  0.00     0.124 S 
ATOM     86  O   UNL A   1      44.251  24.657  37.472  1.00  0.00    -0.237 OA
ATOM     87  O   UNL A   1      46.166  25.530  38.771  1.00  0.00    -0.237 OA
ATOM     88  O   UNL A   1      43.918  26.487  39.091  1.00  0.00    -0.744 OA
ENDBRANCH  81  85
ENDBRANCH  55  78
ENDBRANCH  29  30
ENDBRANCH  21  24
ENDBRANCH   1  20
TORSDOF 14
ENDMDL
