MODEL 1
REMARK VINA RESULT:     -10.9      0.000      0.000
REMARK SMILES CCC[C@@]1(C(=O)NCCCNC(=O)c2ccc(-c3c4nc(c(-c5cc(S(=O)(=O)[O-])ccc5F)c5ccc([nH]5)c(-c5cc(S(=O)(=O)[O-])ccc5F)c5nc(c(-c6cc(S(=O)(=O)[O-])ccc6F)c6ccc3[nH]6)C=C5)C=C4)cc2)CCCN(C(=O)CCn2cncn2)C1
REMARK SMILES IDX 8 1 7 2 5 3 6 4 4 6 77 7 90 8 78 9 80 10 79 11 3 12 2 13
REMARK SMILES IDX 1 14 81 15 82 16 83 17 84 18 85 19 86 20 89 21 87 22 88 23
REMARK SMILES IDX 9 24 10 25 11 26 12 27 13 29 14 30 15 31 76 32 16 33 75 34
REMARK SMILES IDX 17 35 18 36 19 37 69 38 20 39 74 40 68 41 70 42 21 43 73 44
REMARK SMILES IDX 67 45 66 46 22 48 54 49 34 50 53 51 35 52 38 53 52 54 71 55
REMARK SMILES IDX 36 56 37 57 51 59 72 60 39 61 23 62 24 63 32 64 25 65 31 66
REMARK SMILES IDX 33 67 30 68 26 69 27 70 28 71 29 72 55 73 56 74 64 75 57 76
REMARK SMILES IDX 63 77 65 78 62 79 58 80 59 81 60 82 61 83 40 84 41 85 49 86
REMARK SMILES IDX 42 87 48 88 50 89 47 90 43 91 44 92 45 93 46 94
REMARK H PARENT 7 5 11 28 70 47 38 58
REMARK Flexibility Score: inf
ROOT
ATOM      1  C   UNL A   1      32.106  26.583  25.663  1.00  0.00     0.117 C 
ENDROOT
BRANCH   1   2
ATOM      2  N   UNL A   1      33.426  25.979  25.735  1.00  0.00    -0.355 N 
ATOM      3  C   UNL A   1      33.920  24.743  25.466  1.00  0.00     0.228 C 
ATOM      4  O   UNL A   1      35.127  24.622  25.695  1.00  0.00    -0.274 OA
ATOM      5  H   UNL A   1      34.117  26.606  26.048  1.00  0.00     0.163 HD
BRANCH   3   6
ATOM      6  C   UNL A   1      33.082  23.586  24.867  1.00  0.00     0.067 C 
ATOM      7  C   UNL A   1      33.976  22.492  24.205  1.00  0.00     0.020 C 
ATOM      8  C   UNL A   1      32.122  24.191  23.788  1.00  0.00     0.136 C 
ATOM      9  C   UNL A   1      34.543  22.881  22.843  1.00  0.00     0.023 C 
ATOM     10  N   UNL A   1      32.771  24.465  22.501  1.00  0.00    -0.342 N 
ATOM     11  C   UNL A   1      33.413  23.300  21.921  1.00  0.00     0.119 C 
BRANCH   6  12
ATOM     12  C   UNL A   1      32.267  22.903  26.021  1.00  0.00     0.018 C 
BRANCH  12  13
ATOM     13  C   UNL A   1      32.772  23.042  27.464  1.00  0.00    -0.002 C 
ATOM     14  C   UNL A   1      33.822  22.011  27.857  1.00  0.00     0.004 C 
ENDBRANCH  12  13
ENDBRANCH   6  12
BRANCH  10  15
ATOM     15  C   UNL A   1      32.775  25.743  21.968  1.00  0.00     0.224 C 
ATOM     16  O   UNL A   1      33.820  26.352  21.722  1.00  0.00    -0.275 OA
BRANCH  15  17
ATOM     17  C   UNL A   1      31.456  26.447  21.679  1.00  0.00     0.124 C 
BRANCH  17  18
ATOM     18  C   UNL A   1      31.377  27.814  22.359  1.00  0.00     0.156 C 
BRANCH  18  19
ATOM     19  N   UNL A   1      30.044  28.387  22.425  1.00  0.00    -0.252 N 
ATOM     20  C   UNL A   1      28.993  27.978  23.189  1.00  0.00     0.219 A 
ATOM     21  N   UNL A   1      29.720  29.498  21.745  1.00  0.00    -0.160 NA
ATOM     22  N   UNL A   1      27.975  28.789  23.011  1.00  0.00    -0.224 NA
ATOM     23  C   UNL A   1      28.464  29.710  22.138  1.00  0.00     0.246 A 
ENDBRANCH  18  19
ENDBRANCH  17  18
ENDBRANCH  15  17
ENDBRANCH  10  15
ENDBRANCH   3   6
ENDBRANCH   1   2
BRANCH   1  24
ATOM     24  C   UNL A   1      32.063  27.928  26.382  1.00  0.00     0.042 C 
BRANCH  24  25
ATOM     25  C   UNL A   1      33.029  28.968  25.821  1.00  0.00     0.118 C 
BRANCH  25  26
ATOM     26  N   UNL A   1      32.620  30.333  26.127  1.00  0.00    -0.352 N 
ATOM     27  C   UNL A   1      33.154  31.236  27.011  1.00  0.00     0.251 C 
ATOM     28  H   UNL A   1      31.838  30.656  25.623  1.00  0.00     0.163 HD
ATOM     29  O   UNL A   1      32.519  32.259  27.281  1.00  0.00    -0.269 OA
BRANCH  27  30
ATOM     30  C   UNL A   1      34.464  30.985  27.646  1.00  0.00     0.039 A 
ATOM     31  C   UNL A   1      35.388  32.030  27.738  1.00  0.00     0.014 A 
ATOM     32  C   UNL A   1      34.798  29.715  28.126  1.00  0.00     0.014 A 
ATOM     33  C   UNL A   1      36.617  31.819  28.368  1.00  0.00     0.010 A 
ATOM     34  C   UNL A   1      35.990  29.527  28.821  1.00  0.00     0.010 A 
ATOM     35  C   UNL A   1      36.915  30.575  28.946  1.00  0.00    -0.014 A 
BRANCH  35  36
ATOM     36  C   UNL A   1      38.192  30.335  29.668  1.00  0.00     0.031 A 
ATOM     37  C   UNL A   1      39.235  29.433  29.063  1.00  0.00     0.074 A 
ATOM     38  C   UNL A   1      38.382  30.866  30.892  1.00  0.00     0.049 A 
ATOM     39  N   UNL A   1      40.354  28.994  29.579  1.00  0.00    -0.248 NA
ATOM     40  C   UNL A   1      38.964  28.935  27.705  1.00  0.00     0.031 C 
ATOM     41  C   UNL A   1      37.436  31.734  31.593  1.00  0.00     0.029 A 
ATOM     42  N   UNL A   1      39.430  30.741  31.771  1.00  0.00    -0.354 N 
ATOM     43  C   UNL A   1      40.911  28.153  28.621  1.00  0.00     0.074 A 
ATOM     44  C   UNL A   1      39.975  28.099  27.518  1.00  0.00     0.031 C 
ATOM     45  C   UNL A   1      37.952  32.078  32.783  1.00  0.00     0.029 A 
ATOM     46  C   UNL A   1      39.240  31.414  32.957  1.00  0.00     0.049 A 
ATOM     47  H   UNL A   1      40.240  30.220  31.572  1.00  0.00     0.167 HD
ATOM     48  C   UNL A   1      42.101  27.504  28.650  1.00  0.00     0.034 A 
ATOM     49  C   UNL A   1      40.006  31.471  34.064  1.00  0.00     0.034 A 
ATOM     50  C   UNL A   1      43.028  27.581  29.754  1.00  0.00     0.049 A 
ATOM     51  C   UNL A   1      41.311  30.715  34.086  1.00  0.00     0.074 A 
ATOM     52  C   UNL A   1      44.280  27.001  29.871  1.00  0.00     0.029 A 
ATOM     53  N   UNL A   1      42.803  28.277  30.935  1.00  0.00    -0.354 N 
ATOM     54  N   UNL A   1      41.840  29.950  33.158  1.00  0.00    -0.248 NA
ATOM     55  C   UNL A   1      42.127  30.836  35.302  1.00  0.00     0.031 C 
ATOM     56  C   UNL A   1      44.781  27.289  31.144  1.00  0.00     0.029 A 
ATOM     57  C   UNL A   1      43.881  28.119  31.793  1.00  0.00     0.049 A 
ATOM     58  H   UNL A   1      41.997  28.807  31.133  1.00  0.00     0.167 HD
ATOM     59  C   UNL A   1      43.068  29.533  33.665  1.00  0.00     0.074 A 
ATOM     60  C   UNL A   1      43.204  30.138  34.974  1.00  0.00     0.031 C 
ATOM     61  C   UNL A   1      44.002  28.729  33.098  1.00  0.00     0.034 A 
BRANCH  48  62
ATOM     62  C   UNL A   1      42.450  26.636  27.463  1.00  0.00     0.023 A 
ATOM     63  C   UNL A   1      41.966  25.321  27.343  1.00  0.00     0.031 A 
ATOM     64  C   UNL A   1      43.297  27.119  26.451  1.00  0.00     0.131 A 
ATOM     65  C   UNL A   1      42.397  24.510  26.281  1.00  0.00     0.055 A 
ATOM     66  C   UNL A   1      43.652  26.335  25.350  1.00  0.00     0.041 A 
ATOM     67  F   UNL A   1      43.808  28.359  26.519  1.00  0.00    -0.206 F 
ATOM     68  C   UNL A   1      43.214  25.016  25.270  1.00  0.00     0.022 A 
BRANCH  65  69
ATOM     69  S   UNL A   1      41.989  22.743  26.324  1.00  0.00     0.124 S 
ATOM     70  O   UNL A   1      42.550  22.281  25.057  1.00  0.00    -0.237 OA
ATOM     71  O   UNL A   1      42.673  22.291  27.530  1.00  0.00    -0.237 OA
ATOM     72  O   UNL A   1      40.529  22.730  26.392  1.00  0.00    -0.744 OA
ENDBRANCH  65  69
ENDBRANCH  48  62
BRANCH  49  73
ATOM     73  C   UNL A   1      39.564  32.258  35.253  1.00  0.00     0.023 A 
ATOM     74  C   UNL A   1      39.960  33.594  35.423  1.00  0.00     0.031 A 
ATOM     75  C   UNL A   1      38.781  31.670  36.263  1.00  0.00     0.131 A 
ATOM     76  C   UNL A   1      39.618  34.283  36.596  1.00  0.00     0.055 A 
ATOM     77  C   UNL A   1      38.395  32.378  37.403  1.00  0.00     0.041 A 
ATOM     78  F   UNL A   1      38.370  30.397  36.150  1.00  0.00    -0.206 F 
ATOM     79  C   UNL A   1      38.828  33.688  37.582  1.00  0.00     0.022 A 
BRANCH  76  80
ATOM     80  S   UNL A   1      40.308  35.940  36.862  1.00  0.00     0.124 S 
ATOM     81  O   UNL A   1      39.894  36.217  38.231  1.00  0.00    -0.237 OA
ATOM     82  O   UNL A   1      41.734  35.709  36.655  1.00  0.00    -0.237 OA
ATOM     83  O   UNL A   1      39.654  36.748  35.834  1.00  0.00    -0.744 OA
ENDBRANCH  76  80
ENDBRANCH  49  73
BRANCH  61  84
ATOM     84  C   UNL A   1      45.282  28.509  33.868  1.00  0.00     0.023 A 
ATOM     85  C   UNL A   1      45.438  27.435  34.761  1.00  0.00     0.031 A 
ATOM     86  C   UNL A   1      46.360  29.397  33.706  1.00  0.00     0.131 A 
ATOM     87  C   UNL A   1      46.626  27.308  35.499  1.00  0.00     0.055 A 
ATOM     88  C   UNL A   1      47.562  29.230  34.395  1.00  0.00     0.041 A 
ATOM     89  F   UNL A   1      46.264  30.442  32.868  1.00  0.00    -0.206 F 
ATOM     90  C   UNL A   1      47.694  28.188  35.308  1.00  0.00     0.022 A 
BRANCH  87  91
ATOM     91  S   UNL A   1      46.724  26.027  36.780  1.00  0.00     0.124 S 
ATOM     92  O   UNL A   1      45.695  25.086  36.348  1.00  0.00    -0.237 OA
ATOM     93  O   UNL A   1      48.103  25.565  36.654  1.00  0.00    -0.237 OA
ATOM     94  O   UNL A   1      46.424  26.752  38.014  1.00  0.00    -0.744 OA
ENDBRANCH  87  91
ENDBRANCH  61  84
ENDBRANCH  35  36
ENDBRANCH  27  30
ENDBRANCH  25  26
ENDBRANCH  24  25
ENDBRANCH   1  24
TORSDOF 19
ENDMDL
MODEL 2
REMARK VINA RESULT:     -10.9      1.789      2.116
REMARK SMILES CCC[C@@]1(C(=O)NCCCNC(=O)c2ccc(-c3c4nc(c(-c5cc(S(=O)(=O)[O-])ccc5F)c5ccc([nH]5)c(-c5cc(S(=O)(=O)[O-])ccc5F)c5nc(c(-c6cc(S(=O)(=O)[O-])ccc6F)c6ccc3[nH]6)C=C5)C=C4)cc2)CCCN(C(=O)CCn2cncn2)C1
REMARK SMILES IDX 8 1 7 2 5 3 6 4 4 6 77 7 90 8 78 9 80 10 79 11 3 12 2 13
REMARK SMILES IDX 1 14 81 15 82 16 83 17 84 18 85 19 86 20 89 21 87 22 88 23
REMARK SMILES IDX 9 24 10 25 11 26 12 27 13 29 14 30 15 31 76 32 16 33 75 34
REMARK SMILES IDX 17 35 18 36 19 37 69 38 20 39 74 40 68 41 70 42 21 43 73 44
REMARK SMILES IDX 67 45 66 46 22 48 54 49 34 50 53 51 35 52 38 53 52 54 71 55
REMARK SMILES IDX 36 56 37 57 51 59 72 60 39 61 23 62 24 63 32 64 25 65 31 66
REMARK SMILES IDX 33 67 30 68 26 69 27 70 28 71 29 72 55 73 56 74 64 75 57 76
REMARK SMILES IDX 63 77 65 78 62 79 58 80 59 81 60 82 61 83 40 84 41 85 49 86
REMARK SMILES IDX 42 87 48 88 50 89 47 90 43 91 44 92 45 93 46 94
REMARK H PARENT 7 5 11 28 70 47 38 58
REMARK Flexibility Score: inf
ROOT
ATOM      1  C   UNL A   1      31.521  27.753  26.753  1.00  0.00     0.117 C 
ENDROOT
BRANCH   1   2
ATOM      2  N   UNL A   1      32.794  27.164  26.378  1.00  0.00    -0.355 N 
ATOM      3  C   UNL A   1      33.164  25.996  25.792  1.00  0.00     0.228 C 
ATOM      4  O   UNL A   1      34.385  25.856  25.674  1.00  0.00    -0.274 OA
ATOM      5  H   UNL A   1      33.563  27.740  26.597  1.00  0.00     0.163 HD
BRANCH   3   6
ATOM      6  C   UNL A   1      32.165  24.942  25.254  1.00  0.00     0.067 C 
ATOM      7  C   UNL A   1      32.854  23.898  24.320  1.00  0.00     0.020 C 
ATOM      8  C   UNL A   1      31.051  25.696  24.452  1.00  0.00     0.136 C 
ATOM      9  C   UNL A   1      33.171  24.417  22.920  1.00  0.00     0.023 C 
ATOM     10  N   UNL A   1      31.455  26.089  23.097  1.00  0.00    -0.342 N 
ATOM     11  C   UNL A   1      31.909  24.975  22.286  1.00  0.00     0.119 C 
BRANCH   6  12
ATOM     12  C   UNL A   1      31.550  24.162  26.468  1.00  0.00     0.018 C 
BRANCH  12  13
ATOM     13  C   UNL A   1      30.882  22.804  26.211  1.00  0.00    -0.002 C 
ATOM     14  C   UNL A   1      29.573  22.603  26.965  1.00  0.00     0.004 C 
ENDBRANCH  12  13
ENDBRANCH   6  12
BRANCH  10  15
ATOM     15  C   UNL A   1      31.427  27.418  22.709  1.00  0.00     0.224 C 
ATOM     16  O   UNL A   1      32.458  28.074  22.527  1.00  0.00    -0.275 OA
BRANCH  15  17
ATOM     17  C   UNL A   1      30.091  28.119  22.503  1.00  0.00     0.124 C 
BRANCH  17  18
ATOM     18  C   UNL A   1      29.891  29.268  23.492  1.00  0.00     0.156 C 
BRANCH  18  19
ATOM     19  N   UNL A   1      28.992  30.314  23.038  1.00  0.00    -0.252 N 
ATOM     20  C   UNL A   1      27.747  30.611  23.505  1.00  0.00     0.219 A 
ATOM     21  N   UNL A   1      29.358  31.196  22.095  1.00  0.00    -0.160 NA
ATOM     22  N   UNL A   1      27.279  31.664  22.874  1.00  0.00    -0.224 NA
ATOM     23  C   UNL A   1      28.296  32.000  22.037  1.00  0.00     0.246 A 
ENDBRANCH  18  19
ENDBRANCH  17  18
ENDBRANCH  15  17
ENDBRANCH  10  15
ENDBRANCH   3   6
ENDBRANCH   1   2
BRANCH   1  24
ATOM     24  C   UNL A   1      31.678  29.210  27.177  1.00  0.00     0.042 C 
BRANCH  24  25
ATOM     25  C   UNL A   1      32.478  30.063  26.196  1.00  0.00     0.118 C 
BRANCH  25  26
ATOM     26  N   UNL A   1      32.304  31.492  26.426  1.00  0.00    -0.352 N 
ATOM     27  C   UNL A   1      32.986  32.340  27.261  1.00  0.00     0.251 C 
ATOM     28  H   UNL A   1      31.584  31.912  25.903  1.00  0.00     0.163 HD
ATOM     29  O   UNL A   1      32.533  33.467  27.472  1.00  0.00    -0.269 OA
BRANCH  27  30
ATOM     30  C   UNL A   1      34.241  31.909  27.912  1.00  0.00     0.039 A 
ATOM     31  C   UNL A   1      35.294  32.821  28.033  1.00  0.00     0.014 A 
ATOM     32  C   UNL A   1      34.395  30.600  28.379  1.00  0.00     0.014 A 
ATOM     33  C   UNL A   1      36.473  32.441  28.678  1.00  0.00     0.010 A 
ATOM     34  C   UNL A   1      35.538  30.247  29.089  1.00  0.00     0.010 A 
ATOM     35  C   UNL A   1      36.593  31.161  29.243  1.00  0.00    -0.014 A 
BRANCH  35  36
ATOM     36  C   UNL A   1      37.815  30.745  29.981  1.00  0.00     0.031 A 
ATOM     37  C   UNL A   1      38.774  29.773  29.349  1.00  0.00     0.074 A 
ATOM     38  C   UNL A   1      38.021  31.180  31.240  1.00  0.00     0.049 A 
ATOM     39  N   UNL A   1      39.824  29.187  29.866  1.00  0.00    -0.248 NA
ATOM     40  C   UNL A   1      38.496  29.385  27.957  1.00  0.00     0.031 C 
ATOM     41  C   UNL A   1      37.149  32.103  31.969  1.00  0.00     0.029 A 
ATOM     42  N   UNL A   1      39.021  30.894  32.136  1.00  0.00    -0.354 N 
ATOM     43  C   UNL A   1      40.319  28.348  28.873  1.00  0.00     0.074 A 
ATOM     44  C   UNL A   1      39.418  28.459  27.745  1.00  0.00     0.031 C 
ATOM     45  C   UNL A   1      37.661  32.320  33.190  1.00  0.00     0.029 A 
ATOM     46  C   UNL A   1      38.866  31.513  33.355  1.00  0.00     0.049 A 
ATOM     47  H   UNL A   1      39.778  30.301  31.926  1.00  0.00     0.167 HD
ATOM     48  C   UNL A   1      41.433  27.575  28.892  1.00  0.00     0.034 A 
ATOM     49  C   UNL A   1      39.599  31.424  34.483  1.00  0.00     0.034 A 
ATOM     50  C   UNL A   1      42.328  27.488  30.022  1.00  0.00     0.049 A 
ATOM     51  C   UNL A   1      40.815  30.533  34.492  1.00  0.00     0.074 A 
ATOM     52  C   UNL A   1      43.507  26.772  30.135  1.00  0.00     0.029 A 
ATOM     53  N   UNL A   1      42.141  28.135  31.236  1.00  0.00    -0.354 N 
ATOM     54  N   UNL A   1      41.289  29.771  33.533  1.00  0.00    -0.248 NA
ATOM     55  C   UNL A   1      41.601  30.496  35.733  1.00  0.00     0.031 C 
ATOM     56  C   UNL A   1      43.996  26.931  31.435  1.00  0.00     0.029 A 
ATOM     57  C   UNL A   1      43.168  27.814  32.111  1.00  0.00     0.049 A 
ATOM     58  H   UNL A   1      41.389  28.736  31.446  1.00  0.00     0.167 HD
ATOM     59  C   UNL A   1      42.450  29.196  34.044  1.00  0.00     0.074 A 
ATOM     60  C   UNL A   1      42.608  29.707  35.390  1.00  0.00     0.031 C 
ATOM     61  C   UNL A   1      43.312  28.330  33.452  1.00  0.00     0.034 A 
BRANCH  48  62
ATOM     62  C   UNL A   1      41.726  26.745  27.664  1.00  0.00     0.023 A 
ATOM     63  C   UNL A   1      41.353  25.392  27.582  1.00  0.00     0.031 A 
ATOM     64  C   UNL A   1      42.409  27.305  26.570  1.00  0.00     0.131 A 
ATOM     65  C   UNL A   1      41.735  24.625  26.470  1.00  0.00     0.055 A 
ATOM     66  C   UNL A   1      42.710  26.558  25.428  1.00  0.00     0.041 A 
ATOM     67  F   UNL A   1      42.810  28.586  26.597  1.00  0.00    -0.206 F 
ATOM     68  C   UNL A   1      42.387  25.205  25.381  1.00  0.00     0.022 A 
BRANCH  65  69
ATOM     69  S   UNL A   1      41.496  22.828  26.536  1.00  0.00     0.124 S 
ATOM     70  O   UNL A   1      42.164  22.489  27.790  1.00  0.00    -0.237 OA
ATOM     71  O   UNL A   1      40.043  22.702  26.530  1.00  0.00    -0.237 OA
ATOM     72  O   UNL A   1      42.169  22.349  25.330  1.00  0.00    -0.744 OA
ENDBRANCH  65  69
ENDBRANCH  48  62
BRANCH  49  73
ATOM     73  C   UNL A   1      39.205  32.184  35.705  1.00  0.00     0.023 A 
ATOM     74  C   UNL A   1      38.500  31.562  36.748  1.00  0.00     0.031 A 
ATOM     75  C   UNL A   1      39.483  33.558  35.828  1.00  0.00     0.131 A 
ATOM     76  C   UNL A   1      38.051  32.318  37.840  1.00  0.00     0.055 A 
ATOM     77  C   UNL A   1      39.084  34.295  36.945  1.00  0.00     0.041 A 
ATOM     78  F   UNL A   1      40.159  34.203  34.863  1.00  0.00    -0.206 F 
ATOM     79  C   UNL A   1      38.349  33.678  37.952  1.00  0.00     0.022 A 
BRANCH  76  80
ATOM     80  S   UNL A   1      36.983  31.518  39.070  1.00  0.00     0.124 S 
ATOM     81  O   UNL A   1      36.803  30.194  38.489  1.00  0.00    -0.237 OA
ATOM     82  O   UNL A   1      37.807  31.587  40.273  1.00  0.00    -0.237 OA
ATOM     83  O   UNL A   1      35.791  32.363  39.084  1.00  0.00    -0.744 OA
ENDBRANCH  76  80
ENDBRANCH  49  73
BRANCH  61  84
ATOM     84  C   UNL A   1      44.537  27.931  34.240  1.00  0.00     0.023 A 
ATOM     85  C   UNL A   1      44.556  26.788  35.057  1.00  0.00     0.031 A 
ATOM     86  C   UNL A   1      45.701  28.716  34.173  1.00  0.00     0.131 A 
ATOM     87  C   UNL A   1      45.699  26.492  35.815  1.00  0.00     0.055 A 
ATOM     88  C   UNL A   1      46.856  28.382  34.881  1.00  0.00     0.041 A 
ATOM     89  F   UNL A   1      45.737  29.821  33.411  1.00  0.00    -0.206 F 
ATOM     90  C   UNL A   1      46.855  27.271  35.719  1.00  0.00     0.022 A 
BRANCH  87  91
ATOM     91  S   UNL A   1      45.628  25.121  37.002  1.00  0.00     0.124 S 
ATOM     92  O   UNL A   1      45.917  23.969  36.154  1.00  0.00    -0.237 OA
ATOM     93  O   UNL A   1      46.668  25.483  37.960  1.00  0.00    -0.237 OA
ATOM     94  O   UNL A   1      44.261  25.185  37.518  1.00  0.00    -0.744 OA
ENDBRANCH  87  91
ENDBRANCH  61  84
ENDBRANCH  35  36
ENDBRANCH  27  30
ENDBRANCH  25  26
ENDBRANCH  24  25
ENDBRANCH   1  24
TORSDOF 19
ENDMDL
MODEL 3
REMARK VINA RESULT:     -10.7      2.535      8.146
REMARK SMILES CCC[C@@]1(C(=O)NCCCNC(=O)c2ccc(-c3c4nc(c(-c5cc(S(=O)(=O)[O-])ccc5F)c5ccc([nH]5)c(-c5cc(S(=O)(=O)[O-])ccc5F)c5nc(c(-c6cc(S(=O)(=O)[O-])ccc6F)c6ccc3[nH]6)C=C5)C=C4)cc2)CCCN(C(=O)CCn2cncn2)C1
REMARK SMILES IDX 8 1 7 2 5 3 6 4 4 6 77 7 90 8 78 9 80 10 79 11 3 12 2 13
REMARK SMILES IDX 1 14 81 15 82 16 83 17 84 18 85 19 86 20 89 21 87 22 88 23
REMARK SMILES IDX 9 24 10 25 11 26 12 27 13 29 14 30 15 31 76 32 16 33 75 34
REMARK SMILES IDX 17 35 18 36 19 37 69 38 20 39 74 40 68 41 70 42 21 43 73 44
REMARK SMILES IDX 67 45 66 46 22 48 54 49 34 50 53 51 35 52 38 53 52 54 71 55
REMARK SMILES IDX 36 56 37 57 51 59 72 60 39 61 23 62 24 63 32 64 25 65 31 66
REMARK SMILES IDX 33 67 30 68 26 69 27 70 28 71 29 72 55 73 56 74 64 75 57 76
REMARK SMILES IDX 63 77 65 78 62 79 58 80 59 81 60 82 61 83 40 84 41 85 49 86
REMARK SMILES IDX 42 87 48 88 50 89 47 90 43 91 44 92 45 93 46 94
REMARK H PARENT 7 5 11 28 70 47 38 58
REMARK Flexibility Score: inf
ROOT
ATOM      1  C   UNL A   1      31.782  27.960  26.507  1.00  0.00     0.117 C 
ENDROOT
BRANCH   1   2
ATOM      2  N   UNL A   1      33.037  27.391  26.049  1.00  0.00    -0.355 N 
ATOM      3  C   UNL A   1      33.377  26.271  25.359  1.00  0.00     0.228 C 
ATOM      4  O   UNL A   1      34.592  26.129  25.196  1.00  0.00    -0.274 OA
ATOM      5  H   UNL A   1      33.818  27.939  26.293  1.00  0.00     0.163 HD
BRANCH   3   6
ATOM      6  C   UNL A   1      32.350  25.274  24.766  1.00  0.00     0.067 C 
ATOM      7  C   UNL A   1      32.920  24.504  23.534  1.00  0.00     0.020 C 
ATOM      8  C   UNL A   1      31.085  26.086  24.327  1.00  0.00     0.136 C 
ATOM      9  C   UNL A   1      32.976  25.324  22.248  1.00  0.00     0.023 C 
ATOM     10  N   UNL A   1      31.240  26.781  23.044  1.00  0.00    -0.342 N 
ATOM     11  C   UNL A   1      31.602  25.898  21.951  1.00  0.00     0.119 C 
BRANCH   6  12
ATOM     12  C   UNL A   1      31.982  24.215  25.862  1.00  0.00     0.018 C 
BRANCH  12  13
ATOM     13  C   UNL A   1      30.838  23.230  25.583  1.00  0.00    -0.002 C 
ATOM     14  C   UNL A   1      30.016  22.867  26.814  1.00  0.00     0.004 C 
ENDBRANCH  12  13
ENDBRANCH   6  12
BRANCH  10  15
ATOM     15  C   UNL A   1      31.087  28.155  22.961  1.00  0.00     0.224 C 
ATOM     16  O   UNL A   1      32.026  28.935  23.147  1.00  0.00    -0.275 OA
BRANCH  15  17
ATOM     17  C   UNL A   1      29.721  28.748  22.642  1.00  0.00     0.124 C 
BRANCH  17  18
ATOM     18  C   UNL A   1      29.510  30.098  23.328  1.00  0.00     0.156 C 
BRANCH  18  19
ATOM     19  N   UNL A   1      28.884  31.112  22.499  1.00  0.00    -0.252 N 
ATOM     20  C   UNL A   1      28.537  32.383  22.846  1.00  0.00     0.219 A 
ATOM     21  N   UNL A   1      28.636  30.902  21.196  1.00  0.00    -0.160 NA
ATOM     22  N   UNL A   1      28.048  33.009  21.800  1.00  0.00    -0.224 NA
ATOM     23  C   UNL A   1      28.142  32.079  20.812  1.00  0.00     0.246 A 
ENDBRANCH  18  19
ENDBRANCH  17  18
ENDBRANCH  15  17
ENDBRANCH  10  15
ENDBRANCH   3   6
ENDBRANCH   1   2
BRANCH   1  24
ATOM     24  C   UNL A   1      32.000  29.256  27.280  1.00  0.00     0.042 C 
BRANCH  24  25
ATOM     25  C   UNL A   1      33.451  29.731  27.307  1.00  0.00     0.118 C 
BRANCH  25  26
ATOM     26  N   UNL A   1      33.573  31.133  27.687  1.00  0.00    -0.352 N 
ATOM     27  C   UNL A   1      34.513  31.756  28.468  1.00  0.00     0.251 C 
ATOM     28  H   UNL A   1      32.872  31.723  27.328  1.00  0.00     0.163 HD
ATOM     29  O   UNL A   1      34.307  32.911  28.848  1.00  0.00    -0.269 OA
BRANCH  27  30
ATOM     30  C   UNL A   1      35.751  31.053  28.863  1.00  0.00     0.039 A 
ATOM     31  C   UNL A   1      36.978  31.504  28.368  1.00  0.00     0.014 A 
ATOM     32  C   UNL A   1      35.706  29.932  29.698  1.00  0.00     0.014 A 
ATOM     33  C   UNL A   1      38.161  30.873  28.761  1.00  0.00     0.010 A 
ATOM     34  C   UNL A   1      36.888  29.354  30.149  1.00  0.00     0.010 A 
ATOM     35  C   UNL A   1      38.130  29.814  29.682  1.00  0.00    -0.014 A 
BRANCH  35  36
ATOM     36  C   UNL A   1      39.375  29.157  30.159  1.00  0.00     0.031 A 
ATOM     37  C   UNL A   1      40.100  29.709  31.357  1.00  0.00     0.074 A 
ATOM     38  C   UNL A   1      39.891  28.117  29.474  1.00  0.00     0.049 A 
ATOM     39  N   UNL A   1      41.260  29.367  31.856  1.00  0.00    -0.248 NA
ATOM     40  C   UNL A   1      39.443  30.815  32.071  1.00  0.00     0.031 C 
ATOM     41  C   UNL A   1      39.294  27.510  28.283  1.00  0.00     0.029 A 
ATOM     42  N   UNL A   1      41.042  27.395  29.671  1.00  0.00    -0.354 N 
ATOM     43  C   UNL A   1      41.482  30.227  32.927  1.00  0.00     0.074 A 
ATOM     44  C   UNL A   1      40.362  31.143  32.966  1.00  0.00     0.031 C 
ATOM     45  C   UNL A   1      40.073  26.499  27.867  1.00  0.00     0.029 A 
ATOM     46  C   UNL A   1      41.250  26.417  28.726  1.00  0.00     0.049 A 
ATOM     47  H   UNL A   1      41.660  27.561  30.419  1.00  0.00     0.167 HD
ATOM     48  C   UNL A   1      42.512  30.236  33.809  1.00  0.00     0.034 A 
ATOM     49  C   UNL A   1      42.282  25.566  28.558  1.00  0.00     0.034 A 
ATOM     50  C   UNL A   1      43.614  29.305  33.762  1.00  0.00     0.049 A 
ATOM     51  C   UNL A   1      43.433  25.617  29.531  1.00  0.00     0.074 A 
ATOM     52  C   UNL A   1      44.688  29.196  34.629  1.00  0.00     0.029 A 
ATOM     53  N   UNL A   1      43.787  28.324  32.794  1.00  0.00    -0.354 N 
ATOM     54  N   UNL A   1      43.612  26.414  30.559  1.00  0.00    -0.248 NA
ATOM     55  C   UNL A   1      44.518  24.647  29.327  1.00  0.00     0.031 C 
ATOM     56  C   UNL A   1      45.542  28.198  34.149  1.00  0.00     0.029 A 
ATOM     57  C   UNL A   1      44.962  27.625  33.028  1.00  0.00     0.049 A 
ATOM     58  H   UNL A   1      43.166  28.150  32.050  1.00  0.00     0.167 HD
ATOM     59  C   UNL A   1      44.810  26.014  31.145  1.00  0.00     0.074 A 
ATOM     60  C   UNL A   1      45.303  24.900  30.362  1.00  0.00     0.031 C 
ATOM     61  C   UNL A   1      45.442  26.516  32.237  1.00  0.00     0.034 A 
BRANCH  48  62
ATOM     62  C   UNL A   1      42.504  31.304  34.877  1.00  0.00     0.023 A 
ATOM     63  C   UNL A   1      43.018  32.591  34.638  1.00  0.00     0.031 A 
ATOM     64  C   UNL A   1      42.000  31.027  36.160  1.00  0.00     0.131 A 
ATOM     65  C   UNL A   1      43.090  33.523  35.686  1.00  0.00     0.055 A 
ATOM     66  C   UNL A   1      41.996  31.988  37.174  1.00  0.00     0.041 A 
ATOM     67  F   UNL A   1      41.515  29.810  36.456  1.00  0.00    -0.206 F 
ATOM     68  C   UNL A   1      42.558  33.240  36.944  1.00  0.00     0.022 A 
BRANCH  65  69
ATOM     69  S   UNL A   1      44.023  35.055  35.416  1.00  0.00     0.124 S 
ATOM     70  O   UNL A   1      43.936  35.688  36.730  1.00  0.00    -0.237 OA
ATOM     71  O   UNL A   1      45.340  34.559  35.031  1.00  0.00    -0.237 OA
ATOM     72  O   UNL A   1      43.276  35.729  34.356  1.00  0.00    -0.744 OA
ENDBRANCH  65  69
ENDBRANCH  48  62
BRANCH  49  73
ATOM     73  C   UNL A   1      42.292  24.600  27.420  1.00  0.00     0.023 A 
ATOM     74  C   UNL A   1      41.555  23.407  27.479  1.00  0.00     0.031 A 
ATOM     75  C   UNL A   1      43.078  24.832  26.277  1.00  0.00     0.131 A 
ATOM     76  C   UNL A   1      41.659  22.466  26.443  1.00  0.00     0.055 A 
ATOM     77  C   UNL A   1      43.135  23.918  25.222  1.00  0.00     0.041 A 
ATOM     78  F   UNL A   1      43.799  25.959  26.165  1.00  0.00    -0.206 F 
ATOM     79  C   UNL A   1      42.434  22.719  25.309  1.00  0.00     0.022 A 
BRANCH  76  80
ATOM     80  S   UNL A   1      40.843  20.859  26.645  1.00  0.00     0.124 S 
ATOM     81  O   UNL A   1      40.851  20.701  28.094  1.00  0.00    -0.237 OA
ATOM     82  O   UNL A   1      39.540  21.103  26.032  1.00  0.00    -0.237 OA
ATOM     83  O   UNL A   1      41.712  19.942  25.910  1.00  0.00    -0.744 OA
ENDBRANCH  76  80
ENDBRANCH  49  73
BRANCH  61  84
ATOM     84  C   UNL A   1      46.706  25.820  32.681  1.00  0.00     0.023 A 
ATOM     85  C   UNL A   1      47.943  26.054  32.057  1.00  0.00     0.031 A 
ATOM     86  C   UNL A   1      46.665  24.904  33.747  1.00  0.00     0.131 A 
ATOM     87  C   UNL A   1      49.079  25.339  32.469  1.00  0.00     0.055 A 
ATOM     88  C   UNL A   1      47.810  24.242  34.193  1.00  0.00     0.041 A 
ATOM     89  F   UNL A   1      45.509  24.640  34.377  1.00  0.00    -0.206 F 
ATOM     90  C   UNL A   1      49.024  24.448  33.544  1.00  0.00     0.022 A 
BRANCH  87  91
ATOM     91  S   UNL A   1      50.615  25.521  31.522  1.00  0.00     0.124 S 
ATOM     92  O   UNL A   1      51.445  24.459  32.082  1.00  0.00    -0.237 OA
ATOM     93  O   UNL A   1      50.161  25.318  30.149  1.00  0.00    -0.237 OA
ATOM     94  O   UNL A   1      51.053  26.880  31.835  1.00  0.00    -0.744 OA
ENDBRANCH  87  91
ENDBRANCH  61  84
ENDBRANCH  35  36
ENDBRANCH  27  30
ENDBRANCH  25  26
ENDBRANCH  24  25
ENDBRANCH   1  24
TORSDOF 19
ENDMDL
