MODEL 1
REMARK VINA RESULT:     -12.2      0.000      0.000
REMARK SMILES CC1(C)C[C@@H]([NH2+]C[C@@H]2CCCC[C@@H]2C(=O)NCCCNC(=O)c2ccc(-c3c4nc(c(-c5cc(S(=O)(=O)[O-])ccc5F)c5ccc([nH]5)c(-c5cc(S(=O)(=O)[O-])ccc5F)c5nc(c(-c6cc(S(=O)(=O)[O-])ccc6F)c6ccc3[nH]6)C=C5)C=C4)cc2)C(C)(C)O1
REMARK SMILES IDX 18 1 17 2 16 3 14 4 15 5 13 7 8 8 9 9 10 10 12 11 11 12 7 13
REMARK SMILES IDX 6 14 5 17 1 18 2 19 3 20 4 21 89 22 86 23 87 24 88 25 19 26
REMARK SMILES IDX 20 27 21 28 22 30 23 31 24 32 85 33 25 34 84 35 26 36 27 37
REMARK SMILES IDX 28 38 78 39 29 40 83 41 77 42 79 43 30 44 82 45 76 46 75 47
REMARK SMILES IDX 31 49 63 50 43 51 62 52 44 53 47 54 61 55 80 56 45 57 46 58
REMARK SMILES IDX 60 60 81 61 48 62 32 63 33 64 41 65 34 66 40 67 42 68 39 69
REMARK SMILES IDX 35 70 36 71 37 72 38 73 64 74 65 75 73 76 66 77 72 78 74 79
REMARK SMILES IDX 71 80 67 81 68 82 69 83 70 84 49 85 50 86 58 87 51 88 57 89
REMARK SMILES IDX 59 90 56 91 52 92 53 93 54 94 55 95
REMARK H PARENT 16 6 6 15 6 16 20 29 79 48 47 59
REMARK Flexibility Score: inf
ROOT
ATOM      1  C   UNL A   1      31.598  31.738  26.838  1.00  0.00     0.042 C 
ENDROOT
BRANCH   1   2
ATOM      2  C   UNL A   1      31.802  30.257  26.535  1.00  0.00     0.117 C 
BRANCH   2   3
ATOM      3  N   UNL A   1      32.544  30.071  25.299  1.00  0.00    -0.356 N 
ATOM      4  C   UNL A   1      32.697  28.943  24.548  1.00  0.00     0.223 C 
ATOM      5  O   UNL A   1      33.531  28.953  23.646  1.00  0.00    -0.275 OA
ATOM      6  H   UNL A   1      33.001  30.872  24.957  1.00  0.00     0.163 HD
BRANCH   4   7
ATOM      7  C   UNL A   1      31.768  27.768  24.810  1.00  0.00     0.087 C 
ATOM      8  C   UNL A   1      32.399  26.381  24.630  1.00  0.00     0.056 C 
ATOM      9  C   UNL A   1      32.735  26.028  23.177  1.00  0.00     0.010 C 
ATOM     10  C   UNL A   1      31.489  26.141  22.305  1.00  0.00     0.001 C 
ATOM     11  C   UNL A   1      30.533  27.892  23.892  1.00  0.00     0.014 C 
ATOM     12  C   UNL A   1      30.825  27.508  22.435  1.00  0.00     0.001 C 
BRANCH   8  13
ATOM     13  C   UNL A   1      33.551  26.043  25.597  1.00  0.00     0.265 C 
BRANCH  13  14
ATOM     14  N   UNL A   1      33.388  24.755  26.294  1.00  0.00    -0.341 N 
ATOM     15  H   UNL A   1      33.343  24.944  27.295  1.00  0.00     0.346 HD
ATOM     16  H   UNL A   1      32.539  24.338  25.913  1.00  0.00     0.346 HD
BRANCH  14  17
ATOM     17  C   UNL A   1      34.459  23.766  26.067  1.00  0.00     0.217 C 
ATOM     18  C   UNL A   1      36.660  22.928  23.185  1.00  0.00     0.042 C 
ATOM     19  C   UNL A   1      36.133  22.842  24.617  1.00  0.00     0.069 C 
ATOM     20  C   UNL A   1      37.264  22.447  25.569  1.00  0.00     0.042 C 
ATOM     21  C   UNL A   1      35.489  24.153  25.019  1.00  0.00     0.103 C 
ATOM     22  O   UNL A   1      35.093  21.861  24.701  1.00  0.00    -0.363 OA
ATOM     23  C   UNL A   1      34.006  22.375  25.521  1.00  0.00     0.115 C 
ATOM     24  C   UNL A   1      32.775  22.434  24.609  1.00  0.00     0.048 C 
ATOM     25  C   UNL A   1      33.761  21.372  26.650  1.00  0.00     0.048 C 
ENDBRANCH  14  17
ENDBRANCH  13  14
ENDBRANCH   8  13
ENDBRANCH   4   7
ENDBRANCH   2   3
ENDBRANCH   1   2
BRANCH   1  26
ATOM     26  C   UNL A   1      32.886  32.472  27.204  1.00  0.00     0.118 C 
BRANCH  26  27
ATOM     27  N   UNL A   1      32.649  33.865  27.564  1.00  0.00    -0.352 N 
ATOM     28  C   UNL A   1      33.195  34.625  28.565  1.00  0.00     0.251 C 
ATOM     29  H   UNL A   1      31.992  34.333  26.999  1.00  0.00     0.163 HD
ATOM     30  O   UNL A   1      32.694  35.718  28.829  1.00  0.00    -0.269 OA
BRANCH  28  31
ATOM     31  C   UNL A   1      34.356  34.132  29.332  1.00  0.00     0.039 A 
ATOM     32  C   UNL A   1      34.130  33.352  30.469  1.00  0.00     0.014 A 
ATOM     33  C   UNL A   1      35.662  34.448  28.948  1.00  0.00     0.014 A 
ATOM     34  C   UNL A   1      35.215  32.834  31.179  1.00  0.00     0.010 A 
ATOM     35  C   UNL A   1      36.740  33.866  29.608  1.00  0.00     0.010 A 
ATOM     36  C   UNL A   1      36.529  33.051  30.731  1.00  0.00    -0.014 A 
BRANCH  36  37
ATOM     37  C   UNL A   1      37.688  32.422  31.417  1.00  0.00     0.031 A 
ATOM     38  C   UNL A   1      38.421  31.275  30.775  1.00  0.00     0.074 A 
ATOM     39  C   UNL A   1      38.042  32.851  32.645  1.00  0.00     0.049 A 
ATOM     40  N   UNL A   1      39.408  30.558  31.246  1.00  0.00    -0.248 NA
ATOM     41  C   UNL A   1      37.964  30.865  29.439  1.00  0.00     0.031 C 
ATOM     42  C   UNL A   1      37.381  33.930  33.385  1.00  0.00     0.029 A 
ATOM     43  N   UNL A   1      39.034  32.429  33.495  1.00  0.00    -0.354 N 
ATOM     44  C   UNL A   1      39.684  29.605  30.272  1.00  0.00     0.074 A 
ATOM     45  C   UNL A   1      38.719  29.800  29.211  1.00  0.00     0.031 C 
ATOM     46  C   UNL A   1      38.004  34.102  34.561  1.00  0.00     0.029 A 
ATOM     47  C   UNL A   1      39.069  33.114  34.689  1.00  0.00     0.049 A 
ATOM     48  H   UNL A   1      39.663  31.705  33.271  1.00  0.00     0.167 HD
ATOM     49  C   UNL A   1      40.665  28.669  30.257  1.00  0.00     0.034 A 
ATOM     50  C   UNL A   1      39.856  32.953  35.771  1.00  0.00     0.034 A 
ATOM     51  C   UNL A   1      41.622  28.494  31.323  1.00  0.00     0.049 A 
ATOM     52  C   UNL A   1      40.915  31.879  35.745  1.00  0.00     0.074 A 
ATOM     53  C   UNL A   1      42.690  27.616  31.384  1.00  0.00     0.029 A 
ATOM     54  N   UNL A   1      41.620  29.197  32.520  1.00  0.00    -0.354 N 
ATOM     55  N   UNL A   1      41.200  31.022  34.790  1.00  0.00    -0.248 NA
ATOM     56  C   UNL A   1      41.763  31.755  36.936  1.00  0.00     0.031 C 
ATOM     57  C   UNL A   1      43.281  27.729  32.647  1.00  0.00     0.029 A 
ATOM     58  C   UNL A   1      42.643  28.744  33.342  1.00  0.00     0.049 A 
ATOM     59  H   UNL A   1      40.985  29.913  32.754  1.00  0.00     0.167 HD
ATOM     60  C   UNL A   1      42.283  30.281  35.256  1.00  0.00     0.074 A 
ATOM     61  C   UNL A   1      42.609  30.806  36.567  1.00  0.00     0.031 C 
ATOM     62  C   UNL A   1      42.951  29.265  34.654  1.00  0.00     0.034 A 
BRANCH  49  63
ATOM     63  C   UNL A   1      40.730  27.744  29.063  1.00  0.00     0.023 A 
ATOM     64  C   UNL A   1      41.681  27.916  28.041  1.00  0.00     0.031 A 
ATOM     65  C   UNL A   1      39.818  26.680  28.937  1.00  0.00     0.131 A 
ATOM     66  C   UNL A   1      41.652  27.088  26.908  1.00  0.00     0.055 A 
ATOM     67  C   UNL A   1      39.850  25.805  27.848  1.00  0.00     0.041 A 
ATOM     68  F   UNL A   1      38.873  26.476  29.867  1.00  0.00    -0.206 F 
ATOM     69  C   UNL A   1      40.761  26.017  26.819  1.00  0.00     0.022 A 
BRANCH  66  70
ATOM     70  S   UNL A   1      42.697  27.522  25.491  1.00  0.00     0.124 S 
ATOM     71  O   UNL A   1      43.956  27.869  26.149  1.00  0.00    -0.237 OA
ATOM     72  O   UNL A   1      42.701  26.289  24.713  1.00  0.00    -0.237 OA
ATOM     73  O   UNL A   1      41.993  28.646  24.877  1.00  0.00    -0.744 OA
ENDBRANCH  66  70
ENDBRANCH  49  63
BRANCH  50  74
ATOM     74  C   UNL A   1      39.666  33.808  36.979  1.00  0.00     0.023 A 
ATOM     75  C   UNL A   1      39.074  33.296  38.145  1.00  0.00     0.031 A 
ATOM     76  C   UNL A   1      40.032  35.166  36.969  1.00  0.00     0.131 A 
ATOM     77  C   UNL A   1      38.817  34.147  39.231  1.00  0.00     0.055 A 
ATOM     78  C   UNL A   1      39.832  35.993  38.076  1.00  0.00     0.041 A 
ATOM     79  F   UNL A   1      40.604  35.709  35.882  1.00  0.00    -0.206 F 
ATOM     80  C   UNL A   1      39.207  35.488  39.210  1.00  0.00     0.022 A 
BRANCH  77  81
ATOM     81  S   UNL A   1      37.874  33.498  40.638  1.00  0.00     0.124 S 
ATOM     82  O   UNL A   1      36.587  33.203  40.020  1.00  0.00    -0.237 OA
ATOM     83  O   UNL A   1      38.676  32.344  41.033  1.00  0.00    -0.237 OA
ATOM     84  O   UNL A   1      37.873  34.608  41.587  1.00  0.00    -0.744 OA
ENDBRANCH  77  81
ENDBRANCH  50  74
BRANCH  62  85
ATOM     85  C   UNL A   1      44.133  28.683  35.394  1.00  0.00     0.023 A 
ATOM     86  C   UNL A   1      43.994  27.607  36.288  1.00  0.00     0.031 A 
ATOM     87  C   UNL A   1      45.417  29.226  35.208  1.00  0.00     0.131 A 
ATOM     88  C   UNL A   1      45.108  27.147  37.006  1.00  0.00     0.055 A 
ATOM     89  C   UNL A   1      46.534  28.719  35.873  1.00  0.00     0.041 A 
ATOM     90  F   UNL A   1      45.610  30.259  34.372  1.00  0.00    -0.206 F 
ATOM     91  C   UNL A   1      46.381  27.682  36.790  1.00  0.00     0.022 A 
BRANCH  88  92
ATOM     92  S   UNL A   1      44.855  25.908  38.307  1.00  0.00     0.124 S 
ATOM     93  O   UNL A   1      46.207  25.395  38.503  1.00  0.00    -0.237 OA
ATOM     94  O   UNL A   1      44.312  26.710  39.399  1.00  0.00    -0.237 OA
ATOM     95  O   UNL A   1      43.915  24.966  37.705  1.00  0.00    -0.744 OA
ENDBRANCH  88  92
ENDBRANCH  62  85
ENDBRANCH  36  37
ENDBRANCH  28  31
ENDBRANCH  26  27
ENDBRANCH   1  26
TORSDOF 16
ENDMDL
MODEL 2
REMARK VINA RESULT:     -11.8      5.669     11.757
REMARK SMILES CC1(C)C[C@@H]([NH2+]C[C@@H]2CCCC[C@@H]2C(=O)NCCCNC(=O)c2ccc(-c3c4nc(c(-c5cc(S(=O)(=O)[O-])ccc5F)c5ccc([nH]5)c(-c5cc(S(=O)(=O)[O-])ccc5F)c5nc(c(-c6cc(S(=O)(=O)[O-])ccc6F)c6ccc3[nH]6)C=C5)C=C4)cc2)C(C)(C)O1
REMARK SMILES IDX 18 1 17 2 16 3 14 4 15 5 13 7 8 8 9 9 10 10 12 11 11 12 7 13
REMARK SMILES IDX 6 14 5 17 1 18 2 19 3 20 4 21 89 22 86 23 87 24 88 25 19 26
REMARK SMILES IDX 20 27 21 28 22 30 23 31 24 32 85 33 25 34 84 35 26 36 27 37
REMARK SMILES IDX 28 38 78 39 29 40 83 41 77 42 79 43 30 44 82 45 76 46 75 47
REMARK SMILES IDX 31 49 63 50 43 51 62 52 44 53 47 54 61 55 80 56 45 57 46 58
REMARK SMILES IDX 60 60 81 61 48 62 32 63 33 64 41 65 34 66 40 67 42 68 39 69
REMARK SMILES IDX 35 70 36 71 37 72 38 73 64 74 65 75 73 76 66 77 72 78 74 79
REMARK SMILES IDX 71 80 67 81 68 82 69 83 70 84 49 85 50 86 58 87 51 88 57 89
REMARK SMILES IDX 59 90 56 91 52 92 53 93 54 94 55 95
REMARK H PARENT 16 6 6 15 6 16 20 29 79 48 47 59
REMARK Flexibility Score: inf
ROOT
ATOM      1  C   UNL A   1      38.289  20.305  24.995  1.00  0.00     0.042 C 
ENDROOT
BRANCH   1   2
ATOM      2  C   UNL A   1      37.341  21.496  24.898  1.00  0.00     0.117 C 
BRANCH   2   3
ATOM      3  N   UNL A   1      36.375  21.489  25.984  1.00  0.00    -0.356 N 
ATOM      4  C   UNL A   1      35.066  21.871  25.976  1.00  0.00     0.223 C 
ATOM      5  O   UNL A   1      34.482  21.975  27.052  1.00  0.00    -0.275 OA
ATOM      6  H   UNL A   1      36.715  21.162  26.848  1.00  0.00     0.163 HD
BRANCH   4   7
ATOM      7  C   UNL A   1      34.377  22.062  24.633  1.00  0.00     0.087 C 
ATOM      8  C   UNL A   1      33.603  23.378  24.475  1.00  0.00     0.056 C 
ATOM      9  C   UNL A   1      32.343  23.471  25.342  1.00  0.00     0.010 C 
ATOM     10  C   UNL A   1      31.417  22.293  25.057  1.00  0.00     0.001 C 
ATOM     11  C   UNL A   1      33.424  20.873  24.386  1.00  0.00     0.014 C 
ATOM     12  C   UNL A   1      32.133  20.955  25.210  1.00  0.00     0.001 C 
BRANCH   8  13
ATOM     13  C   UNL A   1      34.453  24.662  24.535  1.00  0.00     0.265 C 
BRANCH  13  14
ATOM     14  N   UNL A   1      33.849  25.811  23.837  1.00  0.00    -0.341 N 
ATOM     15  H   UNL A   1      34.398  25.990  22.996  1.00  0.00     0.346 HD
ATOM     16  H   UNL A   1      32.882  25.546  23.650  1.00  0.00     0.346 HD
BRANCH  14  17
ATOM     17  C   UNL A   1      33.783  27.064  24.611  1.00  0.00     0.217 C 
ATOM     18  C   UNL A   1      31.840  28.192  27.578  1.00  0.00     0.042 C 
ATOM     19  C   UNL A   1      32.881  28.293  26.465  1.00  0.00     0.069 C 
ATOM     20  C   UNL A   1      34.043  29.184  26.913  1.00  0.00     0.042 C 
ATOM     21  C   UNL A   1      33.354  26.912  26.061  1.00  0.00     0.103 C 
ATOM     22  O   UNL A   1      32.292  28.858  25.288  1.00  0.00    -0.363 OA
ATOM     23  C   UNL A   1      32.746  28.123  24.117  1.00  0.00     0.115 C 
ATOM     24  C   UNL A   1      31.490  27.516  23.482  1.00  0.00     0.048 C 
ATOM     25  C   UNL A   1      33.375  29.130  23.152  1.00  0.00     0.048 C 
ENDBRANCH  14  17
ENDBRANCH  13  14
ENDBRANCH   8  13
ENDBRANCH   4   7
ENDBRANCH   2   3
ENDBRANCH   1   2
BRANCH   1  26
ATOM     26  C   UNL A   1      39.272  20.397  26.161  1.00  0.00     0.118 C 
BRANCH  26  27
ATOM     27  N   UNL A   1      40.333  19.401  26.073  1.00  0.00    -0.352 N 
ATOM     28  C   UNL A   1      41.693  19.560  26.042  1.00  0.00     0.251 C 
ATOM     29  H   UNL A   1      40.022  18.468  26.028  1.00  0.00     0.163 HD
ATOM     30  O   UNL A   1      42.402  18.597  25.747  1.00  0.00    -0.269 OA
BRANCH  28  31
ATOM     31  C   UNL A   1      42.302  20.872  26.340  1.00  0.00     0.039 A 
ATOM     32  C   UNL A   1      42.586  21.737  25.281  1.00  0.00     0.014 A 
ATOM     33  C   UNL A   1      42.610  21.244  27.651  1.00  0.00     0.014 A 
ATOM     34  C   UNL A   1      43.115  23.002  25.544  1.00  0.00     0.010 A 
ATOM     35  C   UNL A   1      43.062  22.533  27.918  1.00  0.00     0.010 A 
ATOM     36  C   UNL A   1      43.318  23.428  26.868  1.00  0.00    -0.014 A 
BRANCH  36  37
ATOM     37  C   UNL A   1      43.784  24.807  27.168  1.00  0.00     0.031 A 
ATOM     38  C   UNL A   1      42.828  25.829  27.722  1.00  0.00     0.074 A 
ATOM     39  C   UNL A   1      45.056  25.151  26.886  1.00  0.00     0.049 A 
ATOM     40  N   UNL A   1      43.032  27.094  27.984  1.00  0.00    -0.248 NA
ATOM     41  C   UNL A   1      41.457  25.372  27.991  1.00  0.00     0.031 C 
ATOM     42  C   UNL A   1      46.065  24.257  26.310  1.00  0.00     0.029 A 
ATOM     43  N   UNL A   1      45.720  26.344  27.033  1.00  0.00    -0.354 N 
ATOM     44  C   UNL A   1      41.813  27.589  28.437  1.00  0.00     0.074 A 
ATOM     45  C   UNL A   1      40.864  26.500  28.356  1.00  0.00     0.031 C 
ATOM     46  C   UNL A   1      47.222  24.924  26.182  1.00  0.00     0.029 A 
ATOM     47  C   UNL A   1      47.030  26.305  26.609  1.00  0.00     0.049 A 
ATOM     48  H   UNL A   1      45.300  27.151  27.408  1.00  0.00     0.167 HD
ATOM     49  C   UNL A   1      41.522  28.831  28.897  1.00  0.00     0.034 A 
ATOM     50  C   UNL A   1      47.963  27.275  26.552  1.00  0.00     0.034 A 
ATOM     51  C   UNL A   1      42.485  29.903  28.974  1.00  0.00     0.049 A 
ATOM     52  C   UNL A   1      47.603  28.659  27.033  1.00  0.00     0.074 A 
ATOM     53  C   UNL A   1      42.310  31.181  29.475  1.00  0.00     0.029 A 
ATOM     54  N   UNL A   1      43.797  29.831  28.525  1.00  0.00    -0.354 N 
ATOM     55  N   UNL A   1      46.460  29.095  27.513  1.00  0.00    -0.248 NA
ATOM     56  C   UNL A   1      48.659  29.677  26.974  1.00  0.00     0.031 C 
ATOM     57  C   UNL A   1      43.487  31.905  29.255  1.00  0.00     0.029 A 
ATOM     58  C   UNL A   1      44.430  31.053  28.701  1.00  0.00     0.049 A 
ATOM     59  H   UNL A   1      44.218  29.030  28.137  1.00  0.00     0.167 HD
ATOM     60  C   UNL A   1      46.674  30.431  27.843  1.00  0.00     0.074 A 
ATOM     61  C   UNL A   1      48.057  30.720  27.524  1.00  0.00     0.031 C 
ATOM     62  C   UNL A   1      45.807  31.335  28.367  1.00  0.00     0.034 A 
BRANCH  49  63
ATOM     63  C   UNL A   1      40.096  29.102  29.321  1.00  0.00     0.023 A 
ATOM     64  C   UNL A   1      39.716  29.127  30.674  1.00  0.00     0.031 A 
ATOM     65  C   UNL A   1      39.098  29.329  28.355  1.00  0.00     0.131 A 
ATOM     66  C   UNL A   1      38.368  29.297  31.022  1.00  0.00     0.055 A 
ATOM     67  C   UNL A   1      37.772  29.584  28.711  1.00  0.00     0.041 A 
ATOM     68  F   UNL A   1      39.393  29.296  27.047  1.00  0.00    -0.206 F 
ATOM     69  C   UNL A   1      37.398  29.553  30.051  1.00  0.00     0.022 A 
BRANCH  66  70
ATOM     70  S   UNL A   1      37.878  29.032  32.748  1.00  0.00     0.124 S 
ATOM     71  O   UNL A   1      36.617  29.768  32.812  1.00  0.00    -0.237 OA
ATOM     72  O   UNL A   1      37.777  27.580  32.829  1.00  0.00    -0.237 OA
ATOM     73  O   UNL A   1      38.976  29.625  33.511  1.00  0.00    -0.744 OA
ENDBRANCH  66  70
ENDBRANCH  49  63
BRANCH  50  74
ATOM     74  C   UNL A   1      49.320  26.988  26.002  1.00  0.00     0.023 A 
ATOM     75  C   UNL A   1      49.690  27.421  24.718  1.00  0.00     0.031 A 
ATOM     76  C   UNL A   1      50.254  26.234  26.736  1.00  0.00     0.131 A 
ATOM     77  C   UNL A   1      50.936  27.052  24.187  1.00  0.00     0.055 A 
ATOM     78  C   UNL A   1      51.516  25.923  26.227  1.00  0.00     0.041 A 
ATOM     79  F   UNL A   1      49.955  25.795  27.970  1.00  0.00    -0.206 F 
ATOM     80  C   UNL A   1      51.857  26.320  24.939  1.00  0.00     0.022 A 
BRANCH  77  81
ATOM     81  S   UNL A   1      51.297  27.460  22.457  1.00  0.00     0.124 S 
ATOM     82  O   UNL A   1      52.627  26.887  22.290  1.00  0.00    -0.237 OA
ATOM     83  O   UNL A   1      50.212  26.781  21.754  1.00  0.00    -0.237 OA
ATOM     84  O   UNL A   1      51.236  28.920  22.432  1.00  0.00    -0.744 OA
ENDBRANCH  77  81
ENDBRANCH  50  74
BRANCH  62  85
ATOM     85  C   UNL A   1      46.348  32.713  28.670  1.00  0.00     0.023 A 
ATOM     86  C   UNL A   1      46.271  33.763  27.738  1.00  0.00     0.031 A 
ATOM     87  C   UNL A   1      46.962  32.973  29.908  1.00  0.00     0.131 A 
ATOM     88  C   UNL A   1      46.851  35.006  28.035  1.00  0.00     0.055 A 
ATOM     89  C   UNL A   1      47.475  34.231  30.226  1.00  0.00     0.041 A 
ATOM     90  F   UNL A   1      47.070  32.007  30.834  1.00  0.00    -0.206 F 
ATOM     91  C   UNL A   1      47.434  35.253  29.281  1.00  0.00     0.022 A 
BRANCH  88  92
ATOM     92  S   UNL A   1      46.928  36.266  26.733  1.00  0.00     0.124 S 
ATOM     93  O   UNL A   1      48.102  37.037  27.127  1.00  0.00    -0.237 OA
ATOM     94  O   UNL A   1      47.070  35.459  25.526  1.00  0.00    -0.237 OA
ATOM     95  O   UNL A   1      45.653  36.969  26.860  1.00  0.00    -0.744 OA
ENDBRANCH  88  92
ENDBRANCH  62  85
ENDBRANCH  36  37
ENDBRANCH  28  31
ENDBRANCH  26  27
ENDBRANCH   1  26
TORSDOF 16
ENDMDL
MODEL 3
REMARK VINA RESULT:     -11.6      0.785      7.775
REMARK SMILES CC1(C)C[C@@H]([NH2+]C[C@@H]2CCCC[C@@H]2C(=O)NCCCNC(=O)c2ccc(-c3c4nc(c(-c5cc(S(=O)(=O)[O-])ccc5F)c5ccc([nH]5)c(-c5cc(S(=O)(=O)[O-])ccc5F)c5nc(c(-c6cc(S(=O)(=O)[O-])ccc6F)c6ccc3[nH]6)C=C5)C=C4)cc2)C(C)(C)O1
REMARK SMILES IDX 18 1 17 2 16 3 14 4 15 5 13 7 8 8 9 9 10 10 12 11 11 12 7 13
REMARK SMILES IDX 6 14 5 17 1 18 2 19 3 20 4 21 89 22 86 23 87 24 88 25 19 26
REMARK SMILES IDX 20 27 21 28 22 30 23 31 24 32 85 33 25 34 84 35 26 36 27 37
REMARK SMILES IDX 28 38 78 39 29 40 83 41 77 42 79 43 30 44 82 45 76 46 75 47
REMARK SMILES IDX 31 49 63 50 43 51 62 52 44 53 47 54 61 55 80 56 45 57 46 58
REMARK SMILES IDX 60 60 81 61 48 62 32 63 33 64 41 65 34 66 40 67 42 68 39 69
REMARK SMILES IDX 35 70 36 71 37 72 38 73 64 74 65 75 73 76 66 77 72 78 74 79
REMARK SMILES IDX 71 80 67 81 68 82 69 83 70 84 49 85 50 86 58 87 51 88 57 89
REMARK SMILES IDX 59 90 56 91 52 92 53 93 54 94 55 95
REMARK H PARENT 16 6 6 15 6 16 20 29 79 48 47 59
REMARK Flexibility Score: inf
ROOT
ATOM      1  C   UNL A   1      31.695  31.793  26.880  1.00  0.00     0.042 C 
ENDROOT
BRANCH   1   2
ATOM      2  C   UNL A   1      31.957  30.314  26.616  1.00  0.00     0.117 C 
BRANCH   2   3
ATOM      3  N   UNL A   1      32.637  30.118  25.347  1.00  0.00    -0.356 N 
ATOM      4  C   UNL A   1      32.678  29.010  24.553  1.00  0.00     0.223 C 
ATOM      5  O   UNL A   1      33.476  28.991  23.619  1.00  0.00    -0.275 OA
ATOM      6  H   UNL A   1      33.139  30.896  25.013  1.00  0.00     0.163 HD
BRANCH   4   7
ATOM      7  C   UNL A   1      31.674  27.898  24.812  1.00  0.00     0.087 C 
ATOM      8  C   UNL A   1      32.227  26.472  24.682  1.00  0.00     0.056 C 
ATOM      9  C   UNL A   1      32.583  26.066  23.248  1.00  0.00     0.010 C 
ATOM     10  C   UNL A   1      31.372  26.231  22.337  1.00  0.00     0.001 C 
ATOM     11  C   UNL A   1      30.475  28.071  23.855  1.00  0.00     0.014 C 
ATOM     12  C   UNL A   1      30.785  27.637  22.417  1.00  0.00     0.001 C 
BRANCH   8  13
ATOM     13  C   UNL A   1      33.329  26.090  25.690  1.00  0.00     0.265 C 
BRANCH  13  14
ATOM     14  N   UNL A   1      33.214  24.717  26.210  1.00  0.00    -0.341 N 
ATOM     15  H   UNL A   1      32.986  24.776  27.203  1.00  0.00     0.346 HD
ATOM     16  H   UNL A   1      32.494  24.266  25.647  1.00  0.00     0.346 HD
BRANCH  14  17
ATOM     17  C   UNL A   1      34.419  23.879  26.071  1.00  0.00     0.217 C 
ATOM     18  C   UNL A   1      36.648  22.975  23.231  1.00  0.00     0.042 C 
ATOM     19  C   UNL A   1      36.178  23.018  24.684  1.00  0.00     0.069 C 
ATOM     20  C   UNL A   1      37.382  22.938  25.627  1.00  0.00     0.042 C 
ATOM     21  C   UNL A   1      35.349  24.261  24.931  1.00  0.00     0.103 C 
ATOM     22  O   UNL A   1      35.307  21.914  24.953  1.00  0.00    -0.363 OA
ATOM     23  C   UNL A   1      34.175  22.371  25.746  1.00  0.00     0.115 C 
ATOM     24  C   UNL A   1      32.926  22.112  24.894  1.00  0.00     0.048 C 
ATOM     25  C   UNL A   1      34.119  21.516  27.012  1.00  0.00     0.048 C 
ENDBRANCH  14  17
ENDBRANCH  13  14
ENDBRANCH   8  13
ENDBRANCH   4   7
ENDBRANCH   2   3
ENDBRANCH   1   2
BRANCH   1  26
ATOM     26  C   UNL A   1      32.966  32.612  27.097  1.00  0.00     0.118 C 
BRANCH  26  27
ATOM     27  N   UNL A   1      32.687  33.942  27.625  1.00  0.00    -0.352 N 
ATOM     28  C   UNL A   1      33.219  34.593  28.707  1.00  0.00     0.251 C 
ATOM     29  H   UNL A   1      32.008  34.452  27.126  1.00  0.00     0.163 HD
ATOM     30  O   UNL A   1      32.684  35.628  29.106  1.00  0.00    -0.269 OA
BRANCH  28  31
ATOM     31  C   UNL A   1      34.404  34.050  29.400  1.00  0.00     0.039 A 
ATOM     32  C   UNL A   1      34.216  33.173  30.471  1.00  0.00     0.014 A 
ATOM     33  C   UNL A   1      35.696  34.415  29.012  1.00  0.00     0.014 A 
ATOM     34  C   UNL A   1      35.324  32.610  31.107  1.00  0.00     0.010 A 
ATOM     35  C   UNL A   1      36.797  33.792  29.594  1.00  0.00     0.010 A 
ATOM     36  C   UNL A   1      36.624  32.881  30.647  1.00  0.00    -0.014 A 
BRANCH  36  37
ATOM     37  C   UNL A   1      37.806  32.211  31.247  1.00  0.00     0.031 A 
ATOM     38  C   UNL A   1      38.425  32.749  32.509  1.00  0.00     0.074 A 
ATOM     39  C   UNL A   1      38.354  31.150  30.621  1.00  0.00     0.049 A 
ATOM     40  N   UNL A   1      39.495  32.341  33.143  1.00  0.00    -0.248 NA
ATOM     41  C   UNL A   1      37.771  33.914  33.121  1.00  0.00     0.031 C 
ATOM     42  C   UNL A   1      37.864  30.563  29.371  1.00  0.00     0.029 A 
ATOM     43  N   UNL A   1      39.446  30.382  30.940  1.00  0.00    -0.354 N 
ATOM     44  C   UNL A   1      39.649  33.205  34.222  1.00  0.00     0.074 A 
ATOM     45  C   UNL A   1      38.597  34.194  34.119  1.00  0.00     0.031 C 
ATOM     46  C   UNL A   1      38.634  29.513  29.047  1.00  0.00     0.029 A 
ATOM     47  C   UNL A   1      39.705  29.383  30.029  1.00  0.00     0.049 A 
ATOM     48  H   UNL A   1      39.993  30.531  31.745  1.00  0.00     0.167 HD
ATOM     49  C   UNL A   1      40.570  33.163  35.216  1.00  0.00     0.034 A 
ATOM     50  C   UNL A   1      40.702  28.477  29.979  1.00  0.00     0.034 A 
ATOM     51  C   UNL A   1      41.609  32.166  35.304  1.00  0.00     0.049 A 
ATOM     52  C   UNL A   1      41.737  28.475  31.076  1.00  0.00     0.074 A 
ATOM     53  C   UNL A   1      42.558  31.997  36.298  1.00  0.00     0.029 A 
ATOM     54  N   UNL A   1      41.848  31.177  34.359  1.00  0.00    -0.354 N 
ATOM     55  N   UNL A   1      41.834  29.265  32.122  1.00  0.00    -0.248 NA
ATOM     56  C   UNL A   1      42.790  27.456  30.992  1.00  0.00     0.031 C 
ATOM     57  C   UNL A   1      43.418  30.963  35.914  1.00  0.00     0.029 A 
ATOM     58  C   UNL A   1      42.952  30.422  34.726  1.00  0.00     0.049 A 
ATOM     59  H   UNL A   1      41.312  31.032  33.545  1.00  0.00     0.167 HD
ATOM     60  C   UNL A   1      42.942  28.814  32.836  1.00  0.00     0.074 A 
ATOM     61  C   UNL A   1      43.465  27.673  32.110  1.00  0.00     0.031 C 
ATOM     62  C   UNL A   1      43.474  29.294  33.988  1.00  0.00     0.034 A 
BRANCH  49  63
ATOM     63  C   UNL A   1      40.512  34.247  36.269  1.00  0.00     0.023 A 
ATOM     64  C   UNL A   1      40.028  33.998  37.565  1.00  0.00     0.031 A 
ATOM     65  C   UNL A   1      40.937  35.554  35.968  1.00  0.00     0.131 A 
ATOM     66  C   UNL A   1      39.910  35.050  38.486  1.00  0.00     0.055 A 
ATOM     67  C   UNL A   1      40.898  36.579  36.916  1.00  0.00     0.041 A 
ATOM     68  F   UNL A   1      41.388  35.861  34.742  1.00  0.00    -0.206 F 
ATOM     69  C   UNL A   1      40.369  36.333  38.179  1.00  0.00     0.022 A 
BRANCH  66  70
ATOM     70  S   UNL A   1      39.017  34.750  40.035  1.00  0.00     0.124 S 
ATOM     71  O   UNL A   1      38.564  36.097  40.379  1.00  0.00    -0.237 OA
ATOM     72  O   UNL A   1      37.980  33.812  39.625  1.00  0.00    -0.237 OA
ATOM     73  O   UNL A   1      40.042  34.201  40.921  1.00  0.00    -0.744 OA
ENDBRANCH  66  70
ENDBRANCH  49  63
BRANCH  50  74
ATOM     74  C   UNL A   1      40.789  27.509  28.847  1.00  0.00     0.023 A 
ATOM     75  C   UNL A   1      41.752  27.660  27.836  1.00  0.00     0.031 A 
ATOM     76  C   UNL A   1      39.877  26.444  28.733  1.00  0.00     0.131 A 
ATOM     77  C   UNL A   1      41.749  26.794  26.731  1.00  0.00     0.055 A 
ATOM     78  C   UNL A   1      39.918  25.548  27.663  1.00  0.00     0.041 A 
ATOM     79  F   UNL A   1      38.936  26.251  29.671  1.00  0.00    -0.206 F 
ATOM     80  C   UNL A   1      40.849  25.730  26.646  1.00  0.00     0.022 A 
BRANCH  77  81
ATOM     81  S   UNL A   1      42.877  27.140  25.353  1.00  0.00     0.124 S 
ATOM     82  O   UNL A   1      42.907  25.854  24.666  1.00  0.00    -0.237 OA
ATOM     83  O   UNL A   1      42.185  28.222  24.661  1.00  0.00    -0.237 OA
ATOM     84  O   UNL A   1      44.120  27.522  26.020  1.00  0.00    -0.744 OA
ENDBRANCH  77  81
ENDBRANCH  50  74
BRANCH  62  85
ATOM     85  C   UNL A   1      44.662  28.554  34.559  1.00  0.00     0.023 A 
ATOM     86  C   UNL A   1      44.508  27.493  35.469  1.00  0.00     0.031 A 
ATOM     87  C   UNL A   1      45.967  28.927  34.194  1.00  0.00     0.131 A 
ATOM     88  C   UNL A   1      45.641  26.882  36.028  1.00  0.00     0.055 A 
ATOM     89  C   UNL A   1      47.090  28.270  34.700  1.00  0.00     0.041 A 
ATOM     90  F   UNL A   1      46.175  29.937  33.334  1.00  0.00    -0.206 F 
ATOM     91  C   UNL A   1      46.931  27.250  35.633  1.00  0.00     0.022 A 
BRANCH  88  92
ATOM     92  S   UNL A   1      45.412  25.670  37.358  1.00  0.00     0.124 S 
ATOM     93  O   UNL A   1      44.148  26.103  37.946  1.00  0.00    -0.237 OA
ATOM     94  O   UNL A   1      45.377  24.408  36.626  1.00  0.00    -0.237 OA
ATOM     95  O   UNL A   1      46.588  25.863  38.204  1.00  0.00    -0.744 OA
ENDBRANCH  88  92
ENDBRANCH  62  85
ENDBRANCH  36  37
ENDBRANCH  28  31
ENDBRANCH  26  27
ENDBRANCH   1  26
TORSDOF 16
ENDMDL
