MODEL 1
REMARK VINA RESULT:     -11.2      0.000      0.000
REMARK SMILES COCc1cc(SCC(=O)NCCCNC(=O)c2ccc(-c3c4nc(c(-c5cc(S(=O)(=O)[O-])ccc5F)c5ccc([nH]5)c(-c5cc(S(=O)(=O)[O-])ccc5F)c5nc(c(-c6cc(S(=O)(=O)[O-])ccc6F)c6ccc3[nH]6)C=C5)C=C4)cc2)nc(-c2ccncc2)n1
REMARK SMILES IDX 12 1 11 2 9 3 10 4 8 6 7 7 6 8 4 9 5 10 89 11 82 12 81 13
REMARK SMILES IDX 3 14 2 15 1 16 83 17 84 18 88 19 85 20 87 21 86 22 13 23
REMARK SMILES IDX 14 24 15 25 16 26 17 28 18 29 19 30 80 31 20 32 79 33 21 34
REMARK SMILES IDX 22 35 23 36 73 37 24 38 78 39 72 40 74 41 25 42 77 43 71 44
REMARK SMILES IDX 70 45 26 47 58 48 38 49 57 50 39 51 42 52 56 53 75 54 40 55
REMARK SMILES IDX 41 56 55 58 76 59 43 60 27 61 28 62 36 63 29 64 35 65 37 66
REMARK SMILES IDX 34 67 30 68 31 69 32 70 33 71 59 72 60 73 68 74 61 75 67 76
REMARK SMILES IDX 69 77 66 78 62 79 63 80 64 81 65 82 44 83 45 84 53 85 46 86
REMARK SMILES IDX 52 87 54 88 51 89 47 90 48 91 49 92 50 93
REMARK H PARENT 11 5 15 27 74 46 42 57
REMARK Flexibility Score: inf
ROOT
ATOM      1  C   UNL A   1      32.667  28.078  23.020  1.00  0.00     0.117 C 
ENDROOT
BRANCH   1   2
ATOM      2  N   UNL A   1      32.849  27.197  21.881  1.00  0.00    -0.355 N 
ATOM      3  C   UNL A   1      33.104  25.863  21.842  1.00  0.00     0.230 C 
ATOM      4  O   UNL A   1      33.258  25.344  20.731  1.00  0.00    -0.274 OA
ATOM      5  H   UNL A   1      32.777  27.634  21.001  1.00  0.00     0.163 HD
BRANCH   3   6
ATOM      6  C   UNL A   1      33.118  25.017  23.099  1.00  0.00     0.176 C 
BRANCH   6   7
ATOM      7  S   UNL A   1      32.090  23.521  23.042  1.00  0.00    -0.096 SA
BRANCH   7   8
ATOM      8  C   UNL A   1      33.039  22.236  23.831  1.00  0.00     0.101 A 
ATOM      9  C   UNL A   1      33.555  20.038  24.499  1.00  0.00     0.071 A 
ATOM     10  C   UNL A   1      32.634  20.929  23.978  1.00  0.00     0.062 A 
ATOM     11  N   UNL A   1      34.774  20.438  24.903  1.00  0.00    -0.231 NA
ATOM     12  C   UNL A   1      35.058  21.744  24.801  1.00  0.00     0.160 A 
ATOM     13  N   UNL A   1      34.236  22.664  24.275  1.00  0.00    -0.222 NA
BRANCH   9  14
ATOM     14  C   UNL A   1      33.198  18.563  24.562  1.00  0.00     0.215 C 
BRANCH  14  15
ATOM     15  O   UNL A   1      33.480  17.806  23.381  1.00  0.00    -0.378 OA
ATOM     16  C   UNL A   1      33.876  16.468  23.657  1.00  0.00     0.195 C 
ENDBRANCH  14  15
ENDBRANCH   9  14
BRANCH  12  17
ATOM     17  C   UNL A   1      36.350  22.181  25.330  1.00  0.00     0.022 A 
ATOM     18  C   UNL A   1      37.460  21.328  25.330  1.00  0.00     0.032 A 
ATOM     19  C   UNL A   1      36.528  23.484  25.811  1.00  0.00     0.032 A 
ATOM     20  C   UNL A   1      38.678  21.814  25.775  1.00  0.00     0.111 A 
ATOM     21  C   UNL A   1      37.781  23.874  26.253  1.00  0.00     0.111 A 
ATOM     22  N   UNL A   1      38.863  23.069  26.228  1.00  0.00    -0.265 NA
ENDBRANCH  12  17
ENDBRANCH   7   8
ENDBRANCH   6   7
ENDBRANCH   3   6
ENDBRANCH   1   2
BRANCH   1  23
ATOM     23  C   UNL A   1      34.000  28.565  23.580  1.00  0.00     0.042 C 
BRANCH  23  24
ATOM     24  C   UNL A   1      34.011  28.770  25.094  1.00  0.00     0.118 C 
BRANCH  24  25
ATOM     25  N   UNL A   1      33.143  29.856  25.527  1.00  0.00    -0.352 N 
ATOM     26  C   UNL A   1      33.229  30.673  26.631  1.00  0.00     0.251 C 
ATOM     27  H   UNL A   1      32.374  30.034  24.939  1.00  0.00     0.163 HD
ATOM     28  O   UNL A   1      32.286  31.409  26.907  1.00  0.00    -0.269 OA
BRANCH  26  29
ATOM     29  C   UNL A   1      34.431  30.647  27.492  1.00  0.00     0.039 A 
ATOM     30  C   UNL A   1      34.753  29.467  28.169  1.00  0.00     0.014 A 
ATOM     31  C   UNL A   1      35.240  31.777  27.639  1.00  0.00     0.014 A 
ATOM     32  C   UNL A   1      35.934  29.392  28.914  1.00  0.00     0.010 A 
ATOM     33  C   UNL A   1      36.450  31.680  28.323  1.00  0.00     0.010 A 
ATOM     34  C   UNL A   1      36.819  30.481  28.952  1.00  0.00    -0.014 A 
BRANCH  34  35
ATOM     35  C   UNL A   1      38.151  30.377  29.607  1.00  0.00     0.031 A 
ATOM     36  C   UNL A   1      39.236  29.535  28.995  1.00  0.00     0.074 A 
ATOM     37  C   UNL A   1      38.353  30.975  30.798  1.00  0.00     0.049 A 
ATOM     38  N   UNL A   1      40.413  29.224  29.475  1.00  0.00    -0.248 NA
ATOM     39  C   UNL A   1      38.947  28.943  27.681  1.00  0.00     0.031 C 
ATOM     40  C   UNL A   1      37.369  31.799  31.506  1.00  0.00     0.029 A 
ATOM     41  N   UNL A   1      39.443  30.974  31.634  1.00  0.00    -0.354 N 
ATOM     42  C   UNL A   1      41.002  28.393  28.528  1.00  0.00     0.074 A 
ATOM     43  C   UNL A   1      40.028  28.207  27.473  1.00  0.00     0.031 C 
ATOM     44  C   UNL A   1      37.906  32.235  32.657  1.00  0.00     0.029 A 
ATOM     45  C   UNL A   1      39.245  31.675  32.802  1.00  0.00     0.049 A 
ATOM     46  H   UNL A   1      40.286  30.514  31.418  1.00  0.00     0.167 HD
ATOM     47  C   UNL A   1      42.247  27.853  28.532  1.00  0.00     0.034 A 
ATOM     48  C   UNL A   1      40.039  31.829  33.881  1.00  0.00     0.034 A 
ATOM     49  C   UNL A   1      43.207  28.053  29.592  1.00  0.00     0.049 A 
ATOM     50  C   UNL A   1      41.392  31.162  33.892  1.00  0.00     0.074 A 
ATOM     51  C   UNL A   1      44.512  27.598  29.668  1.00  0.00     0.029 A 
ATOM     52  N   UNL A   1      42.963  28.750  30.769  1.00  0.00    -0.354 N 
ATOM     53  N   UNL A   1      41.954  30.419  32.966  1.00  0.00    -0.248 NA
ATOM     54  C   UNL A   1      42.218  31.353  35.092  1.00  0.00     0.031 C 
ATOM     55  C   UNL A   1      45.028  27.949  30.920  1.00  0.00     0.029 A 
ATOM     56  C   UNL A   1      44.076  28.697  31.594  1.00  0.00     0.049 A 
ATOM     57  H   UNL A   1      42.122  29.214  30.986  1.00  0.00     0.167 HD
ATOM     58  C   UNL A   1      43.209  30.080  33.463  1.00  0.00     0.074 A 
ATOM     59  C   UNL A   1      43.328  30.710  34.761  1.00  0.00     0.031 C 
ATOM     60  C   UNL A   1      44.178  29.318  32.894  1.00  0.00     0.034 A 
BRANCH  47  61
ATOM     61  C   UNL A   1      42.629  26.971  27.367  1.00  0.00     0.023 A 
ATOM     62  C   UNL A   1      42.411  25.583  27.388  1.00  0.00     0.031 A 
ATOM     63  C   UNL A   1      43.235  27.523  26.224  1.00  0.00     0.131 A 
ATOM     64  C   UNL A   1      42.860  24.786  26.325  1.00  0.00     0.055 A 
ATOM     65  C   UNL A   1      43.603  26.735  25.131  1.00  0.00     0.041 A 
ATOM     66  F   UNL A   1      43.489  28.839  26.153  1.00  0.00    -0.206 F 
ATOM     67  C   UNL A   1      43.430  25.355  25.183  1.00  0.00     0.022 A 
BRANCH  64  68
ATOM     68  S   UNL A   1      42.824  22.983  26.519  1.00  0.00     0.124 S 
ATOM     69  O   UNL A   1      44.241  22.678  26.703  1.00  0.00    -0.237 OA
ATOM     70  O   UNL A   1      41.975  22.810  27.692  1.00  0.00    -0.237 OA
ATOM     71  O   UNL A   1      42.252  22.513  25.259  1.00  0.00    -0.744 OA
ENDBRANCH  64  68
ENDBRANCH  47  61
BRANCH  48  72
ATOM     72  C   UNL A   1      39.571  32.617  35.059  1.00  0.00     0.023 A 
ATOM     73  C   UNL A   1      38.924  31.991  36.136  1.00  0.00     0.031 A 
ATOM     74  C   UNL A   1      39.722  34.014  35.104  1.00  0.00     0.131 A 
ATOM     75  C   UNL A   1      38.411  32.765  37.188  1.00  0.00     0.055 A 
ATOM     76  C   UNL A   1      39.262  34.774  36.181  1.00  0.00     0.041 A 
ATOM     77  F   UNL A   1      40.334  34.663  34.099  1.00  0.00    -0.206 F 
ATOM     78  C   UNL A   1      38.588  34.150  37.225  1.00  0.00     0.022 A 
BRANCH  75  79
ATOM     79  S   UNL A   1      37.422  31.941  38.467  1.00  0.00     0.124 S 
ATOM     80  O   UNL A   1      37.292  30.596  37.921  1.00  0.00    -0.237 OA
ATOM     81  O   UNL A   1      38.276  32.076  39.643  1.00  0.00    -0.237 OA
ATOM     82  O   UNL A   1      36.189  32.724  38.501  1.00  0.00    -0.744 OA
ENDBRANCH  75  79
ENDBRANCH  48  72
BRANCH  60  83
ATOM     83  C   UNL A   1      45.470  29.160  33.659  1.00  0.00     0.023 A 
ATOM     84  C   UNL A   1      45.682  28.085  34.541  1.00  0.00     0.031 A 
ATOM     85  C   UNL A   1      46.509  30.093  33.494  1.00  0.00     0.131 A 
ATOM     86  C   UNL A   1      46.886  27.993  35.254  1.00  0.00     0.055 A 
ATOM     87  C   UNL A   1      47.728  29.964  34.161  1.00  0.00     0.041 A 
ATOM     88  F   UNL A   1      46.360  31.142  32.668  1.00  0.00    -0.206 F 
ATOM     89  C   UNL A   1      47.918  28.915  35.055  1.00  0.00     0.022 A 
BRANCH  86  90
ATOM     90  S   UNL A   1      47.065  26.691  36.503  1.00  0.00     0.124 S 
ATOM     91  O   UNL A   1      47.440  27.456  37.688  1.00  0.00    -0.237 OA
ATOM     92  O   UNL A   1      45.735  26.093  36.524  1.00  0.00    -0.237 OA
ATOM     93  O   UNL A   1      48.118  25.835  35.959  1.00  0.00    -0.744 OA
ENDBRANCH  86  90
ENDBRANCH  60  83
ENDBRANCH  34  35
ENDBRANCH  26  29
ENDBRANCH  24  25
ENDBRANCH  23  24
ENDBRANCH   1  23
TORSDOF 18
ENDMDL
MODEL 2
REMARK VINA RESULT:     -11.2      4.840     10.168
REMARK SMILES COCc1cc(SCC(=O)NCCCNC(=O)c2ccc(-c3c4nc(c(-c5cc(S(=O)(=O)[O-])ccc5F)c5ccc([nH]5)c(-c5cc(S(=O)(=O)[O-])ccc5F)c5nc(c(-c6cc(S(=O)(=O)[O-])ccc6F)c6ccc3[nH]6)C=C5)C=C4)cc2)nc(-c2ccncc2)n1
REMARK SMILES IDX 12 1 11 2 9 3 10 4 8 6 7 7 6 8 4 9 5 10 89 11 82 12 81 13
REMARK SMILES IDX 3 14 2 15 1 16 83 17 84 18 88 19 85 20 87 21 86 22 13 23
REMARK SMILES IDX 14 24 15 25 16 26 17 28 18 29 19 30 80 31 20 32 79 33 21 34
REMARK SMILES IDX 22 35 23 36 73 37 24 38 78 39 72 40 74 41 25 42 77 43 71 44
REMARK SMILES IDX 70 45 26 47 58 48 38 49 57 50 39 51 42 52 56 53 75 54 40 55
REMARK SMILES IDX 41 56 55 58 76 59 43 60 27 61 28 62 36 63 29 64 35 65 37 66
REMARK SMILES IDX 34 67 30 68 31 69 32 70 33 71 59 72 60 73 68 74 61 75 67 76
REMARK SMILES IDX 69 77 66 78 62 79 63 80 64 81 65 82 44 83 45 84 53 85 46 86
REMARK SMILES IDX 52 87 54 88 51 89 47 90 48 91 49 92 50 93
REMARK H PARENT 11 5 15 27 74 46 42 57
REMARK Flexibility Score: inf
ROOT
ATOM      1  C   UNL A   1      34.296  23.384  24.418  1.00  0.00     0.117 C 
ENDROOT
BRANCH   1   2
ATOM      2  N   UNL A   1      34.340  24.472  23.459  1.00  0.00    -0.355 N 
ATOM      3  C   UNL A   1      33.392  24.906  22.587  1.00  0.00     0.230 C 
ATOM      4  O   UNL A   1      33.691  25.842  21.838  1.00  0.00    -0.274 OA
ATOM      5  H   UNL A   1      35.188  24.973  23.436  1.00  0.00     0.163 HD
BRANCH   3   6
ATOM      6  C   UNL A   1      31.990  24.330  22.582  1.00  0.00     0.176 C 
BRANCH   6   7
ATOM      7  S   UNL A   1      30.934  24.839  23.970  1.00  0.00    -0.096 SA
BRANCH   7   8
ATOM      8  C   UNL A   1      30.871  26.618  23.918  1.00  0.00     0.101 A 
ATOM      9  C   UNL A   1      30.054  28.729  23.268  1.00  0.00     0.071 A 
ATOM     10  C   UNL A   1      30.069  27.359  23.079  1.00  0.00     0.062 A 
ATOM     11  N   UNL A   1      30.833  29.323  24.189  1.00  0.00    -0.231 NA
ATOM     12  C   UNL A   1      31.645  28.537  24.909  1.00  0.00     0.160 A 
ATOM     13  N   UNL A   1      31.694  27.200  24.812  1.00  0.00    -0.222 NA
BRANCH   9  14
ATOM     14  C   UNL A   1      29.091  29.573  22.452  1.00  0.00     0.215 C 
BRANCH  14  15
ATOM     15  O   UNL A   1      29.116  30.978  22.723  1.00  0.00    -0.378 OA
ATOM     16  C   UNL A   1      28.013  31.415  23.508  1.00  0.00     0.195 C 
ENDBRANCH  14  15
ENDBRANCH   9  14
BRANCH  12  17
ATOM     17  C   UNL A   1      32.553  29.204  25.841  1.00  0.00     0.022 A 
ATOM     18  C   UNL A   1      33.801  28.654  26.158  1.00  0.00     0.032 A 
ATOM     19  C   UNL A   1      32.220  30.440  26.410  1.00  0.00     0.032 A 
ATOM     20  C   UNL A   1      34.653  29.362  26.989  1.00  0.00     0.111 A 
ATOM     21  C   UNL A   1      33.132  31.064  27.245  1.00  0.00     0.111 A 
ATOM     22  N   UNL A   1      34.349  30.558  27.532  1.00  0.00    -0.265 NA
ENDBRANCH  12  17
ENDBRANCH   7   8
ENDBRANCH   6   7
ENDBRANCH   3   6
ENDBRANCH   1   2
BRANCH   1  23
ATOM     23  C   UNL A   1      35.522  22.482  24.309  1.00  0.00     0.042 C 
BRANCH  23  24
ATOM     24  C   UNL A   1      36.186  22.156  25.646  1.00  0.00     0.118 C 
BRANCH  24  25
ATOM     25  N   UNL A   1      37.198  21.113  25.539  1.00  0.00    -0.352 N 
ATOM     26  C   UNL A   1      38.557  21.174  25.743  1.00  0.00     0.251 C 
ATOM     27  H   UNL A   1      36.856  20.227  25.280  1.00  0.00     0.163 HD
ATOM     28  O   UNL A   1      39.255  20.217  25.418  1.00  0.00    -0.269 OA
BRANCH  26  29
ATOM     29  C   UNL A   1      39.176  22.387  26.319  1.00  0.00     0.039 A 
ATOM     30  C   UNL A   1      40.300  22.249  27.138  1.00  0.00     0.014 A 
ATOM     31  C   UNL A   1      38.655  23.657  26.058  1.00  0.00     0.014 A 
ATOM     32  C   UNL A   1      40.955  23.388  27.617  1.00  0.00     0.010 A 
ATOM     33  C   UNL A   1      39.348  24.791  26.478  1.00  0.00     0.010 A 
ATOM     34  C   UNL A   1      40.516  24.668  27.246  1.00  0.00    -0.014 A 
BRANCH  34  35
ATOM     35  C   UNL A   1      41.284  25.890  27.613  1.00  0.00     0.031 A 
ATOM     36  C   UNL A   1      40.637  26.982  28.419  1.00  0.00     0.074 A 
ATOM     37  C   UNL A   1      42.538  26.048  27.146  1.00  0.00     0.049 A 
ATOM     38  N   UNL A   1      41.100  28.165  28.731  1.00  0.00    -0.248 NA
ATOM     39  C   UNL A   1      39.280  26.717  28.917  1.00  0.00     0.031 C 
ATOM     40  C   UNL A   1      43.266  25.070  26.333  1.00  0.00     0.029 A 
ATOM     41  N   UNL A   1      43.421  27.093  27.271  1.00  0.00    -0.354 N 
ATOM     42  C   UNL A   1      40.090  28.791  29.453  1.00  0.00     0.074 A 
ATOM     43  C   UNL A   1      38.970  27.873  29.483  1.00  0.00     0.031 C 
ATOM     44  C   UNL A   1      44.486  25.555  26.047  1.00  0.00     0.029 A 
ATOM     45  C   UNL A   1      44.608  26.898  26.602  1.00  0.00     0.049 A 
ATOM     46  H   UNL A   1      43.223  27.906  27.791  1.00  0.00     0.167 HD
ATOM     47  C   UNL A   1      40.104  30.009  30.050  1.00  0.00     0.034 A 
ATOM     48  C   UNL A   1      45.666  27.717  26.429  1.00  0.00     0.034 A 
ATOM     49  C   UNL A   1      41.232  30.909  30.012  1.00  0.00     0.049 A 
ATOM     50  C   UNL A   1      45.630  29.093  27.045  1.00  0.00     0.074 A 
ATOM     51  C   UNL A   1      41.372  32.140  30.630  1.00  0.00     0.029 A 
ATOM     52  N   UNL A   1      42.408  30.687  29.306  1.00  0.00    -0.354 N 
ATOM     53  N   UNL A   1      44.686  29.651  27.767  1.00  0.00    -0.248 NA
ATOM     54  C   UNL A   1      46.803  29.951  26.823  1.00  0.00     0.031 C 
ATOM     55  C   UNL A   1      42.592  32.696  30.233  1.00  0.00     0.029 A 
ATOM     56  C   UNL A   1      43.255  31.777  29.436  1.00  0.00     0.049 A 
ATOM     57  H   UNL A   1      42.610  29.874  28.789  1.00  0.00     0.167 HD
ATOM     58  C   UNL A   1      45.164  30.913  28.108  1.00  0.00     0.074 A 
ATOM     59  C   UNL A   1      46.485  31.029  27.526  1.00  0.00     0.031 C 
ATOM     60  C   UNL A   1      44.566  31.887  28.839  1.00  0.00     0.034 A 
BRANCH  47  61
ATOM     61  C   UNL A   1      38.851  30.448  30.770  1.00  0.00     0.023 A 
ATOM     62  C   UNL A   1      37.890  31.264  30.150  1.00  0.00     0.031 A 
ATOM     63  C   UNL A   1      38.621  30.059  32.103  1.00  0.00     0.131 A 
ATOM     64  C   UNL A   1      36.783  31.724  30.880  1.00  0.00     0.055 A 
ATOM     65  C   UNL A   1      37.475  30.451  32.797  1.00  0.00     0.041 A 
ATOM     66  F   UNL A   1      39.513  29.299  32.756  1.00  0.00    -0.206 F 
ATOM     67  C   UNL A   1      36.554  31.301  32.191  1.00  0.00     0.022 A 
BRANCH  64  68
ATOM     68  S   UNL A   1      35.728  32.999  30.139  1.00  0.00     0.124 S 
ATOM     69  O   UNL A   1      36.200  33.005  28.756  1.00  0.00    -0.237 OA
ATOM     70  O   UNL A   1      34.389  32.465  30.355  1.00  0.00    -0.237 OA
ATOM     71  O   UNL A   1      36.053  34.201  30.905  1.00  0.00    -0.744 OA
ENDBRANCH  64  68
ENDBRANCH  47  61
BRANCH  48  72
ATOM     72  C   UNL A   1      46.835  27.281  25.612  1.00  0.00     0.023 A 
ATOM     73  C   UNL A   1      47.041  27.784  24.318  1.00  0.00     0.031 A 
ATOM     74  C   UNL A   1      47.739  26.317  26.095  1.00  0.00     0.131 A 
ATOM     75  C   UNL A   1      48.095  27.289  23.535  1.00  0.00     0.055 A 
ATOM     76  C   UNL A   1      48.821  25.871  25.334  1.00  0.00     0.041 A 
ATOM     77  F   UNL A   1      47.589  25.803  27.327  1.00  0.00    -0.206 F 
ATOM     78  C   UNL A   1      48.995  26.347  24.039  1.00  0.00     0.022 A 
BRANCH  75  79
ATOM     79  S   UNL A   1      48.218  27.827  21.807  1.00  0.00     0.124 S 
ATOM     80  O   UNL A   1      49.445  28.614  21.827  1.00  0.00    -0.237 OA
ATOM     81  O   UNL A   1      48.283  26.554  21.097  1.00  0.00    -0.237 OA
ATOM     82  O   UNL A   1      46.990  28.592  21.600  1.00  0.00    -0.744 OA
ENDBRANCH  75  79
ENDBRANCH  48  72
BRANCH  60  83
ATOM     83  C   UNL A   1      45.356  33.150  29.085  1.00  0.00     0.023 A 
ATOM     84  C   UNL A   1      45.287  34.249  28.212  1.00  0.00     0.031 A 
ATOM     85  C   UNL A   1      46.181  33.257  30.219  1.00  0.00     0.131 A 
ATOM     86  C   UNL A   1      46.061  35.392  28.463  1.00  0.00     0.055 A 
ATOM     87  C   UNL A   1      46.904  34.419  30.496  1.00  0.00     0.041 A 
ATOM     88  F   UNL A   1      46.289  32.237  31.085  1.00  0.00    -0.206 F 
ATOM     89  C   UNL A   1      46.854  35.491  29.610  1.00  0.00     0.022 A 
BRANCH  86  90
ATOM     90  S   UNL A   1      46.077  36.725  27.234  1.00  0.00     0.124 S 
ATOM     91  O   UNL A   1      44.735  37.283  27.375  1.00  0.00    -0.237 OA
ATOM     92  O   UNL A   1      47.171  37.569  27.700  1.00  0.00    -0.237 OA
ATOM     93  O   UNL A   1      46.328  36.027  25.974  1.00  0.00    -0.744 OA
ENDBRANCH  86  90
ENDBRANCH  60  83
ENDBRANCH  34  35
ENDBRANCH  26  29
ENDBRANCH  24  25
ENDBRANCH  23  24
ENDBRANCH   1  23
TORSDOF 18
ENDMDL
MODEL 3
REMARK VINA RESULT:     -11.1      1.889      3.050
REMARK SMILES COCc1cc(SCC(=O)NCCCNC(=O)c2ccc(-c3c4nc(c(-c5cc(S(=O)(=O)[O-])ccc5F)c5ccc([nH]5)c(-c5cc(S(=O)(=O)[O-])ccc5F)c5nc(c(-c6cc(S(=O)(=O)[O-])ccc6F)c6ccc3[nH]6)C=C5)C=C4)cc2)nc(-c2ccncc2)n1
REMARK SMILES IDX 12 1 11 2 9 3 10 4 8 6 7 7 6 8 4 9 5 10 89 11 82 12 81 13
REMARK SMILES IDX 3 14 2 15 1 16 83 17 84 18 88 19 85 20 87 21 86 22 13 23
REMARK SMILES IDX 14 24 15 25 16 26 17 28 18 29 19 30 80 31 20 32 79 33 21 34
REMARK SMILES IDX 22 35 23 36 73 37 24 38 78 39 72 40 74 41 25 42 77 43 71 44
REMARK SMILES IDX 70 45 26 47 58 48 38 49 57 50 39 51 42 52 56 53 75 54 40 55
REMARK SMILES IDX 41 56 55 58 76 59 43 60 27 61 28 62 36 63 29 64 35 65 37 66
REMARK SMILES IDX 34 67 30 68 31 69 32 70 33 71 59 72 60 73 68 74 61 75 67 76
REMARK SMILES IDX 69 77 66 78 62 79 63 80 64 81 65 82 44 83 45 84 53 85 46 86
REMARK SMILES IDX 52 87 54 88 51 89 47 90 48 91 49 92 50 93
REMARK H PARENT 11 5 15 27 74 46 42 57
REMARK Flexibility Score: inf
ROOT
ATOM      1  C   UNL A   1      31.536  27.631  24.167  1.00  0.00     0.117 C 
ENDROOT
BRANCH   1   2
ATOM      2  N   UNL A   1      32.451  26.960  23.263  1.00  0.00    -0.355 N 
ATOM      3  C   UNL A   1      32.750  25.639  23.146  1.00  0.00     0.230 C 
ATOM      4  O   UNL A   1      33.604  25.319  22.313  1.00  0.00    -0.274 OA
ATOM      5  H   UNL A   1      32.929  27.552  22.638  1.00  0.00     0.163 HD
BRANCH   3   6
ATOM      6  C   UNL A   1      32.011  24.581  23.942  1.00  0.00     0.176 C 
BRANCH   6   7
ATOM      7  S   UNL A   1      31.936  22.938  23.171  1.00  0.00    -0.096 SA
BRANCH   7   8
ATOM      8  C   UNL A   1      33.249  21.986  23.904  1.00  0.00     0.101 A 
ATOM      9  C   UNL A   1      35.280  21.631  25.043  1.00  0.00     0.071 A 
ATOM     10  C   UNL A   1      34.430  22.503  24.387  1.00  0.00     0.062 A 
ATOM     11  N   UNL A   1      34.999  20.321  25.153  1.00  0.00    -0.231 NA
ATOM     12  C   UNL A   1      33.868  19.883  24.582  1.00  0.00     0.160 A 
ATOM     13  N   UNL A   1      32.975  20.668  23.962  1.00  0.00    -0.222 NA
BRANCH   9  14
ATOM     14  C   UNL A   1      36.533  22.181  25.702  1.00  0.00     0.215 C 
BRANCH  14  15
ATOM     15  O   UNL A   1      36.728  23.593  25.580  1.00  0.00    -0.378 OA
ATOM     16  C   UNL A   1      37.965  24.035  26.126  1.00  0.00     0.195 C 
ENDBRANCH  14  15
ENDBRANCH   9  14
BRANCH  12  17
ATOM     17  C   UNL A   1      33.621  18.443  24.628  1.00  0.00     0.022 A 
ATOM     18  C   UNL A   1      34.241  17.571  23.725  1.00  0.00     0.032 A 
ATOM     19  C   UNL A   1      32.791  17.885  25.609  1.00  0.00     0.032 A 
ATOM     20  C   UNL A   1      34.030  16.209  23.856  1.00  0.00     0.111 A 
ATOM     21  C   UNL A   1      32.627  16.511  25.650  1.00  0.00     0.111 A 
ATOM     22  N   UNL A   1      33.243  15.660  24.804  1.00  0.00    -0.265 NA
ENDBRANCH  12  17
ENDBRANCH   7   8
ENDBRANCH   6   7
ENDBRANCH   3   6
ENDBRANCH   1   2
BRANCH   1  23
ATOM     23  C   UNL A   1      32.244  28.130  25.424  1.00  0.00     0.042 C 
BRANCH  23  24
ATOM     24  C   UNL A   1      33.146  29.343  25.200  1.00  0.00     0.118 C 
BRANCH  24  25
ATOM     25  N   UNL A   1      32.648  30.549  25.847  1.00  0.00    -0.352 N 
ATOM     26  C   UNL A   1      33.142  31.244  26.927  1.00  0.00     0.251 C 
ATOM     27  H   UNL A   1      31.829  30.926  25.451  1.00  0.00     0.163 HD
ATOM     28  O   UNL A   1      32.462  32.136  27.428  1.00  0.00    -0.269 OA
BRANCH  26  29
ATOM     29  C   UNL A   1      34.464  30.904  27.497  1.00  0.00     0.039 A 
ATOM     30  C   UNL A   1      35.408  31.921  27.669  1.00  0.00     0.014 A 
ATOM     31  C   UNL A   1      34.778  29.592  27.859  1.00  0.00     0.014 A 
ATOM     32  C   UNL A   1      36.628  31.638  28.290  1.00  0.00     0.010 A 
ATOM     33  C   UNL A   1      35.964  29.325  28.541  1.00  0.00     0.010 A 
ATOM     34  C   UNL A   1      36.894  30.349  28.780  1.00  0.00    -0.014 A 
BRANCH  34  35
ATOM     35  C   UNL A   1      38.114  30.059  29.581  1.00  0.00     0.031 A 
ATOM     36  C   UNL A   1      39.137  29.077  29.081  1.00  0.00     0.074 A 
ATOM     37  C   UNL A   1      38.257  30.620  30.798  1.00  0.00     0.049 A 
ATOM     38  N   UNL A   1      40.196  28.604  29.686  1.00  0.00    -0.248 NA
ATOM     39  C   UNL A   1      38.924  28.535  27.731  1.00  0.00     0.031 C 
ATOM     40  C   UNL A   1      37.320  31.570  31.405  1.00  0.00     0.029 A 
ATOM     41  N   UNL A   1      39.231  30.465  31.754  1.00  0.00    -0.354 N 
ATOM     42  C   UNL A   1      40.772  27.703  28.797  1.00  0.00     0.074 A 
ATOM     43  C   UNL A   1      39.910  27.657  27.634  1.00  0.00     0.031 C 
ATOM     44  C   UNL A   1      37.774  31.923  32.618  1.00  0.00     0.029 A 
ATOM     45  C   UNL A   1      38.998  31.183  32.905  1.00  0.00     0.049 A 
ATOM     46  H   UNL A   1      40.023  29.893  31.627  1.00  0.00     0.167 HD
ATOM     47  C   UNL A   1      41.921  26.996  28.933  1.00  0.00     0.034 A 
ATOM     48  C   UNL A   1      39.675  31.221  34.070  1.00  0.00     0.034 A 
ATOM     49  C   UNL A   1      42.770  27.057  30.100  1.00  0.00     0.049 A 
ATOM     50  C   UNL A   1      40.913  30.373  34.223  1.00  0.00     0.074 A 
ATOM     51  C   UNL A   1      43.983  26.426  30.316  1.00  0.00     0.029 A 
ATOM     52  N   UNL A   1      42.489  27.777  31.254  1.00  0.00    -0.354 N 
ATOM     53  N   UNL A   1      41.471  29.563  33.353  1.00  0.00    -0.248 NA
ATOM     54  C   UNL A   1      41.612  30.444  35.513  1.00  0.00     0.031 C 
ATOM     55  C   UNL A   1      44.393  26.698  31.625  1.00  0.00     0.029 A 
ATOM     56  C   UNL A   1      43.481  27.568  32.200  1.00  0.00     0.049 A 
ATOM     57  H   UNL A   1      41.700  28.352  31.382  1.00  0.00     0.167 HD
ATOM     58  C   UNL A   1      42.602  29.052  33.983  1.00  0.00     0.074 A 
ATOM     59  C   UNL A   1      42.655  29.655  35.299  1.00  0.00     0.031 C 
ATOM     60  C   UNL A   1      43.516  28.165  33.515  1.00  0.00     0.034 A 
BRANCH  47  61
ATOM     61  C   UNL A   1      42.311  26.073  27.803  1.00  0.00     0.023 A 
ATOM     62  C   UNL A   1      41.862  24.743  27.746  1.00  0.00     0.031 A 
ATOM     63  C   UNL A   1      43.158  26.525  26.774  1.00  0.00     0.131 A 
ATOM     64  C   UNL A   1      42.318  23.891  26.728  1.00  0.00     0.055 A 
ATOM     65  C   UNL A   1      43.540  25.697  25.716  1.00  0.00     0.041 A 
ATOM     66  F   UNL A   1      43.637  27.778  26.784  1.00  0.00    -0.206 F 
ATOM     67  C   UNL A   1      43.132  24.366  25.697  1.00  0.00     0.022 A 
BRANCH  64  68
ATOM     68  S   UNL A   1      41.951  22.119  26.854  1.00  0.00     0.124 S 
ATOM     69  O   UNL A   1      42.489  21.617  25.592  1.00  0.00    -0.237 OA
ATOM     70  O   UNL A   1      42.678  21.733  28.058  1.00  0.00    -0.237 OA
ATOM     71  O   UNL A   1      40.494  22.077  26.962  1.00  0.00    -0.744 OA
ENDBRANCH  64  68
ENDBRANCH  47  61
BRANCH  48  72
ATOM     72  C   UNL A   1      39.186  32.063  35.202  1.00  0.00     0.023 A 
ATOM     73  C   UNL A   1      39.640  33.381  35.371  1.00  0.00     0.031 A 
ATOM     74  C   UNL A   1      38.294  31.546  36.158  1.00  0.00     0.131 A 
ATOM     75  C   UNL A   1      39.237  34.120  36.494  1.00  0.00     0.055 A 
ATOM     76  C   UNL A   1      37.851  32.306  37.242  1.00  0.00     0.041 A 
ATOM     77  F   UNL A   1      37.829  30.291  36.044  1.00  0.00    -0.206 F 
ATOM     78  C   UNL A   1      38.335  33.597  37.422  1.00  0.00     0.022 A 
BRANCH  75  79
ATOM     79  S   UNL A   1      39.987  35.748  36.773  1.00  0.00     0.124 S 
ATOM     80  O   UNL A   1      41.392  35.401  36.955  1.00  0.00    -0.237 OA
ATOM     81  O   UNL A   1      39.655  36.450  35.538  1.00  0.00    -0.237 OA
ATOM     82  O   UNL A   1      39.305  36.237  37.969  1.00  0.00    -0.744 OA
ENDBRANCH  75  79
ENDBRANCH  48  72
BRANCH  60  83
ATOM     83  C   UNL A   1      44.677  27.826  34.420  1.00  0.00     0.023 A 
ATOM     84  C   UNL A   1      44.656  26.700  35.261  1.00  0.00     0.031 A 
ATOM     85  C   UNL A   1      45.825  28.638  34.430  1.00  0.00     0.131 A 
ATOM     86  C   UNL A   1      45.744  26.440  36.108  1.00  0.00     0.055 A 
ATOM     87  C   UNL A   1      46.929  28.340  35.230  1.00  0.00     0.041 A 
ATOM     88  F   UNL A   1      45.898  29.728  33.649  1.00  0.00    -0.206 F 
ATOM     89  C   UNL A   1      46.888  27.242  36.083  1.00  0.00     0.022 A 
BRANCH  86  90
ATOM     90  S   UNL A   1      45.619  25.077  37.298  1.00  0.00     0.124 S 
ATOM     91  O   UNL A   1      47.020  24.732  37.513  1.00  0.00    -0.237 OA
ATOM     92  O   UNL A   1      44.936  25.706  38.423  1.00  0.00    -0.237 OA
ATOM     93  O   UNL A   1      44.835  24.070  36.585  1.00  0.00    -0.744 OA
ENDBRANCH  86  90
ENDBRANCH  60  83
ENDBRANCH  34  35
ENDBRANCH  26  29
ENDBRANCH  24  25
ENDBRANCH  23  24
ENDBRANCH   1  23
TORSDOF 18
ENDMDL
