MODEL 1
REMARK VINA RESULT:     -12.6      0.000      0.000
REMARK SMILES O=C(NCCCNC(=O)c1ccccc1Nc1nc(Cl)nc(Nc2ccc(N3CCOCC3=O)cc2)n1)c1ccc(-c2c3nc(c(-c4cc(S(=O)(=O)[O-])ccc4F)c4ccc([nH]4)c(-c4cc(S(=O)(=O)[O-])ccc4F)c4nc(c(-c5cc(S(=O)(=O)[O-])ccc5F)c5ccc2[nH]5)C=C4)C=C3)cc1
REMARK SMILES IDX 6 1 5 2 4 3 3 4 1 5 2 6 38 8 39 9 100 10 40 11 99 12 41 13
REMARK SMILES IDX 42 14 43 15 93 16 44 17 98 18 92 19 94 20 45 21 97 22 91 23
REMARK SMILES IDX 90 24 46 26 78 27 58 28 77 29 59 30 62 31 76 32 95 33 60 34
REMARK SMILES IDX 61 35 75 37 96 38 63 39 47 40 48 41 56 42 49 43 55 44 57 45
REMARK SMILES IDX 54 46 50 47 51 48 52 49 53 50 79 51 80 52 88 53 81 54 87 55
REMARK SMILES IDX 89 56 86 57 82 58 83 59 84 60 85 61 64 62 65 63 73 64 66 65
REMARK SMILES IDX 72 66 74 67 71 68 67 69 68 70 69 71 70 72 7 73 8 74 9 76
REMARK SMILES IDX 10 77 11 78 15 79 12 80 14 81 13 82 16 83 17 85 18 86 37 87
REMARK SMILES IDX 19 88 22 89 20 90 21 91 23 92 24 94 25 95 36 96 26 97 35 98
REMARK SMILES IDX 27 99 28 100 29 101 33 102 30 103 32 104 34 105 31 106
REMARK H PARENT 3 7 94 25 62 36 7 75 16 84 23 93
REMARK Flexibility Score: inf
ROOT
ATOM      1  C   UNL A   1      33.974  29.774  26.787  1.00  0.00     0.118 C 
ENDROOT
BRANCH   1   2
ATOM      2  C   UNL A   1      34.027  31.249  27.159  1.00  0.00     0.042 C 
BRANCH   2   3
ATOM      3  C   UNL A   1      32.733  31.810  27.728  1.00  0.00     0.118 C 
BRANCH   3   4
ATOM      4  N   UNL A   1      32.718  33.265  27.806  1.00  0.00    -0.352 N 
ATOM      5  O   UNL A   1      33.237  35.322  28.553  1.00  0.00    -0.269 OA
ATOM      6  C   UNL A   1      33.524  34.126  28.510  1.00  0.00     0.251 C 
ATOM      7  H   UNL A   1      32.018  33.701  27.267  1.00  0.00     0.163 HD
BRANCH   6   8
ATOM      8  C   UNL A   1      34.715  33.626  29.230  1.00  0.00     0.039 A 
ATOM      9  C   UNL A   1      36.004  33.980  28.826  1.00  0.00     0.014 A 
ATOM     10  C   UNL A   1      34.537  32.802  30.346  1.00  0.00     0.014 A 
ATOM     11  C   UNL A   1      37.110  33.390  29.430  1.00  0.00     0.010 A 
ATOM     12  C   UNL A   1      35.650  32.287  31.013  1.00  0.00     0.010 A 
ATOM     13  C   UNL A   1      36.947  32.550  30.541  1.00  0.00    -0.014 A 
BRANCH  13  14
ATOM     14  C   UNL A   1      38.135  31.989  31.233  1.00  0.00     0.031 A 
ATOM     15  C   UNL A   1      38.950  30.900  30.595  1.00  0.00     0.074 A 
ATOM     16  C   UNL A   1      38.461  32.450  32.456  1.00  0.00     0.049 A 
ATOM     17  N   UNL A   1      39.947  30.212  31.092  1.00  0.00    -0.248 NA
ATOM     18  C   UNL A   1      38.584  30.526  29.222  1.00  0.00     0.031 C 
ATOM     19  C   UNL A   1      37.749  33.512  33.170  1.00  0.00     0.029 A 
ATOM     20  N   UNL A   1      39.458  32.079  33.322  1.00  0.00    -0.354 N 
ATOM     21  C   UNL A   1      40.313  29.304  30.103  1.00  0.00     0.074 A 
ATOM     22  C   UNL A   1      39.404  29.511  28.994  1.00  0.00     0.031 C 
ATOM     23  C   UNL A   1      38.334  33.711  34.360  1.00  0.00     0.029 A 
ATOM     24  C   UNL A   1      39.408  32.738  34.527  1.00  0.00     0.049 A 
ATOM     25  H   UNL A   1      40.142  31.405  33.102  1.00  0.00     0.167 HD
ATOM     26  C   UNL A   1      41.316  28.389  30.124  1.00  0.00     0.034 A 
ATOM     27  C   UNL A   1      40.106  32.550  35.664  1.00  0.00     0.034 A 
ATOM     28  C   UNL A   1      42.201  28.200  31.251  1.00  0.00     0.049 A 
ATOM     29  C   UNL A   1      41.164  31.484  35.697  1.00  0.00     0.074 A 
ATOM     30  C   UNL A   1      43.273  27.331  31.371  1.00  0.00     0.029 A 
ATOM     31  N   UNL A   1      42.102  28.873  32.464  1.00  0.00    -0.354 N 
ATOM     32  N   UNL A   1      41.512  30.640  34.753  1.00  0.00    -0.248 NA
ATOM     33  C   UNL A   1      41.928  31.344  36.943  1.00  0.00     0.031 C 
ATOM     34  C   UNL A   1      43.764  27.417  32.678  1.00  0.00     0.029 A 
ATOM     35  C   UNL A   1      43.066  28.409  33.348  1.00  0.00     0.049 A 
ATOM     36  H   UNL A   1      41.445  29.577  32.666  1.00  0.00     0.167 HD
ATOM     37  C   UNL A   1      42.556  29.888  35.281  1.00  0.00     0.074 A 
ATOM     38  C   UNL A   1      42.779  30.377  36.627  1.00  0.00     0.031 C 
ATOM     39  C   UNL A   1      43.274  28.896  34.695  1.00  0.00     0.034 A 
BRANCH  26  40
ATOM     40  C   UNL A   1      41.458  27.488  28.918  1.00  0.00     0.023 A 
ATOM     41  C   UNL A   1      42.476  27.676  27.965  1.00  0.00     0.031 A 
ATOM     42  C   UNL A   1      40.527  26.460  28.684  1.00  0.00     0.131 A 
ATOM     43  C   UNL A   1      42.474  26.926  26.779  1.00  0.00     0.055 A 
ATOM     44  C   UNL A   1      40.590  25.649  27.547  1.00  0.00     0.041 A 
ATOM     45  F   UNL A   1      39.521  26.238  29.544  1.00  0.00    -0.206 F 
ATOM     46  C   UNL A   1      41.553  25.896  26.575  1.00  0.00     0.022 A 
BRANCH  43  47
ATOM     47  S   UNL A   1      43.566  27.448  25.426  1.00  0.00     0.124 S 
ATOM     48  O   UNL A   1      44.350  26.237  25.193  1.00  0.00    -0.237 OA
ATOM     49  O   UNL A   1      42.619  27.806  24.377  1.00  0.00    -0.237 OA
ATOM     50  O   UNL A   1      44.315  28.563  26.000  1.00  0.00    -0.744 OA
ENDBRANCH  43  47
ENDBRANCH  26  40
BRANCH  27  51
ATOM     51  C   UNL A   1      39.770  33.359  36.868  1.00  0.00     0.023 A 
ATOM     52  C   UNL A   1      40.469  34.534  37.177  1.00  0.00     0.031 A 
ATOM     53  C   UNL A   1      38.710  32.976  37.712  1.00  0.00     0.131 A 
ATOM     54  C   UNL A   1      40.108  35.278  38.312  1.00  0.00     0.055 A 
ATOM     55  C   UNL A   1      38.324  33.745  38.808  1.00  0.00     0.041 A 
ATOM     56  F   UNL A   1      38.003  31.863  37.452  1.00  0.00    -0.206 F 
ATOM     57  C   UNL A   1      39.030  34.902  39.119  1.00  0.00     0.022 A 
BRANCH  54  58
ATOM     58  S   UNL A   1      41.100  36.733  38.748  1.00  0.00     0.124 S 
ATOM     59  O   UNL A   1      41.976  36.196  39.782  1.00  0.00    -0.237 OA
ATOM     60  O   UNL A   1      41.733  37.061  37.475  1.00  0.00    -0.237 OA
ATOM     61  O   UNL A   1      40.104  37.697  39.211  1.00  0.00    -0.744 OA
ENDBRANCH  54  58
ENDBRANCH  27  51
BRANCH  39  62
ATOM     62  C   UNL A   1      44.419  28.309  35.484  1.00  0.00     0.023 A 
ATOM     63  C   UNL A   1      44.276  27.150  36.265  1.00  0.00     0.031 A 
ATOM     64  C   UNL A   1      45.689  28.913  35.417  1.00  0.00     0.131 A 
ATOM     65  C   UNL A   1      45.380  26.646  36.971  1.00  0.00     0.055 A 
ATOM     66  C   UNL A   1      46.794  28.375  36.077  1.00  0.00     0.041 A 
ATOM     67  F   UNL A   1      45.878  30.026  34.690  1.00  0.00    -0.206 F 
ATOM     68  C   UNL A   1      46.642  27.239  36.864  1.00  0.00     0.022 A 
BRANCH  65  69
ATOM     69  S   UNL A   1      45.142  25.230  38.080  1.00  0.00     0.124 S 
ATOM     70  O   UNL A   1      44.050  24.516  37.426  1.00  0.00    -0.237 OA
ATOM     71  O   UNL A   1      46.446  24.577  38.039  1.00  0.00    -0.237 OA
ATOM     72  O   UNL A   1      44.800  25.848  39.359  1.00  0.00    -0.744 OA
ENDBRANCH  65  69
ENDBRANCH  39  62
ENDBRANCH  13  14
ENDBRANCH   6   8
ENDBRANCH   3   4
ENDBRANCH   2   3
ENDBRANCH   1   2
BRANCH   1  73
ATOM     73  N   UNL A   1      33.056  29.003  27.616  1.00  0.00    -0.352 N 
ATOM     74  C   UNL A   1      31.922  28.316  27.268  1.00  0.00     0.253 C 
ATOM     75  H   UNL A   1      33.285  28.971  28.573  1.00  0.00     0.163 HD
ATOM     76  O   UNL A   1      31.242  27.784  28.142  1.00  0.00    -0.269 OA
BRANCH  74  77
ATOM     77  C   UNL A   1      31.493  28.208  25.856  1.00  0.00     0.063 A 
ATOM     78  C   UNL A   1      31.184  29.412  25.205  1.00  0.00     0.016 A 
ATOM     79  C   UNL A   1      31.340  26.972  25.196  1.00  0.00     0.054 A 
ATOM     80  C   UNL A   1      30.778  29.406  23.872  1.00  0.00     0.001 A 
ATOM     81  C   UNL A   1      30.989  27.000  23.836  1.00  0.00     0.027 A 
ATOM     82  C   UNL A   1      30.697  28.201  23.183  1.00  0.00     0.002 A 
BRANCH  79  83
ATOM     83  N   UNL A   1      31.546  25.754  25.859  1.00  0.00    -0.323 N 
ATOM     84  H   UNL A   1      31.111  25.690  26.740  1.00  0.00     0.170 HD
BRANCH  83  85
ATOM     85  C   UNL A   1      32.259  24.624  25.482  1.00  0.00     0.233 A 
ATOM     86  N   UNL A   1      31.702  23.428  25.546  1.00  0.00    -0.182 NA
ATOM     87  N   UNL A   1      33.497  24.845  25.056  1.00  0.00    -0.176 NA
ATOM     88  C   UNL A   1      32.485  22.452  25.121  1.00  0.00     0.228 A 
ATOM     89  C   UNL A   1      34.218  23.776  24.737  1.00  0.00     0.233 A 
ATOM     90  Cl  UNL A   1      31.827  20.877  25.184  1.00  0.00    -0.041 Cl
ATOM     91  N   UNL A   1      33.741  22.542  24.726  1.00  0.00    -0.182 NA
BRANCH  89  92
ATOM     92  N   UNL A   1      35.575  24.016  24.551  1.00  0.00    -0.324 N 
ATOM     93  H   UNL A   1      35.795  24.801  24.000  1.00  0.00     0.170 HD
BRANCH  92  94
ATOM     94  C   UNL A   1      36.665  23.299  25.040  1.00  0.00     0.041 A 
ATOM     95  C   UNL A   1      36.960  22.040  24.502  1.00  0.00     0.028 A 
ATOM     96  C   UNL A   1      37.536  23.840  25.987  1.00  0.00     0.028 A 
ATOM     97  C   UNL A   1      38.106  21.342  24.896  1.00  0.00     0.028 A 
ATOM     98  C   UNL A   1      38.646  23.119  26.430  1.00  0.00     0.028 A 
ATOM     99  C   UNL A   1      38.949  21.872  25.877  1.00  0.00     0.044 A 
BRANCH  99 100
ATOM    100  N   UNL A   1      40.129  21.180  26.270  1.00  0.00    -0.308 N 
ATOM    101  C   UNL A   1      41.047  21.899  27.159  1.00  0.00     0.154 C 
ATOM    102  C   UNL A   1      40.227  19.794  26.104  1.00  0.00     0.253 C 
ATOM    103  C   UNL A   1      42.382  21.188  27.344  1.00  0.00     0.183 C 
ATOM    104  C   UNL A   1      41.466  19.138  26.731  1.00  0.00     0.260 C 
ATOM    105  O   UNL A   1      39.455  19.116  25.423  1.00  0.00    -0.272 OA
ATOM    106  O   UNL A   1      42.153  19.843  27.752  1.00  0.00    -0.370 OA
ENDBRANCH  99 100
ENDBRANCH  92  94
ENDBRANCH  89  92
ENDBRANCH  83  85
ENDBRANCH  79  83
ENDBRANCH  74  77
ENDBRANCH   1  73
TORSDOF 18
ENDMDL
MODEL 2
REMARK VINA RESULT:     -12.1      1.860      2.200
REMARK SMILES O=C(NCCCNC(=O)c1ccccc1Nc1nc(Cl)nc(Nc2ccc(N3CCOCC3=O)cc2)n1)c1ccc(-c2c3nc(c(-c4cc(S(=O)(=O)[O-])ccc4F)c4ccc([nH]4)c(-c4cc(S(=O)(=O)[O-])ccc4F)c4nc(c(-c5cc(S(=O)(=O)[O-])ccc5F)c5ccc2[nH]5)C=C4)C=C3)cc1
REMARK SMILES IDX 6 1 5 2 4 3 3 4 1 5 2 6 38 8 39 9 100 10 40 11 99 12 41 13
REMARK SMILES IDX 42 14 43 15 93 16 44 17 98 18 92 19 94 20 45 21 97 22 91 23
REMARK SMILES IDX 90 24 46 26 78 27 58 28 77 29 59 30 62 31 76 32 95 33 60 34
REMARK SMILES IDX 61 35 75 37 96 38 63 39 47 40 48 41 56 42 49 43 55 44 57 45
REMARK SMILES IDX 54 46 50 47 51 48 52 49 53 50 79 51 80 52 88 53 81 54 87 55
REMARK SMILES IDX 89 56 86 57 82 58 83 59 84 60 85 61 64 62 65 63 73 64 66 65
REMARK SMILES IDX 72 66 74 67 71 68 67 69 68 70 69 71 70 72 7 73 8 74 9 76
REMARK SMILES IDX 10 77 11 78 15 79 12 80 14 81 13 82 16 83 17 85 18 86 37 87
REMARK SMILES IDX 19 88 22 89 20 90 21 91 23 92 24 94 25 95 36 96 26 97 35 98
REMARK SMILES IDX 27 99 28 100 29 101 33 102 30 103 32 104 34 105 31 106
REMARK H PARENT 3 7 94 25 62 36 7 75 16 84 23 93
REMARK Flexibility Score: inf
ROOT
ATOM      1  C   UNL A   1      33.942  29.836  26.824  1.00  0.00     0.118 C 
ENDROOT
BRANCH   1   2
ATOM      2  C   UNL A   1      33.993  31.322  27.146  1.00  0.00     0.042 C 
BRANCH   2   3
ATOM      3  C   UNL A   1      32.730  31.880  27.786  1.00  0.00     0.118 C 
BRANCH   3   4
ATOM      4  N   UNL A   1      32.690  33.336  27.814  1.00  0.00    -0.352 N 
ATOM      5  O   UNL A   1      33.167  35.426  28.496  1.00  0.00    -0.269 OA
ATOM      6  C   UNL A   1      33.475  34.235  28.496  1.00  0.00     0.251 C 
ATOM      7  H   UNL A   1      31.987  33.742  27.255  1.00  0.00     0.163 HD
BRANCH   6   8
ATOM      8  C   UNL A   1      34.667  33.779  29.242  1.00  0.00     0.039 A 
ATOM      9  C   UNL A   1      35.944  34.238  28.912  1.00  0.00     0.014 A 
ATOM     10  C   UNL A   1      34.501  32.891  30.309  1.00  0.00     0.014 A 
ATOM     11  C   UNL A   1      37.062  33.693  29.535  1.00  0.00     0.010 A 
ATOM     12  C   UNL A   1      35.619  32.418  31.000  1.00  0.00     0.010 A 
ATOM     13  C   UNL A   1      36.912  32.790  30.598  1.00  0.00    -0.014 A 
BRANCH  13  14
ATOM     14  C   UNL A   1      38.107  32.276  31.313  1.00  0.00     0.031 A 
ATOM     15  C   UNL A   1      38.958  31.195  30.708  1.00  0.00     0.074 A 
ATOM     16  C   UNL A   1      38.408  32.771  32.530  1.00  0.00     0.049 A 
ATOM     17  N   UNL A   1      39.967  30.545  31.230  1.00  0.00    -0.248 NA
ATOM     18  C   UNL A   1      38.616  30.782  29.340  1.00  0.00     0.031 C 
ATOM     19  C   UNL A   1      37.661  33.829  33.213  1.00  0.00     0.029 A 
ATOM     20  N   UNL A   1      39.405  32.445  33.413  1.00  0.00    -0.354 N 
ATOM     21  C   UNL A   1      40.367  29.626  30.265  1.00  0.00     0.074 A 
ATOM     22  C   UNL A   1      39.465  29.784  29.142  1.00  0.00     0.031 C 
ATOM     23  C   UNL A   1      38.228  34.069  34.404  1.00  0.00     0.029 A 
ATOM     24  C   UNL A   1      39.325  33.128  34.603  1.00  0.00     0.049 A 
ATOM     25  H   UNL A   1      40.109  31.785  33.215  1.00  0.00     0.167 HD
ATOM     26  C   UNL A   1      41.393  28.738  30.316  1.00  0.00     0.034 A 
ATOM     27  C   UNL A   1      40.016  32.983  35.751  1.00  0.00     0.034 A 
ATOM     28  C   UNL A   1      42.270  28.596  31.455  1.00  0.00     0.049 A 
ATOM     29  C   UNL A   1      41.101  31.946  35.818  1.00  0.00     0.074 A 
ATOM     30  C   UNL A   1      43.363  27.759  31.605  1.00  0.00     0.029 A 
ATOM     31  N   UNL A   1      42.141  29.293  32.653  1.00  0.00    -0.354 N 
ATOM     32  N   UNL A   1      41.480  31.092  34.896  1.00  0.00    -0.248 NA
ATOM     33  C   UNL A   1      41.854  31.853  37.074  1.00  0.00     0.031 C 
ATOM     34  C   UNL A   1      43.839  27.886  32.914  1.00  0.00     0.029 A 
ATOM     35  C   UNL A   1      43.107  28.873  33.556  1.00  0.00     0.049 A 
ATOM     36  H   UNL A   1      41.464  29.983  32.833  1.00  0.00     0.167 HD
ATOM     37  C   UNL A   1      42.538  30.379  35.450  1.00  0.00     0.074 A 
ATOM     38  C   UNL A   1      42.734  30.902  36.788  1.00  0.00     0.031 C 
ATOM     39  C   UNL A   1      43.288  29.394  34.894  1.00  0.00     0.034 A 
BRANCH  26  40
ATOM     40  C   UNL A   1      41.572  27.815  29.130  1.00  0.00     0.023 A 
ATOM     41  C   UNL A   1      42.568  28.033  28.161  1.00  0.00     0.031 A 
ATOM     42  C   UNL A   1      40.695  26.733  28.933  1.00  0.00     0.131 A 
ATOM     43  C   UNL A   1      42.595  27.253  26.995  1.00  0.00     0.055 A 
ATOM     44  C   UNL A   1      40.790  25.898  27.816  1.00  0.00     0.041 A 
ATOM     45  F   UNL A   1      39.711  26.479  29.810  1.00  0.00    -0.206 F 
ATOM     46  C   UNL A   1      41.729  26.170  26.827  1.00  0.00     0.022 A 
BRANCH  43  47
ATOM     47  S   UNL A   1      43.644  27.799  25.617  1.00  0.00     0.124 S 
ATOM     48  O   UNL A   1      44.263  28.999  26.173  1.00  0.00    -0.237 OA
ATOM     49  O   UNL A   1      44.528  26.656  25.423  1.00  0.00    -0.237 OA
ATOM     50  O   UNL A   1      42.691  28.044  24.536  1.00  0.00    -0.744 OA
ENDBRANCH  43  47
ENDBRANCH  26  40
BRANCH  27  51
ATOM     51  C   UNL A   1      39.646  33.809  36.933  1.00  0.00     0.023 A 
ATOM     52  C   UNL A   1      38.964  33.258  38.027  1.00  0.00     0.031 A 
ATOM     53  C   UNL A   1      40.008  35.169  36.994  1.00  0.00     0.131 A 
ATOM     54  C   UNL A   1      38.651  34.067  39.130  1.00  0.00     0.055 A 
ATOM     55  C   UNL A   1      39.739  35.955  38.114  1.00  0.00     0.041 A 
ATOM     56  F   UNL A   1      40.673  35.741  35.976  1.00  0.00    -0.206 F 
ATOM     57  C   UNL A   1      39.049  35.406  39.189  1.00  0.00     0.022 A 
BRANCH  54  58
ATOM     58  S   UNL A   1      37.671  33.354  40.480  1.00  0.00     0.124 S 
ATOM     59  O   UNL A   1      36.532  32.798  39.759  1.00  0.00    -0.237 OA
ATOM     60  O   UNL A   1      38.603  32.389  41.054  1.00  0.00    -0.237 OA
ATOM     61  O   UNL A   1      37.372  34.506  41.328  1.00  0.00    -0.744 OA
ENDBRANCH  54  58
ENDBRANCH  27  51
BRANCH  39  62
ATOM     62  C   UNL A   1      44.440  28.855  35.707  1.00  0.00     0.023 A 
ATOM     63  C   UNL A   1      45.691  29.493  35.751  1.00  0.00     0.031 A 
ATOM     64  C   UNL A   1      44.259  27.694  36.483  1.00  0.00     0.131 A 
ATOM     65  C   UNL A   1      46.722  28.950  36.533  1.00  0.00     0.055 A 
ATOM     66  C   UNL A   1      45.271  27.190  37.300  1.00  0.00     0.041 A 
ATOM     67  F   UNL A   1      43.085  27.042  36.471  1.00  0.00    -0.206 F 
ATOM     68  C   UNL A   1      46.513  27.815  37.324  1.00  0.00     0.022 A 
BRANCH  65  69
ATOM     69  S   UNL A   1      48.368  29.711  36.469  1.00  0.00     0.124 S 
ATOM     70  O   UNL A   1      48.107  31.039  37.014  1.00  0.00    -0.237 OA
ATOM     71  O   UNL A   1      49.159  28.820  37.311  1.00  0.00    -0.237 OA
ATOM     72  O   UNL A   1      48.706  29.680  35.047  1.00  0.00    -0.744 OA
ENDBRANCH  65  69
ENDBRANCH  39  62
ENDBRANCH  13  14
ENDBRANCH   6   8
ENDBRANCH   3   4
ENDBRANCH   2   3
ENDBRANCH   1   2
BRANCH   1  73
ATOM     73  N   UNL A   1      32.963  29.106  27.620  1.00  0.00    -0.352 N 
ATOM     74  C   UNL A   1      31.875  28.373  27.221  1.00  0.00     0.253 C 
ATOM     75  H   UNL A   1      33.105  29.146  28.593  1.00  0.00     0.163 HD
ATOM     76  O   UNL A   1      31.126  27.890  28.066  1.00  0.00    -0.269 OA
BRANCH  74  77
ATOM     77  C   UNL A   1      31.578  28.159  25.787  1.00  0.00     0.063 A 
ATOM     78  C   UNL A   1      31.302  29.307  25.029  1.00  0.00     0.016 A 
ATOM     79  C   UNL A   1      31.513  26.877  25.204  1.00  0.00     0.054 A 
ATOM     80  C   UNL A   1      31.019  29.200  23.669  1.00  0.00     0.001 A 
ATOM     81  C   UNL A   1      31.285  26.804  23.820  1.00  0.00     0.027 A 
ATOM     82  C   UNL A   1      31.028  27.949  23.062  1.00  0.00     0.002 A 
BRANCH  79  83
ATOM     83  N   UNL A   1      31.684  25.713  25.966  1.00  0.00    -0.323 N 
ATOM     84  H   UNL A   1      31.076  25.635  26.736  1.00  0.00     0.170 HD
BRANCH  83  85
ATOM     85  C   UNL A   1      32.567  24.652  25.817  1.00  0.00     0.233 A 
ATOM     86  N   UNL A   1      32.122  23.409  25.786  1.00  0.00    -0.182 NA
ATOM     87  N   UNL A   1      33.847  24.986  25.700  1.00  0.00    -0.176 NA
ATOM     88  C   UNL A   1      33.070  22.508  25.602  1.00  0.00     0.228 A 
ATOM     89  C   UNL A   1      34.718  23.987  25.607  1.00  0.00     0.233 A 
ATOM     90  Cl  UNL A   1      32.562  20.877  25.559  1.00  0.00    -0.041 Cl
ATOM     91  N   UNL A   1      34.372  22.713  25.524  1.00  0.00    -0.182 NA
BRANCH  89  92
ATOM     92  N   UNL A   1      36.051  24.355  25.751  1.00  0.00    -0.324 N 
ATOM     93  H   UNL A   1      36.229  25.322  25.730  1.00  0.00     0.170 HD
BRANCH  92  94
ATOM     94  C   UNL A   1      37.170  23.541  25.921  1.00  0.00     0.041 A 
ATOM     95  C   UNL A   1      37.237  22.312  25.253  1.00  0.00     0.028 A 
ATOM     96  C   UNL A   1      38.274  23.958  26.666  1.00  0.00     0.028 A 
ATOM     97  C   UNL A   1      38.389  21.522  25.320  1.00  0.00     0.028 A 
ATOM     98  C   UNL A   1      39.401  23.142  26.787  1.00  0.00     0.028 A 
ATOM     99  C   UNL A   1      39.474  21.925  26.104  1.00  0.00     0.044 A 
BRANCH  99 100
ATOM    100  N   UNL A   1      40.658  21.139  26.161  1.00  0.00    -0.308 N 
ATOM    101  C   UNL A   1      40.482  19.683  26.149  1.00  0.00     0.154 C 
ATOM    102  C   UNL A   1      41.905  21.714  25.893  1.00  0.00     0.253 C 
ATOM    103  C   UNL A   1      41.767  18.921  26.445  1.00  0.00     0.183 C 
ATOM    104  C   UNL A   1      43.082  20.732  25.805  1.00  0.00     0.260 C 
ATOM    105  O   UNL A   1      42.115  22.927  25.827  1.00  0.00    -0.272 OA
ATOM    106  O   UNL A   1      42.797  19.363  25.565  1.00  0.00    -0.370 OA
ENDBRANCH  99 100
ENDBRANCH  92  94
ENDBRANCH  89  92
ENDBRANCH  83  85
ENDBRANCH  79  83
ENDBRANCH  74  77
ENDBRANCH   1  73
TORSDOF 18
ENDMDL
MODEL 3
REMARK VINA RESULT:     -12.1      4.795      7.572
REMARK SMILES O=C(NCCCNC(=O)c1ccccc1Nc1nc(Cl)nc(Nc2ccc(N3CCOCC3=O)cc2)n1)c1ccc(-c2c3nc(c(-c4cc(S(=O)(=O)[O-])ccc4F)c4ccc([nH]4)c(-c4cc(S(=O)(=O)[O-])ccc4F)c4nc(c(-c5cc(S(=O)(=O)[O-])ccc5F)c5ccc2[nH]5)C=C4)C=C3)cc1
REMARK SMILES IDX 6 1 5 2 4 3 3 4 1 5 2 6 38 8 39 9 100 10 40 11 99 12 41 13
REMARK SMILES IDX 42 14 43 15 93 16 44 17 98 18 92 19 94 20 45 21 97 22 91 23
REMARK SMILES IDX 90 24 46 26 78 27 58 28 77 29 59 30 62 31 76 32 95 33 60 34
REMARK SMILES IDX 61 35 75 37 96 38 63 39 47 40 48 41 56 42 49 43 55 44 57 45
REMARK SMILES IDX 54 46 50 47 51 48 52 49 53 50 79 51 80 52 88 53 81 54 87 55
REMARK SMILES IDX 89 56 86 57 82 58 83 59 84 60 85 61 64 62 65 63 73 64 66 65
REMARK SMILES IDX 72 66 74 67 71 68 67 69 68 70 69 71 70 72 7 73 8 74 9 76
REMARK SMILES IDX 10 77 11 78 15 79 12 80 14 81 13 82 16 83 17 85 18 86 37 87
REMARK SMILES IDX 19 88 22 89 20 90 21 91 23 92 24 94 25 95 36 96 26 97 35 98
REMARK SMILES IDX 27 99 28 100 29 101 33 102 30 103 32 104 34 105 31 106
REMARK H PARENT 3 7 94 25 62 36 7 75 16 84 23 93
REMARK Flexibility Score: inf
ROOT
ATOM      1  C   UNL A   1      35.052  33.489  33.957  1.00  0.00     0.118 C 
ENDROOT
BRANCH   1   2
ATOM      2  C   UNL A   1      34.414  33.218  32.602  1.00  0.00     0.042 C 
BRANCH   2   3
ATOM      3  C   UNL A   1      34.549  34.352  31.596  1.00  0.00     0.118 C 
BRANCH   3   4
ATOM      4  N   UNL A   1      34.139  33.980  30.248  1.00  0.00    -0.352 N 
ATOM      5  O   UNL A   1      34.344  33.261  28.127  1.00  0.00    -0.269 OA
ATOM      6  C   UNL A   1      34.835  33.338  29.252  1.00  0.00     0.251 C 
ATOM      7  H   UNL A   1      33.216  34.230  30.012  1.00  0.00     0.163 HD
BRANCH   6   8
ATOM      8  C   UNL A   1      36.171  32.763  29.517  1.00  0.00     0.039 A 
ATOM      9  C   UNL A   1      36.311  31.478  30.048  1.00  0.00     0.014 A 
ATOM     10  C   UNL A   1      37.308  33.515  29.208  1.00  0.00     0.014 A 
ATOM     11  C   UNL A   1      37.568  31.011  30.418  1.00  0.00     0.010 A 
ATOM     12  C   UNL A   1      38.577  33.004  29.490  1.00  0.00     0.010 A 
ATOM     13  C   UNL A   1      38.717  31.760  30.127  1.00  0.00    -0.014 A 
BRANCH  13  14
ATOM     14  C   UNL A   1      40.062  31.219  30.449  1.00  0.00     0.031 A 
ATOM     15  C   UNL A   1      40.639  30.079  29.658  1.00  0.00     0.074 A 
ATOM     16  C   UNL A   1      40.751  31.744  31.480  1.00  0.00     0.049 A 
ATOM     17  N   UNL A   1      41.742  29.404  29.862  1.00  0.00    -0.248 NA
ATOM     18  C   UNL A   1      39.865  29.632  28.492  1.00  0.00     0.031 C 
ATOM     19  C   UNL A   1      40.296  32.859  32.313  1.00  0.00     0.029 A 
ATOM     20  N   UNL A   1      41.969  31.406  32.014  1.00  0.00    -0.354 N 
ATOM     21  C   UNL A   1      41.783  28.433  28.866  1.00  0.00     0.074 A 
ATOM     22  C   UNL A   1      40.574  28.591  28.083  1.00  0.00     0.031 C 
ATOM     23  C   UNL A   1      41.222  33.117  33.247  1.00  0.00     0.029 A 
ATOM     24  C   UNL A   1      42.295  32.135  33.132  1.00  0.00     0.049 A 
ATOM     25  H   UNL A   1      42.551  30.708  31.634  1.00  0.00     0.167 HD
ATOM     26  C   UNL A   1      42.743  27.503  28.631  1.00  0.00     0.034 A 
ATOM     27  C   UNL A   1      43.312  32.001  34.006  1.00  0.00     0.034 A 
ATOM     28  C   UNL A   1      43.935  27.363  29.437  1.00  0.00     0.049 A 
ATOM     29  C   UNL A   1      44.329  30.920  33.774  1.00  0.00     0.074 A 
ATOM     30  C   UNL A   1      44.992  26.484  29.271  1.00  0.00     0.029 A 
ATOM     31  N   UNL A   1      44.218  28.108  30.577  1.00  0.00    -0.354 N 
ATOM     32  N   UNL A   1      44.367  30.017  32.823  1.00  0.00    -0.248 NA
ATOM     33  C   UNL A   1      45.442  30.840  34.728  1.00  0.00     0.031 C 
ATOM     34  C   UNL A   1      45.865  26.637  30.353  1.00  0.00     0.029 A 
ATOM     35  C   UNL A   1      45.409  27.679  31.144  1.00  0.00     0.049 A 
ATOM     36  H   UNL A   1      43.655  28.834  30.929  1.00  0.00     0.167 HD
ATOM     37  C   UNL A   1      45.524  29.278  33.045  1.00  0.00     0.074 A 
ATOM     38  C   UNL A   1      46.155  29.840  34.223  1.00  0.00     0.031 C 
ATOM     39  C   UNL A   1      46.025  28.239  32.327  1.00  0.00     0.034 A 
BRANCH  26  40
ATOM     40  C   UNL A   1      42.504  26.530  27.497  1.00  0.00     0.023 A 
ATOM     41  C   UNL A   1      41.857  25.297  27.698  1.00  0.00     0.031 A 
ATOM     42  C   UNL A   1      42.983  26.812  26.205  1.00  0.00     0.131 A 
ATOM     43  C   UNL A   1      41.802  24.355  26.659  1.00  0.00     0.055 A 
ATOM     44  C   UNL A   1      42.837  25.908  25.148  1.00  0.00     0.041 A 
ATOM     45  F   UNL A   1      43.626  27.962  25.948  1.00  0.00    -0.206 F 
ATOM     46  C   UNL A   1      42.265  24.662  25.378  1.00  0.00     0.022 A 
BRANCH  43  47
ATOM     47  S   UNL A   1      41.300  22.657  27.060  1.00  0.00     0.124 S 
ATOM     48  O   UNL A   1      39.863  22.816  27.273  1.00  0.00    -0.237 OA
ATOM     49  O   UNL A   1      41.690  21.922  25.863  1.00  0.00    -0.237 OA
ATOM     50  O   UNL A   1      42.068  22.346  28.264  1.00  0.00    -0.744 OA
ENDBRANCH  43  47
ENDBRANCH  26  40
BRANCH  27  51
ATOM     51  C   UNL A   1      43.367  32.886  35.203  1.00  0.00     0.023 A 
ATOM     52  C   UNL A   1      42.840  32.481  36.437  1.00  0.00     0.031 A 
ATOM     53  C   UNL A   1      43.987  34.149  35.128  1.00  0.00     0.131 A 
ATOM     54  C   UNL A   1      42.929  33.338  37.545  1.00  0.00     0.055 A 
ATOM     55  C   UNL A   1      44.117  34.974  36.244  1.00  0.00     0.041 A 
ATOM     56  F   UNL A   1      44.516  34.578  33.970  1.00  0.00    -0.206 F 
ATOM     57  C   UNL A   1      43.578  34.573  37.461  1.00  0.00     0.022 A 
BRANCH  54  58
ATOM     58  S   UNL A   1      42.141  32.833  39.099  1.00  0.00     0.124 S 
ATOM     59  O   UNL A   1      40.821  32.416  38.640  1.00  0.00    -0.237 OA
ATOM     60  O   UNL A   1      43.028  31.770  39.557  1.00  0.00    -0.237 OA
ATOM     61  O   UNL A   1      42.166  34.052  39.904  1.00  0.00    -0.744 OA
ENDBRANCH  54  58
ENDBRANCH  27  51
BRANCH  39  62
ATOM     62  C   UNL A   1      47.359  27.680  32.757  1.00  0.00     0.023 A 
ATOM     63  C   UNL A   1      47.468  26.563  33.603  1.00  0.00     0.031 A 
ATOM     64  C   UNL A   1      48.545  28.263  32.272  1.00  0.00     0.131 A 
ATOM     65  C   UNL A   1      48.736  26.081  33.961  1.00  0.00     0.055 A 
ATOM     66  C   UNL A   1      49.801  27.746  32.588  1.00  0.00     0.041 A 
ATOM     67  F   UNL A   1      48.498  29.336  31.466  1.00  0.00    -0.206 F 
ATOM     68  C   UNL A   1      49.903  26.653  33.442  1.00  0.00     0.022 A 
BRANCH  65  69
ATOM     69  S   UNL A   1      48.855  24.725  35.160  1.00  0.00     0.124 S 
ATOM     70  O   UNL A   1      48.075  25.244  36.279  1.00  0.00    -0.237 OA
ATOM     71  O   UNL A   1      48.262  23.609  34.431  1.00  0.00    -0.237 OA
ATOM     72  O   UNL A   1      50.291  24.610  35.407  1.00  0.00    -0.744 OA
ENDBRANCH  65  69
ENDBRANCH  39  62
ENDBRANCH  13  14
ENDBRANCH   6   8
ENDBRANCH   3   4
ENDBRANCH   2   3
ENDBRANCH   1   2
BRANCH   1  73
ATOM     73  N   UNL A   1      36.318  34.206  33.865  1.00  0.00    -0.352 N 
ATOM     74  C   UNL A   1      37.437  34.118  34.653  1.00  0.00     0.253 C 
ATOM     75  H   UNL A   1      36.379  34.852  33.125  1.00  0.00     0.163 HD
ATOM     76  O   UNL A   1      38.385  34.873  34.446  1.00  0.00    -0.269 OA
BRANCH  74  77
ATOM     77  C   UNL A   1      37.525  33.137  35.757  1.00  0.00     0.063 A 
ATOM     78  C   UNL A   1      37.315  33.635  37.052  1.00  0.00     0.016 A 
ATOM     79  C   UNL A   1      37.856  31.782  35.551  1.00  0.00     0.054 A 
ATOM     80  C   UNL A   1      37.371  32.780  38.151  1.00  0.00     0.001 A 
ATOM     81  C   UNL A   1      37.846  30.933  36.669  1.00  0.00     0.027 A 
ATOM     82  C   UNL A   1      37.620  31.426  37.957  1.00  0.00     0.002 A 
BRANCH  79  83
ATOM     83  N   UNL A   1      38.169  31.288  34.276  1.00  0.00    -0.323 N 
ATOM     84  H   UNL A   1      37.877  31.862  33.532  1.00  0.00     0.170 HD
BRANCH  83  85
ATOM     85  C   UNL A   1      38.822  30.126  33.889  1.00  0.00     0.233 A 
ATOM     86  N   UNL A   1      38.358  29.398  32.889  1.00  0.00    -0.182 NA
ATOM     87  N   UNL A   1      39.919  29.830  34.577  1.00  0.00    -0.176 NA
ATOM     88  C   UNL A   1      39.102  28.342  32.609  1.00  0.00     0.228 A 
ATOM     89  C   UNL A   1      40.534  28.696  34.260  1.00  0.00     0.233 A 
ATOM     90  Cl  UNL A   1      38.553  27.353  31.329  1.00  0.00    -0.041 Cl
ATOM     91  N   UNL A   1      40.176  27.920  33.250  1.00  0.00    -0.182 NA
BRANCH  89  92
ATOM     92  N   UNL A   1      41.511  28.286  35.161  1.00  0.00    -0.324 N 
ATOM     93  H   UNL A   1      41.778  28.955  35.831  1.00  0.00     0.170 HD
BRANCH  92  94
ATOM     94  C   UNL A   1      42.163  27.057  35.244  1.00  0.00     0.041 A 
ATOM     95  C   UNL A   1      43.480  26.942  34.783  1.00  0.00     0.028 A 
ATOM     96  C   UNL A   1      41.575  25.954  35.866  1.00  0.00     0.028 A 
ATOM     97  C   UNL A   1      44.196  25.752  34.948  1.00  0.00     0.028 A 
ATOM     98  C   UNL A   1      42.264  24.746  35.976  1.00  0.00     0.028 A 
ATOM     99  C   UNL A   1      43.585  24.639  35.532  1.00  0.00     0.044 A 
BRANCH  99 100
ATOM    100  N   UNL A   1      44.312  23.431  35.725  1.00  0.00    -0.308 N 
ATOM    101  C   UNL A   1      44.395  22.523  34.575  1.00  0.00     0.154 C 
ATOM    102  C   UNL A   1      45.176  23.289  36.815  1.00  0.00     0.253 C 
ATOM    103  C   UNL A   1      44.983  21.163  34.927  1.00  0.00     0.183 C 
ATOM    104  C   UNL A   1      46.040  22.019  36.815  1.00  0.00     0.260 C 
ATOM    105  O   UNL A   1      45.206  24.048  37.786  1.00  0.00    -0.272 OA
ATOM    106  O   UNL A   1      46.234  21.340  35.585  1.00  0.00    -0.370 OA
ENDBRANCH  99 100
ENDBRANCH  92  94
ENDBRANCH  89  92
ENDBRANCH  83  85
ENDBRANCH  79  83
ENDBRANCH  74  77
ENDBRANCH   1  73
TORSDOF 18
ENDMDL
