MODEL 1
REMARK VINA RESULT:     -12.9      0.000      0.000
REMARK SMILES Cc1ccccc1[C@@H](Cc1c(Cl)cccc1Cl)C(=O)NCCCNC(=O)c1ccc(-c2c3nc(c(-c4cc(S(=O)(=O)[O-])ccc4F)c4ccc([nH]4)c(-c4cc(S(=O)(=O)[O-])ccc4F)c4nc(c(-c5cc(S(=O)(=O)[O-])ccc5F)c5ccc2[nH]5)C=C4)C=C3)cc1
REMARK SMILES IDX 22 1 21 2 20 3 18 4 19 5 8 7 7 8 1 9 2 10 3 11 4 12 6 13
REMARK SMILES IDX 5 14 9 15 10 16 11 17 16 18 12 19 13 20 15 21 17 22 14 23
REMARK SMILES IDX 23 24 24 25 25 26 26 28 27 29 28 30 89 31 29 32 88 33 30 34
REMARK SMILES IDX 31 35 32 36 82 37 33 38 87 39 81 40 83 41 34 42 86 43 80 44
REMARK SMILES IDX 79 45 35 47 67 48 47 49 66 50 48 51 51 52 65 53 84 54 49 55
REMARK SMILES IDX 50 56 64 58 85 59 52 60 36 61 37 62 45 63 38 64 44 65 46 66
REMARK SMILES IDX 43 67 39 68 40 69 41 70 42 71 68 72 69 73 77 74 70 75 76 76
REMARK SMILES IDX 78 77 75 78 71 79 72 80 73 81 74 82 53 83 54 84 62 85 55 86
REMARK SMILES IDX 61 87 63 88 60 89 56 90 57 91 58 92 59 93
REMARK H PARENT 20 6 24 27 83 46 51 57
REMARK Flexibility Score: inf
ROOT
ATOM      1  C   UNL A   1      34.899  30.332  28.056  1.00  0.00     0.042 C 
ENDROOT
BRANCH   1   2
ATOM      2  C   UNL A   1      34.094  29.484  27.077  1.00  0.00     0.117 C 
BRANCH   2   3
ATOM      3  N   UNL A   1      32.912  28.909  27.693  1.00  0.00    -0.355 N 
ATOM      4  C   UNL A   1      32.009  27.988  27.271  1.00  0.00     0.227 C 
ATOM      5  O   UNL A   1      31.015  27.828  27.995  1.00  0.00    -0.274 OA
ATOM      6  H   UNL A   1      32.730  29.254  28.596  1.00  0.00     0.163 HD
BRANCH   4   7
ATOM      7  C   UNL A   1      32.115  27.174  25.962  1.00  0.00     0.113 C 
BRANCH   7   8
ATOM      8  C   UNL A   1      31.191  27.747  24.870  1.00  0.00    -0.032 A 
ATOM      9  C   UNL A   1      30.078  25.485  24.315  1.00  0.00     0.044 C 
ATOM     10  C   UNL A   1      30.200  26.983  24.212  1.00  0.00    -0.047 A 
ATOM     11  C   UNL A   1      29.227  27.639  23.430  1.00  0.00     0.004 A 
ATOM     12  C   UNL A   1      29.259  29.017  23.239  1.00  0.00     0.000 A 
ATOM     13  C   UNL A   1      31.259  29.120  24.571  1.00  0.00     0.005 A 
ATOM     14  C   UNL A   1      30.297  29.755  23.785  1.00  0.00     0.000 A 
ENDBRANCH   7   8
BRANCH   7  15
ATOM     15  C   UNL A   1      33.509  26.727  25.447  1.00  0.00     0.057 C 
BRANCH  15  16
ATOM     16  C   UNL A   1      33.625  25.605  24.419  1.00  0.00    -0.010 A 
ATOM     17  C   UNL A   1      33.810  24.267  24.845  1.00  0.00     0.045 A 
ATOM     18  C   UNL A   1      33.565  25.813  23.026  1.00  0.00     0.045 A 
ATOM     19  Cl  UNL A   1      34.132  23.850  26.500  1.00  0.00    -0.084 Cl
ATOM     20  C   UNL A   1      33.778  23.196  23.943  1.00  0.00     0.021 A 
ATOM     21  C   UNL A   1      33.515  24.737  22.128  1.00  0.00     0.021 A 
ATOM     22  Cl  UNL A   1      33.651  27.382  22.303  1.00  0.00    -0.084 Cl
ATOM     23  C   UNL A   1      33.595  23.429  22.588  1.00  0.00     0.003 A 
ENDBRANCH  15  16
ENDBRANCH   7  15
ENDBRANCH   4   7
ENDBRANCH   2   3
ENDBRANCH   1   2
BRANCH   1  24
ATOM     24  C   UNL A   1      35.053  31.783  27.624  1.00  0.00     0.118 C 
BRANCH  24  25
ATOM     25  N   UNL A   1      34.096  32.654  28.311  1.00  0.00    -0.352 N 
ATOM     26  C   UNL A   1      34.284  33.429  29.439  1.00  0.00     0.251 C 
ATOM     27  H   UNL A   1      33.195  32.693  27.915  1.00  0.00     0.163 HD
ATOM     28  O   UNL A   1      33.417  34.167  29.881  1.00  0.00    -0.269 OA
BRANCH  26  29
ATOM     29  C   UNL A   1      35.634  33.429  30.030  1.00  0.00     0.039 A 
ATOM     30  C   UNL A   1      36.642  34.065  29.300  1.00  0.00     0.014 A 
ATOM     31  C   UNL A   1      35.930  32.547  31.067  1.00  0.00     0.014 A 
ATOM     32  C   UNL A   1      37.954  33.637  29.456  1.00  0.00     0.010 A 
ATOM     33  C   UNL A   1      37.223  32.063  31.159  1.00  0.00     0.010 A 
ATOM     34  C   UNL A   1      38.219  32.557  30.304  1.00  0.00    -0.014 A 
BRANCH  34  35
ATOM     35  C   UNL A   1      39.460  31.791  30.205  1.00  0.00     0.031 A 
ATOM     36  C   UNL A   1      39.485  30.456  29.578  1.00  0.00     0.074 A 
ATOM     37  C   UNL A   1      40.609  32.275  30.729  1.00  0.00     0.049 A 
ATOM     38  N   UNL A   1      40.279  29.501  29.937  1.00  0.00    -0.248 NA
ATOM     39  C   UNL A   1      38.565  30.071  28.517  1.00  0.00     0.031 C 
ATOM     40  C   UNL A   1      41.953  31.730  30.559  1.00  0.00     0.029 A 
ATOM     41  N   UNL A   1      40.741  33.215  31.748  1.00  0.00    -0.354 N 
ATOM     42  C   UNL A   1      40.199  28.513  28.983  1.00  0.00     0.074 A 
ATOM     43  C   UNL A   1      39.057  28.877  28.174  1.00  0.00     0.031 C 
ATOM     44  C   UNL A   1      42.713  32.127  31.590  1.00  0.00     0.029 A 
ATOM     45  C   UNL A   1      41.861  32.853  32.513  1.00  0.00     0.049 A 
ATOM     46  H   UNL A   1      40.157  33.991  31.902  1.00  0.00     0.167 HD
ATOM     47  C   UNL A   1      41.193  27.583  28.885  1.00  0.00     0.034 A 
ATOM     48  C   UNL A   1      41.773  32.636  33.856  1.00  0.00     0.034 A 
ATOM     49  C   UNL A   1      42.220  27.760  29.915  1.00  0.00     0.049 A 
ATOM     50  C   UNL A   1      42.202  31.249  34.276  1.00  0.00     0.074 A 
ATOM     51  C   UNL A   1      43.500  28.294  29.884  1.00  0.00     0.029 A 
ATOM     52  N   UNL A   1      41.905  27.585  31.259  1.00  0.00    -0.354 N 
ATOM     53  N   UNL A   1      42.363  30.253  33.451  1.00  0.00    -0.248 NA
ATOM     54  C   UNL A   1      42.450  30.868  35.662  1.00  0.00     0.031 C 
ATOM     55  C   UNL A   1      43.945  28.457  31.218  1.00  0.00     0.029 A 
ATOM     56  C   UNL A   1      42.945  28.012  32.065  1.00  0.00     0.049 A 
ATOM     57  H   UNL A   1      41.059  27.209  31.591  1.00  0.00     0.167 HD
ATOM     58  C   UNL A   1      42.692  29.118  34.151  1.00  0.00     0.074 A 
ATOM     59  C   UNL A   1      42.763  29.566  35.530  1.00  0.00     0.031 C 
ATOM     60  C   UNL A   1      42.862  27.915  33.519  1.00  0.00     0.034 A 
BRANCH  47  61
ATOM     61  C   UNL A   1      41.409  26.720  27.655  1.00  0.00     0.023 A 
ATOM     62  C   UNL A   1      41.219  25.323  27.746  1.00  0.00     0.031 A 
ATOM     63  C   UNL A   1      41.844  27.180  26.399  1.00  0.00     0.131 A 
ATOM     64  C   UNL A   1      41.581  24.458  26.696  1.00  0.00     0.055 A 
ATOM     65  C   UNL A   1      42.268  26.320  25.376  1.00  0.00     0.041 A 
ATOM     66  F   UNL A   1      41.818  28.481  26.080  1.00  0.00    -0.206 F 
ATOM     67  C   UNL A   1      42.157  24.948  25.529  1.00  0.00     0.022 A 
BRANCH  64  68
ATOM     68  S   UNL A   1      41.279  22.678  26.872  1.00  0.00     0.124 S 
ATOM     69  O   UNL A   1      42.084  22.339  28.042  1.00  0.00    -0.237 OA
ATOM     70  O   UNL A   1      39.831  22.628  27.047  1.00  0.00    -0.237 OA
ATOM     71  O   UNL A   1      41.764  22.124  25.609  1.00  0.00    -0.744 OA
ENDBRANCH  64  68
ENDBRANCH  47  61
BRANCH  48  72
ATOM     72  C   UNL A   1      40.737  33.471  34.524  1.00  0.00     0.023 A 
ATOM     73  C   UNL A   1      39.650  32.789  35.113  1.00  0.00     0.031 A 
ATOM     74  C   UNL A   1      40.981  34.789  34.926  1.00  0.00     0.131 A 
ATOM     75  C   UNL A   1      38.955  33.357  36.188  1.00  0.00     0.055 A 
ATOM     76  C   UNL A   1      40.238  35.382  35.954  1.00  0.00     0.041 A 
ATOM     77  F   UNL A   1      42.017  35.477  34.423  1.00  0.00    -0.206 F 
ATOM     78  C   UNL A   1      39.252  34.650  36.622  1.00  0.00     0.022 A 
BRANCH  75  79
ATOM     79  S   UNL A   1      37.868  32.298  37.192  1.00  0.00     0.124 S 
ATOM     80  O   UNL A   1      37.779  31.088  36.384  1.00  0.00    -0.237 OA
ATOM     81  O   UNL A   1      38.599  32.166  38.449  1.00  0.00    -0.237 OA
ATOM     82  O   UNL A   1      36.639  33.082  37.302  1.00  0.00    -0.744 OA
ENDBRANCH  75  79
ENDBRANCH  48  72
BRANCH  60  83
ATOM     83  C   UNL A   1      43.059  26.557  34.178  1.00  0.00     0.023 A 
ATOM     84  C   UNL A   1      44.282  25.871  34.215  1.00  0.00     0.031 A 
ATOM     85  C   UNL A   1      41.991  25.920  34.861  1.00  0.00     0.131 A 
ATOM     86  C   UNL A   1      44.397  24.605  34.824  1.00  0.00     0.055 A 
ATOM     87  C   UNL A   1      42.123  24.693  35.522  1.00  0.00     0.041 A 
ATOM     88  F   UNL A   1      40.767  26.465  34.932  1.00  0.00    -0.206 F 
ATOM     89  C   UNL A   1      43.329  24.017  35.494  1.00  0.00     0.022 A 
BRANCH  86  90
ATOM     90  S   UNL A   1      45.974  23.719  34.680  1.00  0.00     0.124 S 
ATOM     91  O   UNL A   1      46.392  23.620  36.075  1.00  0.00    -0.237 OA
ATOM     92  O   UNL A   1      45.571  22.465  34.050  1.00  0.00    -0.237 OA
ATOM     93  O   UNL A   1      46.791  24.597  33.846  1.00  0.00    -0.744 OA
ENDBRANCH  86  90
ENDBRANCH  60  83
ENDBRANCH  34  35
ENDBRANCH  26  29
ENDBRANCH  24  25
ENDBRANCH   1  24
TORSDOF 16
ENDMDL
MODEL 2
REMARK VINA RESULT:     -12.8      4.140      9.815
REMARK SMILES Cc1ccccc1[C@@H](Cc1c(Cl)cccc1Cl)C(=O)NCCCNC(=O)c1ccc(-c2c3nc(c(-c4cc(S(=O)(=O)[O-])ccc4F)c4ccc([nH]4)c(-c4cc(S(=O)(=O)[O-])ccc4F)c4nc(c(-c5cc(S(=O)(=O)[O-])ccc5F)c5ccc2[nH]5)C=C4)C=C3)cc1
REMARK SMILES IDX 22 1 21 2 20 3 18 4 19 5 8 7 7 8 1 9 2 10 3 11 4 12 6 13
REMARK SMILES IDX 5 14 9 15 10 16 11 17 16 18 12 19 13 20 15 21 17 22 14 23
REMARK SMILES IDX 23 24 24 25 25 26 26 28 27 29 28 30 89 31 29 32 88 33 30 34
REMARK SMILES IDX 31 35 32 36 82 37 33 38 87 39 81 40 83 41 34 42 86 43 80 44
REMARK SMILES IDX 79 45 35 47 67 48 47 49 66 50 48 51 51 52 65 53 84 54 49 55
REMARK SMILES IDX 50 56 64 58 85 59 52 60 36 61 37 62 45 63 38 64 44 65 46 66
REMARK SMILES IDX 43 67 39 68 40 69 41 70 42 71 68 72 69 73 77 74 70 75 76 76
REMARK SMILES IDX 78 77 75 78 71 79 72 80 73 81 74 82 53 83 54 84 62 85 55 86
REMARK SMILES IDX 61 87 63 88 60 89 56 90 57 91 58 92 59 93
REMARK H PARENT 20 6 24 27 83 46 51 57
REMARK Flexibility Score: inf
ROOT
ATOM      1  C   UNL A   1      38.279  21.730  25.570  1.00  0.00     0.042 C 
ENDROOT
BRANCH   1   2
ATOM      2  C   UNL A   1      36.836  21.673  25.082  1.00  0.00     0.117 C 
BRANCH   2   3
ATOM      3  N   UNL A   1      35.912  21.311  26.140  1.00  0.00    -0.355 N 
ATOM      4  C   UNL A   1      34.762  21.871  26.591  1.00  0.00     0.227 C 
ATOM      5  O   UNL A   1      34.290  21.386  27.630  1.00  0.00    -0.274 OA
ATOM      6  H   UNL A   1      36.170  20.495  26.627  1.00  0.00     0.163 HD
BRANCH   4   7
ATOM      7  C   UNL A   1      34.041  23.071  25.936  1.00  0.00     0.113 C 
BRANCH   7   8
ATOM      8  C   UNL A   1      33.308  22.647  24.648  1.00  0.00    -0.032 A 
ATOM      9  C   UNL A   1      34.213  24.602  23.227  1.00  0.00     0.044 C 
ATOM     10  C   UNL A   1      33.485  23.295  23.405  1.00  0.00    -0.047 A 
ATOM     11  C   UNL A   1      32.992  22.687  22.231  1.00  0.00     0.004 A 
ATOM     12  C   UNL A   1      32.277  21.493  22.279  1.00  0.00     0.000 A 
ATOM     13  C   UNL A   1      32.491  21.502  24.675  1.00  0.00     0.005 A 
ATOM     14  C   UNL A   1      31.999  20.916  23.508  1.00  0.00     0.000 A 
ENDBRANCH   7   8
BRANCH   7  15
ATOM     15  C   UNL A   1      33.249  24.067  26.823  1.00  0.00     0.057 C 
BRANCH  15  16
ATOM     16  C   UNL A   1      32.152  24.935  26.211  1.00  0.00    -0.010 A 
ATOM     17  C   UNL A   1      32.454  26.238  25.744  1.00  0.00     0.045 A 
ATOM     18  C   UNL A   1      30.812  24.521  26.080  1.00  0.00     0.045 A 
ATOM     19  Cl  UNL A   1      33.989  26.999  26.026  1.00  0.00    -0.084 Cl
ATOM     20  C   UNL A   1      31.512  27.008  25.050  1.00  0.00     0.021 A 
ATOM     21  C   UNL A   1      29.876  25.286  25.368  1.00  0.00     0.021 A 
ATOM     22  Cl  UNL A   1      30.181  23.109  26.855  1.00  0.00    -0.084 Cl
ATOM     23  C   UNL A   1      30.233  26.517  24.831  1.00  0.00     0.003 A 
ENDBRANCH  15  16
ENDBRANCH   7  15
ENDBRANCH   4   7
ENDBRANCH   2   3
ENDBRANCH   1   2
BRANCH   1  24
ATOM     24  C   UNL A   1      38.660  23.063  26.197  1.00  0.00     0.118 C 
BRANCH  24  25
ATOM     25  N   UNL A   1      40.103  23.152  26.439  1.00  0.00    -0.352 N 
ATOM     26  C   UNL A   1      40.842  24.232  26.882  1.00  0.00     0.251 C 
ATOM     27  H   UNL A   1      40.616  22.331  26.261  1.00  0.00     0.163 HD
ATOM     28  O   UNL A   1      42.041  24.160  27.105  1.00  0.00    -0.269 OA
BRANCH  26  29
ATOM     29  C   UNL A   1      40.098  25.464  27.200  1.00  0.00     0.039 A 
ATOM     30  C   UNL A   1      40.489  26.627  26.531  1.00  0.00     0.014 A 
ATOM     31  C   UNL A   1      39.308  25.513  28.347  1.00  0.00     0.014 A 
ATOM     32  C   UNL A   1      40.280  27.855  27.144  1.00  0.00     0.010 A 
ATOM     33  C   UNL A   1      39.178  26.728  28.995  1.00  0.00     0.010 A 
ATOM     34  C   UNL A   1      39.728  27.887  28.428  1.00  0.00    -0.014 A 
BRANCH  34  35
ATOM     35  C   UNL A   1      39.863  29.058  29.292  1.00  0.00     0.031 A 
ATOM     36  C   UNL A   1      38.825  30.106  29.327  1.00  0.00     0.074 A 
ATOM     37  C   UNL A   1      40.971  29.227  30.050  1.00  0.00     0.049 A 
ATOM     38  N   UNL A   1      39.067  31.359  29.538  1.00  0.00    -0.248 NA
ATOM     39  C   UNL A   1      37.420  29.825  29.070  1.00  0.00     0.031 C 
ATOM     40  C   UNL A   1      41.183  30.230  31.089  1.00  0.00     0.029 A 
ATOM     41  N   UNL A   1      42.233  28.680  29.832  1.00  0.00    -0.354 N 
ATOM     42  C   UNL A   1      37.860  31.983  29.751  1.00  0.00     0.074 A 
ATOM     43  C   UNL A   1      36.868  31.007  29.360  1.00  0.00     0.031 C 
ATOM     44  C   UNL A   1      42.501  30.426  31.238  1.00  0.00     0.029 A 
ATOM     45  C   UNL A   1      43.182  29.636  30.229  1.00  0.00     0.049 A 
ATOM     46  H   UNL A   1      42.425  27.787  29.468  1.00  0.00     0.167 HD
ATOM     47  C   UNL A   1      37.826  33.196  30.377  1.00  0.00     0.034 A 
ATOM     48  C   UNL A   1      44.144  30.089  29.377  1.00  0.00     0.034 A 
ATOM     49  C   UNL A   1      39.167  33.697  30.686  1.00  0.00     0.049 A 
ATOM     50  C   UNL A   1      44.105  31.584  29.156  1.00  0.00     0.074 A 
ATOM     51  C   UNL A   1      39.900  33.754  31.862  1.00  0.00     0.029 A 
ATOM     52  N   UNL A   1      40.051  34.019  29.661  1.00  0.00    -0.354 N 
ATOM     53  N   UNL A   1      43.101  32.345  29.490  1.00  0.00    -0.248 NA
ATOM     54  C   UNL A   1      45.178  32.332  28.511  1.00  0.00     0.031 C 
ATOM     55  C   UNL A   1      41.236  34.092  31.536  1.00  0.00     0.029 A 
ATOM     56  C   UNL A   1      41.318  34.255  30.164  1.00  0.00     0.049 A 
ATOM     57  H   UNL A   1      39.809  34.071  28.709  1.00  0.00     0.167 HD
ATOM     58  C   UNL A   1      43.348  33.639  29.099  1.00  0.00     0.074 A 
ATOM     59  C   UNL A   1      44.677  33.580  28.516  1.00  0.00     0.031 C 
ATOM     60  C   UNL A   1      42.421  34.629  29.285  1.00  0.00     0.034 A 
BRANCH  47  61
ATOM     61  C   UNL A   1      36.570  33.774  31.007  1.00  0.00     0.023 A 
ATOM     62  C   UNL A   1      35.575  34.337  30.179  1.00  0.00     0.031 A 
ATOM     63  C   UNL A   1      36.311  33.853  32.387  1.00  0.00     0.131 A 
ATOM     64  C   UNL A   1      34.484  35.048  30.714  1.00  0.00     0.055 A 
ATOM     65  C   UNL A   1      35.264  34.617  32.924  1.00  0.00     0.041 A 
ATOM     66  F   UNL A   1      37.019  33.145  33.277  1.00  0.00    -0.206 F 
ATOM     67  C   UNL A   1      34.354  35.238  32.085  1.00  0.00     0.022 A 
BRANCH  64  68
ATOM     68  S   UNL A   1      33.228  35.718  29.589  1.00  0.00     0.124 S 
ATOM     69  O   UNL A   1      32.516  34.516  29.164  1.00  0.00    -0.237 OA
ATOM     70  O   UNL A   1      32.493  36.631  30.458  1.00  0.00    -0.237 OA
ATOM     71  O   UNL A   1      34.018  36.367  28.544  1.00  0.00    -0.744 OA
ENDBRANCH  64  68
ENDBRANCH  47  61
BRANCH  48  72
ATOM     72  C   UNL A   1      44.584  29.070  28.386  1.00  0.00     0.023 A 
ATOM     73  C   UNL A   1      45.412  28.030  28.864  1.00  0.00     0.031 A 
ATOM     74  C   UNL A   1      43.927  28.878  27.165  1.00  0.00     0.131 A 
ATOM     75  C   UNL A   1      45.427  26.785  28.222  1.00  0.00     0.055 A 
ATOM     76  C   UNL A   1      44.001  27.655  26.487  1.00  0.00     0.041 A 
ATOM     77  F   UNL A   1      43.106  29.818  26.676  1.00  0.00    -0.206 F 
ATOM     78  C   UNL A   1      44.715  26.587  27.038  1.00  0.00     0.022 A 
BRANCH  75  79
ATOM     79  S   UNL A   1      46.147  25.357  29.089  1.00  0.00     0.124 S 
ATOM     80  O   UNL A   1      45.329  25.277  30.292  1.00  0.00    -0.237 OA
ATOM     81  O   UNL A   1      45.974  24.265  28.134  1.00  0.00    -0.237 OA
ATOM     82  O   UNL A   1      47.540  25.750  29.292  1.00  0.00    -0.744 OA
ENDBRANCH  75  79
ENDBRANCH  48  72
BRANCH  60  83
ATOM     83  C   UNL A   1      42.489  36.054  28.755  1.00  0.00     0.023 A 
ATOM     84  C   UNL A   1      43.006  37.139  29.478  1.00  0.00     0.031 A 
ATOM     85  C   UNL A   1      42.067  36.358  27.434  1.00  0.00     0.131 A 
ATOM     86  C   UNL A   1      43.024  38.442  28.940  1.00  0.00     0.055 A 
ATOM     87  C   UNL A   1      42.146  37.640  26.877  1.00  0.00     0.041 A 
ATOM     88  F   UNL A   1      41.571  35.421  26.613  1.00  0.00    -0.206 F 
ATOM     89  C   UNL A   1      42.613  38.698  27.636  1.00  0.00     0.022 A 
BRANCH  86  90
ATOM     90  S   UNL A   1      43.557  39.809  30.007  1.00  0.00     0.124 S 
ATOM     91  O   UNL A   1      43.974  39.102  31.215  1.00  0.00    -0.237 OA
ATOM     92  O   UNL A   1      44.631  40.414  29.226  1.00  0.00    -0.237 OA
ATOM     93  O   UNL A   1      42.356  40.628  30.150  1.00  0.00    -0.744 OA
ENDBRANCH  86  90
ENDBRANCH  60  83
ENDBRANCH  34  35
ENDBRANCH  26  29
ENDBRANCH  24  25
ENDBRANCH   1  24
TORSDOF 16
ENDMDL
MODEL 3
REMARK VINA RESULT:     -12.4      4.249      9.668
REMARK SMILES Cc1ccccc1[C@@H](Cc1c(Cl)cccc1Cl)C(=O)NCCCNC(=O)c1ccc(-c2c3nc(c(-c4cc(S(=O)(=O)[O-])ccc4F)c4ccc([nH]4)c(-c4cc(S(=O)(=O)[O-])ccc4F)c4nc(c(-c5cc(S(=O)(=O)[O-])ccc5F)c5ccc2[nH]5)C=C4)C=C3)cc1
REMARK SMILES IDX 22 1 21 2 20 3 18 4 19 5 8 7 7 8 1 9 2 10 3 11 4 12 6 13
REMARK SMILES IDX 5 14 9 15 10 16 11 17 16 18 12 19 13 20 15 21 17 22 14 23
REMARK SMILES IDX 23 24 24 25 25 26 26 28 27 29 28 30 89 31 29 32 88 33 30 34
REMARK SMILES IDX 31 35 32 36 82 37 33 38 87 39 81 40 83 41 34 42 86 43 80 44
REMARK SMILES IDX 79 45 35 47 67 48 47 49 66 50 48 51 51 52 65 53 84 54 49 55
REMARK SMILES IDX 50 56 64 58 85 59 52 60 36 61 37 62 45 63 38 64 44 65 46 66
REMARK SMILES IDX 43 67 39 68 40 69 41 70 42 71 68 72 69 73 77 74 70 75 76 76
REMARK SMILES IDX 78 77 75 78 71 79 72 80 73 81 74 82 53 83 54 84 62 85 55 86
REMARK SMILES IDX 61 87 63 88 60 89 56 90 57 91 58 92 59 93
REMARK H PARENT 20 6 24 27 83 46 51 57
REMARK Flexibility Score: inf
ROOT
ATOM      1  C   UNL A   1      38.018  21.569  25.440  1.00  0.00     0.042 C 
ENDROOT
BRANCH   1   2
ATOM      2  C   UNL A   1      36.519  21.501  25.163  1.00  0.00     0.117 C 
BRANCH   2   3
ATOM      3  N   UNL A   1      36.152  22.213  23.953  1.00  0.00    -0.355 N 
ATOM      4  C   UNL A   1      35.064  22.948  23.611  1.00  0.00     0.227 C 
ATOM      5  O   UNL A   1      34.995  23.300  22.424  1.00  0.00    -0.274 OA
ATOM      6  H   UNL A   1      36.826  22.152  23.239  1.00  0.00     0.163 HD
BRANCH   4   7
ATOM      7  C   UNL A   1      33.914  23.332  24.569  1.00  0.00     0.113 C 
BRANCH   7   8
ATOM      8  C   UNL A   1      33.703  24.858  24.607  1.00  0.00    -0.032 A 
ATOM      9  C   UNL A   1      32.145  24.917  22.551  1.00  0.00     0.044 C 
ATOM     10  C   UNL A   1      32.812  25.540  23.748  1.00  0.00    -0.047 A 
ATOM     11  C   UNL A   1      32.479  26.883  24.024  1.00  0.00     0.004 A 
ATOM     12  C   UNL A   1      33.057  27.571  25.087  1.00  0.00     0.000 A 
ATOM     13  C   UNL A   1      34.350  25.610  25.605  1.00  0.00     0.005 A 
ATOM     14  C   UNL A   1      34.020  26.941  25.860  1.00  0.00     0.000 A 
ENDBRANCH   7   8
BRANCH   7  15
ATOM     15  C   UNL A   1      32.599  22.507  24.559  1.00  0.00     0.057 C 
BRANCH  15  16
ATOM     16  C   UNL A   1      32.648  20.986  24.438  1.00  0.00    -0.010 A 
ATOM     17  C   UNL A   1      33.048  20.197  25.545  1.00  0.00     0.045 A 
ATOM     18  C   UNL A   1      32.317  20.286  23.261  1.00  0.00     0.045 A 
ATOM     19  Cl  UNL A   1      33.704  20.890  26.996  1.00  0.00    -0.084 Cl
ATOM     20  C   UNL A   1      32.969  18.799  25.520  1.00  0.00     0.021 A 
ATOM     21  C   UNL A   1      32.221  18.886  23.245  1.00  0.00     0.021 A 
ATOM     22  Cl  UNL A   1      32.103  21.062  21.730  1.00  0.00    -0.084 Cl
ATOM     23  C   UNL A   1      32.521  18.145  24.381  1.00  0.00     0.003 A 
ENDBRANCH  15  16
ENDBRANCH   7  15
ENDBRANCH   4   7
ENDBRANCH   2   3
ENDBRANCH   1   2
BRANCH   1  24
ATOM     24  C   UNL A   1      38.515  22.968  25.772  1.00  0.00     0.118 C 
BRANCH  24  25
ATOM     25  N   UNL A   1      39.940  22.965  26.119  1.00  0.00    -0.352 N 
ATOM     26  C   UNL A   1      40.716  24.001  26.601  1.00  0.00     0.251 C 
ATOM     27  H   UNL A   1      40.407  22.108  25.990  1.00  0.00     0.163 HD
ATOM     28  O   UNL A   1      41.887  23.853  26.913  1.00  0.00    -0.269 OA
BRANCH  26  29
ATOM     29  C   UNL A   1      40.036  25.285  26.847  1.00  0.00     0.039 A 
ATOM     30  C   UNL A   1      40.622  26.425  26.290  1.00  0.00     0.014 A 
ATOM     31  C   UNL A   1      39.082  25.375  27.858  1.00  0.00     0.014 A 
ATOM     32  C   UNL A   1      40.423  27.652  26.910  1.00  0.00     0.010 A 
ATOM     33  C   UNL A   1      38.954  26.581  28.524  1.00  0.00     0.010 A 
ATOM     34  C   UNL A   1      39.680  27.701  28.093  1.00  0.00    -0.014 A 
BRANCH  34  35
ATOM     35  C   UNL A   1      39.775  28.834  29.012  1.00  0.00     0.031 A 
ATOM     36  C   UNL A   1      38.744  29.890  29.031  1.00  0.00     0.074 A 
ATOM     37  C   UNL A   1      40.839  28.961  29.837  1.00  0.00     0.049 A 
ATOM     38  N   UNL A   1      38.983  31.130  29.307  1.00  0.00    -0.248 NA
ATOM     39  C   UNL A   1      37.355  29.634  28.683  1.00  0.00     0.031 C 
ATOM     40  C   UNL A   1      40.998  29.918  30.928  1.00  0.00     0.029 A 
ATOM     41  N   UNL A   1      42.106  28.410  29.670  1.00  0.00    -0.354 N 
ATOM     42  C   UNL A   1      37.772  31.758  29.476  1.00  0.00     0.074 A 
ATOM     43  C   UNL A   1      36.796  30.809  28.990  1.00  0.00     0.031 C 
ATOM     44  C   UNL A   1      42.307  30.094  31.161  1.00  0.00     0.029 A 
ATOM     45  C   UNL A   1      43.038  29.339  30.160  1.00  0.00     0.049 A 
ATOM     46  H   UNL A   1      42.312  27.530  29.281  1.00  0.00     0.167 HD
ATOM     47  C   UNL A   1      37.711  32.945  30.149  1.00  0.00     0.034 A 
ATOM     48  C   UNL A   1      44.051  29.817  29.383  1.00  0.00     0.034 A 
ATOM     49  C   UNL A   1      39.036  33.419  30.555  1.00  0.00     0.049 A 
ATOM     50  C   UNL A   1      44.037  31.320  29.222  1.00  0.00     0.074 A 
ATOM     51  C   UNL A   1      39.701  33.420  31.773  1.00  0.00     0.029 A 
ATOM     52  N   UNL A   1      39.980  33.773  29.596  1.00  0.00    -0.354 N 
ATOM     53  N   UNL A   1      43.021  32.077  29.531  1.00  0.00    -0.248 NA
ATOM     54  C   UNL A   1      45.151  32.082  28.672  1.00  0.00     0.031 C 
ATOM     55  C   UNL A   1      41.056  33.758  31.537  1.00  0.00     0.029 A 
ATOM     56  C   UNL A   1      41.217  33.976  30.181  1.00  0.00     0.049 A 
ATOM     57  H   UNL A   1      39.793  33.867  28.635  1.00  0.00     0.167 HD
ATOM     58  C   UNL A   1      43.301  33.383  29.208  1.00  0.00     0.074 A 
ATOM     59  C   UNL A   1      44.660  33.334  28.701  1.00  0.00     0.031 C 
ATOM     60  C   UNL A   1      42.372  34.374  29.382  1.00  0.00     0.034 A 
BRANCH  47  61
ATOM     61  C   UNL A   1      36.426  33.508  30.730  1.00  0.00     0.023 A 
ATOM     62  C   UNL A   1      35.515  34.177  29.882  1.00  0.00     0.031 A 
ATOM     63  C   UNL A   1      36.060  33.476  32.088  1.00  0.00     0.131 A 
ATOM     64  C   UNL A   1      34.406  34.876  30.393  1.00  0.00     0.055 A 
ATOM     65  C   UNL A   1      34.995  34.227  32.608  1.00  0.00     0.041 A 
ATOM     66  F   UNL A   1      36.674  32.670  32.962  1.00  0.00    -0.206 F 
ATOM     67  C   UNL A   1      34.172  34.950  31.761  1.00  0.00     0.022 A 
BRANCH  64  68
ATOM     68  S   UNL A   1      33.263  35.685  29.239  1.00  0.00     0.124 S 
ATOM     69  O   UNL A   1      34.164  36.484  28.414  1.00  0.00    -0.237 OA
ATOM     70  O   UNL A   1      32.628  34.545  28.586  1.00  0.00    -0.237 OA
ATOM     71  O   UNL A   1      32.384  36.457  30.117  1.00  0.00    -0.744 OA
ENDBRANCH  64  68
ENDBRANCH  47  61
BRANCH  48  72
ATOM     72  C   UNL A   1      44.540  28.835  28.377  1.00  0.00     0.023 A 
ATOM     73  C   UNL A   1      45.257  27.721  28.868  1.00  0.00     0.031 A 
ATOM     74  C   UNL A   1      44.005  28.755  27.087  1.00  0.00     0.131 A 
ATOM     75  C   UNL A   1      45.275  26.518  28.151  1.00  0.00     0.055 A 
ATOM     76  C   UNL A   1      44.087  27.573  26.340  1.00  0.00     0.041 A 
ATOM     77  F   UNL A   1      43.290  29.770  26.579  1.00  0.00    -0.206 F 
ATOM     78  C   UNL A   1      44.682  26.433  26.891  1.00  0.00     0.022 A 
BRANCH  75  79
ATOM     79  S   UNL A   1      45.825  25.001  28.991  1.00  0.00     0.124 S 
ATOM     80  O   UNL A   1      46.379  25.517  30.237  1.00  0.00    -0.237 OA
ATOM     81  O   UNL A   1      44.592  24.227  29.121  1.00  0.00    -0.237 OA
ATOM     82  O   UNL A   1      46.789  24.425  28.056  1.00  0.00    -0.744 OA
ENDBRANCH  75  79
ENDBRANCH  48  72
BRANCH  60  83
ATOM     83  C   UNL A   1      42.481  35.819  28.916  1.00  0.00     0.023 A 
ATOM     84  C   UNL A   1      43.184  36.818  29.607  1.00  0.00     0.031 A 
ATOM     85  C   UNL A   1      41.903  36.231  27.687  1.00  0.00     0.131 A 
ATOM     86  C   UNL A   1      43.232  38.145  29.135  1.00  0.00     0.055 A 
ATOM     87  C   UNL A   1      42.008  37.534  27.186  1.00  0.00     0.041 A 
ATOM     88  F   UNL A   1      41.220  35.384  26.904  1.00  0.00    -0.206 F 
ATOM     89  C   UNL A   1      42.663  38.508  27.919  1.00  0.00     0.022 A 
BRANCH  86  90
ATOM     90  S   UNL A   1      44.022  39.403  30.176  1.00  0.00     0.124 S 
ATOM     91  O   UNL A   1      43.086  40.518  30.063  1.00  0.00    -0.237 OA
ATOM     92  O   UNL A   1      44.069  38.746  31.478  1.00  0.00    -0.237 OA
ATOM     93  O   UNL A   1      45.321  39.615  29.541  1.00  0.00    -0.744 OA
ENDBRANCH  86  90
ENDBRANCH  60  83
ENDBRANCH  34  35
ENDBRANCH  26  29
ENDBRANCH  24  25
ENDBRANCH   1  24
TORSDOF 16
ENDMDL
