MODEL 1
REMARK VINA RESULT:     -12.8      0.000      0.000
REMARK SMILES O=C(Cc1cncnc1N1CCC2(CC1)OCCC[C@@H]2O)NCCCNC(=O)c1ccc(-c2c3nc(c(-c4cc(S(=O)(=O)[O-])ccc4F)c4ccc([nH]4)c(-c4cc(S(=O)(=O)[O-])ccc4F)c4nc(c(-c5cc(S(=O)(=O)[O-])ccc5F)c5ccc2[nH]5)C=C4)C=C3)cc1
REMARK SMILES IDX 24 1 23 2 22 3 1 4 2 5 3 7 4 8 5 9 9 10 6 11 8 12 7 13 10 14
REMARK SMILES IDX 11 15 15 16 12 17 14 18 13 19 16 20 20 21 17 22 19 23 18 24
REMARK SMILES IDX 21 25 25 27 26 28 27 29 28 31 29 32 30 33 91 34 31 35 90 36
REMARK SMILES IDX 32 37 33 38 34 39 84 40 35 41 89 42 83 43 85 44 36 45 88 46
REMARK SMILES IDX 82 47 81 48 37 50 69 51 49 52 68 53 50 54 53 55 67 56 86 57
REMARK SMILES IDX 51 58 52 59 66 61 87 62 54 63 38 64 39 65 47 66 40 67 46 68
REMARK SMILES IDX 48 69 45 70 41 71 42 72 43 73 44 74 70 75 71 76 79 77 72 78
REMARK SMILES IDX 78 79 80 80 77 81 73 82 74 83 75 84 76 85 55 86 56 87 64 88
REMARK SMILES IDX 57 89 63 90 65 91 62 92 58 93 59 94 60 95 61 96
REMARK H PARENT 22 6 21 26 26 30 85 49 53 60
REMARK Flexibility Score: inf
ROOT
ATOM      1  C   UNL A   1      31.504  29.611  27.244  1.00  0.00     0.042 C 
ENDROOT
BRANCH   1   2
ATOM      2  C   UNL A   1      32.135  28.279  27.557  1.00  0.00     0.117 C 
BRANCH   2   3
ATOM      3  N   UNL A   1      33.199  27.836  26.664  1.00  0.00    -0.356 N 
ATOM      4  O   UNL A   1      32.249  25.798  26.240  1.00  0.00    -0.275 OA
ATOM      5  C   UNL A   1      33.051  26.678  25.923  1.00  0.00     0.224 C 
ATOM      6  H   UNL A   1      34.027  28.364  26.587  1.00  0.00     0.163 HD
BRANCH   5   7
ATOM      7  C   UNL A   1      34.001  26.472  24.767  1.00  0.00     0.141 C 
BRANCH   7   8
ATOM      8  C   UNL A   1      33.613  25.728  23.502  1.00  0.00     0.022 A 
ATOM      9  C   UNL A   1      34.255  24.501  23.330  1.00  0.00     0.121 A 
ATOM     10  C   UNL A   1      32.550  25.957  22.613  1.00  0.00     0.135 A 
ATOM     11  N   UNL A   1      33.947  23.579  22.404  1.00  0.00    -0.244 NA
ATOM     12  N   UNL A   1      32.210  25.035  21.683  1.00  0.00    -0.219 NA
ATOM     13  C   UNL A   1      32.920  23.901  21.622  1.00  0.00     0.224 A 
BRANCH  10  14
ATOM     14  N   UNL A   1      31.774  27.105  22.624  1.00  0.00    -0.356 N 
ATOM     15  C   UNL A   1      32.418  28.424  22.725  1.00  0.00     0.121 C 
ATOM     16  C   UNL A   1      30.614  27.073  23.498  1.00  0.00     0.121 C 
ATOM     17  C   UNL A   1      31.443  29.509  22.214  1.00  0.00     0.060 C 
ATOM     18  C   UNL A   1      29.566  27.892  22.772  1.00  0.00     0.060 C 
ATOM     19  C   UNL A   1      29.963  29.361  22.678  1.00  0.00     0.097 C 
ATOM     20  O   UNL A   1      29.792  29.816  24.034  1.00  0.00    -0.372 OA
ATOM     21  C   UNL A   1      28.994  30.060  21.657  1.00  0.00     0.146 C 
ATOM     22  C   UNL A   1      29.626  31.208  24.246  1.00  0.00     0.161 C 
ATOM     23  C   UNL A   1      28.879  31.556  21.907  1.00  0.00     0.037 C 
ATOM     24  C   UNL A   1      28.540  31.803  23.370  1.00  0.00     0.031 C 
BRANCH  21  25
ATOM     25  O   UNL A   1      27.655  29.544  21.716  1.00  0.00    -0.390 OA
ATOM     26  H   UNL A   1      27.629  28.781  22.316  1.00  0.00     0.211 HD
ENDBRANCH  21  25
ENDBRANCH  10  14
ENDBRANCH   7   8
ENDBRANCH   5   7
ENDBRANCH   2   3
ENDBRANCH   1   2
BRANCH   1  27
ATOM     27  C   UNL A   1      32.434  30.584  26.543  1.00  0.00     0.118 C 
BRANCH  27  28
ATOM     28  N   UNL A   1      32.437  31.953  27.062  1.00  0.00    -0.352 N 
ATOM     29  C   UNL A   1      33.444  32.683  27.672  1.00  0.00     0.251 C 
ATOM     30  H   UNL A   1      31.583  32.434  26.962  1.00  0.00     0.163 HD
ATOM     31  O   UNL A   1      33.230  33.826  28.046  1.00  0.00    -0.269 OA
BRANCH  29  32
ATOM     32  C   UNL A   1      34.753  32.040  27.931  1.00  0.00     0.039 A 
ATOM     33  C   UNL A   1      35.892  32.831  28.090  1.00  0.00     0.014 A 
ATOM     34  C   UNL A   1      34.824  30.669  28.146  1.00  0.00     0.014 A 
ATOM     35  C   UNL A   1      37.056  32.258  28.614  1.00  0.00     0.010 A 
ATOM     36  C   UNL A   1      35.904  30.152  28.840  1.00  0.00     0.010 A 
ATOM     37  C   UNL A   1      37.046  30.932  29.076  1.00  0.00    -0.014 A 
BRANCH  37  38
ATOM     38  C   UNL A   1      38.205  30.320  29.786  1.00  0.00     0.031 A 
ATOM     39  C   UNL A   1      38.491  30.708  31.218  1.00  0.00     0.074 A 
ATOM     40  C   UNL A   1      39.059  29.509  29.126  1.00  0.00     0.049 A 
ATOM     41  N   UNL A   1      39.530  30.434  31.964  1.00  0.00    -0.248 NA
ATOM     42  C   UNL A   1      37.510  31.590  31.871  1.00  0.00     0.031 C 
ATOM     43  C   UNL A   1      38.956  29.126  27.714  1.00  0.00     0.029 A 
ATOM     44  N   UNL A   1      40.190  28.859  29.555  1.00  0.00    -0.354 N 
ATOM     45  C   UNL A   1      39.349  31.155  33.140  1.00  0.00     0.074 A 
ATOM     46  C   UNL A   1      38.158  31.954  32.963  1.00  0.00     0.031 C 
ATOM     47  C   UNL A   1      39.943  28.265  27.414  1.00  0.00     0.029 A 
ATOM     48  C   UNL A   1      40.781  28.072  28.591  1.00  0.00     0.049 A 
ATOM     49  H   UNL A   1      40.546  28.948  30.469  1.00  0.00     0.167 HD
ATOM     50  C   UNL A   1      40.076  31.119  34.285  1.00  0.00     0.034 A 
ATOM     51  C   UNL A   1      41.873  27.284  28.653  1.00  0.00     0.034 A 
ATOM     52  C   UNL A   1      41.211  30.251  34.471  1.00  0.00     0.049 A 
ATOM     53  C   UNL A   1      42.624  27.197  29.956  1.00  0.00     0.074 A 
ATOM     54  C   UNL A   1      41.972  30.056  35.610  1.00  0.00     0.029 A 
ATOM     55  N   UNL A   1      41.735  29.416  33.492  1.00  0.00    -0.354 N 
ATOM     56  N   UNL A   1      42.407  27.842  31.081  1.00  0.00    -0.248 NA
ATOM     57  C   UNL A   1      43.758  26.266  30.005  1.00  0.00     0.031 C 
ATOM     58  C   UNL A   1      42.984  29.138  35.306  1.00  0.00     0.029 A 
ATOM     59  C   UNL A   1      42.816  28.712  33.998  1.00  0.00     0.049 A 
ATOM     60  H   UNL A   1      41.390  29.336  32.574  1.00  0.00     0.167 HD
ATOM     61  C   UNL A   1      43.360  27.369  31.978  1.00  0.00     0.074 A 
ATOM     62  C   UNL A   1      44.138  26.372  31.270  1.00  0.00     0.031 C 
ATOM     63  C   UNL A   1      43.576  27.723  33.270  1.00  0.00     0.034 A 
BRANCH  50  64
ATOM     64  C   UNL A   1      39.650  32.036  35.409  1.00  0.00     0.023 A 
ATOM     65  C   UNL A   1      38.944  31.556  36.526  1.00  0.00     0.031 A 
ATOM     66  C   UNL A   1      39.896  33.419  35.337  1.00  0.00     0.131 A 
ATOM     67  C   UNL A   1      38.415  32.455  37.464  1.00  0.00     0.055 A 
ATOM     68  C   UNL A   1      39.454  34.298  36.328  1.00  0.00     0.041 A 
ATOM     69  F   UNL A   1      40.550  33.944  34.289  1.00  0.00    -0.206 F 
ATOM     70  C   UNL A   1      38.689  33.821  37.388  1.00  0.00     0.022 A 
BRANCH  67  71
ATOM     71  S   UNL A   1      37.219  31.830  38.677  1.00  0.00     0.124 S 
ATOM     72  O   UNL A   1      37.029  30.455  38.218  1.00  0.00    -0.237 OA
ATOM     73  O   UNL A   1      37.934  31.989  39.937  1.00  0.00    -0.237 OA
ATOM     74  O   UNL A   1      36.062  32.704  38.499  1.00  0.00    -0.744 OA
ENDBRANCH  67  71
ENDBRANCH  50  64
BRANCH  51  75
ATOM     75  C   UNL A   1      42.310  26.492  27.466  1.00  0.00     0.023 A 
ATOM     76  C   UNL A   1      41.948  25.142  27.328  1.00  0.00     0.031 A 
ATOM     77  C   UNL A   1      43.127  27.058  26.471  1.00  0.00     0.131 A 
ATOM     78  C   UNL A   1      42.441  24.387  26.252  1.00  0.00     0.055 A 
ATOM     79  C   UNL A   1      43.574  26.317  25.375  1.00  0.00     0.041 A 
ATOM     80  F   UNL A   1      43.494  28.347  26.547  1.00  0.00    -0.206 F 
ATOM     81  C   UNL A   1      43.243  24.970  25.268  1.00  0.00     0.022 A 
BRANCH  78  82
ATOM     82  S   UNL A   1      42.087  22.609  26.202  1.00  0.00     0.124 S 
ATOM     83  O   UNL A   1      40.629  22.597  26.156  1.00  0.00    -0.237 OA
ATOM     84  O   UNL A   1      42.772  22.198  24.980  1.00  0.00    -0.237 OA
ATOM     85  O   UNL A   1      42.677  22.110  27.442  1.00  0.00    -0.744 OA
ENDBRANCH  78  82
ENDBRANCH  51  75
BRANCH  63  86
ATOM     86  C   UNL A   1      44.667  26.988  34.005  1.00  0.00     0.023 A 
ATOM     87  C   UNL A   1      44.450  25.723  34.575  1.00  0.00     0.031 A 
ATOM     88  C   UNL A   1      45.939  27.570  34.145  1.00  0.00     0.131 A 
ATOM     89  C   UNL A   1      45.470  25.106  35.312  1.00  0.00     0.055 A 
ATOM     90  C   UNL A   1      46.970  26.925  34.828  1.00  0.00     0.041 A 
ATOM     91  F   UNL A   1      46.200  28.777  33.618  1.00  0.00    -0.206 F 
ATOM     92  C   UNL A   1      46.734  25.690  35.428  1.00  0.00     0.022 A 
BRANCH  89  93
ATOM     93  S   UNL A   1      45.093  23.569  36.198  1.00  0.00     0.124 S 
ATOM     94  O   UNL A   1      43.882  23.117  35.520  1.00  0.00    -0.237 OA
ATOM     95  O   UNL A   1      46.291  22.771  35.961  1.00  0.00    -0.237 OA
ATOM     96  O   UNL A   1      44.904  24.007  37.579  1.00  0.00    -0.744 OA
ENDBRANCH  89  93
ENDBRANCH  63  86
ENDBRANCH  37  38
ENDBRANCH  29  32
ENDBRANCH  27  28
ENDBRANCH   1  27
TORSDOF 16
ENDMDL
MODEL 2
REMARK VINA RESULT:     -12.7      5.270     10.771
REMARK SMILES O=C(Cc1cncnc1N1CCC2(CC1)OCCC[C@@H]2O)NCCCNC(=O)c1ccc(-c2c3nc(c(-c4cc(S(=O)(=O)[O-])ccc4F)c4ccc([nH]4)c(-c4cc(S(=O)(=O)[O-])ccc4F)c4nc(c(-c5cc(S(=O)(=O)[O-])ccc5F)c5ccc2[nH]5)C=C4)C=C3)cc1
REMARK SMILES IDX 24 1 23 2 22 3 1 4 2 5 3 7 4 8 5 9 9 10 6 11 8 12 7 13 10 14
REMARK SMILES IDX 11 15 15 16 12 17 14 18 13 19 16 20 20 21 17 22 19 23 18 24
REMARK SMILES IDX 21 25 25 27 26 28 27 29 28 31 29 32 30 33 91 34 31 35 90 36
REMARK SMILES IDX 32 37 33 38 34 39 84 40 35 41 89 42 83 43 85 44 36 45 88 46
REMARK SMILES IDX 82 47 81 48 37 50 69 51 49 52 68 53 50 54 53 55 67 56 86 57
REMARK SMILES IDX 51 58 52 59 66 61 87 62 54 63 38 64 39 65 47 66 40 67 46 68
REMARK SMILES IDX 48 69 45 70 41 71 42 72 43 73 44 74 70 75 71 76 79 77 72 78
REMARK SMILES IDX 78 79 80 80 77 81 73 82 74 83 75 84 76 85 55 86 56 87 64 88
REMARK SMILES IDX 57 89 63 90 65 91 62 92 58 93 59 94 60 95 61 96
REMARK H PARENT 22 6 21 26 26 30 85 49 53 60
REMARK Flexibility Score: inf
ROOT
ATOM      1  C   UNL A   1      37.124  21.812  23.994  1.00  0.00     0.042 C 
ENDROOT
BRANCH   1   2
ATOM      2  C   UNL A   1      36.711  23.243  23.770  1.00  0.00     0.117 C 
BRANCH   2   3
ATOM      3  N   UNL A   1      36.100  23.931  24.902  1.00  0.00    -0.356 N 
ATOM      4  O   UNL A   1      34.407  24.852  23.669  1.00  0.00    -0.275 OA
ATOM      5  C   UNL A   1      34.863  24.532  24.768  1.00  0.00     0.224 C 
ATOM      6  H   UNL A   1      36.572  23.967  25.766  1.00  0.00     0.163 HD
BRANCH   5   7
ATOM      7  C   UNL A   1      34.131  24.896  26.038  1.00  0.00     0.141 C 
BRANCH   7   8
ATOM      8  C   UNL A   1      32.626  24.764  26.191  1.00  0.00     0.022 A 
ATOM      9  C   UNL A   1      31.950  25.975  26.340  1.00  0.00     0.121 A 
ATOM     10  C   UNL A   1      31.792  23.656  25.968  1.00  0.00     0.135 A 
ATOM     11  N   UNL A   1      30.617  26.138  26.302  1.00  0.00    -0.244 NA
ATOM     12  N   UNL A   1      30.449  23.799  25.908  1.00  0.00    -0.219 NA
ATOM     13  C   UNL A   1      29.930  25.021  26.079  1.00  0.00     0.224 A 
BRANCH  10  14
ATOM     14  N   UNL A   1      32.263  22.367  25.781  1.00  0.00    -0.356 N 
ATOM     15  C   UNL A   1      33.337  21.846  26.642  1.00  0.00     0.121 C 
ATOM     16  C   UNL A   1      32.530  21.987  24.404  1.00  0.00     0.121 C 
ATOM     17  C   UNL A   1      33.326  20.301  26.593  1.00  0.00     0.060 C 
ATOM     18  C   UNL A   1      32.178  20.514  24.338  1.00  0.00     0.060 C 
ATOM     19  C   UNL A   1      33.125  19.669  25.183  1.00  0.00     0.097 C 
ATOM     20  O   UNL A   1      34.343  19.707  24.415  1.00  0.00    -0.372 OA
ATOM     21  C   UNL A   1      32.508  18.230  25.308  1.00  0.00     0.146 C 
ATOM     22  C   UNL A   1      35.295  18.681  24.641  1.00  0.00     0.161 C 
ATOM     23  C   UNL A   1      33.567  17.173  25.584  1.00  0.00     0.037 C 
ATOM     24  C   UNL A   1      34.685  17.294  24.559  1.00  0.00     0.031 C 
BRANCH  21  25
ATOM     25  O   UNL A   1      31.829  17.809  24.114  1.00  0.00    -0.390 OA
ATOM     26  H   UNL A   1      31.997  18.448  23.404  1.00  0.00     0.211 HD
ENDBRANCH  21  25
ENDBRANCH  10  14
ENDBRANCH   7   8
ENDBRANCH   5   7
ENDBRANCH   2   3
ENDBRANCH   1   2
BRANCH   1  27
ATOM     27  C   UNL A   1      37.508  21.499  25.429  1.00  0.00     0.118 C 
BRANCH  27  28
ATOM     28  N   UNL A   1      38.713  20.685  25.605  1.00  0.00    -0.352 N 
ATOM     29  C   UNL A   1      39.889  20.954  26.284  1.00  0.00     0.251 C 
ATOM     30  H   UNL A   1      38.681  19.802  25.169  1.00  0.00     0.163 HD
ATOM     31  O   UNL A   1      40.789  20.127  26.299  1.00  0.00    -0.269 OA
BRANCH  29  32
ATOM     32  C   UNL A   1      40.072  22.276  26.926  1.00  0.00     0.039 A 
ATOM     33  C   UNL A   1      40.994  22.418  27.965  1.00  0.00     0.014 A 
ATOM     34  C   UNL A   1      39.430  23.394  26.410  1.00  0.00     0.014 A 
ATOM     35  C   UNL A   1      41.375  23.702  28.371  1.00  0.00     0.010 A 
ATOM     36  C   UNL A   1      39.948  24.650  26.676  1.00  0.00     0.010 A 
ATOM     37  C   UNL A   1      40.920  24.830  27.670  1.00  0.00    -0.014 A 
BRANCH  37  38
ATOM     38  C   UNL A   1      41.415  26.207  27.956  1.00  0.00     0.031 A 
ATOM     39  C   UNL A   1      42.801  26.609  27.506  1.00  0.00     0.074 A 
ATOM     40  C   UNL A   1      40.679  27.055  28.705  1.00  0.00     0.049 A 
ATOM     41  N   UNL A   1      43.491  27.682  27.793  1.00  0.00    -0.248 NA
ATOM     42  C   UNL A   1      43.538  25.632  26.687  1.00  0.00     0.031 C 
ATOM     43  C   UNL A   1      39.365  26.763  29.285  1.00  0.00     0.029 A 
ATOM     44  N   UNL A   1      40.934  28.342  29.114  1.00  0.00    -0.354 N 
ATOM     45  C   UNL A   1      44.751  27.478  27.240  1.00  0.00     0.074 A 
ATOM     46  C   UNL A   1      44.758  26.139  26.695  1.00  0.00     0.031 C 
ATOM     47  C   UNL A   1      38.906  27.855  29.918  1.00  0.00     0.029 A 
ATOM     48  C   UNL A   1      39.910  28.909  29.840  1.00  0.00     0.049 A 
ATOM     49  H   UNL A   1      41.772  28.815  28.906  1.00  0.00     0.167 HD
ATOM     50  C   UNL A   1      45.794  28.341  27.145  1.00  0.00     0.034 A 
ATOM     51  C   UNL A   1      39.795  30.141  30.376  1.00  0.00     0.034 A 
ATOM     52  C   UNL A   1      45.737  29.700  27.620  1.00  0.00     0.049 A 
ATOM     53  C   UNL A   1      40.933  31.112  30.195  1.00  0.00     0.074 A 
ATOM     54  C   UNL A   1      46.689  30.697  27.502  1.00  0.00     0.029 A 
ATOM     55  N   UNL A   1      44.654  30.259  28.287  1.00  0.00    -0.354 N 
ATOM     56  N   UNL A   1      42.098  30.924  29.618  1.00  0.00    -0.248 NA
ATOM     57  C   UNL A   1      40.735  32.468  30.724  1.00  0.00     0.031 C 
ATOM     58  C   UNL A   1      46.201  31.844  28.138  1.00  0.00     0.029 A 
ATOM     59  C   UNL A   1      44.919  31.584  28.596  1.00  0.00     0.049 A 
ATOM     60  H   UNL A   1      43.820  29.785  28.508  1.00  0.00     0.167 HD
ATOM     61  C   UNL A   1      42.758  32.147  29.689  1.00  0.00     0.074 A 
ATOM     62  C   UNL A   1      41.853  33.069  30.345  1.00  0.00     0.031 C 
ATOM     63  C   UNL A   1      43.999  32.482  29.252  1.00  0.00     0.034 A 
BRANCH  50  64
ATOM     64  C   UNL A   1      47.063  27.832  26.500  1.00  0.00     0.023 A 
ATOM     65  C   UNL A   1      47.343  28.062  25.142  1.00  0.00     0.031 A 
ATOM     66  C   UNL A   1      47.976  27.053  27.232  1.00  0.00     0.131 A 
ATOM     67  C   UNL A   1      48.439  27.433  24.533  1.00  0.00     0.055 A 
ATOM     68  C   UNL A   1      49.121  26.513  26.643  1.00  0.00     0.041 A 
ATOM     69  F   UNL A   1      47.758  26.782  28.529  1.00  0.00    -0.206 F 
ATOM     70  C   UNL A   1      49.347  26.682  25.280  1.00  0.00     0.022 A 
BRANCH  67  71
ATOM     71  S   UNL A   1      48.555  27.466  22.722  1.00  0.00     0.124 S 
ATOM     72  O   UNL A   1      47.341  28.198  22.365  1.00  0.00    -0.237 OA
ATOM     73  O   UNL A   1      49.813  28.169  22.499  1.00  0.00    -0.237 OA
ATOM     74  O   UNL A   1      48.554  26.053  22.353  1.00  0.00    -0.744 OA
ENDBRANCH  67  71
ENDBRANCH  50  64
BRANCH  51  75
ATOM     75  C   UNL A   1      38.558  30.542  31.107  1.00  0.00     0.023 A 
ATOM     76  C   UNL A   1      37.515  31.210  30.444  1.00  0.00     0.031 A 
ATOM     77  C   UNL A   1      38.412  30.300  32.484  1.00  0.00     0.131 A 
ATOM     78  C   UNL A   1      36.397  31.660  31.164  1.00  0.00     0.055 A 
ATOM     79  C   UNL A   1      37.275  30.704  33.187  1.00  0.00     0.041 A 
ATOM     80  F   UNL A   1      39.373  29.655  33.165  1.00  0.00    -0.206 F 
ATOM     81  C   UNL A   1      36.266  31.401  32.530  1.00  0.00     0.022 A 
BRANCH  78  82
ATOM     82  S   UNL A   1      35.155  32.663  30.304  1.00  0.00     0.124 S 
ATOM     83  O   UNL A   1      34.713  31.754  29.254  1.00  0.00    -0.237 OA
ATOM     84  O   UNL A   1      34.192  32.930  31.369  1.00  0.00    -0.237 OA
ATOM     85  O   UNL A   1      35.913  33.826  29.848  1.00  0.00    -0.744 OA
ENDBRANCH  78  82
ENDBRANCH  51  75
BRANCH  63  86
ATOM     86  C   UNL A   1      44.419  33.918  29.432  1.00  0.00     0.023 A 
ATOM     87  C   UNL A   1      44.076  34.909  28.498  1.00  0.00     0.031 A 
ATOM     88  C   UNL A   1      45.185  34.294  30.550  1.00  0.00     0.131 A 
ATOM     89  C   UNL A   1      44.549  36.218  28.666  1.00  0.00     0.055 A 
ATOM     90  C   UNL A   1      45.601  35.611  30.743  1.00  0.00     0.041 A 
ATOM     91  F   UNL A   1      45.539  33.386  31.473  1.00  0.00    -0.206 F 
ATOM     92  C   UNL A   1      45.295  36.580  29.791  1.00  0.00     0.022 A 
BRANCH  89  93
ATOM     93  S   UNL A   1      44.254  37.424  27.344  1.00  0.00     0.124 S 
ATOM     94  O   UNL A   1      44.001  38.647  28.100  1.00  0.00    -0.237 OA
ATOM     95  O   UNL A   1      45.507  37.384  26.599  1.00  0.00    -0.237 OA
ATOM     96  O   UNL A   1      43.095  36.882  26.638  1.00  0.00    -0.744 OA
ENDBRANCH  89  93
ENDBRANCH  63  86
ENDBRANCH  37  38
ENDBRANCH  29  32
ENDBRANCH  27  28
ENDBRANCH   1  27
TORSDOF 16
ENDMDL
MODEL 3
REMARK VINA RESULT:     -12.7      1.279      7.530
REMARK SMILES O=C(Cc1cncnc1N1CCC2(CC1)OCCC[C@@H]2O)NCCCNC(=O)c1ccc(-c2c3nc(c(-c4cc(S(=O)(=O)[O-])ccc4F)c4ccc([nH]4)c(-c4cc(S(=O)(=O)[O-])ccc4F)c4nc(c(-c5cc(S(=O)(=O)[O-])ccc5F)c5ccc2[nH]5)C=C4)C=C3)cc1
REMARK SMILES IDX 24 1 23 2 22 3 1 4 2 5 3 7 4 8 5 9 9 10 6 11 8 12 7 13 10 14
REMARK SMILES IDX 11 15 15 16 12 17 14 18 13 19 16 20 20 21 17 22 19 23 18 24
REMARK SMILES IDX 21 25 25 27 26 28 27 29 28 31 29 32 30 33 91 34 31 35 90 36
REMARK SMILES IDX 32 37 33 38 34 39 84 40 35 41 89 42 83 43 85 44 36 45 88 46
REMARK SMILES IDX 82 47 81 48 37 50 69 51 49 52 68 53 50 54 53 55 67 56 86 57
REMARK SMILES IDX 51 58 52 59 66 61 87 62 54 63 38 64 39 65 47 66 40 67 46 68
REMARK SMILES IDX 48 69 45 70 41 71 42 72 43 73 44 74 70 75 71 76 79 77 72 78
REMARK SMILES IDX 78 79 80 80 77 81 73 82 74 83 75 84 76 85 55 86 56 87 64 88
REMARK SMILES IDX 57 89 63 90 65 91 62 92 58 93 59 94 60 95 61 96
REMARK H PARENT 22 6 21 26 26 30 85 49 53 60
REMARK Flexibility Score: inf
ROOT
ATOM      1  C   UNL A   1      31.356  31.184  26.760  1.00  0.00     0.042 C 
ENDROOT
BRANCH   1   2
ATOM      2  C   UNL A   1      32.052  29.871  27.007  1.00  0.00     0.117 C 
BRANCH   2   3
ATOM      3  N   UNL A   1      32.982  29.422  25.978  1.00  0.00    -0.356 N 
ATOM      4  O   UNL A   1      33.281  27.344  26.889  1.00  0.00    -0.275 OA
ATOM      5  C   UNL A   1      33.370  28.096  25.917  1.00  0.00     0.224 C 
ATOM      6  H   UNL A   1      33.336  30.066  25.322  1.00  0.00     0.163 HD
BRANCH   5   7
ATOM      7  C   UNL A   1      34.022  27.625  24.639  1.00  0.00     0.141 C 
BRANCH   7   8
ATOM      8  C   UNL A   1      33.451  26.509  23.782  1.00  0.00     0.022 A 
ATOM      9  C   UNL A   1      34.166  25.312  23.838  1.00  0.00     0.121 A 
ATOM     10  C   UNL A   1      32.205  26.412  23.144  1.00  0.00     0.135 A 
ATOM     11  N   UNL A   1      33.765  24.136  23.328  1.00  0.00    -0.244 NA
ATOM     12  N   UNL A   1      31.772  25.234  22.639  1.00  0.00    -0.219 NA
ATOM     13  C   UNL A   1      32.566  24.163  22.752  1.00  0.00     0.224 A 
BRANCH  10  14
ATOM     14  N   UNL A   1      31.334  27.479  22.995  1.00  0.00    -0.356 N 
ATOM     15  C   UNL A   1      31.845  28.788  22.558  1.00  0.00     0.121 C 
ATOM     16  C   UNL A   1      30.388  27.677  24.080  1.00  0.00     0.121 C 
ATOM     17  C   UNL A   1      30.679  29.628  21.988  1.00  0.00     0.060 C 
ATOM     18  C   UNL A   1      29.134  28.195  23.405  1.00  0.00     0.060 C 
ATOM     19  C   UNL A   1      29.349  29.577  22.799  1.00  0.00     0.097 C 
ATOM     20  O   UNL A   1      29.416  30.421  23.965  1.00  0.00    -0.372 OA
ATOM     21  C   UNL A   1      28.125  29.894  21.867  1.00  0.00     0.146 C 
ATOM     22  C   UNL A   1      29.154  31.803  23.794  1.00  0.00     0.161 C 
ATOM     23  C   UNL A   1      27.910  31.389  21.689  1.00  0.00     0.037 C 
ATOM     24  C   UNL A   1      27.856  32.061  23.053  1.00  0.00     0.031 C 
BRANCH  21  25
ATOM     25  O   UNL A   1      26.887  29.373  22.377  1.00  0.00    -0.390 OA
ATOM     26  H   UNL A   1      26.561  29.950  23.086  1.00  0.00     0.211 HD
ENDBRANCH  21  25
ENDBRANCH  10  14
ENDBRANCH   7   8
ENDBRANCH   5   7
ENDBRANCH   2   3
ENDBRANCH   1   2
BRANCH   1  27
ATOM     27  C   UNL A   1      32.297  32.328  26.430  1.00  0.00     0.118 C 
BRANCH  27  28
ATOM     28  N   UNL A   1      32.154  33.530  27.253  1.00  0.00    -0.352 N 
ATOM     29  C   UNL A   1      33.018  34.098  28.175  1.00  0.00     0.251 C 
ATOM     30  H   UNL A   1      31.305  34.014  27.132  1.00  0.00     0.163 HD
ATOM     31  O   UNL A   1      32.694  35.116  28.770  1.00  0.00    -0.269 OA
BRANCH  29  32
ATOM     32  C   UNL A   1      34.299  33.422  28.484  1.00  0.00     0.039 A 
ATOM     33  C   UNL A   1      35.471  34.174  28.583  1.00  0.00     0.014 A 
ATOM     34  C   UNL A   1      34.311  32.070  28.804  1.00  0.00     0.014 A 
ATOM     35  C   UNL A   1      36.610  33.594  29.150  1.00  0.00     0.010 A 
ATOM     36  C   UNL A   1      35.370  31.563  29.537  1.00  0.00     0.010 A 
ATOM     37  C   UNL A   1      36.545  32.309  29.713  1.00  0.00    -0.014 A 
BRANCH  37  38
ATOM     38  C   UNL A   1      37.678  31.704  30.470  1.00  0.00     0.031 A 
ATOM     39  C   UNL A   1      38.548  30.665  29.802  1.00  0.00     0.074 A 
ATOM     40  C   UNL A   1      37.861  31.997  31.775  1.00  0.00     0.049 A 
ATOM     41  N   UNL A   1      39.469  29.892  30.320  1.00  0.00    -0.248 NA
ATOM     42  C   UNL A   1      38.292  30.406  28.376  1.00  0.00     0.031 C 
ATOM     43  C   UNL A   1      37.036  32.911  32.570  1.00  0.00     0.029 A 
ATOM     44  N   UNL A   1      38.803  31.552  32.670  1.00  0.00    -0.354 N 
ATOM     45  C   UNL A   1      39.851  29.027  29.299  1.00  0.00     0.074 A 
ATOM     46  C   UNL A   1      38.990  29.303  28.172  1.00  0.00     0.031 C 
ATOM     47  C   UNL A   1      37.543  33.004  33.810  1.00  0.00     0.029 A 
ATOM     48  C   UNL A   1      38.696  32.119  33.921  1.00  0.00     0.049 A 
ATOM     49  H   UNL A   1      39.493  30.888  32.438  1.00  0.00     0.167 HD
ATOM     50  C   UNL A   1      40.860  28.121  29.280  1.00  0.00     0.034 A 
ATOM     51  C   UNL A   1      39.447  31.946  35.027  1.00  0.00     0.034 A 
ATOM     52  C   UNL A   1      41.761  27.920  30.386  1.00  0.00     0.049 A 
ATOM     53  C   UNL A   1      40.611  30.990  34.965  1.00  0.00     0.074 A 
ATOM     54  C   UNL A   1      42.874  27.101  30.457  1.00  0.00     0.029 A 
ATOM     55  N   UNL A   1      41.662  28.568  31.612  1.00  0.00    -0.354 N 
ATOM     56  N   UNL A   1      40.996  30.220  33.972  1.00  0.00    -0.248 NA
ATOM     57  C   UNL A   1      41.451  30.892  36.165  1.00  0.00     0.031 C 
ATOM     58  C   UNL A   1      43.420  27.217  31.740  1.00  0.00     0.029 A 
ATOM     59  C   UNL A   1      42.688  28.157  32.449  1.00  0.00     0.049 A 
ATOM     60  H   UNL A   1      40.967  29.221  31.851  1.00  0.00     0.167 HD
ATOM     61  C   UNL A   1      42.142  29.569  34.420  1.00  0.00     0.074 A 
ATOM     62  C   UNL A   1      42.394  30.053  35.763  1.00  0.00     0.031 C 
ATOM     63  C   UNL A   1      42.917  28.655  33.784  1.00  0.00     0.034 A 
BRANCH  50  64
ATOM     64  C   UNL A   1      41.032  27.297  28.024  1.00  0.00     0.023 A 
ATOM     65  C   UNL A   1      40.600  25.960  27.953  1.00  0.00     0.031 A 
ATOM     66  C   UNL A   1      41.690  27.831  26.901  1.00  0.00     0.131 A 
ATOM     67  C   UNL A   1      40.928  25.173  26.840  1.00  0.00     0.055 A 
ATOM     68  C   UNL A   1      41.922  27.070  25.754  1.00  0.00     0.041 A 
ATOM     69  F   UNL A   1      42.141  29.095  26.910  1.00  0.00    -0.206 F 
ATOM     70  C   UNL A   1      41.561  25.726  25.726  1.00  0.00     0.022 A 
BRANCH  67  71
ATOM     71  S   UNL A   1      40.672  23.380  26.946  1.00  0.00     0.124 S 
ATOM     72  O   UNL A   1      41.670  22.886  26.000  1.00  0.00    -0.237 OA
ATOM     73  O   UNL A   1      40.936  23.106  28.354  1.00  0.00    -0.237 OA
ATOM     74  O   UNL A   1      39.284  23.206  26.526  1.00  0.00    -0.744 OA
ENDBRANCH  67  71
ENDBRANCH  50  64
BRANCH  51  75
ATOM     75  C   UNL A   1      39.149  32.704  36.277  1.00  0.00     0.023 A 
ATOM     76  C   UNL A   1      38.344  32.146  37.283  1.00  0.00     0.031 A 
ATOM     77  C   UNL A   1      39.631  34.011  36.471  1.00  0.00     0.131 A 
ATOM     78  C   UNL A   1      38.000  32.906  38.412  1.00  0.00     0.055 A 
ATOM     79  C   UNL A   1      39.329  34.745  37.620  1.00  0.00     0.041 A 
ATOM     80  F   UNL A   1      40.415  34.589  35.546  1.00  0.00    -0.206 F 
ATOM     81  C   UNL A   1      38.498  34.199  38.592  1.00  0.00     0.022 A 
BRANCH  78  82
ATOM     82  S   UNL A   1      36.824  32.209  39.605  1.00  0.00     0.124 S 
ATOM     83  O   UNL A   1      37.320  30.846  39.750  1.00  0.00    -0.237 OA
ATOM     84  O   UNL A   1      37.008  33.086  40.758  1.00  0.00    -0.237 OA
ATOM     85  O   UNL A   1      35.536  32.338  38.927  1.00  0.00    -0.744 OA
ENDBRANCH  78  82
ENDBRANCH  51  75
BRANCH  63  86
ATOM     86  C   UNL A   1      44.135  28.162  34.524  1.00  0.00     0.023 A 
ATOM     87  C   UNL A   1      44.052  27.136  35.480  1.00  0.00     0.031 A 
ATOM     88  C   UNL A   1      45.392  28.738  34.274  1.00  0.00     0.131 A 
ATOM     89  C   UNL A   1      45.196  26.758  36.196  1.00  0.00     0.055 A 
ATOM     90  C   UNL A   1      46.539  28.316  34.946  1.00  0.00     0.041 A 
ATOM     91  F   UNL A   1      45.526  29.721  33.369  1.00  0.00    -0.206 F 
ATOM     92  C   UNL A   1      46.442  27.329  35.924  1.00  0.00     0.022 A 
BRANCH  89  93
ATOM     93  S   UNL A   1      45.016  25.573  37.557  1.00  0.00     0.124 S 
ATOM     94  O   UNL A   1      44.769  24.325  36.841  1.00  0.00    -0.237 OA
ATOM     95  O   UNL A   1      46.305  25.676  38.233  1.00  0.00    -0.237 OA
ATOM     96  O   UNL A   1      43.877  26.089  38.312  1.00  0.00    -0.744 OA
ENDBRANCH  89  93
ENDBRANCH  63  86
ENDBRANCH  37  38
ENDBRANCH  29  32
ENDBRANCH  27  28
ENDBRANCH   1  27
TORSDOF 16
ENDMDL
