MODEL 1
REMARK VINA RESULT:     -11.6      0.000      0.000
REMARK SMILES CCS(=O)(=O)Nc1ccc(N2CC[NH+](C)CC2)cc1C(=O)NCCCNC(=O)c1ccc(-c2c3nc(c(-c4cc(S(=O)(=O)[O-])ccc4F)c4ccc([nH]4)c(-c4cc(S(=O)(=O)[O-])ccc4F)c4nc(c(-c5cc(S(=O)(=O)[O-])ccc5F)c5ccc2[nH]5)C=C4)C=C3)cc1
REMARK SMILES IDX 24 1 23 2 22 3 20 4 21 5 19 7 7 8 8 9 9 10 18 11 10 12 6 13
REMARK SMILES IDX 3 15 4 16 5 17 2 18 1 19 11 20 12 21 17 22 13 23 16 24 14 25
REMARK SMILES IDX 15 26 25 28 26 29 27 30 28 32 29 33 30 34 91 35 31 36 90 37
REMARK SMILES IDX 32 38 33 39 34 40 84 41 35 42 89 43 83 44 85 45 36 46 88 47
REMARK SMILES IDX 82 48 81 49 37 51 69 52 49 53 68 54 50 55 53 56 67 57 86 58
REMARK SMILES IDX 51 59 52 60 66 62 87 63 54 64 38 65 39 66 47 67 40 68 46 69
REMARK SMILES IDX 48 70 45 71 41 72 42 73 43 74 44 75 70 76 71 77 79 78 72 79
REMARK SMILES IDX 78 80 80 81 77 82 73 83 74 84 75 85 76 86 55 87 56 88 64 89
REMARK SMILES IDX 57 90 63 91 65 92 62 93 58 94 59 95 60 96 61 97
REMARK H PARENT 22 6 6 14 14 27 26 31 85 50 53 61
REMARK Flexibility Score: inf
ROOT
ATOM      1  C   UNL A   1      37.866  20.814  25.175  1.00  0.00     0.042 C 
ENDROOT
BRANCH   1   2
ATOM      2  C   UNL A   1      36.867  21.950  25.286  1.00  0.00     0.118 C 
BRANCH   2   3
ATOM      3  N   UNL A   1      35.879  21.732  26.327  1.00  0.00    -0.352 N 
ATOM      4  C   UNL A   1      34.517  21.692  26.280  1.00  0.00     0.253 C 
ATOM      5  O   UNL A   1      33.906  21.510  27.335  1.00  0.00    -0.269 OA
ATOM      6  H   UNL A   1      36.259  21.589  27.223  1.00  0.00     0.163 HD
BRANCH   4   7
ATOM      7  C   UNL A   1      33.743  21.932  25.041  1.00  0.00     0.066 A 
ATOM      8  C   UNL A   1      32.915  21.019  24.384  1.00  0.00     0.061 A 
ATOM      9  C   UNL A   1      32.367  21.385  23.152  1.00  0.00     0.030 A 
ATOM     10  C   UNL A   1      32.496  22.687  22.667  1.00  0.00     0.028 A 
ATOM     11  C   UNL A   1      33.816  23.263  24.553  1.00  0.00     0.042 A 
ATOM     12  C   UNL A   1      33.144  23.685  23.400  1.00  0.00     0.038 A 
BRANCH   8  13
ATOM     13  N   UNL A   1      32.519  19.727  24.839  1.00  0.00    -0.283 N 
ATOM     14  H   UNL A   1      31.789  19.678  25.498  1.00  0.00     0.180 HD
BRANCH  13  15
ATOM     15  S   UNL A   1      33.204  18.290  24.332  1.00  0.00     0.232 S 
ATOM     16  O   UNL A   1      34.646  18.410  24.425  1.00  0.00    -0.207 OA
ATOM     17  O   UNL A   1      32.584  18.079  23.040  1.00  0.00    -0.207 OA
BRANCH  15  18
ATOM     18  C   UNL A   1      32.624  16.966  25.396  1.00  0.00     0.156 C 
ATOM     19  C   UNL A   1      33.517  15.745  25.455  1.00  0.00     0.023 C 
ENDBRANCH  15  18
ENDBRANCH  13  15
ENDBRANCH   8  13
BRANCH  12  20
ATOM     20  N   UNL A   1      33.048  25.012  23.041  1.00  0.00    -0.360 N 
ATOM     21  C   UNL A   1      33.617  26.120  23.827  1.00  0.00     0.178 C 
ATOM     22  C   UNL A   1      32.539  25.400  21.715  1.00  0.00     0.178 C 
ATOM     23  C   UNL A   1      32.648  27.333  23.858  1.00  0.00     0.283 C 
ATOM     24  C   UNL A   1      31.576  26.600  21.832  1.00  0.00     0.283 C 
ATOM     25  N   UNL A   1      32.189  27.757  22.513  1.00  0.00    -0.334 N 
ATOM     26  C   UNL A   1      31.227  28.852  22.612  1.00  0.00     0.332 C 
ATOM     27  H   UNL A   1      32.990  28.092  21.975  1.00  0.00     0.347 HD
ENDBRANCH  12  20
ENDBRANCH   4   7
ENDBRANCH   2   3
ENDBRANCH   1   2
BRANCH   1  28
ATOM     28  C   UNL A   1      39.129  21.010  26.012  1.00  0.00     0.118 C 
BRANCH  28  29
ATOM     29  N   UNL A   1      40.110  19.934  25.922  1.00  0.00    -0.352 N 
ATOM     30  C   UNL A   1      41.478  19.951  26.110  1.00  0.00     0.251 C 
ATOM     31  H   UNL A   1      39.737  19.054  25.690  1.00  0.00     0.163 HD
ATOM     32  O   UNL A   1      42.144  18.932  25.956  1.00  0.00    -0.269 OA
BRANCH  30  33
ATOM     33  C   UNL A   1      42.159  21.228  26.429  1.00  0.00     0.039 A 
ATOM     34  C   UNL A   1      42.430  22.129  25.398  1.00  0.00     0.014 A 
ATOM     35  C   UNL A   1      42.447  21.578  27.745  1.00  0.00     0.014 A 
ATOM     36  C   UNL A   1      42.842  23.430  25.706  1.00  0.00     0.010 A 
ATOM     37  C   UNL A   1      42.711  22.906  28.058  1.00  0.00     0.010 A 
ATOM     38  C   UNL A   1      42.898  23.858  27.043  1.00  0.00    -0.014 A 
BRANCH  38  39
ATOM     39  C   UNL A   1      43.126  25.286  27.409  1.00  0.00     0.031 A 
ATOM     40  C   UNL A   1      44.502  25.887  27.275  1.00  0.00     0.074 A 
ATOM     41  C   UNL A   1      42.129  26.010  27.961  1.00  0.00     0.049 A 
ATOM     42  N   UNL A   1      44.946  27.047  27.689  1.00  0.00    -0.248 NA
ATOM     43  C   UNL A   1      45.528  25.048  26.637  1.00  0.00     0.031 C 
ATOM     44  C   UNL A   1      40.765  25.533  28.212  1.00  0.00     0.029 A 
ATOM     45  N   UNL A   1      42.106  27.305  28.423  1.00  0.00    -0.354 N 
ATOM     46  C   UNL A   1      46.307  27.056  27.397  1.00  0.00     0.074 A 
ATOM     47  C   UNL A   1      46.624  25.759  26.842  1.00  0.00     0.031 C 
ATOM     48  C   UNL A   1      40.033  26.528  28.736  1.00  0.00     0.029 A 
ATOM     49  C   UNL A   1      40.883  27.700  28.919  1.00  0.00     0.049 A 
ATOM     50  H   UNL A   1      42.894  27.896  28.402  1.00  0.00     0.167 HD
ATOM     51  C   UNL A   1      47.203  28.064  27.543  1.00  0.00     0.034 A 
ATOM     52  C   UNL A   1      40.491  28.867  29.469  1.00  0.00     0.034 A 
ATOM     53  C   UNL A   1      46.862  29.371  28.050  1.00  0.00     0.049 A 
ATOM     54  C   UNL A   1      41.500  29.980  29.604  1.00  0.00     0.074 A 
ATOM     55  C   UNL A   1      47.672  30.486  28.177  1.00  0.00     0.029 A 
ATOM     56  N   UNL A   1      45.604  29.741  28.507  1.00  0.00    -0.354 N 
ATOM     57  N   UNL A   1      42.773  29.984  29.283  1.00  0.00    -0.248 NA
ATOM     58  C   UNL A   1      41.017  31.247  30.170  1.00  0.00     0.031 C 
ATOM     59  C   UNL A   1      46.920  31.512  28.759  1.00  0.00     0.029 A 
ATOM     60  C   UNL A   1      45.620  31.060  28.932  1.00  0.00     0.049 A 
ATOM     61  H   UNL A   1      44.814  29.152  28.526  1.00  0.00     0.167 HD
ATOM     62  C   UNL A   1      43.232  31.266  29.577  1.00  0.00     0.074 A 
ATOM     63  C   UNL A   1      42.098  32.007  30.087  1.00  0.00     0.031 C 
ATOM     64  C   UNL A   1      44.479  31.784  29.438  1.00  0.00     0.034 A 
BRANCH  51  65
ATOM     65  C   UNL A   1      48.635  27.781  27.153  1.00  0.00     0.023 A 
ATOM     66  C   UNL A   1      49.137  28.135  25.888  1.00  0.00     0.031 A 
ATOM     67  C   UNL A   1      49.499  27.114  28.039  1.00  0.00     0.131 A 
ATOM     68  C   UNL A   1      50.429  27.741  25.510  1.00  0.00     0.055 A 
ATOM     69  C   UNL A   1      50.816  26.804  27.689  1.00  0.00     0.041 A 
ATOM     70  F   UNL A   1      49.074  26.734  29.254  1.00  0.00    -0.206 F 
ATOM     71  C   UNL A   1      51.283  27.101  26.412  1.00  0.00     0.022 A 
BRANCH  68  72
ATOM     72  S   UNL A   1      50.919  27.939  23.775  1.00  0.00     0.124 S 
ATOM     73  O   UNL A   1      49.633  27.822  23.093  1.00  0.00    -0.237 OA
ATOM     74  O   UNL A   1      51.528  29.264  23.769  1.00  0.00    -0.237 OA
ATOM     75  O   UNL A   1      51.840  26.827  23.551  1.00  0.00    -0.744 OA
ENDBRANCH  68  72
ENDBRANCH  51  65
BRANCH  52  76
ATOM     76  C   UNL A   1      39.087  29.058  29.937  1.00  0.00     0.023 A 
ATOM     77  C   UNL A   1      38.120  29.632  29.095  1.00  0.00     0.031 A 
ATOM     78  C   UNL A   1      38.702  28.722  31.247  1.00  0.00     0.131 A 
ATOM     79  C   UNL A   1      36.834  29.904  29.588  1.00  0.00     0.055 A 
ATOM     80  C   UNL A   1      37.406  28.945  31.715  1.00  0.00     0.041 A 
ATOM     81  F   UNL A   1      39.585  28.164  32.092  1.00  0.00    -0.206 F 
ATOM     82  C   UNL A   1      36.467  29.553  30.889  1.00  0.00     0.022 A 
BRANCH  79  83
ATOM     83  S   UNL A   1      35.674  30.814  28.531  1.00  0.00     0.124 S 
ATOM     84  O   UNL A   1      34.948  31.617  29.508  1.00  0.00    -0.237 OA
ATOM     85  O   UNL A   1      36.579  31.542  27.647  1.00  0.00    -0.237 OA
ATOM     86  O   UNL A   1      34.896  29.756  27.889  1.00  0.00    -0.744 OA
ENDBRANCH  79  83
ENDBRANCH  52  76
BRANCH  64  87
ATOM     87  C   UNL A   1      44.659  33.238  29.793  1.00  0.00     0.023 A 
ATOM     88  C   UNL A   1      44.359  34.265  28.882  1.00  0.00     0.031 A 
ATOM     89  C   UNL A   1      45.148  33.598  31.061  1.00  0.00     0.131 A 
ATOM     90  C   UNL A   1      44.600  35.601  29.232  1.00  0.00     0.055 A 
ATOM     91  C   UNL A   1      45.331  34.933  31.426  1.00  0.00     0.041 A 
ATOM     92  F   UNL A   1      45.452  32.657  31.970  1.00  0.00    -0.206 F 
ATOM     93  C   UNL A   1      45.069  35.943  30.504  1.00  0.00     0.022 A 
BRANCH  90  94
ATOM     94  S   UNL A   1      44.372  36.887  27.973  1.00  0.00     0.124 S 
ATOM     95  O   UNL A   1      43.285  37.677  28.539  1.00  0.00    -0.237 OA
ATOM     96  O   UNL A   1      45.681  37.532  27.943  1.00  0.00    -0.237 OA
ATOM     97  O   UNL A   1      44.028  36.130  26.769  1.00  0.00    -0.744 OA
ENDBRANCH  90  94
ENDBRANCH  64  87
ENDBRANCH  38  39
ENDBRANCH  30  33
ENDBRANCH  28  29
ENDBRANCH   1  28
TORSDOF 17
ENDMDL
MODEL 2
REMARK VINA RESULT:     -11.3      5.537      9.255
REMARK SMILES CCS(=O)(=O)Nc1ccc(N2CC[NH+](C)CC2)cc1C(=O)NCCCNC(=O)c1ccc(-c2c3nc(c(-c4cc(S(=O)(=O)[O-])ccc4F)c4ccc([nH]4)c(-c4cc(S(=O)(=O)[O-])ccc4F)c4nc(c(-c5cc(S(=O)(=O)[O-])ccc5F)c5ccc2[nH]5)C=C4)C=C3)cc1
REMARK SMILES IDX 24 1 23 2 22 3 20 4 21 5 19 7 7 8 8 9 9 10 18 11 10 12 6 13
REMARK SMILES IDX 3 15 4 16 5 17 2 18 1 19 11 20 12 21 17 22 13 23 16 24 14 25
REMARK SMILES IDX 15 26 25 28 26 29 27 30 28 32 29 33 30 34 91 35 31 36 90 37
REMARK SMILES IDX 32 38 33 39 34 40 84 41 35 42 89 43 83 44 85 45 36 46 88 47
REMARK SMILES IDX 82 48 81 49 37 51 69 52 49 53 68 54 50 55 53 56 67 57 86 58
REMARK SMILES IDX 51 59 52 60 66 62 87 63 54 64 38 65 39 66 47 67 40 68 46 69
REMARK SMILES IDX 48 70 45 71 41 72 42 73 43 74 44 75 70 76 71 77 79 78 72 79
REMARK SMILES IDX 78 80 80 81 77 82 73 83 74 84 75 85 76 86 55 87 56 88 64 89
REMARK SMILES IDX 57 90 63 91 65 92 62 93 58 94 59 95 60 96 61 97
REMARK H PARENT 22 6 6 14 14 27 26 31 85 50 53 61
REMARK Flexibility Score: inf
ROOT
ATOM      1  C   UNL A   1      32.684  30.517  26.037  1.00  0.00     0.042 C 
ENDROOT
BRANCH   1   2
ATOM      2  C   UNL A   1      33.038  29.042  26.052  1.00  0.00     0.118 C 
BRANCH   2   3
ATOM      3  N   UNL A   1      31.957  28.209  26.546  1.00  0.00    -0.352 N 
ATOM      4  C   UNL A   1      31.340  27.120  26.005  1.00  0.00     0.253 C 
ATOM      5  O   UNL A   1      30.416  26.604  26.635  1.00  0.00    -0.269 OA
ATOM      6  H   UNL A   1      31.608  28.477  27.426  1.00  0.00     0.163 HD
BRANCH   4   7
ATOM      7  C   UNL A   1      31.677  26.582  24.666  1.00  0.00     0.066 A 
ATOM      8  C   UNL A   1      31.493  27.224  23.440  1.00  0.00     0.061 A 
ATOM      9  C   UNL A   1      31.750  26.505  22.269  1.00  0.00     0.030 A 
ATOM     10  C   UNL A   1      32.339  25.242  22.317  1.00  0.00     0.028 A 
ATOM     11  C   UNL A   1      32.323  25.320  24.688  1.00  0.00     0.042 A 
ATOM     12  C   UNL A   1      32.728  24.655  23.525  1.00  0.00     0.038 A 
BRANCH   8  13
ATOM     13  N   UNL A   1      31.092  28.574  23.220  1.00  0.00    -0.283 N 
ATOM     14  H   UNL A   1      31.780  29.274  23.295  1.00  0.00     0.180 HD
BRANCH  13  15
ATOM     15  S   UNL A   1      29.537  29.054  22.842  1.00  0.00     0.232 S 
ATOM     16  O   UNL A   1      28.619  28.017  23.272  1.00  0.00    -0.207 OA
ATOM     17  O   UNL A   1      29.637  29.384  21.436  1.00  0.00    -0.207 OA
BRANCH  15  18
ATOM     18  C   UNL A   1      29.180  30.590  23.701  1.00  0.00     0.156 C 
ATOM     19  C   UNL A   1      27.876  31.257  23.319  1.00  0.00     0.023 C 
ENDBRANCH  15  18
ENDBRANCH  13  15
ENDBRANCH   8  13
BRANCH  12  20
ATOM     20  N   UNL A   1      33.532  23.536  23.550  1.00  0.00    -0.360 N 
ATOM     21  C   UNL A   1      33.021  22.159  23.653  1.00  0.00     0.178 C 
ATOM     22  C   UNL A   1      34.972  23.634  23.259  1.00  0.00     0.178 C 
ATOM     23  C   UNL A   1      33.910  21.307  24.598  1.00  0.00     0.283 C 
ATOM     24  C   UNL A   1      35.785  22.773  24.247  1.00  0.00     0.283 C 
ATOM     25  N   UNL A   1      35.353  21.362  24.260  1.00  0.00    -0.334 N 
ATOM     26  C   UNL A   1      36.143  20.601  25.226  1.00  0.00     0.332 C 
ATOM     27  H   UNL A   1      35.499  20.945  23.340  1.00  0.00     0.347 HD
ENDBRANCH  12  20
ENDBRANCH   4   7
ENDBRANCH   2   3
ENDBRANCH   1   2
BRANCH   1  28
ATOM     28  C   UNL A   1      32.445  31.115  27.423  1.00  0.00     0.118 C 
BRANCH  28  29
ATOM     29  N   UNL A   1      32.633  32.558  27.520  1.00  0.00    -0.352 N 
ATOM     30  C   UNL A   1      33.762  33.297  27.816  1.00  0.00     0.251 C 
ATOM     31  H   UNL A   1      31.825  33.092  27.347  1.00  0.00     0.163 HD
ATOM     32  O   UNL A   1      33.710  34.521  27.881  1.00  0.00    -0.269 OA
BRANCH  30  33
ATOM     33  C   UNL A   1      35.032  32.602  28.130  1.00  0.00     0.039 A 
ATOM     34  C   UNL A   1      36.223  33.332  28.137  1.00  0.00     0.014 A 
ATOM     35  C   UNL A   1      35.043  31.261  28.504  1.00  0.00     0.014 A 
ATOM     36  C   UNL A   1      37.383  32.758  28.666  1.00  0.00     0.010 A 
ATOM     37  C   UNL A   1      36.152  30.743  29.162  1.00  0.00     0.010 A 
ATOM     38  C   UNL A   1      37.336  31.490  29.269  1.00  0.00    -0.014 A 
BRANCH  38  39
ATOM     39  C   UNL A   1      38.491  30.930  30.028  1.00  0.00     0.031 A 
ATOM     40  C   UNL A   1      39.360  29.868  29.403  1.00  0.00     0.074 A 
ATOM     41  C   UNL A   1      38.697  31.293  31.312  1.00  0.00     0.049 A 
ATOM     42  N   UNL A   1      40.302  29.138  29.945  1.00  0.00    -0.248 NA
ATOM     43  C   UNL A   1      39.095  29.547  27.992  1.00  0.00     0.031 C 
ATOM     44  C   UNL A   1      37.891  32.260  32.064  1.00  0.00     0.029 A 
ATOM     45  N   UNL A   1      39.642  30.885  32.222  1.00  0.00    -0.354 N 
ATOM     46  C   UNL A   1      40.710  28.250  28.954  1.00  0.00     0.074 A 
ATOM     47  C   UNL A   1      39.861  28.484  27.808  1.00  0.00     0.031 C 
ATOM     48  C   UNL A   1      38.403  32.403  33.297  1.00  0.00     0.029 A 
ATOM     49  C   UNL A   1      39.534  31.496  33.452  1.00  0.00     0.049 A 
ATOM     50  H   UNL A   1      40.335  30.216  32.014  1.00  0.00     0.167 HD
ATOM     51  C   UNL A   1      41.722  27.348  28.984  1.00  0.00     0.034 A 
ATOM     52  C   UNL A   1      40.256  31.338  34.581  1.00  0.00     0.034 A 
ATOM     53  C   UNL A   1      42.595  27.160  30.116  1.00  0.00     0.049 A 
ATOM     54  C   UNL A   1      41.388  30.342  34.584  1.00  0.00     0.074 A 
ATOM     55  C   UNL A   1      43.693  26.325  30.232  1.00  0.00     0.029 A 
ATOM     56  N   UNL A   1      42.474  27.826  31.329  1.00  0.00    -0.354 N 
ATOM     57  N   UNL A   1      41.787  29.541  33.623  1.00  0.00    -0.248 NA
ATOM     58  C   UNL A   1      42.172  30.235  35.822  1.00  0.00     0.031 C 
ATOM     59  C   UNL A   1      44.202  26.446  31.529  1.00  0.00     0.029 A 
ATOM     60  C   UNL A   1      43.465  27.407  32.203  1.00  0.00     0.049 A 
ATOM     61  H   UNL A   1      41.785  28.497  31.539  1.00  0.00     0.167 HD
ATOM     62  C   UNL A   1      42.890  28.860  34.132  1.00  0.00     0.074 A 
ATOM     63  C   UNL A   1      43.100  29.355  35.476  1.00  0.00     0.031 C 
ATOM     64  C   UNL A   1      43.660  27.912  33.541  1.00  0.00     0.034 A 
BRANCH  51  65
ATOM     65  C   UNL A   1      41.928  26.496  27.752  1.00  0.00     0.023 A 
ATOM     66  C   UNL A   1      41.449  25.176  27.682  1.00  0.00     0.031 A 
ATOM     67  C   UNL A   1      42.644  26.994  26.650  1.00  0.00     0.131 A 
ATOM     68  C   UNL A   1      41.770  24.370  26.580  1.00  0.00     0.055 A 
ATOM     69  C   UNL A   1      42.882  26.215  25.514  1.00  0.00     0.041 A 
ATOM     70  F   UNL A   1      43.141  28.241  26.663  1.00  0.00    -0.206 F 
ATOM     71  C   UNL A   1      42.461  24.889  25.482  1.00  0.00     0.022 A 
BRANCH  68  72
ATOM     72  S   UNL A   1      41.406  22.596  26.671  1.00  0.00     0.124 S 
ATOM     73  O   UNL A   1      42.080  22.223  27.912  1.00  0.00    -0.237 OA
ATOM     74  O   UNL A   1      39.948  22.575  26.705  1.00  0.00    -0.237 OA
ATOM     75  O   UNL A   1      42.011  22.060  25.455  1.00  0.00    -0.744 OA
ENDBRANCH  68  72
ENDBRANCH  51  65
BRANCH  52  76
ATOM     76  C   UNL A   1      39.941  32.130  35.806  1.00  0.00     0.023 A 
ATOM     77  C   UNL A   1      38.939  31.711  36.696  1.00  0.00     0.031 A 
ATOM     78  C   UNL A   1      40.596  33.344  36.078  1.00  0.00     0.131 A 
ATOM     79  C   UNL A   1      38.582  32.523  37.783  1.00  0.00     0.055 A 
ATOM     80  C   UNL A   1      40.274  34.122  37.193  1.00  0.00     0.041 A 
ATOM     81  F   UNL A   1      41.567  33.790  35.264  1.00  0.00    -0.206 F 
ATOM     82  C   UNL A   1      39.251  33.720  38.045  1.00  0.00     0.022 A 
BRANCH  79  83
ATOM     83  S   UNL A   1      37.159  32.037  38.799  1.00  0.00     0.124 S 
ATOM     84  O   UNL A   1      37.602  32.418  40.135  1.00  0.00    -0.237 OA
ATOM     85  O   UNL A   1      36.088  32.843  38.223  1.00  0.00    -0.237 OA
ATOM     86  O   UNL A   1      37.048  30.598  38.564  1.00  0.00    -0.744 OA
ENDBRANCH  79  83
ENDBRANCH  52  76
BRANCH  64  87
ATOM     87  C   UNL A   1      44.833  27.393  34.333  1.00  0.00     0.023 A 
ATOM     88  C   UNL A   1      44.707  26.315  35.226  1.00  0.00     0.031 A 
ATOM     89  C   UNL A   1      46.097  27.995  34.196  1.00  0.00     0.131 A 
ATOM     90  C   UNL A   1      45.811  25.906  35.987  1.00  0.00     0.055 A 
ATOM     91  C   UNL A   1      47.207  27.546  34.913  1.00  0.00     0.041 A 
ATOM     92  F   UNL A   1      46.274  29.030  33.358  1.00  0.00    -0.206 F 
ATOM     93  C   UNL A   1      47.064  26.503  35.825  1.00  0.00     0.022 A 
BRANCH  90  94
ATOM     94  S   UNL A   1      45.569  24.633  37.257  1.00  0.00     0.124 S 
ATOM     95  O   UNL A   1      45.728  23.403  36.489  1.00  0.00    -0.237 OA
ATOM     96  O   UNL A   1      46.635  24.933  38.208  1.00  0.00    -0.237 OA
ATOM     97  O   UNL A   1      44.215  24.889  37.745  1.00  0.00    -0.744 OA
ENDBRANCH  90  94
ENDBRANCH  64  87
ENDBRANCH  38  39
ENDBRANCH  30  33
ENDBRANCH  28  29
ENDBRANCH   1  28
TORSDOF 17
ENDMDL
MODEL 3
REMARK VINA RESULT:     -11.1      5.235     10.427
REMARK SMILES CCS(=O)(=O)Nc1ccc(N2CC[NH+](C)CC2)cc1C(=O)NCCCNC(=O)c1ccc(-c2c3nc(c(-c4cc(S(=O)(=O)[O-])ccc4F)c4ccc([nH]4)c(-c4cc(S(=O)(=O)[O-])ccc4F)c4nc(c(-c5cc(S(=O)(=O)[O-])ccc5F)c5ccc2[nH]5)C=C4)C=C3)cc1
REMARK SMILES IDX 24 1 23 2 22 3 20 4 21 5 19 7 7 8 8 9 9 10 18 11 10 12 6 13
REMARK SMILES IDX 3 15 4 16 5 17 2 18 1 19 11 20 12 21 17 22 13 23 16 24 14 25
REMARK SMILES IDX 15 26 25 28 26 29 27 30 28 32 29 33 30 34 91 35 31 36 90 37
REMARK SMILES IDX 32 38 33 39 34 40 84 41 35 42 89 43 83 44 85 45 36 46 88 47
REMARK SMILES IDX 82 48 81 49 37 51 69 52 49 53 68 54 50 55 53 56 67 57 86 58
REMARK SMILES IDX 51 59 52 60 66 62 87 63 54 64 38 65 39 66 47 67 40 68 46 69
REMARK SMILES IDX 48 70 45 71 41 72 42 73 43 74 44 75 70 76 71 77 79 78 72 79
REMARK SMILES IDX 78 80 80 81 77 82 73 83 74 84 75 85 76 86 55 87 56 88 64 89
REMARK SMILES IDX 57 90 63 91 65 92 62 93 58 94 59 95 60 96 61 97
REMARK H PARENT 22 6 6 14 14 27 26 31 85 50 53 61
REMARK Flexibility Score: inf
ROOT
ATOM      1  C   UNL A   1      33.366  30.456  26.655  1.00  0.00     0.042 C 
ENDROOT
BRANCH   1   2
ATOM      2  C   UNL A   1      33.743  28.992  26.761  1.00  0.00     0.118 C 
BRANCH   2   3
ATOM      3  N   UNL A   1      32.617  28.143  27.108  1.00  0.00    -0.352 N 
ATOM      4  C   UNL A   1      32.182  26.965  26.578  1.00  0.00     0.253 C 
ATOM      5  O   UNL A   1      31.165  26.456  27.053  1.00  0.00    -0.269 OA
ATOM      6  H   UNL A   1      32.073  28.477  27.857  1.00  0.00     0.163 HD
BRANCH   4   7
ATOM      7  C   UNL A   1      32.826  26.315  25.413  1.00  0.00     0.066 A 
ATOM      8  C   UNL A   1      32.735  26.717  24.079  1.00  0.00     0.061 A 
ATOM      9  C   UNL A   1      33.307  25.900  23.099  1.00  0.00     0.030 A 
ATOM     10  C   UNL A   1      34.095  24.804  23.449  1.00  0.00     0.028 A 
ATOM     11  C   UNL A   1      33.674  25.227  25.745  1.00  0.00     0.042 A 
ATOM     12  C   UNL A   1      34.377  24.494  24.782  1.00  0.00     0.038 A 
BRANCH   8  13
ATOM     13  N   UNL A   1      32.142  27.910  23.571  1.00  0.00    -0.283 N 
ATOM     14  H   UNL A   1      32.738  28.669  23.375  1.00  0.00     0.180 HD
BRANCH  13  15
ATOM     15  S   UNL A   1      30.509  28.111  23.285  1.00  0.00     0.232 S 
ATOM     16  O   UNL A   1      29.780  27.139  24.076  1.00  0.00    -0.207 OA
ATOM     17  O   UNL A   1      30.430  28.064  21.840  1.00  0.00    -0.207 OA
BRANCH  15  18
ATOM     18  C   UNL A   1      30.038  29.776  23.765  1.00  0.00     0.156 C 
ATOM     19  C   UNL A   1      28.776  30.304  23.118  1.00  0.00     0.023 C 
ENDBRANCH  15  18
ENDBRANCH  13  15
ENDBRANCH   8  13
BRANCH  12  20
ATOM     20  N   UNL A   1      35.352  23.578  25.113  1.00  0.00    -0.360 N 
ATOM     21  C   UNL A   1      36.727  23.613  24.586  1.00  0.00     0.178 C 
ATOM     22  C   UNL A   1      35.137  22.604  26.196  1.00  0.00     0.178 C 
ATOM     23  C   UNL A   1      37.230  22.184  24.253  1.00  0.00     0.283 C 
ATOM     24  C   UNL A   1      35.650  21.209  25.784  1.00  0.00     0.283 C 
ATOM     25  N   UNL A   1      37.068  21.224  25.372  1.00  0.00    -0.334 N 
ATOM     26  C   UNL A   1      37.491  19.884  24.974  1.00  0.00     0.332 C 
ATOM     27  H   UNL A   1      37.654  21.518  26.154  1.00  0.00     0.347 HD
ENDBRANCH  12  20
ENDBRANCH   4   7
ENDBRANCH   2   3
ENDBRANCH   1   2
BRANCH   1  28
ATOM     28  C   UNL A   1      33.441  31.218  27.977  1.00  0.00     0.118 C 
BRANCH  28  29
ATOM     29  N   UNL A   1      33.689  32.651  27.859  1.00  0.00    -0.352 N 
ATOM     30  C   UNL A   1      34.869  33.365  27.928  1.00  0.00     0.251 C 
ATOM     31  H   UNL A   1      32.885  33.196  27.704  1.00  0.00     0.163 HD
ATOM     32  O   UNL A   1      34.867  34.588  27.833  1.00  0.00    -0.269 OA
BRANCH  30  33
ATOM     33  C   UNL A   1      36.142  32.654  28.192  1.00  0.00     0.039 A 
ATOM     34  C   UNL A   1      37.188  33.343  28.810  1.00  0.00     0.014 A 
ATOM     35  C   UNL A   1      36.276  31.297  27.917  1.00  0.00     0.014 A 
ATOM     36  C   UNL A   1      38.295  32.634  29.288  1.00  0.00     0.010 A 
ATOM     37  C   UNL A   1      37.300  30.575  28.520  1.00  0.00     0.010 A 
ATOM     38  C   UNL A   1      38.319  31.231  29.229  1.00  0.00    -0.014 A 
BRANCH  38  39
ATOM     39  C   UNL A   1      39.374  30.426  29.909  1.00  0.00     0.031 A 
ATOM     40  C   UNL A   1      39.852  30.819  31.285  1.00  0.00     0.074 A 
ATOM     41  C   UNL A   1      39.978  29.411  29.255  1.00  0.00     0.049 A 
ATOM     42  N   UNL A   1      40.864  30.358  31.977  1.00  0.00    -0.248 NA
ATOM     43  C   UNL A   1      39.125  31.914  31.946  1.00  0.00     0.031 C 
ATOM     44  C   UNL A   1      39.662  28.966  27.894  1.00  0.00     0.029 A 
ATOM     45  N   UNL A   1      40.994  28.570  29.641  1.00  0.00    -0.354 N 
ATOM     46  C   UNL A   1      40.915  31.133  33.131  1.00  0.00     0.074 A 
ATOM     47  C   UNL A   1      39.883  32.138  33.007  1.00  0.00     0.031 C 
ATOM     48  C   UNL A   1      40.432  27.912  27.580  1.00  0.00     0.029 A 
ATOM     49  C   UNL A   1      41.341  27.639  28.687  1.00  0.00     0.049 A 
ATOM     50  H   UNL A   1      41.435  28.628  30.520  1.00  0.00     0.167 HD
ATOM     51  C   UNL A   1      41.724  30.999  34.212  1.00  0.00     0.034 A 
ATOM     52  C   UNL A   1      42.290  26.680  28.695  1.00  0.00     0.034 A 
ATOM     53  C   UNL A   1      42.716  29.960  34.345  1.00  0.00     0.049 A 
ATOM     54  C   UNL A   1      43.165  26.537  29.915  1.00  0.00     0.074 A 
ATOM     55  C   UNL A   1      43.542  29.688  35.422  1.00  0.00     0.029 A 
ATOM     56  N   UNL A   1      43.009  29.014  33.371  1.00  0.00    -0.354 N 
ATOM     57  N   UNL A   1      43.172  27.253  31.016  1.00  0.00    -0.248 NA
ATOM     58  C   UNL A   1      44.156  25.453  29.896  1.00  0.00     0.031 C 
ATOM     59  C   UNL A   1      44.370  28.614  35.079  1.00  0.00     0.029 A 
ATOM     60  C   UNL A   1      44.015  28.170  33.815  1.00  0.00     0.049 A 
ATOM     61  H   UNL A   1      42.568  28.952  32.493  1.00  0.00     0.167 HD
ATOM     62  C   UNL A   1      44.144  26.682  31.833  1.00  0.00     0.074 A 
ATOM     63  C   UNL A   1      44.691  25.556  31.103  1.00  0.00     0.031 C 
ATOM     64  C   UNL A   1      44.549  27.053  33.073  1.00  0.00     0.034 A 
BRANCH  51  65
ATOM     65  C   UNL A   1      41.566  32.008  35.326  1.00  0.00     0.023 A 
ATOM     66  C   UNL A   1      40.597  31.848  36.332  1.00  0.00     0.031 A 
ATOM     67  C   UNL A   1      42.366  33.163  35.363  1.00  0.00     0.131 A 
ATOM     68  C   UNL A   1      40.388  32.866  37.274  1.00  0.00     0.055 A 
ATOM     69  C   UNL A   1      42.215  34.132  36.359  1.00  0.00     0.041 A 
ATOM     70  F   UNL A   1      43.298  33.382  34.422  1.00  0.00    -0.206 F 
ATOM     71  C   UNL A   1      41.209  33.996  37.311  1.00  0.00     0.022 A 
BRANCH  68  72
ATOM     72  S   UNL A   1      38.932  32.761  38.349  1.00  0.00     0.124 S 
ATOM     73  O   UNL A   1      38.379  34.108  38.224  1.00  0.00    -0.237 OA
ATOM     74  O   UNL A   1      38.158  31.692  37.729  1.00  0.00    -0.237 OA
ATOM     75  O   UNL A   1      39.496  32.446  39.659  1.00  0.00    -0.744 OA
ENDBRANCH  68  72
ENDBRANCH  51  65
BRANCH  52  76
ATOM     76  C   UNL A   1      42.475  25.777  27.522  1.00  0.00     0.023 A 
ATOM     77  C   UNL A   1      41.874  24.508  27.489  1.00  0.00     0.031 A 
ATOM     78  C   UNL A   1      43.297  26.143  26.442  1.00  0.00     0.131 A 
ATOM     79  C   UNL A   1      42.146  23.630  26.429  1.00  0.00     0.055 A 
ATOM     80  C   UNL A   1      43.522  25.286  25.362  1.00  0.00     0.041 A 
ATOM     81  F   UNL A   1      43.892  27.347  26.418  1.00  0.00    -0.206 F 
ATOM     82  C   UNL A   1      42.957  24.015  25.358  1.00  0.00     0.022 A 
BRANCH  79  83
ATOM     83  S   UNL A   1      41.502  21.936  26.517  1.00  0.00     0.124 S 
ATOM     84  O   UNL A   1      42.307  21.258  25.508  1.00  0.00    -0.237 OA
ATOM     85  O   UNL A   1      41.778  21.580  27.905  1.00  0.00    -0.237 OA
ATOM     86  O   UNL A   1      40.087  22.093  26.185  1.00  0.00    -0.744 OA
ENDBRANCH  79  83
ENDBRANCH  52  76
BRANCH  64  87
ATOM     87  C   UNL A   1      45.596  26.195  33.737  1.00  0.00     0.023 A 
ATOM     88  C   UNL A   1      45.253  25.084  34.526  1.00  0.00     0.031 A 
ATOM     89  C   UNL A   1      46.960  26.502  33.582  1.00  0.00     0.131 A 
ATOM     90  C   UNL A   1      46.257  24.351  35.174  1.00  0.00     0.055 A 
ATOM     91  C   UNL A   1      47.959  25.733  34.182  1.00  0.00     0.041 A 
ATOM     92  F   UNL A   1      47.344  27.553  32.839  1.00  0.00    -0.206 F 
ATOM     93  C   UNL A   1      47.608  24.658  34.994  1.00  0.00     0.022 A 
BRANCH  90  94
ATOM     94  S   UNL A   1      45.770  23.037  36.326  1.00  0.00     0.124 S 
ATOM     95  O   UNL A   1      47.041  22.364  36.574  1.00  0.00    -0.237 OA
ATOM     96  O   UNL A   1      45.219  23.791  37.447  1.00  0.00    -0.237 OA
ATOM     97  O   UNL A   1      44.794  22.258  35.565  1.00  0.00    -0.744 OA
ENDBRANCH  90  94
ENDBRANCH  64  87
ENDBRANCH  38  39
ENDBRANCH  30  33
ENDBRANCH  28  29
ENDBRANCH   1  28
TORSDOF 17
ENDMDL
