MODEL 1
REMARK VINA RESULT:     -12.1      0.000      0.000
REMARK SMILES CCc1cccc(CC)c1N1/C(=[NH+]/C(=O)CCCC(=O)NCCCNC(=O)c2ccc(-c3c4nc(c(-c5cc(S(=O)(=O)[O-])ccc5F)c5ccc([nH]5)c(-c5cc(S(=O)(=O)[O-])ccc5F)c5nc(c(-c6cc(S(=O)(=O)[O-])ccc6F)c6ccc3[nH]6)C=C5)C=C4)cc2)S[C@@H]2CS(=O)(=O)C[C@@H]21
REMARK SMILES IDX 22 1 21 2 19 3 20 4 18 6 17 7 16 8 14 9 11 10 12 11 98 12
REMARK SMILES IDX 13 13 91 14 92 15 97 16 93 18 94 19 15 20 95 21 96 22 10 23
REMARK SMILES IDX 3 24 4 25 5 26 7 27 6 28 2 29 1 30 8 31 9 32 23 33 24 34
REMARK SMILES IDX 25 35 26 36 27 38 28 39 29 40 90 41 30 42 89 43 31 44 32 45
REMARK SMILES IDX 33 46 83 47 34 48 88 49 82 50 84 51 35 52 87 53 81 54 80 55
REMARK SMILES IDX 36 57 68 58 48 59 67 60 49 61 52 62 66 63 85 64 50 65 51 66
REMARK SMILES IDX 65 68 86 69 53 70 37 71 38 72 46 73 39 74 45 75 47 76 44 77
REMARK SMILES IDX 40 78 41 79 42 80 43 81 69 82 70 83 78 84 71 85 77 86 79 87
REMARK SMILES IDX 76 88 72 89 73 90 74 91 75 92 54 93 55 94 63 95 56 96 62 97
REMARK SMILES IDX 64 98 61 99 57 100 58 101 59 102 60 103
REMARK H PARENT 21 5 13 17 25 37 84 56 52 67
REMARK Flexibility Score: inf
ROOT
ATOM      1  C   UNL A   1      35.186  21.792  24.920  1.00  0.00     0.117 C 
ENDROOT
BRANCH   1   2
ATOM      2  N   UNL A   1      34.050  21.046  25.407  1.00  0.00    -0.356 N 
ATOM      3  C   UNL A   1      32.862  20.830  24.777  1.00  0.00     0.220 C 
ATOM      4  O   UNL A   1      31.953  20.286  25.406  1.00  0.00    -0.275 OA
ATOM      5  H   UNL A   1      34.145  20.646  26.301  1.00  0.00     0.163 HD
BRANCH   3   6
ATOM      6  C   UNL A   1      32.727  21.135  23.294  1.00  0.00     0.100 C 
BRANCH   6   7
ATOM      7  C   UNL A   1      32.207  22.496  22.818  1.00  0.00     0.022 C 
BRANCH   7   8
ATOM      8  C   UNL A   1      33.054  23.478  22.003  1.00  0.00     0.128 C 
BRANCH   8   9
ATOM      9  C   UNL A   1      33.358  24.910  22.464  1.00  0.00     0.307 C 
ATOM     10  N   UNL A   1      31.442  27.817  23.634  1.00  0.00    -0.216 N 
ATOM     11  C   UNL A   1      32.402  26.988  23.033  1.00  0.00     0.319 C 
ATOM     12  C   UNL A   1      31.953  29.098  24.183  1.00  0.00     0.212 C 
ATOM     13  N   UNL A   1      32.282  25.729  22.739  1.00  0.00    -0.204 N 
ATOM     14  S   UNL A   1      33.888  27.956  22.835  1.00  0.00    -0.029 SA
ATOM     15  C   UNL A   1      33.480  28.976  24.263  1.00  0.00     0.120 C 
ATOM     16  C   UNL A   1      31.444  29.455  25.573  1.00  0.00     0.188 C 
ATOM     17  H   UNL A   1      31.378  25.340  22.712  1.00  0.00     0.316 HD
ATOM     18  C   UNL A   1      33.844  28.265  25.554  1.00  0.00     0.156 C 
ATOM     19  S   UNL A   1      32.665  28.881  26.728  1.00  0.00     0.155 S 
ATOM     20  O   UNL A   1      34.542  25.220  22.586  1.00  0.00    -0.247 OA
ATOM     21  O   UNL A   1      32.123  27.783  27.488  1.00  0.00    -0.229 OA
ATOM     22  O   UNL A   1      33.246  30.048  27.370  1.00  0.00    -0.229 OA
BRANCH  10  23
ATOM     23  C   UNL A   1      30.036  27.657  23.558  1.00  0.00     0.134 A 
ATOM     24  C   UNL A   1      29.349  26.708  24.371  1.00  0.00    -0.001 A 
ATOM     25  C   UNL A   1      27.929  26.681  24.345  1.00  0.00     0.008 A 
ATOM     26  C   UNL A   1      27.180  27.582  23.609  1.00  0.00     0.001 A 
ATOM     27  C   UNL A   1      29.242  28.561  22.761  1.00  0.00    -0.001 A 
ATOM     28  C   UNL A   1      27.833  28.529  22.846  1.00  0.00     0.008 A 
BRANCH  24  29
ATOM     29  C   UNL A   1      29.911  25.826  25.481  1.00  0.00     0.036 C 
ATOM     30  C   UNL A   1      30.469  24.443  25.246  1.00  0.00     0.009 C 
ENDBRANCH  24  29
BRANCH  27  31
ATOM     31  C   UNL A   1      29.819  29.655  21.867  1.00  0.00     0.036 C 
ATOM     32  C   UNL A   1      29.123  31.014  21.952  1.00  0.00     0.009 C 
ENDBRANCH  27  31
ENDBRANCH  10  23
ENDBRANCH   8   9
ENDBRANCH   7   8
ENDBRANCH   6   7
ENDBRANCH   3   6
ENDBRANCH   1   2
BRANCH   1  33
ATOM     33  C   UNL A   1      35.212  23.173  25.552  1.00  0.00     0.042 C 
BRANCH  33  34
ATOM     34  C   UNL A   1      36.611  23.703  25.739  1.00  0.00     0.118 C 
BRANCH  34  35
ATOM     35  N   UNL A   1      37.561  22.633  25.982  1.00  0.00    -0.352 N 
ATOM     36  C   UNL A   1      38.862  22.714  26.415  1.00  0.00     0.251 C 
ATOM     37  H   UNL A   1      37.227  21.723  25.812  1.00  0.00     0.163 HD
ATOM     38  O   UNL A   1      39.575  21.715  26.362  1.00  0.00    -0.269 OA
BRANCH  36  39
ATOM     39  C   UNL A   1      39.404  24.007  26.901  1.00  0.00     0.039 A 
ATOM     40  C   UNL A   1      40.022  24.865  25.990  1.00  0.00     0.014 A 
ATOM     41  C   UNL A   1      39.289  24.383  28.242  1.00  0.00     0.014 A 
ATOM     42  C   UNL A   1      40.475  26.116  26.418  1.00  0.00     0.010 A 
ATOM     43  C   UNL A   1      39.621  25.675  28.634  1.00  0.00     0.010 A 
ATOM     44  C   UNL A   1      40.246  26.547  27.734  1.00  0.00    -0.014 A 
BRANCH  44  45
ATOM     45  C   UNL A   1      40.689  27.888  28.200  1.00  0.00     0.031 A 
ATOM     46  C   UNL A   1      42.158  28.223  28.230  1.00  0.00     0.074 A 
ATOM     47  C   UNL A   1      39.781  28.776  28.648  1.00  0.00     0.049 A 
ATOM     48  N   UNL A   1      42.752  29.310  28.654  1.00  0.00    -0.248 NA
ATOM     49  C   UNL A   1      43.084  27.181  27.762  1.00  0.00     0.031 C 
ATOM     50  C   UNL A   1      38.337  28.541  28.727  1.00  0.00     0.029 A 
ATOM     51  N   UNL A   1      39.934  30.052  29.128  1.00  0.00    -0.354 N 
ATOM     52  C   UNL A   1      44.116  29.071  28.523  1.00  0.00     0.074 A 
ATOM     53  C   UNL A   1      44.259  27.709  28.058  1.00  0.00     0.031 C 
ATOM     54  C   UNL A   1      37.736  29.644  29.197  1.00  0.00     0.029 A 
ATOM     55  C   UNL A   1      38.752  30.647  29.504  1.00  0.00     0.049 A 
ATOM     56  H   UNL A   1      40.808  30.499  29.199  1.00  0.00     0.167 HD
ATOM     57  C   UNL A   1      45.152  29.918  28.741  1.00  0.00     0.034 A 
ATOM     58  C   UNL A   1      38.512  31.856  30.050  1.00  0.00     0.034 A 
ATOM     59  C   UNL A   1      44.982  31.278  29.191  1.00  0.00     0.049 A 
ATOM     60  C   UNL A   1      39.675  32.782  30.294  1.00  0.00     0.074 A 
ATOM     61  C   UNL A   1      45.947  32.253  29.373  1.00  0.00     0.029 A 
ATOM     62  N   UNL A   1      43.767  31.851  29.551  1.00  0.00    -0.354 N 
ATOM     63  N   UNL A   1      40.955  32.572  30.088  1.00  0.00    -0.248 NA
ATOM     64  C   UNL A   1      39.360  34.112  30.830  1.00  0.00     0.031 C 
ATOM     65  C   UNL A   1      45.331  33.380  29.924  1.00  0.00     0.029 A 
ATOM     66  C   UNL A   1      43.966  33.149  29.998  1.00  0.00     0.049 A 
ATOM     67  H   UNL A   1      42.893  31.401  29.498  1.00  0.00     0.167 HD
ATOM     68  C   UNL A   1      41.597  33.754  30.449  1.00  0.00     0.074 A 
ATOM     69  C   UNL A   1      40.559  34.676  30.866  1.00  0.00     0.031 C 
ATOM     70  C   UNL A   1      42.922  34.051  30.433  1.00  0.00     0.034 A 
BRANCH  57  71
ATOM     71  C   UNL A   1      46.550  29.378  28.529  1.00  0.00     0.023 A 
ATOM     72  C   UNL A   1      47.065  29.130  27.242  1.00  0.00     0.031 A 
ATOM     73  C   UNL A   1      47.362  29.051  29.629  1.00  0.00     0.131 A 
ATOM     74  C   UNL A   1      48.299  28.480  27.092  1.00  0.00     0.055 A 
ATOM     75  C   UNL A   1      48.635  28.497  29.470  1.00  0.00     0.041 A 
ATOM     76  F   UNL A   1      46.923  29.240  30.884  1.00  0.00    -0.206 F 
ATOM     77  C   UNL A   1      49.101  28.187  28.196  1.00  0.00     0.022 A 
BRANCH  74  78
ATOM     78  S   UNL A   1      48.750  27.850  25.451  1.00  0.00     0.124 S 
ATOM     79  O   UNL A   1      48.887  26.419  25.710  1.00  0.00    -0.237 OA
ATOM     80  O   UNL A   1      47.605  28.245  24.637  1.00  0.00    -0.237 OA
ATOM     81  O   UNL A   1      50.001  28.542  25.148  1.00  0.00    -0.744 OA
ENDBRANCH  74  78
ENDBRANCH  57  71
BRANCH  58  82
ATOM     82  C   UNL A   1      37.120  32.243  30.424  1.00  0.00     0.023 A 
ATOM     83  C   UNL A   1      36.266  32.884  29.513  1.00  0.00     0.031 A 
ATOM     84  C   UNL A   1      36.626  31.978  31.715  1.00  0.00     0.131 A 
ATOM     85  C   UNL A   1      34.976  33.267  29.914  1.00  0.00     0.055 A 
ATOM     86  C   UNL A   1      35.324  32.311  32.093  1.00  0.00     0.041 A 
ATOM     87  F   UNL A   1      37.400  31.364  32.625  1.00  0.00    -0.206 F 
ATOM     88  C   UNL A   1      34.494  32.969  31.191  1.00  0.00     0.022 A 
BRANCH  85  89
ATOM     89  S   UNL A   1      33.952  34.226  28.764  1.00  0.00     0.124 S 
ATOM     90  O   UNL A   1      34.864  35.295  28.374  1.00  0.00    -0.237 OA
ATOM     91  O   UNL A   1      33.645  33.238  27.734  1.00  0.00    -0.237 OA
ATOM     92  O   UNL A   1      32.816  34.642  29.584  1.00  0.00    -0.744 OA
ENDBRANCH  85  89
ENDBRANCH  58  82
BRANCH  70  93
ATOM     93  C   UNL A   1      43.319  35.449  30.847  1.00  0.00     0.023 A 
ATOM     94  C   UNL A   1      43.431  36.496  29.915  1.00  0.00     0.031 A 
ATOM     95  C   UNL A   1      43.593  35.735  32.197  1.00  0.00     0.131 A 
ATOM     96  C   UNL A   1      43.866  37.763  30.336  1.00  0.00     0.055 A 
ATOM     97  C   UNL A   1      43.954  37.015  32.620  1.00  0.00     0.041 A 
ATOM     98  F   UNL A   1      43.509  34.774  33.131  1.00  0.00    -0.206 F 
ATOM     99  C   UNL A   1      44.106  38.034  31.685  1.00  0.00     0.022 A 
BRANCH  96 100
ATOM    100  S   UNL A   1      44.219  39.023  29.080  1.00  0.00     0.124 S 
ATOM    101  O   UNL A   1      45.640  39.274  29.294  1.00  0.00    -0.237 OA
ATOM    102  O   UNL A   1      43.871  38.335  27.841  1.00  0.00    -0.237 OA
ATOM    103  O   UNL A   1      43.332  40.127  29.444  1.00  0.00    -0.744 OA
ENDBRANCH  96 100
ENDBRANCH  70  93
ENDBRANCH  44  45
ENDBRANCH  36  39
ENDBRANCH  34  35
ENDBRANCH  33  34
ENDBRANCH   1  33
TORSDOF 19
ENDMDL
MODEL 2
REMARK VINA RESULT:     -11.6      1.733      2.009
REMARK SMILES CCc1cccc(CC)c1N1/C(=[NH+]/C(=O)CCCC(=O)NCCCNC(=O)c2ccc(-c3c4nc(c(-c5cc(S(=O)(=O)[O-])ccc5F)c5ccc([nH]5)c(-c5cc(S(=O)(=O)[O-])ccc5F)c5nc(c(-c6cc(S(=O)(=O)[O-])ccc6F)c6ccc3[nH]6)C=C5)C=C4)cc2)S[C@@H]2CS(=O)(=O)C[C@@H]21
REMARK SMILES IDX 22 1 21 2 19 3 20 4 18 6 17 7 16 8 14 9 11 10 12 11 98 12
REMARK SMILES IDX 13 13 91 14 92 15 97 16 93 18 94 19 15 20 95 21 96 22 10 23
REMARK SMILES IDX 3 24 4 25 5 26 7 27 6 28 2 29 1 30 8 31 9 32 23 33 24 34
REMARK SMILES IDX 25 35 26 36 27 38 28 39 29 40 90 41 30 42 89 43 31 44 32 45
REMARK SMILES IDX 33 46 83 47 34 48 88 49 82 50 84 51 35 52 87 53 81 54 80 55
REMARK SMILES IDX 36 57 68 58 48 59 67 60 49 61 52 62 66 63 85 64 50 65 51 66
REMARK SMILES IDX 65 68 86 69 53 70 37 71 38 72 46 73 39 74 45 75 47 76 44 77
REMARK SMILES IDX 40 78 41 79 42 80 43 81 69 82 70 83 78 84 71 85 77 86 79 87
REMARK SMILES IDX 76 88 72 89 73 90 74 91 75 92 54 93 55 94 63 95 56 96 62 97
REMARK SMILES IDX 64 98 61 99 57 100 58 101 59 102 60 103
REMARK H PARENT 21 5 13 17 25 37 84 56 52 67
REMARK Flexibility Score: inf
ROOT
ATOM      1  C   UNL A   1      35.380  21.490  24.874  1.00  0.00     0.117 C 
ENDROOT
BRANCH   1   2
ATOM      2  N   UNL A   1      34.394  20.558  25.369  1.00  0.00    -0.356 N 
ATOM      3  C   UNL A   1      33.159  20.299  24.857  1.00  0.00     0.220 C 
ATOM      4  O   UNL A   1      32.398  19.572  25.497  1.00  0.00    -0.275 OA
ATOM      5  H   UNL A   1      34.644  20.050  26.174  1.00  0.00     0.163 HD
BRANCH   3   6
ATOM      6  C   UNL A   1      32.801  20.792  23.464  1.00  0.00     0.100 C 
BRANCH   6   7
ATOM      7  C   UNL A   1      32.294  22.221  23.245  1.00  0.00     0.022 C 
BRANCH   7   8
ATOM      8  C   UNL A   1      32.955  23.205  22.275  1.00  0.00     0.128 C 
BRANCH   8   9
ATOM      9  C   UNL A   1      33.311  24.649  22.655  1.00  0.00     0.307 C 
ATOM     10  N   UNL A   1      31.500  27.698  23.614  1.00  0.00    -0.216 N 
ATOM     11  C   UNL A   1      32.434  26.795  23.081  1.00  0.00     0.319 C 
ATOM     12  C   UNL A   1      32.056  28.988  24.095  1.00  0.00     0.212 C 
ATOM     13  N   UNL A   1      32.266  25.527  22.861  1.00  0.00    -0.204 N 
ATOM     14  S   UNL A   1      33.962  27.687  22.854  1.00  0.00    -0.029 SA
ATOM     15  C   UNL A   1      33.574  28.809  24.211  1.00  0.00     0.120 C 
ATOM     16  C   UNL A   1      31.540  29.448  25.451  1.00  0.00     0.188 C 
ATOM     17  H   UNL A   1      31.347  25.174  22.841  1.00  0.00     0.316 HD
ATOM     18  C   UNL A   1      33.888  28.162  25.548  1.00  0.00     0.156 C 
ATOM     19  S   UNL A   1      32.717  28.896  26.661  1.00  0.00     0.155 S 
ATOM     20  O   UNL A   1      34.505  24.918  22.781  1.00  0.00    -0.247 OA
ATOM     21  O   UNL A   1      32.117  27.868  27.475  1.00  0.00    -0.229 OA
ATOM     22  O   UNL A   1      33.336  30.075  27.243  1.00  0.00    -0.229 OA
BRANCH  10  23
ATOM     23  C   UNL A   1      30.090  27.591  23.522  1.00  0.00     0.134 A 
ATOM     24  C   UNL A   1      29.369  26.599  24.249  1.00  0.00    -0.001 A 
ATOM     25  C   UNL A   1      27.949  26.621  24.217  1.00  0.00     0.008 A 
ATOM     26  C   UNL A   1      27.233  27.606  23.560  1.00  0.00     0.001 A 
ATOM     27  C   UNL A   1      29.330  28.586  22.803  1.00  0.00    -0.001 A 
ATOM     28  C   UNL A   1      27.920  28.592  22.881  1.00  0.00     0.008 A 
BRANCH  24  29
ATOM     29  C   UNL A   1      29.896  25.607  25.280  1.00  0.00     0.036 C 
ATOM     30  C   UNL A   1      29.116  25.176  26.499  1.00  0.00     0.009 C 
ENDBRANCH  24  29
BRANCH  27  31
ATOM     31  C   UNL A   1      29.946  29.732  22.007  1.00  0.00     0.036 C 
ATOM     32  C   UNL A   1      29.125  31.020  21.959  1.00  0.00     0.009 C 
ENDBRANCH  27  31
ENDBRANCH  10  23
ENDBRANCH   8   9
ENDBRANCH   7   8
ENDBRANCH   6   7
ENDBRANCH   3   6
ENDBRANCH   1   2
BRANCH   1  33
ATOM     33  C   UNL A   1      35.222  22.832  25.566  1.00  0.00     0.042 C 
BRANCH  33  34
ATOM     34  C   UNL A   1      36.533  23.390  26.062  1.00  0.00     0.118 C 
BRANCH  34  35
ATOM     35  N   UNL A   1      37.549  22.358  26.166  1.00  0.00    -0.352 N 
ATOM     36  C   UNL A   1      38.891  22.491  26.425  1.00  0.00     0.251 C 
ATOM     37  H   UNL A   1      37.232  21.436  26.032  1.00  0.00     0.163 HD
ATOM     38  O   UNL A   1      39.630  21.522  26.268  1.00  0.00    -0.269 OA
BRANCH  36  39
ATOM     39  C   UNL A   1      39.440  23.801  26.850  1.00  0.00     0.039 A 
ATOM     40  C   UNL A   1      39.630  24.798  25.891  1.00  0.00     0.014 A 
ATOM     41  C   UNL A   1      39.750  24.059  28.189  1.00  0.00     0.014 A 
ATOM     42  C   UNL A   1      40.080  26.060  26.285  1.00  0.00     0.010 A 
ATOM     43  C   UNL A   1      40.070  25.350  28.594  1.00  0.00     0.010 A 
ATOM     44  C   UNL A   1      40.269  26.359  27.644  1.00  0.00    -0.014 A 
BRANCH  44  45
ATOM     45  C   UNL A   1      40.714  27.707  28.087  1.00  0.00     0.031 A 
ATOM     46  C   UNL A   1      42.179  28.057  28.064  1.00  0.00     0.074 A 
ATOM     47  C   UNL A   1      39.813  28.588  28.563  1.00  0.00     0.049 A 
ATOM     48  N   UNL A   1      42.776  29.152  28.462  1.00  0.00    -0.248 NA
ATOM     49  C   UNL A   1      43.099  27.023  27.568  1.00  0.00     0.031 C 
ATOM     50  C   UNL A   1      38.375  28.338  28.694  1.00  0.00     0.029 A 
ATOM     51  N   UNL A   1      39.969  29.867  29.032  1.00  0.00    -0.354 N 
ATOM     52  C   UNL A   1      44.137  28.926  28.284  1.00  0.00     0.074 A 
ATOM     53  C   UNL A   1      44.279  27.564  27.821  1.00  0.00     0.031 C 
ATOM     54  C   UNL A   1      37.780  29.437  29.180  1.00  0.00     0.029 A 
ATOM     55  C   UNL A   1      38.795  30.452  29.446  1.00  0.00     0.049 A 
ATOM     56  H   UNL A   1      40.840  30.324  29.070  1.00  0.00     0.167 HD
ATOM     57  C   UNL A   1      45.172  29.786  28.461  1.00  0.00     0.034 A 
ATOM     58  C   UNL A   1      38.562  31.661  29.995  1.00  0.00     0.034 A 
ATOM     59  C   UNL A   1      45.003  31.146  28.911  1.00  0.00     0.049 A 
ATOM     60  C   UNL A   1      39.722  32.600  30.194  1.00  0.00     0.074 A 
ATOM     61  C   UNL A   1      45.964  32.131  29.054  1.00  0.00     0.029 A 
ATOM     62  N   UNL A   1      43.796  31.708  29.311  1.00  0.00    -0.354 N 
ATOM     63  N   UNL A   1      40.997  32.403  29.943  1.00  0.00    -0.248 NA
ATOM     64  C   UNL A   1      39.413  33.930  30.734  1.00  0.00     0.031 C 
ATOM     65  C   UNL A   1      45.356  33.255  29.622  1.00  0.00     0.029 A 
ATOM     66  C   UNL A   1      43.997  33.010  29.745  1.00  0.00     0.049 A 
ATOM     67  H   UNL A   1      42.926  31.249  29.291  1.00  0.00     0.167 HD
ATOM     68  C   UNL A   1      41.639  33.593  30.276  1.00  0.00     0.074 A 
ATOM     69  C   UNL A   1      40.606  34.506  30.725  1.00  0.00     0.031 C 
ATOM     70  C   UNL A   1      42.959  33.904  30.211  1.00  0.00     0.034 A 
BRANCH  57  71
ATOM     71  C   UNL A   1      46.567  29.259  28.203  1.00  0.00     0.023 A 
ATOM     72  C   UNL A   1      47.352  28.698  29.227  1.00  0.00     0.031 A 
ATOM     73  C   UNL A   1      47.145  29.371  26.926  1.00  0.00     0.131 A 
ATOM     74  C   UNL A   1      48.695  28.370  28.985  1.00  0.00     0.055 A 
ATOM     75  C   UNL A   1      48.451  28.949  26.666  1.00  0.00     0.041 A 
ATOM     76  F   UNL A   1      46.460  29.919  25.910  1.00  0.00    -0.206 F 
ATOM     77  C   UNL A   1      49.243  28.465  27.704  1.00  0.00     0.022 A 
BRANCH  74  78
ATOM     78  S   UNL A   1      49.765  28.006  30.404  1.00  0.00     0.124 S 
ATOM     79  O   UNL A   1      51.037  27.711  29.748  1.00  0.00    -0.237 OA
ATOM     80  O   UNL A   1      49.712  29.248  31.166  1.00  0.00    -0.237 OA
ATOM     81  O   UNL A   1      49.120  26.857  31.036  1.00  0.00    -0.744 OA
ENDBRANCH  74  78
ENDBRANCH  57  71
BRANCH  58  82
ATOM     82  C   UNL A   1      37.180  32.036  30.415  1.00  0.00     0.023 A 
ATOM     83  C   UNL A   1      36.328  32.765  29.572  1.00  0.00     0.031 A 
ATOM     84  C   UNL A   1      36.694  31.668  31.685  1.00  0.00     0.131 A 
ATOM     85  C   UNL A   1      35.048  33.132  30.019  1.00  0.00     0.055 A 
ATOM     86  C   UNL A   1      35.402  31.987  32.104  1.00  0.00     0.041 A 
ATOM     87  F   UNL A   1      37.467  30.967  32.530  1.00  0.00    -0.206 F 
ATOM     88  C   UNL A   1      34.573  32.733  31.271  1.00  0.00     0.022 A 
BRANCH  85  89
ATOM     89  S   UNL A   1      34.028  34.201  28.967  1.00  0.00     0.124 S 
ATOM     90  O   UNL A   1      33.070  34.737  29.927  1.00  0.00    -0.237 OA
ATOM     91  O   UNL A   1      35.013  35.145  28.447  1.00  0.00    -0.237 OA
ATOM     92  O   UNL A   1      33.472  33.278  27.980  1.00  0.00    -0.744 OA
ENDBRANCH  85  89
ENDBRANCH  58  82
BRANCH  70  93
ATOM     93  C   UNL A   1      43.356  35.307  30.605  1.00  0.00     0.023 A 
ATOM     94  C   UNL A   1      43.577  35.669  31.946  1.00  0.00     0.031 A 
ATOM     95  C   UNL A   1      43.511  36.301  29.620  1.00  0.00     0.131 A 
ATOM     96  C   UNL A   1      43.880  37.000  32.270  1.00  0.00     0.055 A 
ATOM     97  C   UNL A   1      43.885  37.606  29.943  1.00  0.00     0.041 A 
ATOM     98  F   UNL A   1      43.308  36.016  28.324  1.00  0.00    -0.206 F 
ATOM     99  C   UNL A   1      44.057  37.965  31.276  1.00  0.00     0.022 A 
BRANCH  96 100
ATOM    100  S   UNL A   1      43.933  37.479  34.019  1.00  0.00     0.124 S 
ATOM    101  O   UNL A   1      43.949  36.183  34.688  1.00  0.00    -0.237 OA
ATOM    102  O   UNL A   1      45.168  38.252  34.095  1.00  0.00    -0.237 OA
ATOM    103  O   UNL A   1      42.706  38.254  34.198  1.00  0.00    -0.744 OA
ENDBRANCH  96 100
ENDBRANCH  70  93
ENDBRANCH  44  45
ENDBRANCH  36  39
ENDBRANCH  34  35
ENDBRANCH  33  34
ENDBRANCH   1  33
TORSDOF 19
ENDMDL
MODEL 3
REMARK VINA RESULT:     -11.6      2.106      7.472
REMARK SMILES CCc1cccc(CC)c1N1/C(=[NH+]/C(=O)CCCC(=O)NCCCNC(=O)c2ccc(-c3c4nc(c(-c5cc(S(=O)(=O)[O-])ccc5F)c5ccc([nH]5)c(-c5cc(S(=O)(=O)[O-])ccc5F)c5nc(c(-c6cc(S(=O)(=O)[O-])ccc6F)c6ccc3[nH]6)C=C5)C=C4)cc2)S[C@@H]2CS(=O)(=O)C[C@@H]21
REMARK SMILES IDX 22 1 21 2 19 3 20 4 18 6 17 7 16 8 14 9 11 10 12 11 98 12
REMARK SMILES IDX 13 13 91 14 92 15 97 16 93 18 94 19 15 20 95 21 96 22 10 23
REMARK SMILES IDX 3 24 4 25 5 26 7 27 6 28 2 29 1 30 8 31 9 32 23 33 24 34
REMARK SMILES IDX 25 35 26 36 27 38 28 39 29 40 90 41 30 42 89 43 31 44 32 45
REMARK SMILES IDX 33 46 83 47 34 48 88 49 82 50 84 51 35 52 87 53 81 54 80 55
REMARK SMILES IDX 36 57 68 58 48 59 67 60 49 61 52 62 66 63 85 64 50 65 51 66
REMARK SMILES IDX 65 68 86 69 53 70 37 71 38 72 46 73 39 74 45 75 47 76 44 77
REMARK SMILES IDX 40 78 41 79 42 80 43 81 69 82 70 83 78 84 71 85 77 86 79 87
REMARK SMILES IDX 76 88 72 89 73 90 74 91 75 92 54 93 55 94 63 95 56 96 62 97
REMARK SMILES IDX 64 98 61 99 57 100 58 101 59 102 60 103
REMARK H PARENT 21 5 13 17 25 37 84 56 52 67
REMARK Flexibility Score: inf
ROOT
ATOM      1  C   UNL A   1      34.414  21.337  25.878  1.00  0.00     0.117 C 
ENDROOT
BRANCH   1   2
ATOM      2  N   UNL A   1      34.080  22.734  26.022  1.00  0.00    -0.356 N 
ATOM      3  C   UNL A   1      33.183  23.457  25.296  1.00  0.00     0.220 C 
ATOM      4  O   UNL A   1      33.134  24.676  25.469  1.00  0.00    -0.275 OA
ATOM      5  H   UNL A   1      34.560  23.223  26.730  1.00  0.00     0.163 HD
BRANCH   3   6
ATOM      6  C   UNL A   1      32.184  22.741  24.402  1.00  0.00     0.100 C 
BRANCH   6   7
ATOM      7  C   UNL A   1      32.527  22.418  22.944  1.00  0.00     0.022 C 
BRANCH   7   8
ATOM      8  C   UNL A   1      32.880  23.491  21.909  1.00  0.00     0.128 C 
BRANCH   8   9
ATOM      9  C   UNL A   1      33.221  24.940  22.283  1.00  0.00     0.307 C 
ATOM     10  N   UNL A   1      31.389  27.944  23.337  1.00  0.00    -0.216 N 
ATOM     11  C   UNL A   1      32.318  27.064  22.759  1.00  0.00     0.319 C 
ATOM     12  C   UNL A   1      31.937  29.243  23.801  1.00  0.00     0.212 C 
ATOM     13  N   UNL A   1      32.168  25.794  22.538  1.00  0.00    -0.204 N 
ATOM     14  S   UNL A   1      33.816  27.990  22.472  1.00  0.00    -0.029 SA
ATOM     15  C   UNL A   1      33.463  29.096  23.851  1.00  0.00     0.120 C 
ATOM     16  C   UNL A   1      31.470  29.685  25.181  1.00  0.00     0.188 C 
ATOM     17  H   UNL A   1      31.256  25.422  22.555  1.00  0.00     0.316 HD
ATOM     18  C   UNL A   1      33.846  28.449  25.171  1.00  0.00     0.156 C 
ATOM     19  S   UNL A   1      32.709  29.152  26.336  1.00  0.00     0.155 S 
ATOM     20  O   UNL A   1      34.414  25.233  22.359  1.00  0.00    -0.247 OA
ATOM     21  O   UNL A   1      32.165  28.107  27.169  1.00  0.00    -0.229 OA
ATOM     22  O   UNL A   1      33.327  30.341  26.899  1.00  0.00    -0.229 OA
BRANCH  10  23
ATOM     23  C   UNL A   1      29.979  27.808  23.303  1.00  0.00     0.134 A 
ATOM     24  C   UNL A   1      29.318  26.739  23.978  1.00  0.00    -0.001 A 
ATOM     25  C   UNL A   1      27.897  26.726  24.016  1.00  0.00     0.008 A 
ATOM     26  C   UNL A   1      27.127  27.743  23.480  1.00  0.00     0.001 A 
ATOM     27  C   UNL A   1      29.161  28.839  22.709  1.00  0.00    -0.001 A 
ATOM     28  C   UNL A   1      27.757  28.801  22.856  1.00  0.00     0.008 A 
BRANCH  24  29
ATOM     29  C   UNL A   1      29.918  25.680  24.894  1.00  0.00     0.036 C 
ATOM     30  C   UNL A   1      29.704  25.650  26.389  1.00  0.00     0.009 C 
ENDBRANCH  24  29
BRANCH  27  31
ATOM     31  C   UNL A   1      29.711  30.063  21.984  1.00  0.00     0.036 C 
ATOM     32  C   UNL A   1      28.668  31.080  21.520  1.00  0.00     0.009 C 
ENDBRANCH  27  31
ENDBRANCH  10  23
ENDBRANCH   8   9
ENDBRANCH   7   8
ENDBRANCH   6   7
ENDBRANCH   3   6
ENDBRANCH   1   2
BRANCH   1  33
ATOM     33  C   UNL A   1      35.545  21.171  24.877  1.00  0.00     0.042 C 
BRANCH  33  34
ATOM     34  C   UNL A   1      36.863  21.691  25.395  1.00  0.00     0.118 C 
BRANCH  34  35
ATOM     35  N   UNL A   1      37.792  20.611  25.672  1.00  0.00    -0.352 N 
ATOM     36  C   UNL A   1      39.107  20.682  26.063  1.00  0.00     0.251 C 
ATOM     37  H   UNL A   1      37.430  19.702  25.564  1.00  0.00     0.163 HD
ATOM     38  O   UNL A   1      39.792  19.662  26.048  1.00  0.00    -0.269 OA
BRANCH  36  39
ATOM     39  C   UNL A   1      39.695  21.984  26.459  1.00  0.00     0.039 A 
ATOM     40  C   UNL A   1      40.776  21.997  27.342  1.00  0.00     0.014 A 
ATOM     41  C   UNL A   1      39.198  23.188  25.952  1.00  0.00     0.014 A 
ATOM     42  C   UNL A   1      41.386  23.210  27.671  1.00  0.00     0.010 A 
ATOM     43  C   UNL A   1      39.887  24.375  26.177  1.00  0.00     0.010 A 
ATOM     44  C   UNL A   1      40.971  24.406  27.063  1.00  0.00    -0.014 A 
BRANCH  44  45
ATOM     45  C   UNL A   1      41.629  25.703  27.373  1.00  0.00     0.031 A 
ATOM     46  C   UNL A   1      40.882  26.755  28.151  1.00  0.00     0.074 A 
ATOM     47  C   UNL A   1      42.868  25.955  26.907  1.00  0.00     0.049 A 
ATOM     48  N   UNL A   1      41.254  27.968  28.473  1.00  0.00    -0.248 NA
ATOM     49  C   UNL A   1      39.520  26.414  28.586  1.00  0.00     0.031 C 
ATOM     50  C   UNL A   1      43.664  25.037  26.088  1.00  0.00     0.029 A 
ATOM     51  N   UNL A   1      43.673  27.056  27.047  1.00  0.00    -0.354 N 
ATOM     52  C   UNL A   1      40.165  28.536  29.127  1.00  0.00     0.074 A 
ATOM     53  C   UNL A   1      39.096  27.564  29.081  1.00  0.00     0.031 C 
ATOM     54  C   UNL A   1      44.852  25.602  25.825  1.00  0.00     0.029 A 
ATOM     55  C   UNL A   1      44.885  26.940  26.407  1.00  0.00     0.049 A 
ATOM     56  H   UNL A   1      43.407  27.856  27.556  1.00  0.00     0.167 HD
ATOM     57  C   UNL A   1      40.075  29.745  29.735  1.00  0.00     0.034 A 
ATOM     58  C   UNL A   1      45.902  27.816  26.287  1.00  0.00     0.034 A 
ATOM     59  C   UNL A   1      41.162  30.693  29.779  1.00  0.00     0.049 A 
ATOM     60  C   UNL A   1      45.783  29.158  26.962  1.00  0.00     0.074 A 
ATOM     61  C   UNL A   1      41.216  31.912  30.430  1.00  0.00     0.029 A 
ATOM     62  N   UNL A   1      42.381  30.536  29.129  1.00  0.00    -0.354 N 
ATOM     63  N   UNL A   1      44.777  29.651  27.648  1.00  0.00    -0.248 NA
ATOM     64  C   UNL A   1      46.941  30.056  26.859  1.00  0.00     0.031 C 
ATOM     65  C   UNL A   1      42.427  32.530  30.101  1.00  0.00     0.029 A 
ATOM     66  C   UNL A   1      43.174  31.657  29.325  1.00  0.00     0.049 A 
ATOM     67  H   UNL A   1      42.644  29.745  28.605  1.00  0.00     0.167 HD
ATOM     68  C   UNL A   1      45.190  30.910  28.078  1.00  0.00     0.074 A 
ATOM     69  C   UNL A   1      46.544  31.088  27.588  1.00  0.00     0.031 C 
ATOM     70  C   UNL A   1      44.516  31.831  28.813  1.00  0.00     0.034 A 
BRANCH  57  71
ATOM     71  C   UNL A   1      38.747  30.113  30.362  1.00  0.00     0.023 A 
ATOM     72  C   UNL A   1      37.816  30.936  29.703  1.00  0.00     0.031 A 
ATOM     73  C   UNL A   1      38.430  29.681  31.662  1.00  0.00     0.131 A 
ATOM     74  C   UNL A   1      36.671  31.385  30.379  1.00  0.00     0.055 A 
ATOM     75  C   UNL A   1      37.239  30.049  32.293  1.00  0.00     0.041 A 
ATOM     76  F   UNL A   1      39.285  28.913  32.356  1.00  0.00    -0.206 F 
ATOM     77  C   UNL A   1      36.362  30.924  31.661  1.00  0.00     0.022 A 
BRANCH  74  78
ATOM     78  S   UNL A   1      35.699  32.726  29.638  1.00  0.00     0.124 S 
ATOM     79  O   UNL A   1      36.004  33.841  30.530  1.00  0.00    -0.237 OA
ATOM     80  O   UNL A   1      36.257  32.813  28.293  1.00  0.00    -0.237 OA
ATOM     81  O   UNL A   1      34.324  32.237  29.714  1.00  0.00    -0.744 OA
ENDBRANCH  74  78
ENDBRANCH  57  71
BRANCH  58  82
ATOM     82  C   UNL A   1      47.104  27.459  25.478  1.00  0.00     0.023 A 
ATOM     83  C   UNL A   1      47.205  27.805  24.121  1.00  0.00     0.031 A 
ATOM     84  C   UNL A   1      48.174  26.754  26.060  1.00  0.00     0.131 A 
ATOM     85  C   UNL A   1      48.336  27.417  23.383  1.00  0.00     0.055 A 
ATOM     86  C   UNL A   1      49.320  26.418  25.337  1.00  0.00     0.041 A 
ATOM     87  F   UNL A   1      48.130  26.401  27.355  1.00  0.00    -0.206 F 
ATOM     88  C   UNL A   1      49.400  26.742  23.986  1.00  0.00     0.022 A 
BRANCH  85  89
ATOM     89  S   UNL A   1      48.370  27.746  21.600  1.00  0.00     0.124 S 
ATOM     90  O   UNL A   1      49.445  28.726  21.499  1.00  0.00    -0.237 OA
ATOM     91  O   UNL A   1      48.655  26.423  21.052  1.00  0.00    -0.237 OA
ATOM     92  O   UNL A   1      47.030  28.258  21.322  1.00  0.00    -0.744 OA
ENDBRANCH  85  89
ENDBRANCH  58  82
BRANCH  70  93
ATOM     93  C   UNL A   1      45.250  33.104  29.163  1.00  0.00     0.023 A 
ATOM     94  C   UNL A   1      45.191  34.245  28.342  1.00  0.00     0.031 A 
ATOM     95  C   UNL A   1      46.024  33.174  30.336  1.00  0.00     0.131 A 
ATOM     96  C   UNL A   1      45.941  35.384  28.675  1.00  0.00     0.055 A 
ATOM     97  C   UNL A   1      46.709  34.335  30.698  1.00  0.00     0.041 A 
ATOM     98  F   UNL A   1      46.122  32.115  31.155  1.00  0.00    -0.206 F 
ATOM     99  C   UNL A   1      46.681  35.443  29.858  1.00  0.00     0.022 A 
BRANCH  96 100
ATOM    100  S   UNL A   1      46.025  36.748  27.483  1.00  0.00     0.124 S 
ATOM    101  O   UNL A   1      44.615  36.982  27.191  1.00  0.00    -0.237 OA
ATOM    102  O   UNL A   1      46.700  37.791  28.248  1.00  0.00    -0.237 OA
ATOM    103  O   UNL A   1      46.803  36.190  26.378  1.00  0.00    -0.744 OA
ENDBRANCH  96 100
ENDBRANCH  70  93
ENDBRANCH  44  45
ENDBRANCH  36  39
ENDBRANCH  34  35
ENDBRANCH  33  34
ENDBRANCH   1  33
TORSDOF 19
ENDMDL
