MODEL 1
REMARK VINA RESULT:     -13.4      0.000      0.000
REMARK SMILES [NH3+][C@H]1CN(C(=O)OCC2c3ccccc3-c3ccccc32)C[C@@H]1C(=O)NCCCNC(=O)c1ccc(-c2c3nc(c(-c4cc(S(=O)(=O)[O-])ccc4F)c4ccc([nH]4)c(-c4cc(S(=O)(=O)[O-])ccc4F)c4nc(c(-c5cc(S(=O)(=O)[O-])ccc5F)c5ccc2[nH]5)C=C4)C=C3)cc1
REMARK SMILES IDX 27 1 26 2 24 3 25 4 23 6 2 7 3 8 4 9 22 10 1 11 5 15 6 16
REMARK SMILES IDX 7 17 8 18 9 19 10 20 21 21 11 22 15 23 16 24 20 25 12 26
REMARK SMILES IDX 14 27 17 28 19 29 13 30 18 31 28 32 29 33 30 34 31 35 32 37
REMARK SMILES IDX 33 38 34 39 95 40 35 41 94 42 36 43 37 44 38 45 88 46 39 47
REMARK SMILES IDX 93 48 87 49 89 50 40 51 92 52 86 53 85 54 41 56 73 57 53 58
REMARK SMILES IDX 72 59 54 60 57 61 71 62 90 63 55 64 56 65 70 67 91 68 58 69
REMARK SMILES IDX 42 70 43 71 51 72 44 73 50 74 52 75 49 76 45 77 46 78 47 79
REMARK SMILES IDX 48 80 74 81 75 82 83 83 76 84 82 85 84 86 81 87 77 88 78 89
REMARK SMILES IDX 79 90 80 91 59 92 60 93 68 94 61 95 67 96 69 97 66 98 62 99
REMARK SMILES IDX 63 100 64 101 65 102
REMARK H PARENT 26 5 1 12 1 13 1 14 30 36 89 55 57 66
REMARK Flexibility Score: inf
ROOT
ATOM      1  C   UNL A   1      31.298  30.949  25.460  1.00  0.00     0.117 C 
ENDROOT
BRANCH   1   2
ATOM      2  N   UNL A   1      32.230  29.853  25.619  1.00  0.00    -0.356 N 
ATOM      3  C   UNL A   1      32.854  29.043  24.729  1.00  0.00     0.231 C 
ATOM      4  O   UNL A   1      33.697  28.271  25.206  1.00  0.00    -0.274 OA
ATOM      5  H   UNL A   1      32.455  29.657  26.557  1.00  0.00     0.163 HD
BRANCH   3   6
ATOM      6  C   UNL A   1      32.598  29.005  23.223  1.00  0.00     0.158 C 
ATOM      7  C   UNL A   1      31.140  28.853  22.759  1.00  0.00     0.215 C 
ATOM      8  C   UNL A   1      31.029  27.408  22.209  1.00  0.00     0.188 C 
ATOM      9  N   UNL A   1      32.393  26.916  22.149  1.00  0.00    -0.301 N 
ATOM     10  C   UNL A   1      33.366  27.933  22.484  1.00  0.00     0.143 C 
BRANCH   7  11
ATOM     11  N   UNL A   1      30.827  29.814  21.682  1.00  0.00    -0.353 N 
ATOM     12  H   UNL A   1      30.666  29.309  20.811  1.00  0.00     0.344 HD
ATOM     13  H   UNL A   1      31.610  30.457  21.562  1.00  0.00     0.344 HD
ATOM     14  H   UNL A   1      29.989  30.342  21.929  1.00  0.00     0.344 HD
ENDBRANCH   7  11
BRANCH   9  15
ATOM     15  C   UNL A   1      32.825  25.646  21.892  1.00  0.00     0.410 C 
ATOM     16  O   UNL A   1      33.357  25.372  20.827  1.00  0.00    -0.224 OA
BRANCH  15  17
ATOM     17  O   UNL A   1      32.714  24.789  22.941  1.00  0.00    -0.448 OA
BRANCH  17  18
ATOM     18  C   UNL A   1      33.329  23.480  22.734  1.00  0.00     0.248 C 
BRANCH  18  19
ATOM     19  C   UNL A   1      33.603  22.714  24.041  1.00  0.00     0.088 C 
ATOM     20  C   UNL A   1      33.407  21.193  23.979  1.00  0.00    -0.029 A 
ATOM     21  C   UNL A   1      35.042  22.806  24.555  1.00  0.00    -0.029 A 
ATOM     22  C   UNL A   1      32.362  20.445  23.452  1.00  0.00     0.005 A 
ATOM     23  C   UNL A   1      34.484  20.545  24.619  1.00  0.00    -0.014 A 
ATOM     24  C   UNL A   1      35.494  21.524  24.946  1.00  0.00    -0.014 A 
ATOM     25  C   UNL A   1      35.862  23.917  24.689  1.00  0.00     0.005 A 
ATOM     26  C   UNL A   1      32.361  19.061  23.626  1.00  0.00     0.000 A 
ATOM     27  C   UNL A   1      34.482  19.169  24.801  1.00  0.00     0.009 A 
ATOM     28  C   UNL A   1      36.759  21.346  25.481  1.00  0.00     0.009 A 
ATOM     29  C   UNL A   1      37.146  23.734  25.212  1.00  0.00     0.000 A 
ATOM     30  C   UNL A   1      33.402  18.430  24.314  1.00  0.00     0.001 A 
ATOM     31  C   UNL A   1      37.588  22.462  25.612  1.00  0.00     0.001 A 
ENDBRANCH  18  19
ENDBRANCH  17  18
ENDBRANCH  15  17
ENDBRANCH   9  15
ENDBRANCH   3   6
ENDBRANCH   1   2
BRANCH   1  32
ATOM     32  C   UNL A   1      31.221  31.862  26.677  1.00  0.00     0.042 C 
BRANCH  32  33
ATOM     33  C   UNL A   1      32.585  32.350  27.157  1.00  0.00     0.118 C 
BRANCH  33  34
ATOM     34  N   UNL A   1      32.549  33.749  27.574  1.00  0.00    -0.352 N 
ATOM     35  C   UNL A   1      33.222  34.419  28.565  1.00  0.00     0.251 C 
ATOM     36  H   UNL A   1      31.931  34.311  27.052  1.00  0.00     0.163 HD
ATOM     37  O   UNL A   1      32.825  35.537  28.891  1.00  0.00    -0.269 OA
BRANCH  35  38
ATOM     38  C   UNL A   1      34.399  33.826  29.240  1.00  0.00     0.039 A 
ATOM     39  C   UNL A   1      35.675  34.313  28.933  1.00  0.00     0.014 A 
ATOM     40  C   UNL A   1      34.268  32.753  30.123  1.00  0.00     0.014 A 
ATOM     41  C   UNL A   1      36.803  33.768  29.555  1.00  0.00     0.010 A 
ATOM     42  C   UNL A   1      35.379  32.271  30.810  1.00  0.00     0.010 A 
ATOM     43  C   UNL A   1      36.661  32.765  30.527  1.00  0.00    -0.014 A 
BRANCH  43  44
ATOM     44  C   UNL A   1      37.834  32.199  31.244  1.00  0.00     0.031 A 
ATOM     45  C   UNL A   1      38.640  31.093  30.613  1.00  0.00     0.074 A 
ATOM     46  C   UNL A   1      38.120  32.620  32.492  1.00  0.00     0.049 A 
ATOM     47  N   UNL A   1      39.607  30.374  31.122  1.00  0.00    -0.248 NA
ATOM     48  C   UNL A   1      38.276  30.717  29.238  1.00  0.00     0.031 C 
ATOM     49  C   UNL A   1      37.381  33.649  33.229  1.00  0.00     0.029 A 
ATOM     50  N   UNL A   1      39.100  32.226  33.369  1.00  0.00    -0.354 N 
ATOM     51  C   UNL A   1      39.944  29.442  30.144  1.00  0.00     0.074 A 
ATOM     52  C   UNL A   1      39.037  29.653  29.037  1.00  0.00     0.031 C 
ATOM     53  C   UNL A   1      37.949  33.821  34.434  1.00  0.00     0.029 A 
ATOM     54  C   UNL A   1      39.060  32.886  34.576  1.00  0.00     0.049 A 
ATOM     55  H   UNL A   1      39.768  31.536  33.154  1.00  0.00     0.167 HD
ATOM     56  C   UNL A   1      40.932  28.511  30.162  1.00  0.00     0.034 A 
ATOM     57  C   UNL A   1      39.823  32.742  35.677  1.00  0.00     0.034 A 
ATOM     58  C   UNL A   1      41.848  28.339  31.264  1.00  0.00     0.049 A 
ATOM     59  C   UNL A   1      40.925  31.714  35.666  1.00  0.00     0.074 A 
ATOM     60  C   UNL A   1      42.923  27.475  31.366  1.00  0.00     0.029 A 
ATOM     61  N   UNL A   1      41.796  29.050  32.457  1.00  0.00    -0.354 N 
ATOM     62  N   UNL A   1      41.256  30.866  34.720  1.00  0.00    -0.248 NA
ATOM     63  C   UNL A   1      41.762  31.631  36.870  1.00  0.00     0.031 C 
ATOM     64  C   UNL A   1      43.486  27.623  32.640  1.00  0.00     0.029 A 
ATOM     65  C   UNL A   1      42.807  28.629  33.307  1.00  0.00     0.049 A 
ATOM     66  H   UNL A   1      41.138  29.752  32.668  1.00  0.00     0.167 HD
ATOM     67  C   UNL A   1      42.357  30.166  35.206  1.00  0.00     0.074 A 
ATOM     68  C   UNL A   1      42.642  30.704  36.520  1.00  0.00     0.031 C 
ATOM     69  C   UNL A   1      43.069  29.171  34.620  1.00  0.00     0.034 A 
BRANCH  56  70
ATOM     70  C   UNL A   1      41.049  27.598  28.963  1.00  0.00     0.023 A 
ATOM     71  C   UNL A   1      42.043  27.784  27.986  1.00  0.00     0.031 A 
ATOM     72  C   UNL A   1      40.137  26.543  28.778  1.00  0.00     0.131 A 
ATOM     73  C   UNL A   1      42.048  26.987  26.830  1.00  0.00     0.055 A 
ATOM     74  C   UNL A   1      40.201  25.699  27.667  1.00  0.00     0.041 A 
ATOM     75  F   UNL A   1      39.155  26.324  29.667  1.00  0.00    -0.206 F 
ATOM     76  C   UNL A   1      41.151  25.930  26.676  1.00  0.00     0.022 A 
BRANCH  73  77
ATOM     77  S   UNL A   1      43.151  27.451  25.466  1.00  0.00     0.124 S 
ATOM     78  O   UNL A   1      43.571  26.142  24.971  1.00  0.00    -0.237 OA
ATOM     79  O   UNL A   1      42.268  28.212  24.591  1.00  0.00    -0.237 OA
ATOM     80  O   UNL A   1      44.200  28.227  26.122  1.00  0.00    -0.744 OA
ENDBRANCH  73  77
ENDBRANCH  56  70
BRANCH  57  81
ATOM     81  C   UNL A   1      39.575  33.579  36.883  1.00  0.00     0.023 A 
ATOM     82  C   UNL A   1      38.898  33.059  37.998  1.00  0.00     0.031 A 
ATOM     83  C   UNL A   1      39.979  34.924  36.927  1.00  0.00     0.131 A 
ATOM     84  C   UNL A   1      38.606  33.889  39.090  1.00  0.00     0.055 A 
ATOM     85  C   UNL A   1      39.733  35.733  38.039  1.00  0.00     0.041 A 
ATOM     86  F   UNL A   1      40.627  35.473  35.886  1.00  0.00    -0.206 F 
ATOM     87  C   UNL A   1      39.032  35.219  39.124  1.00  0.00     0.022 A 
BRANCH  84  88
ATOM     88  S   UNL A   1      37.583  33.228  40.434  1.00  0.00     0.124 S 
ATOM     89  O   UNL A   1      36.395  32.785  39.713  1.00  0.00    -0.237 OA
ATOM     90  O   UNL A   1      38.437  32.177  40.975  1.00  0.00    -0.237 OA
ATOM     91  O   UNL A   1      37.388  34.382  41.311  1.00  0.00    -0.744 OA
ENDBRANCH  84  88
ENDBRANCH  57  81
BRANCH  69  92
ATOM     92  C   UNL A   1      44.251  28.635  35.387  1.00  0.00     0.023 A 
ATOM     93  C   UNL A   1      44.113  27.600  36.329  1.00  0.00     0.031 A 
ATOM     94  C   UNL A   1      45.531  29.181  35.183  1.00  0.00     0.131 A 
ATOM     95  C   UNL A   1      45.227  27.180  37.071  1.00  0.00     0.055 A 
ATOM     96  C   UNL A   1      46.645  28.718  35.883  1.00  0.00     0.041 A 
ATOM     97  F   UNL A   1      45.717  30.171  34.296  1.00  0.00    -0.206 F 
ATOM     98  C   UNL A   1      46.495  27.721  36.843  1.00  0.00     0.022 A 
BRANCH  95  99
ATOM     99  S   UNL A   1      44.981  25.975  38.403  1.00  0.00     0.124 S 
ATOM    100  O   UNL A   1      44.571  24.785  37.664  1.00  0.00    -0.237 OA
ATOM    101  O   UNL A   1      46.302  25.917  39.021  1.00  0.00    -0.237 OA
ATOM    102  O   UNL A   1      43.938  26.582  39.228  1.00  0.00    -0.744 OA
ENDBRANCH  95  99
ENDBRANCH  69  92
ENDBRANCH  43  44
ENDBRANCH  35  38
ENDBRANCH  33  34
ENDBRANCH  32  33
ENDBRANCH   1  32
TORSDOF 18
ENDMDL
MODEL 2
REMARK VINA RESULT:     -13.1      1.505      2.278
REMARK SMILES [NH3+][C@H]1CN(C(=O)OCC2c3ccccc3-c3ccccc32)C[C@@H]1C(=O)NCCCNC(=O)c1ccc(-c2c3nc(c(-c4cc(S(=O)(=O)[O-])ccc4F)c4ccc([nH]4)c(-c4cc(S(=O)(=O)[O-])ccc4F)c4nc(c(-c5cc(S(=O)(=O)[O-])ccc5F)c5ccc2[nH]5)C=C4)C=C3)cc1
REMARK SMILES IDX 27 1 26 2 24 3 25 4 23 6 2 7 3 8 4 9 22 10 1 11 5 15 6 16
REMARK SMILES IDX 7 17 8 18 9 19 10 20 21 21 11 22 15 23 16 24 20 25 12 26
REMARK SMILES IDX 14 27 17 28 19 29 13 30 18 31 28 32 29 33 30 34 31 35 32 37
REMARK SMILES IDX 33 38 34 39 95 40 35 41 94 42 36 43 37 44 38 45 88 46 39 47
REMARK SMILES IDX 93 48 87 49 89 50 40 51 92 52 86 53 85 54 41 56 73 57 53 58
REMARK SMILES IDX 72 59 54 60 57 61 71 62 90 63 55 64 56 65 70 67 91 68 58 69
REMARK SMILES IDX 42 70 43 71 51 72 44 73 50 74 52 75 49 76 45 77 46 78 47 79
REMARK SMILES IDX 48 80 74 81 75 82 83 83 76 84 82 85 84 86 81 87 77 88 78 89
REMARK SMILES IDX 79 90 80 91 59 92 60 93 68 94 61 95 67 96 69 97 66 98 62 99
REMARK SMILES IDX 63 100 64 101 65 102
REMARK H PARENT 26 5 1 12 1 13 1 14 30 36 89 55 57 66
REMARK Flexibility Score: inf
ROOT
ATOM      1  C   UNL A   1      31.323  30.799  25.631  1.00  0.00     0.117 C 
ENDROOT
BRANCH   1   2
ATOM      2  N   UNL A   1      32.292  29.724  25.674  1.00  0.00    -0.356 N 
ATOM      3  C   UNL A   1      32.910  29.007  24.704  1.00  0.00     0.231 C 
ATOM      4  O   UNL A   1      33.790  28.227  25.092  1.00  0.00    -0.274 OA
ATOM      5  H   UNL A   1      32.553  29.462  26.586  1.00  0.00     0.163 HD
BRANCH   3   6
ATOM      6  C   UNL A   1      32.607  29.080  23.208  1.00  0.00     0.158 C 
ATOM      7  C   UNL A   1      31.138  28.925  22.778  1.00  0.00     0.215 C 
ATOM      8  C   UNL A   1      31.046  27.525  22.119  1.00  0.00     0.188 C 
ATOM      9  N   UNL A   1      32.419  27.077  21.979  1.00  0.00    -0.301 N 
ATOM     10  C   UNL A   1      33.377  28.090  22.364  1.00  0.00     0.143 C 
BRANCH   7  11
ATOM     11  N   UNL A   1      30.767  29.959  21.789  1.00  0.00    -0.353 N 
ATOM     12  H   UNL A   1      29.961  29.642  21.252  1.00  0.00     0.344 HD
ATOM     13  H   UNL A   1      31.553  30.124  21.160  1.00  0.00     0.344 HD
ATOM     14  H   UNL A   1      30.534  30.825  22.275  1.00  0.00     0.344 HD
ENDBRANCH   7  11
BRANCH   9  15
ATOM     15  C   UNL A   1      32.873  25.842  21.610  1.00  0.00     0.410 C 
ATOM     16  O   UNL A   1      33.161  25.607  20.446  1.00  0.00    -0.224 OA
BRANCH  15  17
ATOM     17  O   UNL A   1      33.075  24.983  22.642  1.00  0.00    -0.448 OA
BRANCH  17  18
ATOM     18  C   UNL A   1      32.943  23.568  22.302  1.00  0.00     0.248 C 
BRANCH  18  19
ATOM     19  C   UNL A   1      33.340  22.619  23.446  1.00  0.00     0.088 C 
ATOM     20  C   UNL A   1      34.762  22.791  23.996  1.00  0.00    -0.029 A 
ATOM     21  C   UNL A   1      32.510  22.764  24.724  1.00  0.00    -0.029 A 
ATOM     22  C   UNL A   1      35.973  22.915  23.327  1.00  0.00     0.005 A 
ATOM     23  C   UNL A   1      34.738  22.767  25.406  1.00  0.00    -0.014 A 
ATOM     24  C   UNL A   1      33.363  22.777  25.852  1.00  0.00    -0.014 A 
ATOM     25  C   UNL A   1      31.133  22.848  24.877  1.00  0.00     0.005 A 
ATOM     26  C   UNL A   1      37.158  22.941  24.063  1.00  0.00     0.000 A 
ATOM     27  C   UNL A   1      35.914  22.784  26.141  1.00  0.00     0.009 A 
ATOM     28  C   UNL A   1      32.849  22.864  27.134  1.00  0.00     0.009 A 
ATOM     29  C   UNL A   1      30.616  22.954  26.172  1.00  0.00     0.000 A 
ATOM     30  C   UNL A   1      37.130  22.856  25.458  1.00  0.00     0.001 A 
ATOM     31  C   UNL A   1      31.465  22.954  27.291  1.00  0.00     0.001 A 
ENDBRANCH  18  19
ENDBRANCH  17  18
ENDBRANCH  15  17
ENDBRANCH   9  15
ENDBRANCH   3   6
ENDBRANCH   1   2
BRANCH   1  32
ATOM     32  C   UNL A   1      31.399  31.733  26.832  1.00  0.00     0.042 C 
BRANCH  32  33
ATOM     33  C   UNL A   1      32.754  32.417  26.985  1.00  0.00     0.118 C 
BRANCH  33  34
ATOM     34  N   UNL A   1      32.626  33.769  27.523  1.00  0.00    -0.352 N 
ATOM     35  C   UNL A   1      33.215  34.376  28.605  1.00  0.00     0.251 C 
ATOM     36  H   UNL A   1      32.007  34.347  27.021  1.00  0.00     0.163 HD
ATOM     37  O   UNL A   1      32.745  35.438  29.008  1.00  0.00    -0.269 OA
BRANCH  35  38
ATOM     38  C   UNL A   1      34.385  33.778  29.286  1.00  0.00     0.039 A 
ATOM     39  C   UNL A   1      35.664  34.266  28.993  1.00  0.00     0.014 A 
ATOM     40  C   UNL A   1      34.246  32.700  30.162  1.00  0.00     0.014 A 
ATOM     41  C   UNL A   1      36.786  33.716  29.621  1.00  0.00     0.010 A 
ATOM     42  C   UNL A   1      35.352  32.214  30.856  1.00  0.00     0.010 A 
ATOM     43  C   UNL A   1      36.637  32.709  30.586  1.00  0.00    -0.014 A 
BRANCH  43  44
ATOM     44  C   UNL A   1      37.803  32.138  31.310  1.00  0.00     0.031 A 
ATOM     45  C   UNL A   1      38.638  31.064  30.662  1.00  0.00     0.074 A 
ATOM     46  C   UNL A   1      38.058  32.525  32.576  1.00  0.00     0.049 A 
ATOM     47  N   UNL A   1      39.606  30.344  31.169  1.00  0.00    -0.248 NA
ATOM     48  C   UNL A   1      38.308  30.725  29.269  1.00  0.00     0.031 C 
ATOM     49  C   UNL A   1      37.288  33.521  33.328  1.00  0.00     0.029 A 
ATOM     50  N   UNL A   1      39.026  32.119  33.460  1.00  0.00    -0.354 N 
ATOM     51  C   UNL A   1      39.977  29.447  30.171  1.00  0.00     0.074 A 
ATOM     52  C   UNL A   1      39.089  29.679  29.052  1.00  0.00     0.031 C 
ATOM     53  C   UNL A   1      37.829  33.664  34.549  1.00  0.00     0.029 A 
ATOM     54  C   UNL A   1      38.951  32.741  34.685  1.00  0.00     0.049 A 
ATOM     55  H   UNL A   1      39.709  31.446  33.238  1.00  0.00     0.167 HD
ATOM     56  C   UNL A   1      40.978  28.531  30.181  1.00  0.00     0.034 A 
ATOM     57  C   UNL A   1      39.694  32.574  35.797  1.00  0.00     0.034 A 
ATOM     58  C   UNL A   1      41.874  28.339  31.295  1.00  0.00     0.049 A 
ATOM     59  C   UNL A   1      40.812  31.564  35.778  1.00  0.00     0.074 A 
ATOM     60  C   UNL A   1      42.960  27.488  31.394  1.00  0.00     0.029 A 
ATOM     61  N   UNL A   1      41.788  29.012  32.508  1.00  0.00    -0.354 N 
ATOM     62  N   UNL A   1      41.175  30.750  34.813  1.00  0.00    -0.248 NA
ATOM     63  C   UNL A   1      41.626  31.456  36.995  1.00  0.00     0.031 C 
ATOM     64  C   UNL A   1      43.495  27.605  32.682  1.00  0.00     0.029 A 
ATOM     65  C   UNL A   1      42.787  28.580  33.366  1.00  0.00     0.049 A 
ATOM     66  H   UNL A   1      41.115  29.697  32.727  1.00  0.00     0.167 HD
ATOM     67  C   UNL A   1      42.276  30.052  35.300  1.00  0.00     0.074 A 
ATOM     68  C   UNL A   1      42.526  30.553  36.636  1.00  0.00     0.031 C 
ATOM     69  C   UNL A   1      43.014  29.085  34.699  1.00  0.00     0.034 A 
BRANCH  56  70
ATOM     70  C   UNL A   1      41.133  27.656  28.958  1.00  0.00     0.023 A 
ATOM     71  C   UNL A   1      42.163  27.867  28.023  1.00  0.00     0.031 A 
ATOM     72  C   UNL A   1      40.221  26.615  28.704  1.00  0.00     0.131 A 
ATOM     73  C   UNL A   1      42.206  27.109  26.843  1.00  0.00     0.055 A 
ATOM     74  C   UNL A   1      40.321  25.807  27.569  1.00  0.00     0.041 A 
ATOM     75  F   UNL A   1      39.207  26.375  29.549  1.00  0.00    -0.206 F 
ATOM     76  C   UNL A   1      41.308  26.064  26.621  1.00  0.00     0.022 A 
BRANCH  73  77
ATOM     77  S   UNL A   1      43.361  27.608  25.536  1.00  0.00     0.124 S 
ATOM     78  O   UNL A   1      44.005  28.771  26.142  1.00  0.00    -0.237 OA
ATOM     79  O   UNL A   1      44.194  26.423  25.381  1.00  0.00    -0.237 OA
ATOM     80  O   UNL A   1      42.487  27.910  24.404  1.00  0.00    -0.744 OA
ENDBRANCH  73  77
ENDBRANCH  56  70
BRANCH  57  81
ATOM     81  C   UNL A   1      39.409  33.371  37.023  1.00  0.00     0.023 A 
ATOM     82  C   UNL A   1      40.056  34.595  37.255  1.00  0.00     0.031 A 
ATOM     83  C   UNL A   1      38.514  32.902  37.999  1.00  0.00     0.131 A 
ATOM     84  C   UNL A   1      39.832  35.288  38.454  1.00  0.00     0.055 A 
ATOM     85  C   UNL A   1      38.253  33.622  39.168  1.00  0.00     0.041 A 
ATOM     86  F   UNL A   1      37.872  31.736  37.828  1.00  0.00    -0.206 F 
ATOM     87  C   UNL A   1      38.924  34.818  39.405  1.00  0.00     0.022 A 
BRANCH  84  88
ATOM     88  S   UNL A   1      40.812  36.777  38.793  1.00  0.00     0.124 S 
ATOM     89  O   UNL A   1      41.650  36.858  37.602  1.00  0.00    -0.237 OA
ATOM     90  O   UNL A   1      39.777  37.797  38.922  1.00  0.00    -0.237 OA
ATOM     91  O   UNL A   1      41.515  36.445  40.031  1.00  0.00    -0.744 OA
ENDBRANCH  84  88
ENDBRANCH  57  81
BRANCH  69  92
ATOM     92  C   UNL A   1      44.189  28.544  35.475  1.00  0.00     0.023 A 
ATOM     93  C   UNL A   1      44.022  27.606  36.509  1.00  0.00     0.031 A 
ATOM     94  C   UNL A   1      45.492  28.986  35.183  1.00  0.00     0.131 A 
ATOM     95  C   UNL A   1      45.135  27.181  37.250  1.00  0.00     0.055 A 
ATOM     96  C   UNL A   1      46.600  28.516  35.887  1.00  0.00     0.041 A 
ATOM     97  F   UNL A   1      45.706  29.882  34.206  1.00  0.00    -0.206 F 
ATOM     98  C   UNL A   1      46.424  27.618  36.936  1.00  0.00     0.022 A 
BRANCH  95  99
ATOM     99  S   UNL A   1      44.864  26.115  38.691  1.00  0.00     0.124 S 
ATOM    100  O   UNL A   1      45.870  26.607  39.627  1.00  0.00    -0.237 OA
ATOM    101  O   UNL A   1      43.476  26.403  39.038  1.00  0.00    -0.237 OA
ATOM    102  O   UNL A   1      45.106  24.769  38.173  1.00  0.00    -0.744 OA
ENDBRANCH  95  99
ENDBRANCH  69  92
ENDBRANCH  43  44
ENDBRANCH  35  38
ENDBRANCH  33  34
ENDBRANCH  32  33
ENDBRANCH   1  32
TORSDOF 18
ENDMDL
MODEL 3
REMARK VINA RESULT:     -12.8      1.726      2.546
REMARK SMILES [NH3+][C@H]1CN(C(=O)OCC2c3ccccc3-c3ccccc32)C[C@@H]1C(=O)NCCCNC(=O)c1ccc(-c2c3nc(c(-c4cc(S(=O)(=O)[O-])ccc4F)c4ccc([nH]4)c(-c4cc(S(=O)(=O)[O-])ccc4F)c4nc(c(-c5cc(S(=O)(=O)[O-])ccc5F)c5ccc2[nH]5)C=C4)C=C3)cc1
REMARK SMILES IDX 27 1 26 2 24 3 25 4 23 6 2 7 3 8 4 9 22 10 1 11 5 15 6 16
REMARK SMILES IDX 7 17 8 18 9 19 10 20 21 21 11 22 15 23 16 24 20 25 12 26
REMARK SMILES IDX 14 27 17 28 19 29 13 30 18 31 28 32 29 33 30 34 31 35 32 37
REMARK SMILES IDX 33 38 34 39 95 40 35 41 94 42 36 43 37 44 38 45 88 46 39 47
REMARK SMILES IDX 93 48 87 49 89 50 40 51 92 52 86 53 85 54 41 56 73 57 53 58
REMARK SMILES IDX 72 59 54 60 57 61 71 62 90 63 55 64 56 65 70 67 91 68 58 69
REMARK SMILES IDX 42 70 43 71 51 72 44 73 50 74 52 75 49 76 45 77 46 78 47 79
REMARK SMILES IDX 48 80 74 81 75 82 83 83 76 84 82 85 84 86 81 87 77 88 78 89
REMARK SMILES IDX 79 90 80 91 59 92 60 93 68 94 61 95 67 96 69 97 66 98 62 99
REMARK SMILES IDX 63 100 64 101 65 102
REMARK H PARENT 26 5 1 12 1 13 1 14 30 36 89 55 57 66
REMARK Flexibility Score: inf
ROOT
ATOM      1  C   UNL A   1      31.440  30.559  26.012  1.00  0.00     0.117 C 
ENDROOT
BRANCH   1   2
ATOM      2  N   UNL A   1      31.043  30.388  24.630  1.00  0.00    -0.356 N 
ATOM      3  C   UNL A   1      30.657  29.304  23.914  1.00  0.00     0.231 C 
ATOM      4  O   UNL A   1      30.264  29.534  22.762  1.00  0.00    -0.274 OA
ATOM      5  H   UNL A   1      31.057  31.222  24.108  1.00  0.00     0.163 HD
BRANCH   3   6
ATOM      6  C   UNL A   1      30.676  27.856  24.403  1.00  0.00     0.158 C 
ATOM      7  C   UNL A   1      31.846  27.433  25.308  1.00  0.00     0.215 C 
ATOM      8  C   UNL A   1      32.738  26.519  24.431  1.00  0.00     0.188 C 
ATOM      9  N   UNL A   1      31.965  26.268  23.230  1.00  0.00    -0.301 N 
ATOM     10  C   UNL A   1      30.630  26.823  23.301  1.00  0.00     0.143 C 
BRANCH   7  11
ATOM     11  N   UNL A   1      31.357  26.670  26.476  1.00  0.00    -0.353 N 
ATOM     12  H   UNL A   1      30.580  27.169  26.907  1.00  0.00     0.344 HD
ATOM     13  H   UNL A   1      32.113  26.566  27.154  1.00  0.00     0.344 HD
ATOM     14  H   UNL A   1      31.044  25.748  26.172  1.00  0.00     0.344 HD
ENDBRANCH   7  11
BRANCH   9  15
ATOM     15  C   UNL A   1      32.367  25.660  22.075  1.00  0.00     0.410 C 
ATOM     16  O   UNL A   1      31.807  25.900  21.016  1.00  0.00    -0.224 OA
BRANCH  15  17
ATOM     17  O   UNL A   1      33.477  24.887  22.201  1.00  0.00    -0.448 OA
BRANCH  17  18
ATOM     18  C   UNL A   1      33.248  23.451  22.062  1.00  0.00     0.248 C 
BRANCH  18  19
ATOM     19  C   UNL A   1      33.579  22.648  23.332  1.00  0.00     0.088 C 
ATOM     20  C   UNL A   1      34.933  22.957  23.986  1.00  0.00    -0.029 A 
ATOM     21  C   UNL A   1      32.625  22.875  24.508  1.00  0.00    -0.029 A 
ATOM     22  C   UNL A   1      36.195  23.081  23.419  1.00  0.00     0.005 A 
ATOM     23  C   UNL A   1      34.776  23.076  25.383  1.00  0.00    -0.014 A 
ATOM     24  C   UNL A   1      33.366  23.053  25.700  1.00  0.00    -0.014 A 
ATOM     25  C   UNL A   1      31.238  22.895  24.528  1.00  0.00     0.005 A 
ATOM     26  C   UNL A   1      37.302  23.250  24.250  1.00  0.00     0.000 A 
ATOM     27  C   UNL A   1      35.875  23.237  26.214  1.00  0.00     0.009 A 
ATOM     28  C   UNL A   1      32.729  23.241  26.915  1.00  0.00     0.009 A 
ATOM     29  C   UNL A   1      30.596  23.104  25.752  1.00  0.00     0.000 A 
ATOM     30  C   UNL A   1      37.145  23.307  25.639  1.00  0.00     0.001 A 
ATOM     31  C   UNL A   1      31.333  23.267  26.936  1.00  0.00     0.001 A 
ENDBRANCH  18  19
ENDBRANCH  17  18
ENDBRANCH  15  17
ENDBRANCH   9  15
ENDBRANCH   3   6
ENDBRANCH   1   2
BRANCH   1  32
ATOM     32  C   UNL A   1      31.368  32.004  26.490  1.00  0.00     0.042 C 
BRANCH  32  33
ATOM     33  C   UNL A   1      32.620  32.460  27.233  1.00  0.00     0.118 C 
BRANCH  33  34
ATOM     34  N   UNL A   1      32.556  33.873  27.594  1.00  0.00    -0.352 N 
ATOM     35  C   UNL A   1      33.198  34.591  28.573  1.00  0.00     0.251 C 
ATOM     36  H   UNL A   1      31.944  34.406  27.038  1.00  0.00     0.163 HD
ATOM     37  O   UNL A   1      32.779  35.714  28.847  1.00  0.00    -0.269 OA
BRANCH  35  38
ATOM     38  C   UNL A   1      34.367  34.040  29.297  1.00  0.00     0.039 A 
ATOM     39  C   UNL A   1      34.153  33.138  30.345  1.00  0.00     0.014 A 
ATOM     40  C   UNL A   1      35.668  34.451  28.999  1.00  0.00     0.014 A 
ATOM     41  C   UNL A   1      35.240  32.606  31.046  1.00  0.00     0.010 A 
ATOM     42  C   UNL A   1      36.753  33.854  29.634  1.00  0.00     0.010 A 
ATOM     43  C   UNL A   1      36.553  32.932  30.673  1.00  0.00    -0.014 A 
BRANCH  43  44
ATOM     44  C   UNL A   1      37.732  32.346  31.363  1.00  0.00     0.031 A 
ATOM     45  C   UNL A   1      38.499  31.221  30.717  1.00  0.00     0.074 A 
ATOM     46  C   UNL A   1      38.059  32.767  32.601  1.00  0.00     0.049 A 
ATOM     47  N   UNL A   1      39.464  30.484  31.205  1.00  0.00    -0.248 NA
ATOM     48  C   UNL A   1      38.092  30.845  29.354  1.00  0.00     0.031 C 
ATOM     49  C   UNL A   1      37.360  33.814  33.351  1.00  0.00     0.029 A 
ATOM     50  N   UNL A   1      39.053  32.357  33.454  1.00  0.00    -0.354 N 
ATOM     51  C   UNL A   1      39.757  29.541  30.224  1.00  0.00     0.074 A 
ATOM     52  C   UNL A   1      38.826  29.765  29.139  1.00  0.00     0.031 C 
ATOM     53  C   UNL A   1      37.962  33.981  34.540  1.00  0.00     0.029 A 
ATOM     54  C   UNL A   1      39.057  33.024  34.658  1.00  0.00     0.049 A 
ATOM     55  H   UNL A   1      39.701  31.653  33.226  1.00  0.00     0.167 HD
ATOM     56  C   UNL A   1      40.726  28.590  30.222  1.00  0.00     0.034 A 
ATOM     57  C   UNL A   1      39.845  32.869  35.740  1.00  0.00     0.034 A 
ATOM     58  C   UNL A   1      41.666  28.405  31.300  1.00  0.00     0.049 A 
ATOM     59  C   UNL A   1      40.926  31.820  35.707  1.00  0.00     0.074 A 
ATOM     60  C   UNL A   1      42.726  27.519  31.380  1.00  0.00     0.029 A 
ATOM     61  N   UNL A   1      41.660  29.123  32.490  1.00  0.00    -0.354 N 
ATOM     62  N   UNL A   1      41.215  30.960  34.756  1.00  0.00    -0.248 NA
ATOM     63  C   UNL A   1      41.792  31.725  36.889  1.00  0.00     0.031 C 
ATOM     64  C   UNL A   1      43.325  27.662  32.637  1.00  0.00     0.029 A 
ATOM     65  C   UNL A   1      42.683  28.685  33.317  1.00  0.00     0.049 A 
ATOM     66  H   UNL A   1      41.022  29.838  32.715  1.00  0.00     0.167 HD
ATOM     67  C   UNL A   1      42.313  30.240  35.218  1.00  0.00     0.074 A 
ATOM     68  C   UNL A   1      42.643  30.778  36.521  1.00  0.00     0.031 C 
ATOM     69  C   UNL A   1      42.990  29.227  34.619  1.00  0.00     0.034 A 
BRANCH  56  70
ATOM     70  C   UNL A   1      40.794  27.668  29.025  1.00  0.00     0.023 A 
ATOM     71  C   UNL A   1      41.743  27.851  28.004  1.00  0.00     0.031 A 
ATOM     72  C   UNL A   1      39.877  26.610  28.887  1.00  0.00     0.131 A 
ATOM     73  C   UNL A   1      41.701  27.046  26.854  1.00  0.00     0.055 A 
ATOM     74  C   UNL A   1      39.896  25.758  27.780  1.00  0.00     0.041 A 
ATOM     75  F   UNL A   1      38.936  26.395  29.819  1.00  0.00    -0.206 F 
ATOM     76  C   UNL A   1      40.801  25.985  26.747  1.00  0.00     0.022 A 
BRANCH  73  77
ATOM     77  S   UNL A   1      42.741  27.503  25.440  1.00  0.00     0.124 S 
ATOM     78  O   UNL A   1      43.997  27.854  26.101  1.00  0.00    -0.237 OA
ATOM     79  O   UNL A   1      42.755  26.279  24.649  1.00  0.00    -0.237 OA
ATOM     80  O   UNL A   1      42.027  28.627  24.839  1.00  0.00    -0.744 OA
ENDBRANCH  73  77
ENDBRANCH  56  70
BRANCH  57  81
ATOM     81  C   UNL A   1      39.645  33.718  36.948  1.00  0.00     0.023 A 
ATOM     82  C   UNL A   1      38.984  33.217  38.081  1.00  0.00     0.031 A 
ATOM     83  C   UNL A   1      40.081  35.053  36.975  1.00  0.00     0.131 A 
ATOM     84  C   UNL A   1      38.737  34.059  39.175  1.00  0.00     0.055 A 
ATOM     85  C   UNL A   1      39.880  35.873  38.088  1.00  0.00     0.041 A 
ATOM     86  F   UNL A   1      40.715  35.582  35.917  1.00  0.00    -0.206 F 
ATOM     87  C   UNL A   1      39.194  35.379  39.193  1.00  0.00     0.022 A 
BRANCH  84  88
ATOM     88  S   UNL A   1      37.732  33.427  40.547  1.00  0.00     0.124 S 
ATOM     89  O   UNL A   1      36.547  32.943  39.849  1.00  0.00    -0.237 OA
ATOM     90  O   UNL A   1      38.605  32.407  41.116  1.00  0.00    -0.237 OA
ATOM     91  O   UNL A   1      37.525  34.606  41.387  1.00  0.00    -0.744 OA
ENDBRANCH  84  88
ENDBRANCH  57  81
BRANCH  69  92
ATOM     92  C   UNL A   1      44.180  28.672  35.359  1.00  0.00     0.023 A 
ATOM     93  C   UNL A   1      45.479  29.168  35.146  1.00  0.00     0.031 A 
ATOM     94  C   UNL A   1      44.013  27.621  36.279  1.00  0.00     0.131 A 
ATOM     95  C   UNL A   1      46.567  28.576  35.805  1.00  0.00     0.055 A 
ATOM     96  C   UNL A   1      45.093  27.076  36.973  1.00  0.00     0.041 A 
ATOM     97  F   UNL A   1      42.795  27.111  36.517  1.00  0.00    -0.206 F 
ATOM     98  C   UNL A   1      46.381  27.544  36.728  1.00  0.00     0.022 A 
BRANCH  95  99
ATOM     99  S   UNL A   1      48.243  29.115  35.372  1.00  0.00     0.124 S 
ATOM    100  O   UNL A   1      49.047  27.969  35.783  1.00  0.00    -0.237 OA
ATOM    101  O   UNL A   1      48.139  29.338  33.933  1.00  0.00    -0.237 OA
ATOM    102  O   UNL A   1      48.433  30.324  36.173  1.00  0.00    -0.744 OA
ENDBRANCH  95  99
ENDBRANCH  69  92
ENDBRANCH  43  44
ENDBRANCH  35  38
ENDBRANCH  33  34
ENDBRANCH  32  33
ENDBRANCH   1  32
TORSDOF 18
ENDMDL
