MODEL 1
REMARK VINA RESULT:     -13.4      0.000      0.000
REMARK SMILES Cn1cc(S(=O)(=O)N2CCCc3cc(C(=O)NCCCNC(=O)c4ccc(-c5c6nc(c(-c7cc(S(=O)(=O)[O-])ccc7F)c7ccc([nH]7)c(-c7cc(S(=O)(=O)[O-])ccc7F)c7nc(c(-c8cc(S(=O)(=O)[O-])ccc8F)c8ccc5[nH]8)C=C7)C=C6)cc4)ccc32)cc1C(N)=O
REMARK SMILES IDX 19 1 18 2 17 3 15 4 16 5 14 7 8 8 9 9 89 10 10 11 12 12
REMARK SMILES IDX 88 13 11 14 13 15 87 16 5 17 6 18 7 19 4 20 1 21 2 22 3 23
REMARK SMILES IDX 91 24 90 25 92 26 93 27 94 28 20 31 21 32 22 33 23 35 24 36
REMARK SMILES IDX 25 37 86 38 26 39 85 40 27 41 28 42 29 43 79 44 30 45 84 46
REMARK SMILES IDX 78 47 80 48 31 49 83 50 77 51 76 52 32 54 64 55 44 56 63 57
REMARK SMILES IDX 45 58 48 59 62 60 81 61 46 62 47 63 61 65 82 66 49 67 33 68
REMARK SMILES IDX 34 69 42 70 35 71 41 72 43 73 40 74 36 75 37 76 38 77 39 78
REMARK SMILES IDX 65 79 66 80 74 81 67 82 73 83 75 84 72 85 68 86 69 87 70 88
REMARK SMILES IDX 71 89 50 90 51 91 59 92 52 93 58 94 60 95 57 96 53 97 54 98
REMARK SMILES IDX 55 99 56 100
REMARK H PARENT 17 6 93 29 93 30 21 34 80 53 48 64
REMARK Flexibility Score: inf
ROOT
ATOM      1  C   UNL A   1      31.668  31.717  26.574  1.00  0.00     0.042 C 
ENDROOT
BRANCH   1   2
ATOM      2  C   UNL A   1      32.046  30.369  25.961  1.00  0.00     0.118 C 
BRANCH   2   3
ATOM      3  N   UNL A   1      31.204  30.049  24.821  1.00  0.00    -0.352 N 
ATOM      4  C   UNL A   1      31.060  28.919  24.060  1.00  0.00     0.251 C 
ATOM      5  O   UNL A   1      30.187  28.929  23.190  1.00  0.00    -0.269 OA
ATOM      6  H   UNL A   1      30.622  30.792  24.539  1.00  0.00     0.163 HD
BRANCH   4   7
ATOM      7  C   UNL A   1      31.859  27.677  24.257  1.00  0.00     0.040 A 
ATOM      8  N   UNL A   1      34.034  24.019  24.517  1.00  0.00    -0.266 N 
ATOM      9  C   UNL A   1      34.509  23.418  23.258  1.00  0.00     0.136 C 
ATOM     10  C   UNL A   1      33.313  25.257  24.443  1.00  0.00     0.055 A 
ATOM     11  C   UNL A   1      33.355  23.361  22.273  1.00  0.00     0.028 C 
ATOM     12  C   UNL A   1      32.676  25.601  23.240  1.00  0.00    -0.023 A 
ATOM     13  C   UNL A   1      33.291  26.163  25.505  1.00  0.00     0.028 A 
ATOM     14  C   UNL A   1      32.838  24.768  21.993  1.00  0.00     0.039 C 
ATOM     15  C   UNL A   1      31.945  26.799  23.164  1.00  0.00     0.019 A 
ATOM     16  C   UNL A   1      32.583  27.369  25.408  1.00  0.00     0.016 A 
BRANCH   8  17
ATOM     17  S   UNL A   1      33.950  23.025  25.891  1.00  0.00     0.265 S 
ATOM     18  O   UNL A   1      32.642  23.177  26.499  1.00  0.00    -0.201 OA
ATOM     19  O   UNL A   1      35.161  23.084  26.676  1.00  0.00    -0.201 OA
BRANCH  17  20
ATOM     20  C   UNL A   1      33.925  21.390  25.313  1.00  0.00     0.106 A 
ATOM     21  C   UNL A   1      35.455  18.240  24.444  1.00  0.00     0.150 C 
ATOM     22  N   UNL A   1      34.549  19.334  24.726  1.00  0.00    -0.345 N 
ATOM     23  C   UNL A   1      35.008  20.550  25.182  1.00  0.00     0.108 A 
ATOM     24  C   UNL A   1      33.169  19.365  24.580  1.00  0.00     0.107 A 
ATOM     25  C   UNL A   1      32.783  20.663  24.907  1.00  0.00     0.056 A 
BRANCH  24  26
ATOM     26  C   UNL A   1      32.327  18.248  24.188  1.00  0.00     0.265 C 
ATOM     27  N   UNL A   1      32.043  18.152  22.856  1.00  0.00    -0.364 N 
ATOM     28  O   UNL A   1      31.849  17.417  24.952  1.00  0.00    -0.268 OA
ATOM     29  H   UNL A   1      32.416  18.809  22.225  1.00  0.00     0.160 HD
ATOM     30  H   UNL A   1      31.464  17.428  22.527  1.00  0.00     0.160 HD
ENDBRANCH  24  26
ENDBRANCH  17  20
ENDBRANCH   8  17
ENDBRANCH   4   7
ENDBRANCH   2   3
ENDBRANCH   1   2
BRANCH   1  31
ATOM     31  C   UNL A   1      32.806  32.374  27.358  1.00  0.00     0.118 C 
BRANCH  31  32
ATOM     32  N   UNL A   1      32.533  33.774  27.650  1.00  0.00    -0.352 N 
ATOM     33  C   UNL A   1      33.088  34.605  28.593  1.00  0.00     0.251 C 
ATOM     34  H   UNL A   1      31.843  34.191  27.083  1.00  0.00     0.163 HD
ATOM     35  O   UNL A   1      32.556  35.687  28.828  1.00  0.00    -0.269 OA
BRANCH  33  36
ATOM     36  C   UNL A   1      34.303  34.199  29.336  1.00  0.00     0.039 A 
ATOM     37  C   UNL A   1      34.157  33.563  30.573  1.00  0.00     0.014 A 
ATOM     38  C   UNL A   1      35.580  34.468  28.835  1.00  0.00     0.014 A 
ATOM     39  C   UNL A   1      35.289  33.124  31.267  1.00  0.00     0.010 A 
ATOM     40  C   UNL A   1      36.704  33.981  29.501  1.00  0.00     0.010 A 
ATOM     41  C   UNL A   1      36.569  33.289  30.714  1.00  0.00    -0.014 A 
BRANCH  41  42
ATOM     42  C   UNL A   1      37.772  32.702  31.360  1.00  0.00     0.031 A 
ATOM     43  C   UNL A   1      38.476  31.529  30.739  1.00  0.00     0.074 A 
ATOM     44  C   UNL A   1      38.171  33.176  32.557  1.00  0.00     0.049 A 
ATOM     45  N   UNL A   1      39.460  30.809  31.214  1.00  0.00    -0.248 NA
ATOM     46  C   UNL A   1      37.993  31.095  29.421  1.00  0.00     0.031 C 
ATOM     47  C   UNL A   1      37.547  34.292  33.273  1.00  0.00     0.029 A 
ATOM     48  N   UNL A   1      39.179  32.770  33.395  1.00  0.00    -0.354 N 
ATOM     49  C   UNL A   1      39.711  29.829  30.259  1.00  0.00     0.074 A 
ATOM     50  C   UNL A   1      38.741  30.023  29.201  1.00  0.00     0.031 C 
ATOM     51  C   UNL A   1      38.189  34.483  34.436  1.00  0.00     0.029 A 
ATOM     52  C   UNL A   1      39.234  33.475  34.575  1.00  0.00     0.049 A 
ATOM     53  H   UNL A   1      39.804  32.042  33.173  1.00  0.00     0.167 HD
ATOM     54  C   UNL A   1      40.669  28.869  30.262  1.00  0.00     0.034 A 
ATOM     55  C   UNL A   1      40.018  33.312  35.659  1.00  0.00     0.034 A 
ATOM     56  C   UNL A   1      41.631  28.694  31.325  1.00  0.00     0.049 A 
ATOM     57  C   UNL A   1      41.039  32.206  35.660  1.00  0.00     0.074 A 
ATOM     58  C   UNL A   1      42.688  27.804  31.394  1.00  0.00     0.029 A 
ATOM     59  N   UNL A   1      41.642  29.413  32.513  1.00  0.00    -0.354 N 
ATOM     60  N   UNL A   1      41.297  31.320  34.727  1.00  0.00    -0.248 NA
ATOM     61  C   UNL A   1      41.875  32.078  36.862  1.00  0.00     0.031 C 
ATOM     62  C   UNL A   1      43.295  27.937  32.648  1.00  0.00     0.029 A 
ATOM     63  C   UNL A   1      42.660  28.956  33.339  1.00  0.00     0.049 A 
ATOM     64  H   UNL A   1      41.020  30.142  32.738  1.00  0.00     0.167 HD
ATOM     65  C   UNL A   1      42.334  30.537  35.224  1.00  0.00     0.074 A 
ATOM     66  C   UNL A   1      42.668  31.070  36.530  1.00  0.00     0.031 C 
ATOM     67  C   UNL A   1      42.958  29.476  34.652  1.00  0.00     0.034 A 
BRANCH  54  68
ATOM     68  C   UNL A   1      40.702  27.916  29.091  1.00  0.00     0.023 A 
ATOM     69  C   UNL A   1      41.647  28.046  28.058  1.00  0.00     0.031 A 
ATOM     70  C   UNL A   1      39.763  26.873  28.996  1.00  0.00     0.131 A 
ATOM     71  C   UNL A   1      41.588  27.195  26.944  1.00  0.00     0.055 A 
ATOM     72  C   UNL A   1      39.757  25.983  27.921  1.00  0.00     0.041 A 
ATOM     73  F   UNL A   1      38.825  26.710  29.942  1.00  0.00    -0.206 F 
ATOM     74  C   UNL A   1      40.665  26.150  26.878  1.00  0.00     0.022 A 
BRANCH  71  75
ATOM     75  S   UNL A   1      42.651  27.559  25.520  1.00  0.00     0.124 S 
ATOM     76  O   UNL A   1      41.929  28.658  24.885  1.00  0.00    -0.237 OA
ATOM     77  O   UNL A   1      43.917  27.909  26.153  1.00  0.00    -0.237 OA
ATOM     78  O   UNL A   1      42.655  26.308  24.765  1.00  0.00    -0.744 OA
ENDBRANCH  71  75
ENDBRANCH  54  68
BRANCH  55  79
ATOM     79  C   UNL A   1      39.847  34.192  36.850  1.00  0.00     0.023 A 
ATOM     80  C   UNL A   1      39.286  33.698  38.038  1.00  0.00     0.031 A 
ATOM     81  C   UNL A   1      40.212  35.549  36.805  1.00  0.00     0.131 A 
ATOM     82  C   UNL A   1      39.072  34.564  39.121  1.00  0.00     0.055 A 
ATOM     83  C   UNL A   1      40.041  36.396  37.901  1.00  0.00     0.041 A 
ATOM     84  F   UNL A   1      40.758  36.070  35.693  1.00  0.00    -0.206 F 
ATOM     85  C   UNL A   1      39.456  35.906  39.065  1.00  0.00     0.022 A 
BRANCH  82  86
ATOM     86  S   UNL A   1      38.213  33.925  40.585  1.00  0.00     0.124 S 
ATOM     87  O   UNL A   1      37.024  33.322  39.993  1.00  0.00    -0.237 OA
ATOM     88  O   UNL A   1      39.198  32.999  41.132  1.00  0.00    -0.237 OA
ATOM     89  O   UNL A   1      37.973  35.123  41.387  1.00  0.00    -0.744 OA
ENDBRANCH  82  86
ENDBRANCH  55  79
BRANCH  67  90
ATOM     90  C   UNL A   1      44.073  28.838  35.442  1.00  0.00     0.023 A 
ATOM     91  C   UNL A   1      43.836  27.748  36.297  1.00  0.00     0.031 A 
ATOM     92  C   UNL A   1      45.384  29.340  35.355  1.00  0.00     0.131 A 
ATOM     93  C   UNL A   1      44.884  27.224  37.069  1.00  0.00     0.055 A 
ATOM     94  C   UNL A   1      46.433  28.780  36.084  1.00  0.00     0.041 A 
ATOM     95  F   UNL A   1      45.664  30.382  34.556  1.00  0.00    -0.206 F 
ATOM     96  C   UNL A   1      46.184  27.723  36.956  1.00  0.00     0.022 A 
BRANCH  93  97
ATOM     97  S   UNL A   1      44.509  25.931  38.284  1.00  0.00     0.124 S 
ATOM     98  O   UNL A   1      45.817  25.318  38.487  1.00  0.00    -0.237 OA
ATOM     99  O   UNL A   1      43.983  26.699  39.408  1.00  0.00    -0.237 OA
ATOM    100  O   UNL A   1      43.530  25.090  37.597  1.00  0.00    -0.744 OA
ENDBRANCH  93  97
ENDBRANCH  67  90
ENDBRANCH  41  42
ENDBRANCH  33  36
ENDBRANCH  31  32
ENDBRANCH   1  31
TORSDOF 16
ENDMDL
MODEL 2
REMARK VINA RESULT:     -13.2      5.652     11.906
REMARK SMILES Cn1cc(S(=O)(=O)N2CCCc3cc(C(=O)NCCCNC(=O)c4ccc(-c5c6nc(c(-c7cc(S(=O)(=O)[O-])ccc7F)c7ccc([nH]7)c(-c7cc(S(=O)(=O)[O-])ccc7F)c7nc(c(-c8cc(S(=O)(=O)[O-])ccc8F)c8ccc5[nH]8)C=C7)C=C6)cc4)ccc32)cc1C(N)=O
REMARK SMILES IDX 19 1 18 2 17 3 15 4 16 5 14 7 8 8 9 9 89 10 10 11 12 12
REMARK SMILES IDX 88 13 11 14 13 15 87 16 5 17 6 18 7 19 4 20 1 21 2 22 3 23
REMARK SMILES IDX 91 24 90 25 92 26 93 27 94 28 20 31 21 32 22 33 23 35 24 36
REMARK SMILES IDX 25 37 86 38 26 39 85 40 27 41 28 42 29 43 79 44 30 45 84 46
REMARK SMILES IDX 78 47 80 48 31 49 83 50 77 51 76 52 32 54 64 55 44 56 63 57
REMARK SMILES IDX 45 58 48 59 62 60 81 61 46 62 47 63 61 65 82 66 49 67 33 68
REMARK SMILES IDX 34 69 42 70 35 71 41 72 43 73 40 74 36 75 37 76 38 77 39 78
REMARK SMILES IDX 65 79 66 80 74 81 67 82 73 83 75 84 72 85 68 86 69 87 70 88
REMARK SMILES IDX 71 89 50 90 51 91 59 92 52 93 58 94 60 95 57 96 53 97 54 98
REMARK SMILES IDX 55 99 56 100
REMARK H PARENT 17 6 93 29 93 30 21 34 80 53 48 64
REMARK Flexibility Score: inf
ROOT
ATOM      1  C   UNL A   1      37.962  20.146  25.119  1.00  0.00     0.042 C 
ENDROOT
BRANCH   1   2
ATOM      2  C   UNL A   1      36.705  20.908  25.537  1.00  0.00     0.118 C 
BRANCH   2   3
ATOM      3  N   UNL A   1      35.500  20.220  25.106  1.00  0.00    -0.352 N 
ATOM      4  C   UNL A   1      34.298  20.665  24.620  1.00  0.00     0.251 C 
ATOM      5  O   UNL A   1      33.483  19.815  24.260  1.00  0.00    -0.269 OA
ATOM      6  H   UNL A   1      35.558  19.240  25.178  1.00  0.00     0.163 HD
BRANCH   4   7
ATOM      7  C   UNL A   1      33.949  22.105  24.461  1.00  0.00     0.040 A 
ATOM      8  N   UNL A   1      32.701  26.176  24.235  1.00  0.00    -0.266 N 
ATOM      9  C   UNL A   1      32.108  26.775  25.444  1.00  0.00     0.136 C 
ATOM     10  C   UNL A   1      33.137  24.811  24.303  1.00  0.00     0.055 A 
ATOM     11  C   UNL A   1      31.032  25.845  25.977  1.00  0.00     0.028 C 
ATOM     12  C   UNL A   1      32.582  23.969  25.280  1.00  0.00    -0.023 A 
ATOM     13  C   UNL A   1      34.151  24.318  23.480  1.00  0.00     0.028 A 
ATOM     14  C   UNL A   1      31.639  24.494  26.334  1.00  0.00     0.039 C 
ATOM     15  C   UNL A   1      32.983  22.622  25.340  1.00  0.00     0.019 A 
ATOM     16  C   UNL A   1      34.564  22.981  23.568  1.00  0.00     0.016 A 
BRANCH   8  17
ATOM     17  S   UNL A   1      32.417  26.942  22.748  1.00  0.00     0.265 S 
ATOM     18  O   UNL A   1      31.788  25.995  21.846  1.00  0.00    -0.201 OA
ATOM     19  O   UNL A   1      33.540  27.750  22.332  1.00  0.00    -0.201 OA
BRANCH  17  20
ATOM     20  C   UNL A   1      31.164  28.108  23.026  1.00  0.00     0.106 A 
ATOM     21  C   UNL A   1      29.844  31.180  24.382  1.00  0.00     0.150 C 
ATOM     22  N   UNL A   1      30.064  29.928  23.688  1.00  0.00    -0.345 N 
ATOM     23  C   UNL A   1      31.278  29.279  23.740  1.00  0.00     0.108 A 
ATOM     24  C   UNL A   1      29.163  29.201  22.924  1.00  0.00     0.107 A 
ATOM     25  C   UNL A   1      29.837  28.042  22.544  1.00  0.00     0.056 A 
BRANCH  24  26
ATOM     26  C   UNL A   1      27.809  29.605  22.587  1.00  0.00     0.265 C 
ATOM     27  N   UNL A   1      27.626  30.085  21.322  1.00  0.00    -0.364 N 
ATOM     28  O   UNL A   1      26.845  29.564  23.344  1.00  0.00    -0.268 OA
ATOM     29  H   UNL A   1      28.386  30.127  20.697  1.00  0.00     0.160 HD
ATOM     30  H   UNL A   1      26.736  30.392  21.035  1.00  0.00     0.160 HD
ENDBRANCH  24  26
ENDBRANCH  17  20
ENDBRANCH   8  17
ENDBRANCH   4   7
ENDBRANCH   2   3
ENDBRANCH   1   2
BRANCH   1  31
ATOM     31  C   UNL A   1      39.214  20.557  25.897  1.00  0.00     0.118 C 
BRANCH  31  32
ATOM     32  N   UNL A   1      40.191  19.479  25.973  1.00  0.00    -0.352 N 
ATOM     33  C   UNL A   1      41.559  19.533  26.092  1.00  0.00     0.251 C 
ATOM     34  H   UNL A   1      39.812  18.571  25.932  1.00  0.00     0.163 HD
ATOM     35  O   UNL A   1      42.217  18.512  25.907  1.00  0.00    -0.269 OA
BRANCH  33  36
ATOM     36  C   UNL A   1      42.239  20.806  26.419  1.00  0.00     0.039 A 
ATOM     37  C   UNL A   1      42.593  21.670  25.378  1.00  0.00     0.014 A 
ATOM     38  C   UNL A   1      42.555  21.137  27.740  1.00  0.00     0.014 A 
ATOM     39  C   UNL A   1      43.188  22.901  25.668  1.00  0.00     0.010 A 
ATOM     40  C   UNL A   1      43.099  22.388  28.031  1.00  0.00     0.010 A 
ATOM     41  C   UNL A   1      43.405  23.289  26.999  1.00  0.00    -0.014 A 
BRANCH  41  42
ATOM     42  C   UNL A   1      43.899  24.650  27.339  1.00  0.00     0.031 A 
ATOM     43  C   UNL A   1      42.954  25.700  27.850  1.00  0.00     0.074 A 
ATOM     44  C   UNL A   1      45.188  24.958  27.096  1.00  0.00     0.049 A 
ATOM     45  N   UNL A   1      43.174  26.969  28.081  1.00  0.00    -0.248 NA
ATOM     46  C   UNL A   1      41.573  25.270  28.112  1.00  0.00     0.031 C 
ATOM     47  C   UNL A   1      46.193  24.031  26.572  1.00  0.00     0.029 A 
ATOM     48  N   UNL A   1      45.872  26.140  27.236  1.00  0.00    -0.354 N 
ATOM     49  C   UNL A   1      41.959  27.495  28.508  1.00  0.00     0.074 A 
ATOM     50  C   UNL A   1      40.997  26.413  28.456  1.00  0.00     0.031 C 
ATOM     51  C   UNL A   1      47.362  24.676  26.440  1.00  0.00     0.029 A 
ATOM     52  C   UNL A   1      47.182  26.072  26.820  1.00  0.00     0.049 A 
ATOM     53  H   UNL A   1      45.463  26.959  27.599  1.00  0.00     0.167 HD
ATOM     54  C   UNL A   1      41.680  28.758  28.916  1.00  0.00     0.034 A 
ATOM     55  C   UNL A   1      48.123  27.032  26.727  1.00  0.00     0.034 A 
ATOM     56  C   UNL A   1      42.654  29.823  28.965  1.00  0.00     0.049 A 
ATOM     57  C   UNL A   1      47.774  28.438  27.136  1.00  0.00     0.074 A 
ATOM     58  C   UNL A   1      42.496  31.116  29.432  1.00  0.00     0.029 A 
ATOM     59  N   UNL A   1      43.964  29.723  28.516  1.00  0.00    -0.354 N 
ATOM     60  N   UNL A   1      46.634  28.907  27.586  1.00  0.00    -0.248 NA
ATOM     61  C   UNL A   1      48.840  29.444  27.025  1.00  0.00     0.031 C 
ATOM     62  C   UNL A   1      43.687  31.816  29.202  1.00  0.00     0.029 A 
ATOM     63  C   UNL A   1      44.612  30.942  28.653  1.00  0.00     0.049 A 
ATOM     64  H   UNL A   1      44.375  28.905  28.153  1.00  0.00     0.167 HD
ATOM     65  C   UNL A   1      46.850  30.261  27.824  1.00  0.00     0.074 A 
ATOM     66  C   UNL A   1      48.234  30.527  27.489  1.00  0.00     0.031 C 
ATOM     67  C   UNL A   1      45.983  31.200  28.283  1.00  0.00     0.034 A 
BRANCH  54  68
ATOM     68  C   UNL A   1      40.254  29.061  29.314  1.00  0.00     0.023 A 
ATOM     69  C   UNL A   1      39.848  29.065  30.659  1.00  0.00     0.031 A 
ATOM     70  C   UNL A   1      39.284  29.331  28.332  1.00  0.00     0.131 A 
ATOM     71  C   UNL A   1      38.496  29.264  30.982  1.00  0.00     0.055 A 
ATOM     72  C   UNL A   1      37.956  29.602  28.664  1.00  0.00     0.041 A 
ATOM     73  F   UNL A   1      39.609  29.323  27.030  1.00  0.00    -0.206 F 
ATOM     74  C   UNL A   1      37.552  29.555  29.995  1.00  0.00     0.022 A 
BRANCH  71  75
ATOM     75  S   UNL A   1      37.968  29.004  32.697  1.00  0.00     0.124 S 
ATOM     76  O   UNL A   1      38.072  27.552  32.822  1.00  0.00    -0.237 OA
ATOM     77  O   UNL A   1      38.946  29.781  33.449  1.00  0.00    -0.237 OA
ATOM     78  O   UNL A   1      36.604  29.527  32.719  1.00  0.00    -0.744 OA
ENDBRANCH  71  75
ENDBRANCH  54  68
BRANCH  55  79
ATOM     79  C   UNL A   1      49.476  26.708  26.191  1.00  0.00     0.023 A 
ATOM     80  C   UNL A   1      49.896  27.202  24.946  1.00  0.00     0.031 A 
ATOM     81  C   UNL A   1      50.356  25.873  26.902  1.00  0.00     0.131 A 
ATOM     82  C   UNL A   1      51.146  26.826  24.433  1.00  0.00     0.055 A 
ATOM     83  C   UNL A   1      51.618  25.540  26.409  1.00  0.00     0.041 A 
ATOM     84  F   UNL A   1      50.003  25.379  28.101  1.00  0.00    -0.206 F 
ATOM     85  C   UNL A   1      52.015  26.009  25.161  1.00  0.00     0.022 A 
BRANCH  82  86
ATOM     86  S   UNL A   1      51.595  27.365  22.760  1.00  0.00     0.124 S 
ATOM     87  O   UNL A   1      51.273  28.786  22.809  1.00  0.00    -0.237 OA
ATOM     88  O   UNL A   1      53.013  27.028  22.704  1.00  0.00    -0.237 OA
ATOM     89  O   UNL A   1      50.731  26.557  21.900  1.00  0.00    -0.744 OA
ENDBRANCH  82  86
ENDBRANCH  55  79
BRANCH  67  90
ATOM     90  C   UNL A   1      46.525  32.596  28.456  1.00  0.00     0.023 A 
ATOM     91  C   UNL A   1      46.678  33.464  27.361  1.00  0.00     0.031 A 
ATOM     92  C   UNL A   1      46.912  33.056  29.727  1.00  0.00     0.131 A 
ATOM     93  C   UNL A   1      47.251  34.731  27.549  1.00  0.00     0.055 A 
ATOM     94  C   UNL A   1      47.430  34.338  29.916  1.00  0.00     0.041 A 
ATOM     95  F   UNL A   1      46.790  32.266  30.806  1.00  0.00    -0.206 F 
ATOM     96  C   UNL A   1      47.613  35.180  28.822  1.00  0.00     0.022 A 
BRANCH  93  97
ATOM     97  S   UNL A   1      47.589  35.759  26.094  1.00  0.00     0.124 S 
ATOM     98  O   UNL A   1      47.475  34.793  25.006  1.00  0.00    -0.237 OA
ATOM     99  O   UNL A   1      46.533  36.764  26.167  1.00  0.00    -0.237 OA
ATOM    100  O   UNL A   1      48.940  36.263  26.336  1.00  0.00    -0.744 OA
ENDBRANCH  93  97
ENDBRANCH  67  90
ENDBRANCH  41  42
ENDBRANCH  33  36
ENDBRANCH  31  32
ENDBRANCH   1  31
TORSDOF 16
ENDMDL
MODEL 3
REMARK VINA RESULT:     -13.2      5.595     10.942
REMARK SMILES Cn1cc(S(=O)(=O)N2CCCc3cc(C(=O)NCCCNC(=O)c4ccc(-c5c6nc(c(-c7cc(S(=O)(=O)[O-])ccc7F)c7ccc([nH]7)c(-c7cc(S(=O)(=O)[O-])ccc7F)c7nc(c(-c8cc(S(=O)(=O)[O-])ccc8F)c8ccc5[nH]8)C=C7)C=C6)cc4)ccc32)cc1C(N)=O
REMARK SMILES IDX 19 1 18 2 17 3 15 4 16 5 14 7 8 8 9 9 89 10 10 11 12 12
REMARK SMILES IDX 88 13 11 14 13 15 87 16 5 17 6 18 7 19 4 20 1 21 2 22 3 23
REMARK SMILES IDX 91 24 90 25 92 26 93 27 94 28 20 31 21 32 22 33 23 35 24 36
REMARK SMILES IDX 25 37 86 38 26 39 85 40 27 41 28 42 29 43 79 44 30 45 84 46
REMARK SMILES IDX 78 47 80 48 31 49 83 50 77 51 76 52 32 54 64 55 44 56 63 57
REMARK SMILES IDX 45 58 48 59 62 60 81 61 46 62 47 63 61 65 82 66 49 67 33 68
REMARK SMILES IDX 34 69 42 70 35 71 41 72 43 73 40 74 36 75 37 76 38 77 39 78
REMARK SMILES IDX 65 79 66 80 74 81 67 82 73 83 75 84 72 85 68 86 69 87 70 88
REMARK SMILES IDX 71 89 50 90 51 91 59 92 52 93 58 94 60 95 57 96 53 97 54 98
REMARK SMILES IDX 55 99 56 100
REMARK H PARENT 17 6 93 29 93 30 21 34 80 53 48 64
REMARK Flexibility Score: inf
ROOT
ATOM      1  C   UNL A   1      35.913  21.087  25.640  1.00  0.00     0.042 C 
ENDROOT
BRANCH   1   2
ATOM      2  C   UNL A   1      35.328  19.857  24.947  1.00  0.00     0.118 C 
BRANCH   2   3
ATOM      3  N   UNL A   1      33.887  19.788  25.115  1.00  0.00    -0.352 N 
ATOM      4  C   UNL A   1      32.885  20.706  24.935  1.00  0.00     0.251 C 
ATOM      5  O   UNL A   1      31.726  20.317  25.086  1.00  0.00    -0.269 OA
ATOM      6  H   UNL A   1      33.566  18.908  25.419  1.00  0.00     0.163 HD
BRANCH   4   7
ATOM      7  C   UNL A   1      33.118  22.120  24.523  1.00  0.00     0.040 A 
ATOM      8  N   UNL A   1      33.640  26.258  23.641  1.00  0.00    -0.266 N 
ATOM      9  C   UNL A   1      33.836  27.177  24.776  1.00  0.00     0.136 C 
ATOM     10  C   UNL A   1      33.477  24.861  23.925  1.00  0.00     0.055 A 
ATOM     11  C   UNL A   1      32.759  26.916  25.813  1.00  0.00     0.028 C 
ATOM     12  C   UNL A   1      33.035  24.475  25.200  1.00  0.00    -0.023 A 
ATOM     13  C   UNL A   1      33.819  23.875  22.998  1.00  0.00     0.028 A 
ATOM     14  C   UNL A   1      32.851  25.478  26.311  1.00  0.00     0.039 C 
ATOM     15  C   UNL A   1      32.846  23.110  25.481  1.00  0.00     0.019 A 
ATOM     16  C   UNL A   1      33.655  22.516  23.300  1.00  0.00     0.016 A 
BRANCH   8  17
ATOM     17  S   UNL A   1      33.161  26.922  22.154  1.00  0.00     0.265 S 
ATOM     18  O   UNL A   1      32.800  25.843  21.254  1.00  0.00    -0.201 OA
ATOM     19  O   UNL A   1      34.031  27.996  21.736  1.00  0.00    -0.201 OA
BRANCH  17  20
ATOM     20  C   UNL A   1      31.646  27.719  22.437  1.00  0.00     0.106 A 
ATOM     21  C   UNL A   1      28.157  27.809  23.351  1.00  0.00     0.150 C 
ATOM     22  N   UNL A   1      29.523  28.115  22.977  1.00  0.00    -0.345 N 
ATOM     23  C   UNL A   1      30.471  27.126  22.836  1.00  0.00     0.108 A 
ATOM     24  C   UNL A   1      30.078  29.356  22.697  1.00  0.00     0.107 A 
ATOM     25  C   UNL A   1      31.395  29.104  22.318  1.00  0.00     0.056 A 
BRANCH  24  26
ATOM     26  C   UNL A   1      29.404  30.638  22.809  1.00  0.00     0.265 C 
ATOM     27  N   UNL A   1      29.395  31.409  21.682  1.00  0.00    -0.364 N 
ATOM     28  O   UNL A   1      28.873  31.075  23.823  1.00  0.00    -0.268 OA
ATOM     29  H   UNL A   1      29.816  31.078  20.856  1.00  0.00     0.160 HD
ATOM     30  H   UNL A   1      28.969  32.296  21.695  1.00  0.00     0.160 HD
ENDBRANCH  24  26
ENDBRANCH  17  20
ENDBRANCH   8  17
ENDBRANCH   4   7
ENDBRANCH   2   3
ENDBRANCH   1   2
BRANCH   1  31
ATOM     31  C   UNL A   1      37.333  21.429  25.186  1.00  0.00     0.118 C 
BRANCH  31  32
ATOM     32  N   UNL A   1      38.292  20.397  25.557  1.00  0.00    -0.352 N 
ATOM     33  C   UNL A   1      39.555  20.513  26.084  1.00  0.00     0.251 C 
ATOM     34  H   UNL A   1      37.986  19.473  25.406  1.00  0.00     0.163 HD
ATOM     35  O   UNL A   1      40.286  19.526  26.110  1.00  0.00    -0.269 OA
BRANCH  33  36
ATOM     36  C   UNL A   1      40.043  21.811  26.599  1.00  0.00     0.039 A 
ATOM     37  C   UNL A   1      40.995  21.817  27.624  1.00  0.00     0.014 A 
ATOM     38  C   UNL A   1      39.549  23.019  26.098  1.00  0.00     0.014 A 
ATOM     39  C   UNL A   1      41.510  23.031  28.089  1.00  0.00     0.010 A 
ATOM     40  C   UNL A   1      40.102  24.226  26.525  1.00  0.00     0.010 A 
ATOM     41  C   UNL A   1      41.100  24.244  27.511  1.00  0.00    -0.014 A 
BRANCH  41  42
ATOM     42  C   UNL A   1      41.738  25.534  27.885  1.00  0.00     0.031 A 
ATOM     43  C   UNL A   1      40.940  26.610  28.565  1.00  0.00     0.074 A 
ATOM     44  C   UNL A   1      43.016  25.761  27.524  1.00  0.00     0.049 A 
ATOM     45  N   UNL A   1      41.288  27.838  28.855  1.00  0.00    -0.248 NA
ATOM     46  C   UNL A   1      39.564  26.267  28.947  1.00  0.00     0.031 C 
ATOM     47  C   UNL A   1      43.881  24.803  26.832  1.00  0.00     0.029 A 
ATOM     48  N   UNL A   1      43.806  26.875  27.667  1.00  0.00    -0.354 N 
ATOM     49  C   UNL A   1      40.171  28.420  29.447  1.00  0.00     0.074 A 
ATOM     50  C   UNL A   1      39.123  27.421  29.428  1.00  0.00     0.031 C 
ATOM     51  C   UNL A   1      45.079  25.367  26.617  1.00  0.00     0.029 A 
ATOM     52  C   UNL A   1      45.055  26.740  27.107  1.00  0.00     0.049 A 
ATOM     53  H   UNL A   1      43.506  27.692  28.127  1.00  0.00     0.167 HD
ATOM     54  C   UNL A   1      40.041  29.666  29.966  1.00  0.00     0.034 A 
ATOM     55  C   UNL A   1      46.058  27.631  26.976  1.00  0.00     0.034 A 
ATOM     56  C   UNL A   1      41.100  30.648  29.980  1.00  0.00     0.049 A 
ATOM     57  C   UNL A   1      45.871  29.024  27.515  1.00  0.00     0.074 A 
ATOM     58  C   UNL A   1      41.099  31.911  30.547  1.00  0.00     0.029 A 
ATOM     59  N   UNL A   1      42.344  30.484  29.384  1.00  0.00    -0.354 N 
ATOM     60  N   UNL A   1      44.827  29.542  28.116  1.00  0.00    -0.248 NA
ATOM     61  C   UNL A   1      46.999  29.952  27.355  1.00  0.00     0.031 C 
ATOM     62  C   UNL A   1      42.313  32.534  30.235  1.00  0.00     0.029 A 
ATOM     63  C   UNL A   1      43.101  31.638  29.532  1.00  0.00     0.049 A 
ATOM     64  H   UNL A   1      42.646  29.668  28.925  1.00  0.00     0.167 HD
ATOM     65  C   UNL A   1      45.177  30.854  28.420  1.00  0.00     0.074 A 
ATOM     66  C   UNL A   1      46.536  31.040  27.954  1.00  0.00     0.031 C 
ATOM     67  C   UNL A   1      44.443  31.818  29.032  1.00  0.00     0.034 A 
BRANCH  54  68
ATOM     68  C   UNL A   1      38.695  30.045  30.537  1.00  0.00     0.023 A 
ATOM     69  C   UNL A   1      37.745  30.752  29.780  1.00  0.00     0.031 A 
ATOM     70  C   UNL A   1      38.364  29.709  31.862  1.00  0.00     0.131 A 
ATOM     71  C   UNL A   1      36.540  31.162  30.375  1.00  0.00     0.055 A 
ATOM     72  C   UNL A   1      37.134  30.054  32.424  1.00  0.00     0.041 A 
ATOM     73  F   UNL A   1      39.238  29.050  32.638  1.00  0.00    -0.206 F 
ATOM     74  C   UNL A   1      36.219  30.799  31.684  1.00  0.00     0.022 A 
BRANCH  71  75
ATOM     75  S   UNL A   1      35.461  32.292  29.453  1.00  0.00     0.124 S 
ATOM     76  O   UNL A   1      36.330  33.453  29.277  1.00  0.00    -0.237 OA
ATOM     77  O   UNL A   1      35.161  31.528  28.248  1.00  0.00    -0.237 OA
ATOM     78  O   UNL A   1      34.332  32.500  30.357  1.00  0.00    -0.744 OA
ENDBRANCH  71  75
ENDBRANCH  54  68
BRANCH  55  79
ATOM     79  C   UNL A   1      47.317  27.247  26.275  1.00  0.00     0.023 A 
ATOM     80  C   UNL A   1      48.301  26.486  26.925  1.00  0.00     0.031 A 
ATOM     81  C   UNL A   1      47.567  27.665  24.956  1.00  0.00     0.131 A 
ATOM     82  C   UNL A   1      49.506  26.198  26.267  1.00  0.00     0.055 A 
ATOM     83  C   UNL A   1      48.748  27.336  24.289  1.00  0.00     0.041 A 
ATOM     84  F   UNL A   1      46.654  28.391  24.289  1.00  0.00    -0.206 F 
ATOM     85  C   UNL A   1      49.731  26.606  24.950  1.00  0.00     0.022 A 
BRANCH  82  86
ATOM     86  S   UNL A   1      50.812  25.338  27.187  1.00  0.00     0.124 S 
ATOM     87  O   UNL A   1      51.324  26.403  28.042  1.00  0.00    -0.237 OA
ATOM     88  O   UNL A   1      50.063  24.280  27.856  1.00  0.00    -0.237 OA
ATOM     89  O   UNL A   1      51.724  24.886  26.138  1.00  0.00    -0.744 OA
ENDBRANCH  82  86
ENDBRANCH  55  79
BRANCH  67  90
ATOM     90  C   UNL A   1      45.115  33.153  29.238  1.00  0.00     0.023 A 
ATOM     91  C   UNL A   1      44.984  34.192  28.300  1.00  0.00     0.031 A 
ATOM     92  C   UNL A   1      45.910  33.381  30.375  1.00  0.00     0.131 A 
ATOM     93  C   UNL A   1      45.679  35.396  28.490  1.00  0.00     0.055 A 
ATOM     94  C   UNL A   1      46.554  34.600  30.586  1.00  0.00     0.041 A 
ATOM     95  F   UNL A   1      46.070  32.421  31.300  1.00  0.00    -0.206 F 
ATOM     96  C   UNL A   1      46.450  35.612  29.635  1.00  0.00     0.022 A 
BRANCH  93  97
ATOM     97  S   UNL A   1      45.624  36.650  27.181  1.00  0.00     0.124 S 
ATOM     98  O   UNL A   1      44.188  36.850  27.013  1.00  0.00    -0.237 OA
ATOM     99  O   UNL A   1      46.357  37.761  27.780  1.00  0.00    -0.237 OA
ATOM    100  O   UNL A   1      46.295  36.001  26.056  1.00  0.00    -0.744 OA
ENDBRANCH  93  97
ENDBRANCH  67  90
ENDBRANCH  41  42
ENDBRANCH  33  36
ENDBRANCH  31  32
ENDBRANCH   1  31
TORSDOF 16
ENDMDL
