MODEL 1
REMARK VINA RESULT:     -11.5      0.000      0.000
REMARK SMILES CC(C)N(CCC#N)C(=O)c1ccncc1/C=C/C(=O)NCCCNC(=O)c1ccc(-c2c3nc(c(-c4cc(S(=O)(=O)[O-])ccc4F)c4ccc([nH]4)c(-c4cc(S(=O)(=O)[O-])ccc4F)c4nc(c(-c5cc(S(=O)(=O)[O-])ccc5F)c5ccc2[nH]5)C=C4)C=C3)cc1
REMARK SMILES IDX 19 1 20 2 21 3 18 5 17 6 16 7 11 8 12 9 13 10 15 11 14 12
REMARK SMILES IDX 9 13 10 14 4 15 2 16 1 17 3 18 5 19 6 20 7 21 8 22 22 23
REMARK SMILES IDX 23 24 24 25 25 26 26 27 27 29 28 30 29 31 90 32 30 33 89 34
REMARK SMILES IDX 31 35 32 36 33 37 83 38 34 39 88 40 82 41 84 42 35 43 87 44
REMARK SMILES IDX 81 45 80 46 36 48 68 49 48 50 67 51 49 52 52 53 66 54 85 55
REMARK SMILES IDX 50 56 51 57 65 59 86 60 53 61 37 62 38 63 46 64 39 65 45 66
REMARK SMILES IDX 47 67 44 68 40 69 41 70 42 71 43 72 69 73 70 74 78 75 71 76
REMARK SMILES IDX 77 77 79 78 76 79 72 80 73 81 74 82 75 83 54 84 55 85 63 86
REMARK SMILES IDX 56 87 62 88 64 89 61 90 57 91 58 92 59 93 60 94
REMARK H PARENT 21 4 25 28 84 47 52 58
REMARK Flexibility Score: inf
ROOT
ATOM      1  C   UNL A   1      31.996  23.223  26.681  1.00  0.00     0.244 C 
ATOM      2  O   UNL A   1      31.049  23.722  27.284  1.00  0.00    -0.270 OA
ATOM      3  N   UNL A   1      32.776  22.280  27.276  1.00  0.00    -0.352 N 
ATOM      4  H   UNL A   1      32.528  22.044  28.199  1.00  0.00     0.163 HD
ENDROOT
BRANCH   1   5
ATOM      5  C   UNL A   1      32.400  23.768  25.370  1.00  0.00     0.072 C 
ATOM      6  C   UNL A   1      33.071  24.911  25.138  1.00  0.00     0.016 C 
BRANCH   6   7
ATOM      7  C   UNL A   1      33.170  25.341  23.736  1.00  0.00     0.006 A 
ATOM      8  C   UNL A   1      32.713  26.592  23.244  1.00  0.00     0.050 A 
ATOM      9  C   UNL A   1      32.330  26.619  21.902  1.00  0.00     0.034 A 
ATOM     10  C   UNL A   1      32.662  25.554  21.071  1.00  0.00     0.112 A 
ATOM     11  C   UNL A   1      33.501  24.345  22.810  1.00  0.00     0.119 A 
ATOM     12  N   UNL A   1      33.285  24.437  21.483  1.00  0.00    -0.264 NA
BRANCH   8  13
ATOM     13  C   UNL A   1      32.744  27.847  24.112  1.00  0.00     0.254 C 
ATOM     14  O   UNL A   1      33.850  28.339  24.336  1.00  0.00    -0.269 OA
BRANCH  13  15
ATOM     15  N   UNL A   1      31.595  28.543  24.598  1.00  0.00    -0.335 N 
BRANCH  15  16
ATOM     16  C   UNL A   1      31.415  28.656  26.082  1.00  0.00     0.079 C 
ATOM     17  C   UNL A   1      31.753  27.381  26.863  1.00  0.00     0.031 C 
ATOM     18  C   UNL A   1      32.130  29.867  26.688  1.00  0.00     0.031 C 
ENDBRANCH  15  16
BRANCH  15  19
ATOM     19  C   UNL A   1      30.642  29.350  23.799  1.00  0.00     0.135 C 
BRANCH  19  20
ATOM     20  C   UNL A   1      29.589  28.579  22.997  1.00  0.00     0.141 C 
BRANCH  20  21
ATOM     21  C   UNL A   1      28.237  29.271  23.066  1.00  0.00     0.064 C 
ATOM     22  N   UNL A   1      27.115  29.844  23.123  1.00  0.00    -0.198 NA
ENDBRANCH  20  21
ENDBRANCH  19  20
ENDBRANCH  15  19
ENDBRANCH  13  15
ENDBRANCH   8  13
ENDBRANCH   6   7
ENDBRANCH   1   5
BRANCH   3  23
ATOM     23  C   UNL A   1      33.920  21.575  26.735  1.00  0.00     0.118 C 
BRANCH  23  24
ATOM     24  C   UNL A   1      35.241  22.309  26.919  1.00  0.00     0.042 C 
BRANCH  24  25
ATOM     25  C   UNL A   1      36.074  22.364  25.648  1.00  0.00     0.118 C 
BRANCH  25  26
ATOM     26  N   UNL A   1      37.088  21.313  25.598  1.00  0.00    -0.352 N 
ATOM     27  C   UNL A   1      38.448  21.353  25.776  1.00  0.00     0.251 C 
ATOM     28  H   UNL A   1      36.731  20.416  25.401  1.00  0.00     0.163 HD
ATOM     29  O   UNL A   1      39.126  20.389  25.439  1.00  0.00    -0.269 OA
BRANCH  27  30
ATOM     30  C   UNL A   1      39.091  22.549  26.356  1.00  0.00     0.039 A 
ATOM     31  C   UNL A   1      40.186  22.385  27.209  1.00  0.00     0.014 A 
ATOM     32  C   UNL A   1      38.610  23.828  26.074  1.00  0.00     0.014 A 
ATOM     33  C   UNL A   1      40.854  23.509  27.699  1.00  0.00     0.010 A 
ATOM     34  C   UNL A   1      39.332  24.943  26.481  1.00  0.00     0.010 A 
ATOM     35  C   UNL A   1      40.468  24.795  27.290  1.00  0.00    -0.014 A 
BRANCH  35  36
ATOM     36  C   UNL A   1      41.249  26.003  27.662  1.00  0.00     0.031 A 
ATOM     37  C   UNL A   1      40.586  27.119  28.423  1.00  0.00     0.074 A 
ATOM     38  C   UNL A   1      42.514  26.133  27.215  1.00  0.00     0.049 A 
ATOM     39  N   UNL A   1      41.046  28.308  28.708  1.00  0.00    -0.248 NA
ATOM     40  C   UNL A   1      39.213  26.877  28.895  1.00  0.00     0.031 C 
ATOM     41  C   UNL A   1      43.241  25.131  26.431  1.00  0.00     0.029 A 
ATOM     42  N   UNL A   1      43.407  27.170  27.329  1.00  0.00    -0.354 N 
ATOM     43  C   UNL A   1      40.013  28.967  29.368  1.00  0.00     0.074 A 
ATOM     44  C   UNL A   1      38.888  28.057  29.403  1.00  0.00     0.031 C 
ATOM     45  C   UNL A   1      44.467  25.596  26.145  1.00  0.00     0.029 A 
ATOM     46  C   UNL A   1      44.595  26.954  26.665  1.00  0.00     0.049 A 
ATOM     47  H   UNL A   1      43.217  27.991  27.837  1.00  0.00     0.167 HD
ATOM     48  C   UNL A   1      40.013  30.212  29.902  1.00  0.00     0.034 A 
ATOM     49  C   UNL A   1      45.650  27.767  26.464  1.00  0.00     0.034 A 
ATOM     50  C   UNL A   1      41.156  31.090  29.878  1.00  0.00     0.049 A 
ATOM     51  C   UNL A   1      45.609  29.159  27.046  1.00  0.00     0.074 A 
ATOM     52  C   UNL A   1      41.299  32.329  30.476  1.00  0.00     0.029 A 
ATOM     53  N   UNL A   1      42.342  30.834  29.203  1.00  0.00    -0.354 N 
ATOM     54  N   UNL A   1      44.656  29.733  27.744  1.00  0.00    -0.248 NA
ATOM     55  C   UNL A   1      46.784  30.012  26.818  1.00  0.00     0.031 C 
ATOM     56  C   UNL A   1      42.533  32.860  30.091  1.00  0.00     0.029 A 
ATOM     57  C   UNL A   1      43.199  31.917  29.324  1.00  0.00     0.049 A 
ATOM     58  H   UNL A   1      42.545  30.006  28.711  1.00  0.00     0.167 HD
ATOM     59  C   UNL A   1      45.127  31.006  28.054  1.00  0.00     0.074 A 
ATOM     60  C   UNL A   1      46.455  31.107  27.489  1.00  0.00     0.031 C 
ATOM     61  C   UNL A   1      44.517  32.003  28.742  1.00  0.00     0.034 A 
BRANCH  48  62
ATOM     62  C   UNL A   1      38.736  30.714  30.530  1.00  0.00     0.023 A 
ATOM     63  C   UNL A   1      37.725  31.333  29.775  1.00  0.00     0.031 A 
ATOM     64  C   UNL A   1      38.520  30.550  31.911  1.00  0.00     0.131 A 
ATOM     65  C   UNL A   1      36.570  31.810  30.411  1.00  0.00     0.055 A 
ATOM     66  C   UNL A   1      37.336  30.961  32.526  1.00  0.00     0.041 A 
ATOM     67  F   UNL A   1      39.460  29.987  32.687  1.00  0.00    -0.206 F 
ATOM     68  C   UNL A   1      36.356  31.604  31.776  1.00  0.00     0.022 A 
BRANCH  65  69
ATOM     69  S   UNL A   1      35.398  32.805  29.450  1.00  0.00     0.124 S 
ATOM     70  O   UNL A   1      34.197  32.729  30.279  1.00  0.00    -0.237 OA
ATOM     71  O   UNL A   1      36.056  34.105  29.399  1.00  0.00    -0.237 OA
ATOM     72  O   UNL A   1      35.312  32.098  28.174  1.00  0.00    -0.744 OA
ENDBRANCH  65  69
ENDBRANCH  48  62
BRANCH  49  73
ATOM     73  C   UNL A   1      46.811  27.321  25.637  1.00  0.00     0.023 A 
ATOM     74  C   UNL A   1      47.014  27.822  24.342  1.00  0.00     0.031 A 
ATOM     75  C   UNL A   1      47.700  26.337  26.107  1.00  0.00     0.131 A 
ATOM     76  C   UNL A   1      48.041  27.296  23.541  1.00  0.00     0.055 A 
ATOM     77  C   UNL A   1      48.760  25.865  25.331  1.00  0.00     0.041 A 
ATOM     78  F   UNL A   1      47.556  25.822  27.339  1.00  0.00    -0.206 F 
ATOM     79  C   UNL A   1      48.924  26.332  24.032  1.00  0.00     0.022 A 
BRANCH  76  80
ATOM     80  S   UNL A   1      48.133  27.806  21.803  1.00  0.00     0.124 S 
ATOM     81  O   UNL A   1      46.854  28.484  21.625  1.00  0.00    -0.237 OA
ATOM     82  O   UNL A   1      49.319  28.657  21.802  1.00  0.00    -0.237 OA
ATOM     83  O   UNL A   1      48.275  26.541  21.086  1.00  0.00    -0.744 OA
ENDBRANCH  76  80
ENDBRANCH  49  73
BRANCH  61  84
ATOM     84  C   UNL A   1      45.296  33.278  28.946  1.00  0.00     0.023 A 
ATOM     85  C   UNL A   1      45.241  34.330  28.017  1.00  0.00     0.031 A 
ATOM     86  C   UNL A   1      46.089  33.449  30.095  1.00  0.00     0.131 A 
ATOM     87  C   UNL A   1      45.997  35.492  28.232  1.00  0.00     0.055 A 
ATOM     88  C   UNL A   1      46.788  34.631  30.334  1.00  0.00     0.041 A 
ATOM     89  F   UNL A   1      46.180  32.473  31.012  1.00  0.00    -0.206 F 
ATOM     90  C   UNL A   1      46.753  35.658  29.395  1.00  0.00     0.022 A 
BRANCH  87  91
ATOM     91  S   UNL A   1      46.036  36.759  26.935  1.00  0.00     0.124 S 
ATOM     92  O   UNL A   1      44.652  37.222  26.922  1.00  0.00    -0.237 OA
ATOM     93  O   UNL A   1      47.019  37.706  27.451  1.00  0.00    -0.237 OA
ATOM     94  O   UNL A   1      46.455  36.019  25.746  1.00  0.00    -0.744 OA
ENDBRANCH  87  91
ENDBRANCH  61  84
ENDBRANCH  35  36
ENDBRANCH  27  30
ENDBRANCH  25  26
ENDBRANCH  24  25
ENDBRANCH  23  24
ENDBRANCH   3  23
TORSDOF 20
ENDMDL
MODEL 2
REMARK VINA RESULT:     -11.5      1.642      7.631
REMARK SMILES CC(C)N(CCC#N)C(=O)c1ccncc1/C=C/C(=O)NCCCNC(=O)c1ccc(-c2c3nc(c(-c4cc(S(=O)(=O)[O-])ccc4F)c4ccc([nH]4)c(-c4cc(S(=O)(=O)[O-])ccc4F)c4nc(c(-c5cc(S(=O)(=O)[O-])ccc5F)c5ccc2[nH]5)C=C4)C=C3)cc1
REMARK SMILES IDX 19 1 20 2 21 3 18 5 17 6 16 7 11 8 12 9 13 10 15 11 14 12
REMARK SMILES IDX 9 13 10 14 4 15 2 16 1 17 3 18 5 19 6 20 7 21 8 22 22 23
REMARK SMILES IDX 23 24 24 25 25 26 26 27 27 29 28 30 29 31 90 32 30 33 89 34
REMARK SMILES IDX 31 35 32 36 33 37 83 38 34 39 88 40 82 41 84 42 35 43 87 44
REMARK SMILES IDX 81 45 80 46 36 48 68 49 48 50 67 51 49 52 52 53 66 54 85 55
REMARK SMILES IDX 50 56 51 57 65 59 86 60 53 61 37 62 38 63 46 64 39 65 45 66
REMARK SMILES IDX 47 67 44 68 40 69 41 70 42 71 43 72 69 73 70 74 78 75 71 76
REMARK SMILES IDX 77 77 79 78 76 79 72 80 73 81 74 82 75 83 54 84 55 85 63 86
REMARK SMILES IDX 56 87 62 88 64 89 61 90 57 91 58 92 59 93 60 94
REMARK H PARENT 21 4 25 28 84 47 52 58
REMARK Flexibility Score: inf
ROOT
ATOM      1  C   UNL A   1      32.195  22.932  26.776  1.00  0.00     0.244 C 
ATOM      2  O   UNL A   1      31.336  23.321  27.563  1.00  0.00    -0.270 OA
ATOM      3  N   UNL A   1      33.022  21.903  27.106  1.00  0.00    -0.352 N 
ATOM      4  H   UNL A   1      32.881  21.514  28.000  1.00  0.00     0.163 HD
ENDROOT
BRANCH   1   5
ATOM      5  C   UNL A   1      32.452  23.690  25.536  1.00  0.00     0.072 C 
ATOM      6  C   UNL A   1      32.864  24.968  25.435  1.00  0.00     0.016 C 
BRANCH   6   7
ATOM      7  C   UNL A   1      32.844  25.559  24.090  1.00  0.00     0.006 A 
ATOM      8  C   UNL A   1      31.735  26.245  23.528  1.00  0.00     0.050 A 
ATOM      9  C   UNL A   1      31.636  26.213  22.137  1.00  0.00     0.034 A 
ATOM     10  C   UNL A   1      32.719  25.779  21.380  1.00  0.00     0.112 A 
ATOM     11  C   UNL A   1      33.894  25.190  23.241  1.00  0.00     0.119 A 
ATOM     12  N   UNL A   1      33.867  25.314  21.899  1.00  0.00    -0.264 NA
BRANCH   8  13
ATOM     13  C   UNL A   1      30.777  27.053  24.399  1.00  0.00     0.254 C 
ATOM     14  O   UNL A   1      29.856  26.434  24.934  1.00  0.00    -0.269 OA
BRANCH  13  15
ATOM     15  N   UNL A   1      30.921  28.438  24.719  1.00  0.00    -0.335 N 
BRANCH  15  16
ATOM     16  C   UNL A   1      31.802  28.806  25.876  1.00  0.00     0.079 C 
ATOM     17  C   UNL A   1      31.618  27.928  27.120  1.00  0.00     0.031 C 
ATOM     18  C   UNL A   1      33.283  28.907  25.501  1.00  0.00     0.031 C 
ENDBRANCH  15  16
BRANCH  15  19
ATOM     19  C   UNL A   1      30.453  29.589  23.913  1.00  0.00     0.135 C 
BRANCH  19  20
ATOM     20  C   UNL A   1      29.193  29.373  23.068  1.00  0.00     0.141 C 
BRANCH  20  21
ATOM     21  C   UNL A   1      28.145  30.430  23.371  1.00  0.00     0.064 C 
ATOM     22  N   UNL A   1      27.274  31.307  23.623  1.00  0.00    -0.198 NA
ENDBRANCH  20  21
ENDBRANCH  19  20
ENDBRANCH  15  19
ENDBRANCH  13  15
ENDBRANCH   8  13
ENDBRANCH   6   7
ENDBRANCH   1   5
BRANCH   3  23
ATOM     23  C   UNL A   1      34.080  21.300  26.322  1.00  0.00     0.118 C 
BRANCH  23  24
ATOM     24  C   UNL A   1      35.435  21.969  26.496  1.00  0.00     0.042 C 
BRANCH  24  25
ATOM     25  C   UNL A   1      36.349  21.788  25.293  1.00  0.00     0.118 C 
BRANCH  25  26
ATOM     26  N   UNL A   1      37.423  20.830  25.548  1.00  0.00    -0.352 N 
ATOM     27  C   UNL A   1      38.740  21.011  25.890  1.00  0.00     0.251 C 
ATOM     28  H   UNL A   1      37.154  19.887  25.455  1.00  0.00     0.163 HD
ATOM     29  O   UNL A   1      39.518  20.068  25.805  1.00  0.00    -0.269 OA
BRANCH  27  30
ATOM     30  C   UNL A   1      39.219  22.332  26.346  1.00  0.00     0.039 A 
ATOM     31  C   UNL A   1      40.304  22.395  27.225  1.00  0.00     0.014 A 
ATOM     32  C   UNL A   1      38.594  23.505  25.921  1.00  0.00     0.014 A 
ATOM     33  C   UNL A   1      40.819  23.638  27.599  1.00  0.00     0.010 A 
ATOM     34  C   UNL A   1      39.165  24.737  26.214  1.00  0.00     0.010 A 
ATOM     35  C   UNL A   1      40.290  24.816  27.048  1.00  0.00    -0.014 A 
BRANCH  35  36
ATOM     36  C   UNL A   1      40.909  26.143  27.297  1.00  0.00     0.031 A 
ATOM     37  C   UNL A   1      42.296  26.431  26.791  1.00  0.00     0.074 A 
ATOM     38  C   UNL A   1      40.262  27.037  28.072  1.00  0.00     0.049 A 
ATOM     39  N   UNL A   1      43.064  27.461  27.031  1.00  0.00    -0.248 NA
ATOM     40  C   UNL A   1      42.914  25.409  25.930  1.00  0.00     0.031 C 
ATOM     41  C   UNL A   1      38.930  26.845  28.652  1.00  0.00     0.029 A 
ATOM     42  N   UNL A   1      40.643  28.274  28.530  1.00  0.00    -0.354 N 
ATOM     43  C   UNL A   1      44.264  27.201  26.375  1.00  0.00     0.074 A 
ATOM     44  C   UNL A   1      44.135  25.898  25.762  1.00  0.00     0.031 C 
ATOM     45  C   UNL A   1      38.603  27.925  29.377  1.00  0.00     0.029 A 
ATOM     46  C   UNL A   1      39.723  28.860  29.372  1.00  0.00     0.049 A 
ATOM     47  H   UNL A   1      41.494  28.702  28.282  1.00  0.00     0.167 HD
ATOM     48  C   UNL A   1      45.363  27.988  26.287  1.00  0.00     0.034 A 
ATOM     49  C   UNL A   1      39.788  30.000  30.088  1.00  0.00     0.034 A 
ATOM     50  C   UNL A   1      45.457  29.297  26.886  1.00  0.00     0.049 A 
ATOM     51  C   UNL A   1      41.037  30.842  29.993  1.00  0.00     0.074 A 
ATOM     52  C   UNL A   1      46.482  30.219  26.774  1.00  0.00     0.029 A 
ATOM     53  N   UNL A   1      44.504  29.860  27.724  1.00  0.00    -0.354 N 
ATOM     54  N   UNL A   1      42.128  30.621  29.296  1.00  0.00    -0.248 NA
ATOM     55  C   UNL A   1      41.066  32.084  30.777  1.00  0.00     0.031 C 
ATOM     56  C   UNL A   1      46.191  31.298  27.613  1.00  0.00     0.029 A 
ATOM     57  C   UNL A   1      44.944  31.092  28.181  1.00  0.00     0.049 A 
ATOM     58  H   UNL A   1      43.643  29.445  27.959  1.00  0.00     0.167 HD
ATOM     59  C   UNL A   1      42.962  31.708  29.543  1.00  0.00     0.074 A 
ATOM     60  C   UNL A   1      42.240  32.592  30.432  1.00  0.00     0.031 C 
ATOM     61  C   UNL A   1      44.213  31.954  29.079  1.00  0.00     0.034 A 
BRANCH  48  62
ATOM     62  C   UNL A   1      46.563  27.451  25.547  1.00  0.00     0.023 A 
ATOM     63  C   UNL A   1      46.892  27.876  24.249  1.00  0.00     0.031 A 
ATOM     64  C   UNL A   1      47.406  26.509  26.165  1.00  0.00     0.131 A 
ATOM     65  C   UNL A   1      48.001  27.323  23.592  1.00  0.00     0.055 A 
ATOM     66  C   UNL A   1      48.550  26.017  25.535  1.00  0.00     0.041 A 
ATOM     67  F   UNL A   1      47.128  26.048  27.396  1.00  0.00    -0.206 F 
ATOM     68  C   UNL A   1      48.848  26.417  24.236  1.00  0.00     0.022 A 
BRANCH  65  69
ATOM     69  S   UNL A   1      48.260  27.719  21.842  1.00  0.00     0.124 S 
ATOM     70  O   UNL A   1      47.001  28.377  21.499  1.00  0.00    -0.237 OA
ATOM     71  O   UNL A   1      49.438  28.577  21.883  1.00  0.00    -0.237 OA
ATOM     72  O   UNL A   1      48.461  26.412  21.219  1.00  0.00    -0.744 OA
ENDBRANCH  65  69
ENDBRANCH  48  62
BRANCH  49  73
ATOM     73  C   UNL A   1      38.671  30.395  30.997  1.00  0.00     0.023 A 
ATOM     74  C   UNL A   1      37.572  31.125  30.521  1.00  0.00     0.031 A 
ATOM     75  C   UNL A   1      38.718  30.102  32.373  1.00  0.00     0.131 A 
ATOM     76  C   UNL A   1      36.597  31.589  31.420  1.00  0.00     0.055 A 
ATOM     77  C   UNL A   1      37.713  30.508  33.252  1.00  0.00     0.041 A 
ATOM     78  F   UNL A   1      39.745  29.404  32.886  1.00  0.00    -0.206 F 
ATOM     79  C   UNL A   1      36.652  31.272  32.779  1.00  0.00     0.022 A 
BRANCH  76  80
ATOM     80  S   UNL A   1      35.315  32.714  30.805  1.00  0.00     0.124 S 
ATOM     81  O   UNL A   1      34.291  32.589  31.836  1.00  0.00    -0.237 OA
ATOM     82  O   UNL A   1      36.029  33.986  30.757  1.00  0.00    -0.237 OA
ATOM     83  O   UNL A   1      34.964  32.148  29.504  1.00  0.00    -0.744 OA
ENDBRANCH  76  80
ENDBRANCH  49  73
BRANCH  61  84
ATOM     84  C   UNL A   1      44.865  33.246  29.503  1.00  0.00     0.023 A 
ATOM     85  C   UNL A   1      45.686  33.317  30.640  1.00  0.00     0.031 A 
ATOM     86  C   UNL A   1      44.676  34.417  28.747  1.00  0.00     0.131 A 
ATOM     87  C   UNL A   1      46.258  34.542  31.013  1.00  0.00     0.055 A 
ATOM     88  C   UNL A   1      45.297  35.618  29.087  1.00  0.00     0.041 A 
ATOM     89  F   UNL A   1      43.897  34.405  27.653  1.00  0.00    -0.206 F 
ATOM     90  C   UNL A   1      46.086  35.688  30.232  1.00  0.00     0.022 A 
BRANCH  87  91
ATOM     91  S   UNL A   1      47.173  34.637  32.575  1.00  0.00     0.124 S 
ATOM     92  O   UNL A   1      46.387  33.763  33.440  1.00  0.00    -0.237 OA
ATOM     93  O   UNL A   1      48.492  34.139  32.197  1.00  0.00    -0.237 OA
ATOM     94  O   UNL A   1      47.123  36.057  32.916  1.00  0.00    -0.744 OA
ENDBRANCH  87  91
ENDBRANCH  61  84
ENDBRANCH  35  36
ENDBRANCH  27  30
ENDBRANCH  25  26
ENDBRANCH  24  25
ENDBRANCH  23  24
ENDBRANCH   3  23
TORSDOF 20
ENDMDL
MODEL 3
REMARK VINA RESULT:     -10.9      0.940      7.620
REMARK SMILES CC(C)N(CCC#N)C(=O)c1ccncc1/C=C/C(=O)NCCCNC(=O)c1ccc(-c2c3nc(c(-c4cc(S(=O)(=O)[O-])ccc4F)c4ccc([nH]4)c(-c4cc(S(=O)(=O)[O-])ccc4F)c4nc(c(-c5cc(S(=O)(=O)[O-])ccc5F)c5ccc2[nH]5)C=C4)C=C3)cc1
REMARK SMILES IDX 19 1 20 2 21 3 18 5 17 6 16 7 11 8 12 9 13 10 15 11 14 12
REMARK SMILES IDX 9 13 10 14 4 15 2 16 1 17 3 18 5 19 6 20 7 21 8 22 22 23
REMARK SMILES IDX 23 24 24 25 25 26 26 27 27 29 28 30 29 31 90 32 30 33 89 34
REMARK SMILES IDX 31 35 32 36 33 37 83 38 34 39 88 40 82 41 84 42 35 43 87 44
REMARK SMILES IDX 81 45 80 46 36 48 68 49 48 50 67 51 49 52 52 53 66 54 85 55
REMARK SMILES IDX 50 56 51 57 65 59 86 60 53 61 37 62 38 63 46 64 39 65 45 66
REMARK SMILES IDX 47 67 44 68 40 69 41 70 42 71 43 72 69 73 70 74 78 75 71 76
REMARK SMILES IDX 77 77 79 78 76 79 72 80 73 81 74 82 75 83 54 84 55 85 63 86
REMARK SMILES IDX 56 87 62 88 64 89 61 90 57 91 58 92 59 93 60 94
REMARK H PARENT 21 4 25 28 84 47 52 58
REMARK Flexibility Score: inf
ROOT
ATOM      1  C   UNL A   1      32.302  22.991  26.843  1.00  0.00     0.244 C 
ATOM      2  O   UNL A   1      31.435  23.378  27.622  1.00  0.00    -0.270 OA
ATOM      3  N   UNL A   1      33.181  22.019  27.212  1.00  0.00    -0.352 N 
ATOM      4  H   UNL A   1      33.069  21.670  28.127  1.00  0.00     0.163 HD
ENDROOT
BRANCH   1   5
ATOM      5  C   UNL A   1      32.508  23.697  25.563  1.00  0.00     0.072 C 
ATOM      6  C   UNL A   1      32.763  25.007  25.391  1.00  0.00     0.016 C 
BRANCH   6   7
ATOM      7  C   UNL A   1      32.719  25.507  24.009  1.00  0.00     0.006 A 
ATOM      8  C   UNL A   1      31.619  26.201  23.440  1.00  0.00     0.050 A 
ATOM      9  C   UNL A   1      31.467  26.080  22.058  1.00  0.00     0.034 A 
ATOM     10  C   UNL A   1      32.503  25.550  21.297  1.00  0.00     0.112 A 
ATOM     11  C   UNL A   1      33.720  25.036  23.152  1.00  0.00     0.119 A 
ATOM     12  N   UNL A   1      33.650  25.071  21.807  1.00  0.00    -0.264 NA
BRANCH   8  13
ATOM     13  C   UNL A   1      30.728  27.107  24.286  1.00  0.00     0.254 C 
ATOM     14  O   UNL A   1      30.103  26.573  25.202  1.00  0.00    -0.269 OA
BRANCH  13  15
ATOM     15  N   UNL A   1      30.640  28.528  24.160  1.00  0.00    -0.335 N 
BRANCH  15  16
ATOM     16  C   UNL A   1      29.411  29.105  23.523  1.00  0.00     0.079 C 
ATOM     17  C   UNL A   1      29.688  30.061  22.357  1.00  0.00     0.031 C 
ATOM     18  C   UNL A   1      28.384  28.044  23.120  1.00  0.00     0.031 C 
ENDBRANCH  15  16
BRANCH  15  19
ATOM     19  C   UNL A   1      31.545  29.531  24.769  1.00  0.00     0.135 C 
BRANCH  19  20
ATOM     20  C   UNL A   1      31.797  29.408  26.276  1.00  0.00     0.141 C 
BRANCH  20  21
ATOM     21  C   UNL A   1      33.217  28.945  26.555  1.00  0.00     0.064 C 
ATOM     22  N   UNL A   1      34.396  28.561  26.786  1.00  0.00    -0.198 NA
ENDBRANCH  20  21
ENDBRANCH  19  20
ENDBRANCH  15  19
ENDBRANCH  13  15
ENDBRANCH   8  13
ENDBRANCH   6   7
ENDBRANCH   1   5
BRANCH   3  23
ATOM     23  C   UNL A   1      34.257  21.428  26.444  1.00  0.00     0.118 C 
BRANCH  23  24
ATOM     24  C   UNL A   1      35.560  22.211  26.504  1.00  0.00     0.042 C 
BRANCH  24  25
ATOM     25  C   UNL A   1      36.491  21.908  25.340  1.00  0.00     0.118 C 
BRANCH  25  26
ATOM     26  N   UNL A   1      37.539  20.952  25.696  1.00  0.00    -0.352 N 
ATOM     27  C   UNL A   1      38.841  21.136  26.089  1.00  0.00     0.251 C 
ATOM     28  H   UNL A   1      37.260  20.010  25.643  1.00  0.00     0.163 HD
ATOM     29  O   UNL A   1      39.607  20.180  26.092  1.00  0.00    -0.269 OA
BRANCH  27  30
ATOM     30  C   UNL A   1      39.318  22.474  26.493  1.00  0.00     0.039 A 
ATOM     31  C   UNL A   1      40.357  22.573  27.422  1.00  0.00     0.014 A 
ATOM     32  C   UNL A   1      38.736  23.629  25.970  1.00  0.00     0.014 A 
ATOM     33  C   UNL A   1      40.874  23.828  27.751  1.00  0.00     0.010 A 
ATOM     34  C   UNL A   1      39.313  24.868  26.221  1.00  0.00     0.010 A 
ATOM     35  C   UNL A   1      40.395  24.979  27.107  1.00  0.00    -0.014 A 
BRANCH  35  36
ATOM     36  C   UNL A   1      41.023  26.310  27.312  1.00  0.00     0.031 A 
ATOM     37  C   UNL A   1      42.411  26.572  26.795  1.00  0.00     0.074 A 
ATOM     38  C   UNL A   1      40.383  27.232  28.059  1.00  0.00     0.049 A 
ATOM     39  N   UNL A   1      43.186  27.604  27.000  1.00  0.00    -0.248 NA
ATOM     40  C   UNL A   1      43.020  25.519  25.966  1.00  0.00     0.031 C 
ATOM     41  C   UNL A   1      39.051  27.067  28.647  1.00  0.00     0.029 A 
ATOM     42  N   UNL A   1      40.772  28.481  28.477  1.00  0.00    -0.354 N 
ATOM     43  C   UNL A   1      44.382  27.316  26.350  1.00  0.00     0.074 A 
ATOM     44  C   UNL A   1      44.243  25.994  25.779  1.00  0.00     0.031 C 
ATOM     45  C   UNL A   1      38.732  28.173  29.338  1.00  0.00     0.029 A 
ATOM     46  C   UNL A   1      39.858  29.099  29.301  1.00  0.00     0.049 A 
ATOM     47  H   UNL A   1      41.626  28.895  28.213  1.00  0.00     0.167 HD
ATOM     48  C   UNL A   1      45.486  28.092  26.235  1.00  0.00     0.034 A 
ATOM     49  C   UNL A   1      39.932  30.262  29.980  1.00  0.00     0.034 A 
ATOM     50  C   UNL A   1      45.590  29.419  26.791  1.00  0.00     0.049 A 
ATOM     51  C   UNL A   1      41.187  31.092  29.855  1.00  0.00     0.074 A 
ATOM     52  C   UNL A   1      46.620  30.330  26.648  1.00  0.00     0.029 A 
ATOM     53  N   UNL A   1      44.642  30.014  27.612  1.00  0.00    -0.354 N 
ATOM     54  N   UNL A   1      42.275  30.841  29.163  1.00  0.00    -0.248 NA
ATOM     55  C   UNL A   1      41.224  32.358  30.598  1.00  0.00     0.031 C 
ATOM     56  C   UNL A   1      46.338  31.437  27.452  1.00  0.00     0.029 A 
ATOM     57  C   UNL A   1      45.091  31.258  28.029  1.00  0.00     0.049 A 
ATOM     58  H   UNL A   1      43.779  29.613  27.862  1.00  0.00     0.167 HD
ATOM     59  C   UNL A   1      43.116  31.930  29.374  1.00  0.00     0.074 A 
ATOM     60  C   UNL A   1      42.402  32.848  30.235  1.00  0.00     0.031 C 
ATOM     61  C   UNL A   1      44.367  32.153  28.899  1.00  0.00     0.034 A 
BRANCH  48  62
ATOM     62  C   UNL A   1      46.681  27.523  25.510  1.00  0.00     0.023 A 
ATOM     63  C   UNL A   1      47.002  27.893  24.193  1.00  0.00     0.031 A 
ATOM     64  C   UNL A   1      47.528  26.608  26.162  1.00  0.00     0.131 A 
ATOM     65  C   UNL A   1      48.106  27.312  23.553  1.00  0.00     0.055 A 
ATOM     66  C   UNL A   1      48.668  26.090  25.546  1.00  0.00     0.041 A 
ATOM     67  F   UNL A   1      47.259  26.201  27.414  1.00  0.00    -0.206 F 
ATOM     68  C   UNL A   1      48.957  26.435  24.229  1.00  0.00     0.022 A 
BRANCH  65  69
ATOM     69  S   UNL A   1      48.353  27.633  21.785  1.00  0.00     0.124 S 
ATOM     70  O   UNL A   1      49.470  28.575  21.810  1.00  0.00    -0.237 OA
ATOM     71  O   UNL A   1      48.649  26.305  21.262  1.00  0.00    -0.237 OA
ATOM     72  O   UNL A   1      47.077  28.203  21.358  1.00  0.00    -0.744 OA
ENDBRANCH  65  69
ENDBRANCH  48  62
BRANCH  49  73
ATOM     73  C   UNL A   1      38.820  30.693  30.878  1.00  0.00     0.023 A 
ATOM     74  C   UNL A   1      37.804  31.544  30.417  1.00  0.00     0.031 A 
ATOM     75  C   UNL A   1      38.791  30.310  32.232  1.00  0.00     0.131 A 
ATOM     76  C   UNL A   1      36.839  32.032  31.314  1.00  0.00     0.055 A 
ATOM     77  C   UNL A   1      37.792  30.745  33.104  1.00  0.00     0.041 A 
ATOM     78  F   UNL A   1      39.736  29.495  32.729  1.00  0.00    -0.206 F 
ATOM     79  C   UNL A   1      36.817  31.626  32.650  1.00  0.00     0.022 A 
BRANCH  76  80
ATOM     80  S   UNL A   1      35.679  33.301  30.734  1.00  0.00     0.124 S 
ATOM     81  O   UNL A   1      35.886  34.360  31.715  1.00  0.00    -0.237 OA
ATOM     82  O   UNL A   1      36.172  33.565  29.387  1.00  0.00    -0.237 OA
ATOM     83  O   UNL A   1      34.383  32.630  30.802  1.00  0.00    -0.744 OA
ENDBRANCH  76  80
ENDBRANCH  49  73
BRANCH  61  84
ATOM     84  C   UNL A   1      45.029  33.454  29.280  1.00  0.00     0.023 A 
ATOM     85  C   UNL A   1      44.844  34.622  28.524  1.00  0.00     0.031 A 
ATOM     86  C   UNL A   1      45.839  33.527  30.427  1.00  0.00     0.131 A 
ATOM     87  C   UNL A   1      45.494  35.807  28.900  1.00  0.00     0.055 A 
ATOM     88  C   UNL A   1      46.432  34.723  30.831  1.00  0.00     0.041 A 
ATOM     89  F   UNL A   1      46.052  32.439  31.184  1.00  0.00    -0.206 F 
ATOM     90  C   UNL A   1      46.269  35.871  30.060  1.00  0.00     0.022 A 
BRANCH  87  91
ATOM     91  S   UNL A   1      45.371  37.252  27.810  1.00  0.00     0.124 S 
ATOM     92  O   UNL A   1      44.213  36.914  26.989  1.00  0.00    -0.237 OA
ATOM     93  O   UNL A   1      45.182  38.345  28.759  1.00  0.00    -0.237 OA
ATOM     94  O   UNL A   1      46.651  37.260  27.105  1.00  0.00    -0.744 OA
ENDBRANCH  87  91
ENDBRANCH  61  84
ENDBRANCH  35  36
ENDBRANCH  27  30
ENDBRANCH  25  26
ENDBRANCH  24  25
ENDBRANCH  23  24
ENDBRANCH   3  23
TORSDOF 20
ENDMDL
