MODEL 1
REMARK VINA RESULT:     -12.3      0.000      0.000
REMARK SMILES O=C(Cc1ccc(NC(=O)C2CCCC2)cc1)NCCCNC(=O)c1ccc(-c2c3nc(c(-c4cc(S(=O)(=O)[O-])ccc4F)c4ccc([nH]4)c(-c4cc(S(=O)(=O)[O-])ccc4F)c4nc(c(-c5cc(S(=O)(=O)[O-])ccc5F)c5ccc2[nH]5)C=C4)C=C3)cc1
REMARK SMILES IDX 20 1 19 2 18 3 1 4 2 5 3 7 4 8 5 9 17 10 6 11 16 12 7 13
REMARK SMILES IDX 8 14 9 15 10 17 11 18 12 19 15 20 13 21 14 22 21 23 22 24
REMARK SMILES IDX 23 25 24 27 25 28 26 29 87 30 27 31 86 32 28 33 29 34 30 35
REMARK SMILES IDX 80 36 31 37 85 38 79 39 81 40 32 41 84 42 78 43 77 44 33 46
REMARK SMILES IDX 65 47 45 48 64 49 46 50 49 51 63 52 82 53 47 54 48 55 62 57
REMARK SMILES IDX 83 58 50 59 34 60 35 61 43 62 36 63 42 64 44 65 41 66 37 67
REMARK SMILES IDX 38 68 39 69 40 70 66 71 67 72 75 73 68 74 74 75 76 76 73 77
REMARK SMILES IDX 69 78 70 79 71 80 72 81 51 82 52 83 60 84 53 85 59 86 61 87
REMARK SMILES IDX 58 88 54 89 55 90 56 91 57 92
REMARK H PARENT 18 6 8 16 22 26 81 45 49 56
REMARK Flexibility Score: inf
ROOT
ATOM      1  C   UNL A   1      35.650  20.990  25.035  1.00  0.00     0.042 C 
ENDROOT
BRANCH   1   2
ATOM      2  C   UNL A   1      34.834  21.563  26.191  1.00  0.00     0.117 C 
BRANCH   2   3
ATOM      3  N   UNL A   1      33.442  21.771  25.838  1.00  0.00    -0.356 N 
ATOM      4  O   UNL A   1      32.761  22.646  27.854  1.00  0.00    -0.275 OA
ATOM      5  C   UNL A   1      32.510  22.321  26.697  1.00  0.00     0.224 C 
ATOM      6  H   UNL A   1      33.145  21.506  24.937  1.00  0.00     0.163 HD
BRANCH   5   7
ATOM      7  C   UNL A   1      31.113  22.476  26.100  1.00  0.00     0.135 C 
BRANCH   7   8
ATOM      8  C   UNL A   1      30.961  23.771  25.339  1.00  0.00    -0.039 A 
ATOM      9  C   UNL A   1      30.665  24.953  26.020  1.00  0.00     0.006 A 
ATOM     10  C   UNL A   1      31.017  23.801  23.942  1.00  0.00     0.006 A 
ATOM     11  C   UNL A   1      30.295  26.098  25.316  1.00  0.00     0.026 A 
ATOM     12  C   UNL A   1      30.660  24.961  23.244  1.00  0.00     0.026 A 
ATOM     13  C   UNL A   1      30.198  26.088  23.932  1.00  0.00     0.041 A 
BRANCH  13  14
ATOM     14  N   UNL A   1      29.656  27.132  23.169  1.00  0.00    -0.326 N 
ATOM     15  C   UNL A   1      30.095  28.361  22.781  1.00  0.00     0.227 C 
ATOM     16  H   UNL A   1      28.752  26.929  22.838  1.00  0.00     0.169 HD
ATOM     17  O   UNL A   1      29.330  28.986  22.029  1.00  0.00    -0.274 OA
BRANCH  15  18
ATOM     18  C   UNL A   1      31.395  29.041  23.214  1.00  0.00     0.079 C 
ATOM     19  C   UNL A   1      31.537  29.428  24.681  1.00  0.00     0.013 C 
ATOM     20  C   UNL A   1      32.656  28.299  22.790  1.00  0.00     0.013 C 
ATOM     21  C   UNL A   1      33.000  29.223  25.048  1.00  0.00     0.001 C 
ATOM     22  C   UNL A   1      33.652  28.408  23.939  1.00  0.00     0.001 C 
ENDBRANCH  15  18
ENDBRANCH  13  14
ENDBRANCH   7   8
ENDBRANCH   5   7
ENDBRANCH   2   3
ENDBRANCH   1   2
BRANCH   1  23
ATOM     23  C   UNL A   1      37.085  21.507  24.934  1.00  0.00     0.118 C 
BRANCH  23  24
ATOM     24  N   UNL A   1      38.083  20.543  25.377  1.00  0.00    -0.352 N 
ATOM     25  C   UNL A   1      39.291  20.738  26.006  1.00  0.00     0.251 C 
ATOM     26  H   UNL A   1      37.858  19.602  25.197  1.00  0.00     0.163 HD
ATOM     27  O   UNL A   1      40.036  19.772  26.170  1.00  0.00    -0.269 OA
BRANCH  25  28
ATOM     28  C   UNL A   1      39.722  22.085  26.449  1.00  0.00     0.039 A 
ATOM     29  C   UNL A   1      40.872  22.197  27.237  1.00  0.00     0.014 A 
ATOM     30  C   UNL A   1      39.003  23.235  26.112  1.00  0.00     0.014 A 
ATOM     31  C   UNL A   1      41.350  23.459  27.606  1.00  0.00     0.010 A 
ATOM     32  C   UNL A   1      39.517  24.497  26.423  1.00  0.00     0.010 A 
ATOM     33  C   UNL A   1      40.707  24.624  27.158  1.00  0.00    -0.014 A 
BRANCH  33  34
ATOM     34  C   UNL A   1      41.291  25.974  27.402  1.00  0.00     0.031 A 
ATOM     35  C   UNL A   1      42.662  26.323  26.890  1.00  0.00     0.074 A 
ATOM     36  C   UNL A   1      40.609  26.865  28.149  1.00  0.00     0.049 A 
ATOM     37  N   UNL A   1      43.369  27.408  27.088  1.00  0.00    -0.248 NA
ATOM     38  C   UNL A   1      43.335  25.311  26.064  1.00  0.00     0.031 C 
ATOM     39  C   UNL A   1      39.280  26.642  28.724  1.00  0.00     0.029 A 
ATOM     40  N   UNL A   1      40.937  28.133  28.567  1.00  0.00    -0.354 N 
ATOM     41  C   UNL A   1      44.572  27.209  26.419  1.00  0.00     0.074 A 
ATOM     42  C   UNL A   1      44.516  25.875  25.856  1.00  0.00     0.031 C 
ATOM     43  C   UNL A   1      38.901  27.737  29.399  1.00  0.00     0.029 A 
ATOM     44  C   UNL A   1      39.979  28.720  29.361  1.00  0.00     0.049 A 
ATOM     45  H   UNL A   1      41.780  28.578  28.321  1.00  0.00     0.167 HD
ATOM     46  C   UNL A   1      45.616  28.064  26.276  1.00  0.00     0.034 A 
ATOM     47  C   UNL A   1      39.974  29.904  30.008  1.00  0.00     0.034 A 
ATOM     48  C   UNL A   1      45.657  29.390  26.845  1.00  0.00     0.049 A 
ATOM     49  C   UNL A   1      41.175  30.808  29.887  1.00  0.00     0.074 A 
ATOM     50  C   UNL A   1      46.645  30.353  26.715  1.00  0.00     0.029 A 
ATOM     51  N   UNL A   1      44.680  29.940  27.666  1.00  0.00    -0.354 N 
ATOM     52  N   UNL A   1      42.285  30.622  29.211  1.00  0.00    -0.248 NA
ATOM     53  C   UNL A   1      41.119  32.084  30.613  1.00  0.00     0.031 C 
ATOM     54  C   UNL A   1      46.307  31.444  27.520  1.00  0.00     0.029 A 
ATOM     55  C   UNL A   1      45.065  31.207  28.085  1.00  0.00     0.049 A 
ATOM     56  H   UNL A   1      43.838  29.496  27.914  1.00  0.00     0.167 HD
ATOM     57  C   UNL A   1      43.047  31.770  29.411  1.00  0.00     0.074 A 
ATOM     58  C   UNL A   1      42.260  32.651  30.250  1.00  0.00     0.031 C 
ATOM     59  C   UNL A   1      44.284  32.072  28.939  1.00  0.00     0.034 A 
BRANCH  46  60
ATOM     60  C   UNL A   1      46.817  27.575  25.498  1.00  0.00     0.023 A 
ATOM     61  C   UNL A   1      47.062  27.990  24.177  1.00  0.00     0.031 A 
ATOM     62  C   UNL A   1      47.725  26.673  26.081  1.00  0.00     0.131 A 
ATOM     63  C   UNL A   1      48.140  27.449  23.460  1.00  0.00     0.055 A 
ATOM     64  C   UNL A   1      48.845  26.205  25.391  1.00  0.00     0.041 A 
ATOM     65  F   UNL A   1      47.535  26.223  27.331  1.00  0.00    -0.206 F 
ATOM     66  C   UNL A   1      49.050  26.580  24.067  1.00  0.00     0.022 A 
BRANCH  63  67
ATOM     67  S   UNL A   1      48.251  27.781  21.681  1.00  0.00     0.124 S 
ATOM     68  O   UNL A   1      49.340  28.754  21.630  1.00  0.00    -0.237 OA
ATOM     69  O   UNL A   1      48.546  26.463  21.132  1.00  0.00    -0.237 OA
ATOM     70  O   UNL A   1      46.932  28.316  21.350  1.00  0.00    -0.744 OA
ENDBRANCH  63  67
ENDBRANCH  46  60
BRANCH  47  71
ATOM     71  C   UNL A   1      38.812  30.296  30.861  1.00  0.00     0.023 A 
ATOM     72  C   UNL A   1      37.712  30.978  30.315  1.00  0.00     0.031 A 
ATOM     73  C   UNL A   1      38.808  30.040  32.244  1.00  0.00     0.131 A 
ATOM     74  C   UNL A   1      36.680  31.425  31.154  1.00  0.00     0.055 A 
ATOM     75  C   UNL A   1      37.749  30.432  33.065  1.00  0.00     0.041 A 
ATOM     76  F   UNL A   1      39.835  29.394  32.819  1.00  0.00    -0.206 F 
ATOM     77  C   UNL A   1      36.682  31.142  32.522  1.00  0.00     0.022 A 
BRANCH  74  78
ATOM     78  S   UNL A   1      35.378  32.471  30.447  1.00  0.00     0.124 S 
ATOM     79  O   UNL A   1      36.088  33.729  30.244  1.00  0.00    -0.237 OA
ATOM     80  O   UNL A   1      35.019  31.734  29.240  1.00  0.00    -0.237 OA
ATOM     81  O   UNL A   1      34.355  32.492  31.489  1.00  0.00    -0.744 OA
ENDBRANCH  74  78
ENDBRANCH  47  71
BRANCH  59  82
ATOM     82  C   UNL A   1      44.846  33.428  29.299  1.00  0.00     0.023 A 
ATOM     83  C   UNL A   1      44.611  34.562  28.501  1.00  0.00     0.031 A 
ATOM     84  C   UNL A   1      45.640  33.584  30.450  1.00  0.00     0.131 A 
ATOM     85  C   UNL A   1      45.212  35.786  28.832  1.00  0.00     0.055 A 
ATOM     86  C   UNL A   1      46.178  34.820  30.811  1.00  0.00     0.041 A 
ATOM     87  F   UNL A   1      45.903  32.536  31.247  1.00  0.00    -0.206 F 
ATOM     88  C   UNL A   1      45.978  35.928  29.992  1.00  0.00     0.022 A 
BRANCH  85  89
ATOM     89  S   UNL A   1      45.064  37.172  27.669  1.00  0.00     0.124 S 
ATOM     90  O   UNL A   1      43.745  36.938  27.088  1.00  0.00    -0.237 OA
ATOM     91  O   UNL A   1      45.176  38.330  28.548  1.00  0.00    -0.237 OA
ATOM     92  O   UNL A   1      46.187  36.975  26.755  1.00  0.00    -0.744 OA
ENDBRANCH  85  89
ENDBRANCH  59  82
ENDBRANCH  33  34
ENDBRANCH  25  28
ENDBRANCH  23  24
ENDBRANCH   1  23
TORSDOF 16
ENDMDL
MODEL 2
REMARK VINA RESULT:     -12.3      5.317      8.590
REMARK SMILES O=C(Cc1ccc(NC(=O)C2CCCC2)cc1)NCCCNC(=O)c1ccc(-c2c3nc(c(-c4cc(S(=O)(=O)[O-])ccc4F)c4ccc([nH]4)c(-c4cc(S(=O)(=O)[O-])ccc4F)c4nc(c(-c5cc(S(=O)(=O)[O-])ccc5F)c5ccc2[nH]5)C=C4)C=C3)cc1
REMARK SMILES IDX 20 1 19 2 18 3 1 4 2 5 3 7 4 8 5 9 17 10 6 11 16 12 7 13
REMARK SMILES IDX 8 14 9 15 10 17 11 18 12 19 15 20 13 21 14 22 21 23 22 24
REMARK SMILES IDX 23 25 24 27 25 28 26 29 87 30 27 31 86 32 28 33 29 34 30 35
REMARK SMILES IDX 80 36 31 37 85 38 79 39 81 40 32 41 84 42 78 43 77 44 33 46
REMARK SMILES IDX 65 47 45 48 64 49 46 50 49 51 63 52 82 53 47 54 48 55 62 57
REMARK SMILES IDX 83 58 50 59 34 60 35 61 43 62 36 63 42 64 44 65 41 66 37 67
REMARK SMILES IDX 38 68 39 69 40 70 66 71 67 72 75 73 68 74 74 75 76 76 73 77
REMARK SMILES IDX 69 78 70 79 71 80 72 81 51 82 52 83 60 84 53 85 59 86 61 87
REMARK SMILES IDX 58 88 54 89 55 90 56 91 57 92
REMARK H PARENT 18 6 8 16 22 26 81 45 49 56
REMARK Flexibility Score: inf
ROOT
ATOM      1  C   UNL A   1      31.669  30.651  26.640  1.00  0.00     0.042 C 
ENDROOT
BRANCH   1   2
ATOM      2  C   UNL A   1      30.796  31.322  25.583  1.00  0.00     0.117 C 
BRANCH   2   3
ATOM      3  N   UNL A   1      30.667  30.520  24.380  1.00  0.00    -0.356 N 
ATOM      4  O   UNL A   1      28.543  31.198  23.809  1.00  0.00    -0.275 OA
ATOM      5  C   UNL A   1      29.549  30.537  23.568  1.00  0.00     0.224 C 
ATOM      6  H   UNL A   1      31.416  29.933  24.129  1.00  0.00     0.163 HD
BRANCH   5   7
ATOM      7  C   UNL A   1      29.648  29.638  22.337  1.00  0.00     0.135 C 
BRANCH   7   8
ATOM      8  C   UNL A   1      29.713  28.176  22.705  1.00  0.00    -0.039 A 
ATOM      9  C   UNL A   1      28.680  27.592  23.440  1.00  0.00     0.006 A 
ATOM     10  C   UNL A   1      30.840  27.403  22.406  1.00  0.00     0.006 A 
ATOM     11  C   UNL A   1      28.835  26.317  23.982  1.00  0.00     0.026 A 
ATOM     12  C   UNL A   1      30.978  26.117  22.941  1.00  0.00     0.026 A 
ATOM     13  C   UNL A   1      30.015  25.607  23.818  1.00  0.00     0.041 A 
BRANCH  13  14
ATOM     14  N   UNL A   1      30.317  24.410  24.483  1.00  0.00    -0.326 N 
ATOM     15  C   UNL A   1      31.163  24.064  25.491  1.00  0.00     0.227 C 
ATOM     16  H   UNL A   1      29.798  23.647  24.143  1.00  0.00     0.169 HD
ATOM     17  O   UNL A   1      31.095  22.881  25.860  1.00  0.00    -0.274 OA
BRANCH  15  18
ATOM     18  C   UNL A   1      32.197  24.970  26.164  1.00  0.00     0.079 C 
ATOM     19  C   UNL A   1      33.530  25.171  25.453  1.00  0.00     0.013 C 
ATOM     20  C   UNL A   1      31.657  26.336  26.567  1.00  0.00     0.013 C 
ATOM     21  C   UNL A   1      33.955  26.608  25.722  1.00  0.00     0.001 C 
ATOM     22  C   UNL A   1      32.753  27.357  26.283  1.00  0.00     0.001 C 
ENDBRANCH  15  18
ENDBRANCH  13  14
ENDBRANCH   7   8
ENDBRANCH   5   7
ENDBRANCH   2   3
ENDBRANCH   1   2
BRANCH   1  23
ATOM     23  C   UNL A   1      32.921  31.433  27.040  1.00  0.00     0.118 C 
BRANCH  23  24
ATOM     24  N   UNL A   1      32.667  32.841  27.308  1.00  0.00    -0.352 N 
ATOM     25  C   UNL A   1      33.303  33.715  28.160  1.00  0.00     0.251 C 
ATOM     26  H   UNL A   1      31.920  33.231  26.800  1.00  0.00     0.163 HD
ATOM     27  O   UNL A   1      32.828  34.839  28.320  1.00  0.00    -0.269 OA
BRANCH  25  28
ATOM     28  C   UNL A   1      34.518  33.314  28.909  1.00  0.00     0.039 A 
ATOM     29  C   UNL A   1      34.370  32.527  30.057  1.00  0.00     0.014 A 
ATOM     30  C   UNL A   1      35.796  33.712  28.506  1.00  0.00     0.014 A 
ATOM     31  C   UNL A   1      35.500  32.066  30.742  1.00  0.00     0.010 A 
ATOM     32  C   UNL A   1      36.924  33.197  29.151  1.00  0.00     0.010 A 
ATOM     33  C   UNL A   1      36.790  32.352  30.264  1.00  0.00    -0.014 A 
BRANCH  33  34
ATOM     34  C   UNL A   1      37.998  31.737  30.882  1.00  0.00     0.031 A 
ATOM     35  C   UNL A   1      38.775  30.670  30.159  1.00  0.00     0.074 A 
ATOM     36  C   UNL A   1      38.356  32.092  32.133  1.00  0.00     0.049 A 
ATOM     37  N   UNL A   1      39.789  29.956  30.577  1.00  0.00    -0.248 NA
ATOM     38  C   UNL A   1      38.340  30.352  28.792  1.00  0.00     0.031 C 
ATOM     39  C   UNL A   1      37.673  33.096  32.952  1.00  0.00     0.029 A 
ATOM     40  N   UNL A   1      39.372  31.645  32.943  1.00  0.00    -0.354 N 
ATOM     41  C   UNL A   1      40.112  29.098  29.531  1.00  0.00     0.074 A 
ATOM     42  C   UNL A   1      39.147  29.348  28.479  1.00  0.00     0.031 C 
ATOM     43  C   UNL A   1      38.298  33.202  34.134  1.00  0.00     0.029 A 
ATOM     44  C   UNL A   1      39.389  32.233  34.187  1.00  0.00     0.049 A 
ATOM     45  H   UNL A   1      40.026  30.966  32.660  1.00  0.00     0.167 HD
ATOM     46  C   UNL A   1      41.126  28.200  29.451  1.00  0.00     0.034 A 
ATOM     47  C   UNL A   1      40.173  32.005  35.261  1.00  0.00     0.034 A 
ATOM     48  C   UNL A   1      42.079  27.961  30.508  1.00  0.00     0.049 A 
ATOM     49  C   UNL A   1      41.251  30.954  35.168  1.00  0.00     0.074 A 
ATOM     50  C   UNL A   1      43.173  27.111  30.507  1.00  0.00     0.029 A 
ATOM     51  N   UNL A   1      42.048  28.556  31.764  1.00  0.00    -0.354 N 
ATOM     52  N   UNL A   1      41.571  30.185  34.153  1.00  0.00    -0.248 NA
ATOM     53  C   UNL A   1      42.076  30.745  36.365  1.00  0.00     0.031 C 
ATOM     54  C   UNL A   1      43.748  27.128  31.781  1.00  0.00     0.029 A 
ATOM     55  C   UNL A   1      43.073  28.056  32.556  1.00  0.00     0.049 A 
ATOM     56  H   UNL A   1      41.393  29.233  32.050  1.00  0.00     0.167 HD
ATOM     57  C   UNL A   1      42.652  29.420  34.584  1.00  0.00     0.074 A 
ATOM     58  C   UNL A   1      42.942  29.837  35.940  1.00  0.00     0.031 C 
ATOM     59  C   UNL A   1      43.344  28.462  33.916  1.00  0.00     0.034 A 
BRANCH  46  60
ATOM     60  C   UNL A   1      41.235  27.382  28.183  1.00  0.00     0.023 A 
ATOM     61  C   UNL A   1      40.869  26.026  28.143  1.00  0.00     0.031 A 
ATOM     62  C   UNL A   1      41.721  27.966  26.999  1.00  0.00     0.131 A 
ATOM     63  C   UNL A   1      41.063  25.281  26.970  1.00  0.00     0.055 A 
ATOM     64  C   UNL A   1      41.832  27.240  25.811  1.00  0.00     0.041 A 
ATOM     65  F   UNL A   1      42.107  29.251  26.978  1.00  0.00    -0.206 F 
ATOM     66  C   UNL A   1      41.516  25.885  25.795  1.00  0.00     0.022 A 
BRANCH  63  67
ATOM     67  S   UNL A   1      40.858  23.480  27.043  1.00  0.00     0.124 S 
ATOM     68  O   UNL A   1      41.646  23.048  25.891  1.00  0.00    -0.237 OA
ATOM     69  O   UNL A   1      41.409  23.153  28.353  1.00  0.00    -0.237 OA
ATOM     70  O   UNL A   1      39.416  23.294  26.906  1.00  0.00    -0.744 OA
ENDBRANCH  63  67
ENDBRANCH  46  60
BRANCH  47  71
ATOM     71  C   UNL A   1      39.954  32.757  36.532  1.00  0.00     0.023 A 
ATOM     72  C   UNL A   1      39.009  32.323  37.476  1.00  0.00     0.031 A 
ATOM     73  C   UNL A   1      40.649  33.950  36.799  1.00  0.00     0.131 A 
ATOM     74  C   UNL A   1      38.748  33.101  38.614  1.00  0.00     0.055 A 
ATOM     75  C   UNL A   1      40.432  34.688  37.964  1.00  0.00     0.041 A 
ATOM     76  F   UNL A   1      41.562  34.414  35.930  1.00  0.00    -0.206 F 
ATOM     77  C   UNL A   1      39.465  34.271  38.873  1.00  0.00     0.022 A 
BRANCH  74  78
ATOM     78  S   UNL A   1      37.385  32.612  39.706  1.00  0.00     0.124 S 
ATOM     79  O   UNL A   1      37.426  33.661  40.718  1.00  0.00    -0.237 OA
ATOM     80  O   UNL A   1      36.244  32.640  38.797  1.00  0.00    -0.237 OA
ATOM     81  O   UNL A   1      37.779  31.283  40.167  1.00  0.00    -0.744 OA
ENDBRANCH  74  78
ENDBRANCH  47  71
BRANCH  59  82
ATOM     82  C   UNL A   1      44.507  27.822  34.640  1.00  0.00     0.023 A 
ATOM     83  C   UNL A   1      44.360  26.627  35.366  1.00  0.00     0.031 A 
ATOM     84  C   UNL A   1      45.777  28.426  34.613  1.00  0.00     0.131 A 
ATOM     85  C   UNL A   1      45.448  26.107  36.084  1.00  0.00     0.055 A 
ATOM     86  C   UNL A   1      46.872  27.866  35.272  1.00  0.00     0.041 A 
ATOM     87  F   UNL A   1      45.977  29.571  33.940  1.00  0.00    -0.206 F 
ATOM     88  C   UNL A   1      46.708  26.707  36.026  1.00  0.00     0.022 A 
BRANCH  85  89
ATOM     89  S   UNL A   1      45.170  24.687  37.180  1.00  0.00     0.124 S 
ATOM     90  O   UNL A   1      44.326  25.269  38.219  1.00  0.00    -0.237 OA
ATOM     91  O   UNL A   1      44.519  23.730  36.292  1.00  0.00    -0.237 OA
ATOM     92  O   UNL A   1      46.517  24.317  37.610  1.00  0.00    -0.744 OA
ENDBRANCH  85  89
ENDBRANCH  59  82
ENDBRANCH  33  34
ENDBRANCH  25  28
ENDBRANCH  23  24
ENDBRANCH   1  23
TORSDOF 16
ENDMDL
MODEL 3
REMARK VINA RESULT:     -12.2      1.592      7.690
REMARK SMILES O=C(Cc1ccc(NC(=O)C2CCCC2)cc1)NCCCNC(=O)c1ccc(-c2c3nc(c(-c4cc(S(=O)(=O)[O-])ccc4F)c4ccc([nH]4)c(-c4cc(S(=O)(=O)[O-])ccc4F)c4nc(c(-c5cc(S(=O)(=O)[O-])ccc5F)c5ccc2[nH]5)C=C4)C=C3)cc1
REMARK SMILES IDX 20 1 19 2 18 3 1 4 2 5 3 7 4 8 5 9 17 10 6 11 16 12 7 13
REMARK SMILES IDX 8 14 9 15 10 17 11 18 12 19 15 20 13 21 14 22 21 23 22 24
REMARK SMILES IDX 23 25 24 27 25 28 26 29 87 30 27 31 86 32 28 33 29 34 30 35
REMARK SMILES IDX 80 36 31 37 85 38 79 39 81 40 32 41 84 42 78 43 77 44 33 46
REMARK SMILES IDX 65 47 45 48 64 49 46 50 49 51 63 52 82 53 47 54 48 55 62 57
REMARK SMILES IDX 83 58 50 59 34 60 35 61 43 62 36 63 42 64 44 65 41 66 37 67
REMARK SMILES IDX 38 68 39 69 40 70 66 71 67 72 75 73 68 74 74 75 76 76 73 77
REMARK SMILES IDX 69 78 70 79 71 80 72 81 51 82 52 83 60 84 53 85 59 86 61 87
REMARK SMILES IDX 58 88 54 89 55 90 56 91 57 92
REMARK H PARENT 18 6 8 16 22 26 81 45 49 56
REMARK Flexibility Score: inf
ROOT
ATOM      1  C   UNL A   1      35.539  21.047  25.024  1.00  0.00     0.042 C 
ENDROOT
BRANCH   1   2
ATOM      2  C   UNL A   1      34.703  21.560  26.193  1.00  0.00     0.117 C 
BRANCH   2   3
ATOM      3  N   UNL A   1      33.315  21.775  25.831  1.00  0.00    -0.356 N 
ATOM      4  O   UNL A   1      32.624  22.650  27.844  1.00  0.00    -0.275 OA
ATOM      5  C   UNL A   1      32.379  22.328  26.685  1.00  0.00     0.224 C 
ATOM      6  H   UNL A   1      33.023  21.512  24.928  1.00  0.00     0.163 HD
BRANCH   5   7
ATOM      7  C   UNL A   1      30.987  22.490  26.079  1.00  0.00     0.135 C 
BRANCH   7   8
ATOM      8  C   UNL A   1      30.842  23.794  25.331  1.00  0.00    -0.039 A 
ATOM      9  C   UNL A   1      30.504  24.961  26.017  1.00  0.00     0.006 A 
ATOM     10  C   UNL A   1      30.947  23.844  23.937  1.00  0.00     0.006 A 
ATOM     11  C   UNL A   1      30.141  26.110  25.316  1.00  0.00     0.026 A 
ATOM     12  C   UNL A   1      30.598  25.009  23.244  1.00  0.00     0.026 A 
ATOM     13  C   UNL A   1      30.094  26.119  23.930  1.00  0.00     0.041 A 
BRANCH  13  14
ATOM     14  N   UNL A   1      29.563  27.166  23.163  1.00  0.00    -0.326 N 
ATOM     15  C   UNL A   1      29.998  28.404  22.804  1.00  0.00     0.227 C 
ATOM     16  H   UNL A   1      28.673  26.955  22.800  1.00  0.00     0.169 HD
ATOM     17  O   UNL A   1      29.250  29.029  22.036  1.00  0.00    -0.274 OA
BRANCH  15  18
ATOM     18  C   UNL A   1      31.275  29.096  23.286  1.00  0.00     0.079 C 
ATOM     19  C   UNL A   1      31.364  29.466  24.762  1.00  0.00     0.013 C 
ATOM     20  C   UNL A   1      32.558  28.374  22.895  1.00  0.00     0.013 C 
ATOM     21  C   UNL A   1      32.818  29.275  25.173  1.00  0.00     0.001 C 
ATOM     22  C   UNL A   1      33.515  28.482  24.077  1.00  0.00     0.001 C 
ENDBRANCH  15  18
ENDBRANCH  13  14
ENDBRANCH   7   8
ENDBRANCH   5   7
ENDBRANCH   2   3
ENDBRANCH   1   2
BRANCH   1  23
ATOM     23  C   UNL A   1      36.989  21.531  24.999  1.00  0.00     0.118 C 
BRANCH  23  24
ATOM     24  N   UNL A   1      37.953  20.497  25.350  1.00  0.00    -0.352 N 
ATOM     25  C   UNL A   1      39.181  20.596  25.964  1.00  0.00     0.251 C 
ATOM     26  H   UNL A   1      37.685  19.582  25.108  1.00  0.00     0.163 HD
ATOM     27  O   UNL A   1      39.887  19.591  26.043  1.00  0.00    -0.269 OA
BRANCH  25  28
ATOM     28  C   UNL A   1      39.677  21.889  26.493  1.00  0.00     0.039 A 
ATOM     29  C   UNL A   1      40.687  21.875  27.460  1.00  0.00     0.014 A 
ATOM     30  C   UNL A   1      39.153  23.110  26.060  1.00  0.00     0.014 A 
ATOM     31  C   UNL A   1      41.233  23.078  27.922  1.00  0.00     0.010 A 
ATOM     32  C   UNL A   1      39.743  24.309  26.471  1.00  0.00     0.010 A 
ATOM     33  C   UNL A   1      40.803  24.306  27.393  1.00  0.00    -0.014 A 
BRANCH  33  34
ATOM     34  C   UNL A   1      41.483  25.583  27.750  1.00  0.00     0.031 A 
ATOM     35  C   UNL A   1      40.735  26.682  28.455  1.00  0.00     0.074 A 
ATOM     36  C   UNL A   1      42.763  25.781  27.374  1.00  0.00     0.049 A 
ATOM     37  N   UNL A   1      41.132  27.893  28.758  1.00  0.00    -0.248 NA
ATOM     38  C   UNL A   1      39.352  26.386  28.854  1.00  0.00     0.031 C 
ATOM     39  C   UNL A   1      43.593  24.805  26.664  1.00  0.00     0.029 A 
ATOM     40  N   UNL A   1      43.590  26.868  27.521  1.00  0.00    -0.354 N 
ATOM     41  C   UNL A   1      40.049  28.508  29.376  1.00  0.00     0.074 A 
ATOM     42  C   UNL A   1      38.961  27.550  29.354  1.00  0.00     0.031 C 
ATOM     43  C   UNL A   1      44.811  25.327  26.457  1.00  0.00     0.029 A 
ATOM     44  C   UNL A   1      44.836  26.697  26.961  1.00  0.00     0.049 A 
ATOM     45  H   UNL A   1      43.317  27.693  27.984  1.00  0.00     0.167 HD
ATOM     46  C   UNL A   1      39.974  29.748  29.923  1.00  0.00     0.034 A 
ATOM     47  C   UNL A   1      45.874  27.549  26.842  1.00  0.00     0.034 A 
ATOM     48  C   UNL A   1      41.066  30.692  29.936  1.00  0.00     0.049 A 
ATOM     49  C   UNL A   1      45.743  28.944  27.400  1.00  0.00     0.074 A 
ATOM     50  C   UNL A   1      41.109  31.952  30.510  1.00  0.00     0.029 A 
ATOM     51  N   UNL A   1      42.304  30.493  29.335  1.00  0.00    -0.354 N 
ATOM     52  N   UNL A   1      44.725  29.493  28.022  1.00  0.00    -0.248 NA
ATOM     53  C   UNL A   1      46.901  29.832  27.242  1.00  0.00     0.031 C 
ATOM     54  C   UNL A   1      42.333  32.544  30.185  1.00  0.00     0.029 A 
ATOM     55  C   UNL A   1      43.095  31.624  29.485  1.00  0.00     0.049 A 
ATOM     56  H   UNL A   1      42.578  29.670  28.870  1.00  0.00     0.167 HD
ATOM     57  C   UNL A   1      45.135  30.782  28.353  1.00  0.00     0.074 A 
ATOM     58  C   UNL A   1      46.497  30.920  27.881  1.00  0.00     0.031 C 
ATOM     59  C   UNL A   1      44.447  31.762  28.993  1.00  0.00     0.034 A 
BRANCH  46  60
ATOM     60  C   UNL A   1      38.651  30.166  30.526  1.00  0.00     0.023 A 
ATOM     61  C   UNL A   1      37.718  30.930  29.804  1.00  0.00     0.031 A 
ATOM     62  C   UNL A   1      38.323  29.804  31.844  1.00  0.00     0.131 A 
ATOM     63  C   UNL A   1      36.539  31.369  30.426  1.00  0.00     0.055 A 
ATOM     64  C   UNL A   1      37.109  30.172  32.429  1.00  0.00     0.041 A 
ATOM     65  F   UNL A   1      39.181  29.094  32.592  1.00  0.00    -0.206 F 
ATOM     66  C   UNL A   1      36.215  30.972  31.725  1.00  0.00     0.022 A 
BRANCH  63  67
ATOM     67  S   UNL A   1      35.508  32.587  29.566  1.00  0.00     0.124 S 
ATOM     68  O   UNL A   1      35.368  31.976  28.246  1.00  0.00    -0.237 OA
ATOM     69  O   UNL A   1      34.303  32.617  30.386  1.00  0.00    -0.237 OA
ATOM     70  O   UNL A   1      36.316  33.804  29.597  1.00  0.00    -0.744 OA
ENDBRANCH  63  67
ENDBRANCH  46  60
BRANCH  47  71
ATOM     71  C   UNL A   1      47.121  27.129  26.136  1.00  0.00     0.023 A 
ATOM     72  C   UNL A   1      48.125  26.410  26.805  1.00  0.00     0.031 A 
ATOM     73  C   UNL A   1      47.352  27.486  24.795  1.00  0.00     0.131 A 
ATOM     74  C   UNL A   1      49.330  26.115  26.151  1.00  0.00     0.055 A 
ATOM     75  C   UNL A   1      48.527  27.136  24.128  1.00  0.00     0.041 A 
ATOM     76  F   UNL A   1      46.428  28.176  24.107  1.00  0.00    -0.206 F 
ATOM     77  C   UNL A   1      49.532  26.458  24.812  1.00  0.00     0.022 A 
BRANCH  74  78
ATOM     78  S   UNL A   1      50.676  25.362  27.106  1.00  0.00     0.124 S 
ATOM     79  O   UNL A   1      51.574  24.913  26.049  1.00  0.00    -0.237 OA
ATOM     80  O   UNL A   1      51.141  26.486  27.911  1.00  0.00    -0.237 OA
ATOM     81  O   UNL A   1      50.008  24.298  27.853  1.00  0.00    -0.744 OA
ENDBRANCH  74  78
ENDBRANCH  47  71
BRANCH  59  82
ATOM     82  C   UNL A   1      45.176  33.062  29.246  1.00  0.00     0.023 A 
ATOM     83  C   UNL A   1      45.118  34.133  28.337  1.00  0.00     0.031 A 
ATOM     84  C   UNL A   1      45.951  33.225  30.409  1.00  0.00     0.131 A 
ATOM     85  C   UNL A   1      45.870  35.294  28.574  1.00  0.00     0.055 A 
ATOM     86  C   UNL A   1      46.640  34.409  30.674  1.00  0.00     0.041 A 
ATOM     87  F   UNL A   1      46.048  32.235  31.311  1.00  0.00    -0.206 F 
ATOM     88  C   UNL A   1      46.614  35.447  29.746  1.00  0.00     0.022 A 
BRANCH  85  89
ATOM     89  S   UNL A   1      45.942  36.565  27.282  1.00  0.00     0.124 S 
ATOM     90  O   UNL A   1      44.529  36.879  27.088  1.00  0.00    -0.237 OA
ATOM     91  O   UNL A   1      46.744  37.607  27.912  1.00  0.00    -0.237 OA
ATOM     92  O   UNL A   1      46.584  35.880  26.162  1.00  0.00    -0.744 OA
ENDBRANCH  85  89
ENDBRANCH  59  82
ENDBRANCH  33  34
ENDBRANCH  25  28
ENDBRANCH  23  24
ENDBRANCH   1  23
TORSDOF 16
ENDMDL
