MODEL 1
REMARK VINA RESULT:     -12.2      0.000      0.000
REMARK SMILES CCOc1cc(C[NH+]2CCC3(CC2)[C@H](C(=O)NCCCNC(=O)c2ccc(-c4c5nc(c(-c6cc(S(=O)(=O)[O-])ccc6F)c6ccc([nH]6)c(-c6cc(S(=O)(=O)[O-])ccc6F)c6nc(c(-c7cc(S(=O)(=O)[O-])ccc7F)c7ccc4[nH]7)C=C6)C=C5)cc2)CC(=O)N3C)ccc1OC
REMARK SMILES IDX 18 1 17 2 15 3 16 4 14 6 8 7 9 8 13 9 10 11 12 12 11 13
REMARK SMILES IDX 90 14 87 15 88 16 91 17 89 18 7 19 6 20 4 21 5 22 94 23
REMARK SMILES IDX 93 24 92 25 3 26 2 27 1 28 95 29 96 30 19 31 20 32 21 33
REMARK SMILES IDX 22 34 23 36 24 37 25 38 86 39 26 40 85 41 27 42 28 43 29 44
REMARK SMILES IDX 79 45 30 46 84 47 78 48 80 49 31 50 83 51 77 52 76 53 32 55
REMARK SMILES IDX 64 56 44 57 63 58 45 59 48 60 62 61 81 62 46 63 47 64 61 66
REMARK SMILES IDX 82 67 49 68 33 69 34 70 42 71 35 72 41 73 43 74 40 75 36 76
REMARK SMILES IDX 37 77 38 78 39 79 65 80 66 81 74 82 67 83 73 84 75 85 72 86
REMARK SMILES IDX 68 87 69 88 70 89 71 90 50 91 51 92 59 93 52 94 58 95 60 96
REMARK SMILES IDX 57 97 53 98 54 99 55 100 56 101
REMARK H PARENT 17 5 8 10 21 35 80 54 48 65
REMARK Flexibility Score: inf
ROOT
ATOM      1  C   UNL A   1      31.461  30.478  25.753  1.00  0.00     0.117 C 
ENDROOT
BRANCH   1   2
ATOM      2  N   UNL A   1      32.591  29.753  26.309  1.00  0.00    -0.356 N 
ATOM      3  C   UNL A   1      33.269  28.630  26.018  1.00  0.00     0.226 C 
ATOM      4  O   UNL A   1      34.174  28.372  26.819  1.00  0.00    -0.275 OA
ATOM      5  H   UNL A   1      32.955  30.202  27.106  1.00  0.00     0.163 HD
BRANCH   3   6
ATOM      6  C   UNL A   1      33.067  27.732  24.798  1.00  0.00     0.114 C 
ATOM      7  N   UNL A   1      30.558  24.320  25.506  1.00  0.00    -0.331 N 
ATOM      8  C   UNL A   1      30.093  25.559  26.100  1.00  0.00     0.265 C 
ATOM      9  C   UNL A   1      30.980  24.490  24.127  1.00  0.00     0.265 C 
ATOM     10  H   UNL A   1      29.734  23.726  25.425  1.00  0.00     0.348 HD
ATOM     11  C   UNL A   1      31.101  26.694  25.992  1.00  0.00     0.091 C 
ATOM     12  C   UNL A   1      31.981  25.620  23.842  1.00  0.00     0.091 C 
ATOM     13  C   UNL A   1      31.734  26.950  24.611  1.00  0.00     0.065 C 
ATOM     14  N   UNL A   1      31.026  27.865  23.703  1.00  0.00    -0.339 N 
ATOM     15  C   UNL A   1      33.287  28.515  23.517  1.00  0.00     0.116 C 
ATOM     16  C   UNL A   1      31.897  28.691  22.981  1.00  0.00     0.223 C 
ATOM     17  C   UNL A   1      29.666  27.705  23.240  1.00  0.00     0.147 C 
ATOM     18  O   UNL A   1      31.604  29.418  22.052  1.00  0.00    -0.275 OA
BRANCH   7  19
ATOM     19  C   UNL A   1      31.319  23.406  26.373  1.00  0.00     0.299 C 
BRANCH  19  20
ATOM     20  C   UNL A   1      32.248  22.420  25.691  1.00  0.00     0.010 A 
ATOM     21  C   UNL A   1      34.513  21.601  25.343  1.00  0.00     0.161 A 
ATOM     22  C   UNL A   1      33.631  22.653  25.622  1.00  0.00     0.060 A 
ATOM     23  C   UNL A   1      34.014  20.361  24.927  1.00  0.00     0.160 A 
ATOM     24  C   UNL A   1      32.631  20.194  24.808  1.00  0.00     0.051 A 
ATOM     25  C   UNL A   1      31.753  21.195  25.225  1.00  0.00     0.013 A 
BRANCH  21  26
ATOM     26  O   UNL A   1      35.797  21.664  25.797  1.00  0.00    -0.490 OA
BRANCH  26  27
ATOM     27  C   UNL A   1      36.838  22.003  24.899  1.00  0.00     0.226 C 
ATOM     28  C   UNL A   1      37.775  20.800  24.926  1.00  0.00     0.049 C 
ENDBRANCH  26  27
ENDBRANCH  21  26
BRANCH  23  29
ATOM     29  O   UNL A   1      34.719  19.228  24.619  1.00  0.00    -0.493 OA
ATOM     30  C   UNL A   1      34.005  18.044  24.296  1.00  0.00     0.278 C 
ENDBRANCH  23  29
ENDBRANCH  19  20
ENDBRANCH   7  19
ENDBRANCH   3   6
ENDBRANCH   1   2
BRANCH   1  31
ATOM     31  C   UNL A   1      31.350  31.910  26.271  1.00  0.00     0.042 C 
BRANCH  31  32
ATOM     32  C   UNL A   1      32.398  32.255  27.321  1.00  0.00     0.118 C 
BRANCH  32  33
ATOM     33  N   UNL A   1      32.509  33.698  27.465  1.00  0.00    -0.352 N 
ATOM     34  C   UNL A   1      33.223  34.375  28.425  1.00  0.00     0.251 C 
ATOM     35  H   UNL A   1      32.023  34.246  26.807  1.00  0.00     0.163 HD
ATOM     36  O   UNL A   1      32.915  35.520  28.736  1.00  0.00    -0.269 OA
BRANCH  34  37
ATOM     37  C   UNL A   1      34.353  33.682  29.076  1.00  0.00     0.039 A 
ATOM     38  C   UNL A   1      34.115  32.741  30.078  1.00  0.00     0.014 A 
ATOM     39  C   UNL A   1      35.658  33.960  28.658  1.00  0.00     0.014 A 
ATOM     40  C   UNL A   1      35.194  32.049  30.636  1.00  0.00     0.010 A 
ATOM     41  C   UNL A   1      36.713  33.199  29.138  1.00  0.00     0.010 A 
ATOM     42  C   UNL A   1      36.498  32.255  30.154  1.00  0.00    -0.014 A 
BRANCH  42  43
ATOM     43  C   UNL A   1      37.672  31.556  30.735  1.00  0.00     0.031 A 
ATOM     44  C   UNL A   1      38.118  31.903  32.132  1.00  0.00     0.074 A 
ATOM     45  C   UNL A   1      38.368  30.668  29.999  1.00  0.00     0.049 A 
ATOM     46  N   UNL A   1      39.177  31.507  32.789  1.00  0.00    -0.248 NA
ATOM     47  C   UNL A   1      37.278  32.862  32.868  1.00  0.00     0.031 C 
ATOM     48  C   UNL A   1      38.048  30.269  28.628  1.00  0.00     0.029 A 
ATOM     49  N   UNL A   1      39.493  29.945  30.300  1.00  0.00    -0.354 N 
ATOM     50  C   UNL A   1      39.137  32.180  34.006  1.00  0.00     0.074 A 
ATOM     51  C   UNL A   1      38.001  33.075  33.954  1.00  0.00     0.031 C 
ATOM     52  C   UNL A   1      38.934  29.346  28.221  1.00  0.00     0.029 A 
ATOM     53  C   UNL A   1      39.917  29.127  29.279  1.00  0.00     0.049 A 
ATOM     54  H   UNL A   1      39.956  30.005  31.168  1.00  0.00     0.167 HD
ATOM     55  C   UNL A   1      39.951  32.042  35.082  1.00  0.00     0.034 A 
ATOM     56  C   UNL A   1      40.982  28.305  29.202  1.00  0.00     0.034 A 
ATOM     57  C   UNL A   1      41.071  31.134  35.118  1.00  0.00     0.049 A 
ATOM     58  C   UNL A   1      41.908  28.204  30.389  1.00  0.00     0.074 A 
ATOM     59  C   UNL A   1      41.944  30.880  36.160  1.00  0.00     0.029 A 
ATOM     60  N   UNL A   1      41.476  30.334  34.056  1.00  0.00    -0.354 N 
ATOM     61  N   UNL A   1      41.842  28.823  31.545  1.00  0.00    -0.248 NA
ATOM     62  C   UNL A   1      43.049  27.287  30.262  1.00  0.00     0.031 C 
ATOM     63  C   UNL A   1      42.917  29.985  35.707  1.00  0.00     0.029 A 
ATOM     64  C   UNL A   1      42.604  29.610  34.411  1.00  0.00     0.049 A 
ATOM     65  H   UNL A   1      41.029  30.288  33.181  1.00  0.00     0.167 HD
ATOM     66  C   UNL A   1      42.908  28.336  32.298  1.00  0.00     0.074 A 
ATOM     67  C   UNL A   1      43.596  27.371  31.466  1.00  0.00     0.031 C 
ATOM     68  C   UNL A   1      43.279  28.652  33.566  1.00  0.00     0.034 A 
BRANCH  55  69
ATOM     69  C   UNL A   1      39.660  32.909  36.286  1.00  0.00     0.023 A 
ATOM     70  C   UNL A   1      38.909  32.428  37.375  1.00  0.00     0.031 A 
ATOM     71  C   UNL A   1      40.084  34.249  36.324  1.00  0.00     0.131 A 
ATOM     72  C   UNL A   1      38.520  33.304  38.400  1.00  0.00     0.055 A 
ATOM     73  C   UNL A   1      39.778  35.088  37.398  1.00  0.00     0.041 A 
ATOM     74  F   UNL A   1      40.785  34.774  35.307  1.00  0.00    -0.206 F 
ATOM     75  C   UNL A   1      38.974  34.623  38.434  1.00  0.00     0.022 A 
BRANCH  72  76
ATOM     76  S   UNL A   1      37.265  32.740  39.583  1.00  0.00     0.124 S 
ATOM     77  O   UNL A   1      37.358  33.766  40.619  1.00  0.00    -0.237 OA
ATOM     78  O   UNL A   1      36.048  32.750  38.781  1.00  0.00    -0.237 OA
ATOM     79  O   UNL A   1      37.742  31.418  39.983  1.00  0.00    -0.744 OA
ENDBRANCH  72  76
ENDBRANCH  55  69
BRANCH  56  80
ATOM     80  C   UNL A   1      41.234  27.506  27.968  1.00  0.00     0.023 A 
ATOM     81  C   UNL A   1      40.982  26.125  27.943  1.00  0.00     0.031 A 
ATOM     82  C   UNL A   1      41.766  28.099  26.808  1.00  0.00     0.131 A 
ATOM     83  C   UNL A   1      41.305  25.374  26.802  1.00  0.00     0.055 A 
ATOM     84  C   UNL A   1      42.032  27.356  25.657  1.00  0.00     0.041 A 
ATOM     85  F   UNL A   1      42.024  29.415  26.776  1.00  0.00    -0.206 F 
ATOM     86  C   UNL A   1      41.815  25.983  25.654  1.00  0.00     0.022 A 
BRANCH  83  87
ATOM     87  S   UNL A   1      41.132  23.570  26.875  1.00  0.00     0.124 S 
ATOM     88  O   UNL A   1      39.735  23.391  26.494  1.00  0.00    -0.237 OA
ATOM     89  O   UNL A   1      42.126  23.131  25.901  1.00  0.00    -0.237 OA
ATOM     90  O   UNL A   1      41.444  23.255  28.267  1.00  0.00    -0.744 OA
ENDBRANCH  83  87
ENDBRANCH  56  80
BRANCH  68  91
ATOM     91  C   UNL A   1      44.450  27.898  34.150  1.00  0.00     0.023 A 
ATOM     92  C   UNL A   1      44.286  26.686  34.842  1.00  0.00     0.031 A 
ATOM     93  C   UNL A   1      45.754  28.405  34.002  1.00  0.00     0.131 A 
ATOM     94  C   UNL A   1      45.402  26.048  35.405  1.00  0.00     0.055 A 
ATOM     95  C   UNL A   1      46.867  27.732  34.507  1.00  0.00     0.041 A 
ATOM     96  F   UNL A   1      45.969  29.562  33.354  1.00  0.00    -0.206 F 
ATOM     97  C   UNL A   1      46.693  26.552  35.224  1.00  0.00     0.022 A 
BRANCH  94  98
ATOM     98  S   UNL A   1      45.137  24.593  36.454  1.00  0.00     0.124 S 
ATOM     99  O   UNL A   1      45.415  23.498  35.529  1.00  0.00    -0.237 OA
ATOM    100  O   UNL A   1      46.115  24.790  37.518  1.00  0.00    -0.237 OA
ATOM    101  O   UNL A   1      43.740  24.716  36.866  1.00  0.00    -0.744 OA
ENDBRANCH  94  98
ENDBRANCH  68  91
ENDBRANCH  42  43
ENDBRANCH  34  37
ENDBRANCH  32  33
ENDBRANCH  31  32
ENDBRANCH   1  31
TORSDOF 18
ENDMDL
MODEL 2
REMARK VINA RESULT:     -11.8      1.415      7.446
REMARK SMILES CCOc1cc(C[NH+]2CCC3(CC2)[C@H](C(=O)NCCCNC(=O)c2ccc(-c4c5nc(c(-c6cc(S(=O)(=O)[O-])ccc6F)c6ccc([nH]6)c(-c6cc(S(=O)(=O)[O-])ccc6F)c6nc(c(-c7cc(S(=O)(=O)[O-])ccc7F)c7ccc4[nH]7)C=C6)C=C5)cc2)CC(=O)N3C)ccc1OC
REMARK SMILES IDX 18 1 17 2 15 3 16 4 14 6 8 7 9 8 13 9 10 11 12 12 11 13
REMARK SMILES IDX 90 14 87 15 88 16 91 17 89 18 7 19 6 20 4 21 5 22 94 23
REMARK SMILES IDX 93 24 92 25 3 26 2 27 1 28 95 29 96 30 19 31 20 32 21 33
REMARK SMILES IDX 22 34 23 36 24 37 25 38 86 39 26 40 85 41 27 42 28 43 29 44
REMARK SMILES IDX 79 45 30 46 84 47 78 48 80 49 31 50 83 51 77 52 76 53 32 55
REMARK SMILES IDX 64 56 44 57 63 58 45 59 48 60 62 61 81 62 46 63 47 64 61 66
REMARK SMILES IDX 82 67 49 68 33 69 34 70 42 71 35 72 41 73 43 74 40 75 36 76
REMARK SMILES IDX 37 77 38 78 39 79 65 80 66 81 74 82 67 83 73 84 75 85 72 86
REMARK SMILES IDX 68 87 69 88 70 89 71 90 50 91 51 92 59 93 52 94 58 95 60 96
REMARK SMILES IDX 57 97 53 98 54 99 55 100 56 101
REMARK H PARENT 17 5 8 10 21 35 80 54 48 65
REMARK Flexibility Score: inf
ROOT
ATOM      1  C   UNL A   1      31.722  30.436  25.725  1.00  0.00     0.117 C 
ENDROOT
BRANCH   1   2
ATOM      2  N   UNL A   1      32.742  29.643  26.388  1.00  0.00    -0.356 N 
ATOM      3  C   UNL A   1      33.336  28.453  26.191  1.00  0.00     0.226 C 
ATOM      4  O   UNL A   1      34.158  28.156  27.065  1.00  0.00    -0.275 OA
ATOM      5  H   UNL A   1      33.090  30.095  27.191  1.00  0.00     0.163 HD
BRANCH   3   6
ATOM      6  C   UNL A   1      33.138  27.521  24.997  1.00  0.00     0.114 C 
ATOM      7  N   UNL A   1      30.231  24.425  25.631  1.00  0.00    -0.331 N 
ATOM      8  C   UNL A   1      29.854  25.733  26.131  1.00  0.00     0.265 C 
ATOM      9  C   UNL A   1      30.777  24.481  24.286  1.00  0.00     0.265 C 
ATOM     10  H   UNL A   1      29.357  23.915  25.504  1.00  0.00     0.348 HD
ATOM     11  C   UNL A   1      30.983  26.751  26.062  1.00  0.00     0.091 C 
ATOM     12  C   UNL A   1      31.913  25.487  24.041  1.00  0.00     0.091 C 
ATOM     13  C   UNL A   1      31.748  26.872  24.730  1.00  0.00     0.065 C 
ATOM     14  N   UNL A   1      31.217  27.808  23.728  1.00  0.00    -0.339 N 
ATOM     15  C   UNL A   1      33.542  28.212  23.708  1.00  0.00     0.116 C 
ATOM     16  C   UNL A   1      32.226  28.503  23.049  1.00  0.00     0.223 C 
ATOM     17  C   UNL A   1      29.889  27.766  23.159  1.00  0.00     0.147 C 
ATOM     18  O   UNL A   1      32.087  29.209  22.069  1.00  0.00    -0.275 OA
BRANCH   7  19
ATOM     19  C   UNL A   1      30.818  23.482  26.596  1.00  0.00     0.299 C 
BRANCH  19  20
ATOM     20  C   UNL A   1      32.100  22.783  26.187  1.00  0.00     0.010 A 
ATOM     21  C   UNL A   1      33.220  21.177  24.742  1.00  0.00     0.161 A 
ATOM     22  C   UNL A   1      32.074  21.604  25.426  1.00  0.00     0.060 A 
ATOM     23  C   UNL A   1      34.450  21.802  24.978  1.00  0.00     0.160 A 
ATOM     24  C   UNL A   1      34.506  22.858  25.892  1.00  0.00     0.051 A 
ATOM     25  C   UNL A   1      33.341  23.374  26.461  1.00  0.00     0.013 A 
BRANCH  21  26
ATOM     26  O   UNL A   1      33.086  20.412  23.621  1.00  0.00    -0.490 OA
BRANCH  26  27
ATOM     27  C   UNL A   1      32.563  19.100  23.731  1.00  0.00     0.226 C 
ATOM     28  C   UNL A   1      33.401  18.443  24.823  1.00  0.00     0.049 C 
ENDBRANCH  26  27
ENDBRANCH  21  26
BRANCH  23  29
ATOM     29  O   UNL A   1      35.661  21.526  24.402  1.00  0.00    -0.493 OA
ATOM     30  C   UNL A   1      36.378  22.580  23.777  1.00  0.00     0.278 C 
ENDBRANCH  23  29
ENDBRANCH  19  20
ENDBRANCH   7  19
ENDBRANCH   3   6
ENDBRANCH   1   2
BRANCH   1  31
ATOM     31  C   UNL A   1      31.432  31.758  26.431  1.00  0.00     0.042 C 
BRANCH  31  32
ATOM     32  C   UNL A   1      32.565  32.218  27.340  1.00  0.00     0.118 C 
BRANCH  32  33
ATOM     33  N   UNL A   1      32.578  33.669  27.431  1.00  0.00    -0.352 N 
ATOM     34  C   UNL A   1      33.192  34.426  28.401  1.00  0.00     0.251 C 
ATOM     35  H   UNL A   1      32.098  34.161  26.724  1.00  0.00     0.163 HD
ATOM     36  O   UNL A   1      32.797  35.560  28.647  1.00  0.00    -0.269 OA
BRANCH  34  37
ATOM     37  C   UNL A   1      34.322  33.831  29.142  1.00  0.00     0.039 A 
ATOM     38  C   UNL A   1      34.088  32.869  30.125  1.00  0.00     0.014 A 
ATOM     39  C   UNL A   1      35.628  34.222  28.827  1.00  0.00     0.014 A 
ATOM     40  C   UNL A   1      35.175  32.271  30.768  1.00  0.00     0.010 A 
ATOM     41  C   UNL A   1      36.703  33.553  29.392  1.00  0.00     0.010 A 
ATOM     42  C   UNL A   1      36.491  32.591  30.390  1.00  0.00    -0.014 A 
BRANCH  42  43
ATOM     43  C   UNL A   1      37.671  31.993  31.066  1.00  0.00     0.031 A 
ATOM     44  C   UNL A   1      38.505  30.978  30.328  1.00  0.00     0.074 A 
ATOM     45  C   UNL A   1      37.953  32.306  32.345  1.00  0.00     0.049 A 
ATOM     46  N   UNL A   1      39.500  30.248  30.760  1.00  0.00    -0.248 NA
ATOM     47  C   UNL A   1      38.136  30.722  28.926  1.00  0.00     0.031 C 
ATOM     48  C   UNL A   1      37.204  33.255  33.170  1.00  0.00     0.029 A 
ATOM     49  N   UNL A   1      38.945  31.855  33.177  1.00  0.00    -0.354 N 
ATOM     50  C   UNL A   1      39.863  29.437  29.689  1.00  0.00     0.074 A 
ATOM     51  C   UNL A   1      38.923  29.703  28.623  1.00  0.00     0.031 C 
ATOM     52  C   UNL A   1      37.786  33.342  34.377  1.00  0.00     0.029 A 
ATOM     53  C   UNL A   1      38.914  32.417  34.433  1.00  0.00     0.049 A 
ATOM     54  H   UNL A   1      39.618  31.190  32.903  1.00  0.00     0.167 HD
ATOM     55  C   UNL A   1      40.905  28.574  29.591  1.00  0.00     0.034 A 
ATOM     56  C   UNL A   1      39.698  32.201  35.507  1.00  0.00     0.034 A 
ATOM     57  C   UNL A   1      41.840  28.333  30.662  1.00  0.00     0.049 A 
ATOM     58  C   UNL A   1      40.821  31.197  35.395  1.00  0.00     0.074 A 
ATOM     59  C   UNL A   1      42.953  27.512  30.668  1.00  0.00     0.029 A 
ATOM     60  N   UNL A   1      41.765  28.911  31.924  1.00  0.00    -0.354 N 
ATOM     61  N   UNL A   1      41.172  30.460  34.367  1.00  0.00    -0.248 NA
ATOM     62  C   UNL A   1      41.655  31.004  36.588  1.00  0.00     0.031 C 
ATOM     63  C   UNL A   1      43.506  27.536  31.952  1.00  0.00     0.029 A 
ATOM     64  C   UNL A   1      42.794  28.440  32.725  1.00  0.00     0.049 A 
ATOM     65  H   UNL A   1      41.081  29.560  32.209  1.00  0.00     0.167 HD
ATOM     66  C   UNL A   1      42.296  29.747  34.778  1.00  0.00     0.074 A 
ATOM     67  C   UNL A   1      42.564  30.148  36.144  1.00  0.00     0.031 C 
ATOM     68  C   UNL A   1      43.045  28.850  34.087  1.00  0.00     0.034 A 
BRANCH  55  69
ATOM     69  C   UNL A   1      41.062  27.825  28.287  1.00  0.00     0.023 A 
ATOM     70  C   UNL A   1      40.695  26.472  28.166  1.00  0.00     0.031 A 
ATOM     71  C   UNL A   1      41.638  28.450  27.167  1.00  0.00     0.131 A 
ATOM     72  C   UNL A   1      41.002  25.763  26.995  1.00  0.00     0.055 A 
ATOM     73  C   UNL A   1      41.848  27.764  25.968  1.00  0.00     0.041 A 
ATOM     74  F   UNL A   1      42.030  29.732  27.223  1.00  0.00    -0.206 F 
ATOM     75  C   UNL A   1      41.549  26.407  25.884  1.00  0.00     0.022 A 
BRANCH  72  76
ATOM     76  S   UNL A   1      40.844  23.957  27.015  1.00  0.00     0.124 S 
ATOM     77  O   UNL A   1      41.278  23.640  28.374  1.00  0.00    -0.237 OA
ATOM     78  O   UNL A   1      39.428  23.760  26.735  1.00  0.00    -0.237 OA
ATOM     79  O   UNL A   1      41.758  23.521  25.961  1.00  0.00    -0.744 OA
ENDBRANCH  72  76
ENDBRANCH  55  69
BRANCH  56  80
ATOM     80  C   UNL A   1      39.465  32.946  36.777  1.00  0.00     0.023 A 
ATOM     81  C   UNL A   1      40.153  34.140  37.047  1.00  0.00     0.031 A 
ATOM     82  C   UNL A   1      38.582  32.459  37.759  1.00  0.00     0.131 A 
ATOM     83  C   UNL A   1      39.985  34.782  38.283  1.00  0.00     0.055 A 
ATOM     84  C   UNL A   1      38.376  33.133  38.964  1.00  0.00     0.041 A 
ATOM     85  F   UNL A   1      37.897  31.324  37.552  1.00  0.00    -0.206 F 
ATOM     86  C   UNL A   1      39.090  34.294  39.237  1.00  0.00     0.022 A 
BRANCH  83  87
ATOM     87  S   UNL A   1      41.025  36.220  38.661  1.00  0.00     0.124 S 
ATOM     88  O   UNL A   1      42.129  36.040  37.725  1.00  0.00    -0.237 OA
ATOM     89  O   UNL A   1      40.120  37.330  38.382  1.00  0.00    -0.237 OA
ATOM     90  O   UNL A   1      41.363  36.032  40.070  1.00  0.00    -0.744 OA
ENDBRANCH  83  87
ENDBRANCH  56  80
BRANCH  68  91
ATOM     91  C   UNL A   1      44.263  28.287  34.779  1.00  0.00     0.023 A 
ATOM     92  C   UNL A   1      44.213  27.098  35.527  1.00  0.00     0.031 A 
ATOM     93  C   UNL A   1      45.497  28.956  34.680  1.00  0.00     0.131 A 
ATOM     94  C   UNL A   1      45.364  26.641  36.188  1.00  0.00     0.055 A 
ATOM     95  C   UNL A   1      46.652  28.461  35.285  1.00  0.00     0.041 A 
ATOM     96  F   UNL A   1      45.602  30.098  33.983  1.00  0.00    -0.206 F 
ATOM     97  C   UNL A   1      46.587  27.304  36.055  1.00  0.00     0.022 A 
BRANCH  94  98
ATOM     98  S   UNL A   1      45.222  25.215  37.299  1.00  0.00     0.124 S 
ATOM     99  O   UNL A   1      46.057  25.622  38.424  1.00  0.00    -0.237 OA
ATOM    100  O   UNL A   1      43.786  25.161  37.559  1.00  0.00    -0.237 OA
ATOM    101  O   UNL A   1      45.749  24.106  36.505  1.00  0.00    -0.744 OA
ENDBRANCH  94  98
ENDBRANCH  68  91
ENDBRANCH  42  43
ENDBRANCH  34  37
ENDBRANCH  32  33
ENDBRANCH  31  32
ENDBRANCH   1  31
TORSDOF 18
ENDMDL
MODEL 3
REMARK VINA RESULT:     -11.6      2.021      2.947
REMARK SMILES CCOc1cc(C[NH+]2CCC3(CC2)[C@H](C(=O)NCCCNC(=O)c2ccc(-c4c5nc(c(-c6cc(S(=O)(=O)[O-])ccc6F)c6ccc([nH]6)c(-c6cc(S(=O)(=O)[O-])ccc6F)c6nc(c(-c7cc(S(=O)(=O)[O-])ccc7F)c7ccc4[nH]7)C=C6)C=C5)cc2)CC(=O)N3C)ccc1OC
REMARK SMILES IDX 18 1 17 2 15 3 16 4 14 6 8 7 9 8 13 9 10 11 12 12 11 13
REMARK SMILES IDX 90 14 87 15 88 16 91 17 89 18 7 19 6 20 4 21 5 22 94 23
REMARK SMILES IDX 93 24 92 25 3 26 2 27 1 28 95 29 96 30 19 31 20 32 21 33
REMARK SMILES IDX 22 34 23 36 24 37 25 38 86 39 26 40 85 41 27 42 28 43 29 44
REMARK SMILES IDX 79 45 30 46 84 47 78 48 80 49 31 50 83 51 77 52 76 53 32 55
REMARK SMILES IDX 64 56 44 57 63 58 45 59 48 60 62 61 81 62 46 63 47 64 61 66
REMARK SMILES IDX 82 67 49 68 33 69 34 70 42 71 35 72 41 73 43 74 40 75 36 76
REMARK SMILES IDX 37 77 38 78 39 79 65 80 66 81 74 82 67 83 73 84 75 85 72 86
REMARK SMILES IDX 68 87 69 88 70 89 71 90 50 91 51 92 59 93 52 94 58 95 60 96
REMARK SMILES IDX 57 97 53 98 54 99 55 100 56 101
REMARK H PARENT 17 5 8 10 21 35 80 54 48 65
REMARK Flexibility Score: inf
ROOT
ATOM      1  C   UNL A   1      31.634  29.775  25.388  1.00  0.00     0.117 C 
ENDROOT
BRANCH   1   2
ATOM      2  N   UNL A   1      32.696  29.691  24.400  1.00  0.00    -0.356 N 
ATOM      3  C   UNL A   1      32.971  28.933  23.324  1.00  0.00     0.226 C 
ATOM      4  O   UNL A   1      34.048  29.207  22.784  1.00  0.00    -0.275 OA
ATOM      5  H   UNL A   1      33.395  30.365  24.559  1.00  0.00     0.163 HD
BRANCH   3   6
ATOM      6  C   UNL A   1      32.071  27.863  22.707  1.00  0.00     0.114 C 
ATOM      7  N   UNL A   1      32.872  23.872  24.070  1.00  0.00    -0.331 N 
ATOM      8  C   UNL A   1      32.891  24.889  25.104  1.00  0.00     0.265 C 
ATOM      9  C   UNL A   1      31.724  23.995  23.190  1.00  0.00     0.265 C 
ATOM     10  H   UNL A   1      32.700  22.990  24.554  1.00  0.00     0.348 HD
ATOM     11  C   UNL A   1      32.795  26.305  24.555  1.00  0.00     0.091 C 
ATOM     12  C   UNL A   1      31.470  25.379  22.573  1.00  0.00     0.091 C 
ATOM     13  C   UNL A   1      31.690  26.592  23.521  1.00  0.00     0.065 C 
ATOM     14  N   UNL A   1      30.375  27.002  24.035  1.00  0.00    -0.339 N 
ATOM     15  C   UNL A   1      30.765  28.474  22.232  1.00  0.00     0.116 C 
ATOM     16  C   UNL A   1      29.774  27.995  23.251  1.00  0.00     0.223 C 
ATOM     17  C   UNL A   1      29.557  26.241  24.953  1.00  0.00     0.147 C 
ATOM     18  O   UNL A   1      28.631  28.399  23.343  1.00  0.00    -0.275 OA
BRANCH   7  19
ATOM     19  C   UNL A   1      34.168  23.478  23.495  1.00  0.00     0.299 C 
BRANCH  19  20
ATOM     20  C   UNL A   1      34.885  22.308  24.139  1.00  0.00     0.010 A 
ATOM     21  C   UNL A   1      34.844  19.975  24.832  1.00  0.00     0.161 A 
ATOM     22  C   UNL A   1      34.176  21.184  24.593  1.00  0.00     0.060 A 
ATOM     23  C   UNL A   1      36.243  19.935  24.823  1.00  0.00     0.160 A 
ATOM     24  C   UNL A   1      36.951  21.112  24.561  1.00  0.00     0.051 A 
ATOM     25  C   UNL A   1      36.285  22.277  24.182  1.00  0.00     0.013 A 
BRANCH  21  26
ATOM     26  O   UNL A   1      34.160  18.800  24.730  1.00  0.00    -0.490 OA
BRANCH  26  27
ATOM     27  C   UNL A   1      32.987  18.606  25.498  1.00  0.00     0.226 C 
ATOM     28  C   UNL A   1      32.754  17.099  25.470  1.00  0.00     0.049 C 
ENDBRANCH  26  27
ENDBRANCH  21  26
BRANCH  23  29
ATOM     29  O   UNL A   1      37.057  18.853  25.028  1.00  0.00    -0.493 OA
ATOM     30  C   UNL A   1      38.428  19.075  25.324  1.00  0.00     0.278 C 
ENDBRANCH  23  29
ENDBRANCH  19  20
ENDBRANCH   7  19
ENDBRANCH   3   6
ENDBRANCH   1   2
BRANCH   1  31
ATOM     31  C   UNL A   1      32.022  29.184  26.741  1.00  0.00     0.042 C 
BRANCH  31  32
ATOM     32  C   UNL A   1      33.402  29.620  27.217  1.00  0.00     0.118 C 
BRANCH  32  33
ATOM     33  N   UNL A   1      33.439  31.063  27.393  1.00  0.00    -0.352 N 
ATOM     34  C   UNL A   1      34.255  31.765  28.250  1.00  0.00     0.251 C 
ATOM     35  H   UNL A   1      32.816  31.592  26.843  1.00  0.00     0.163 HD
ATOM     36  O   UNL A   1      33.927  32.877  28.647  1.00  0.00    -0.269 OA
BRANCH  34  37
ATOM     37  C   UNL A   1      35.519  31.138  28.684  1.00  0.00     0.039 A 
ATOM     38  C   UNL A   1      36.727  31.517  28.097  1.00  0.00     0.014 A 
ATOM     39  C   UNL A   1      35.493  30.183  29.706  1.00  0.00     0.014 A 
ATOM     40  C   UNL A   1      37.919  30.959  28.568  1.00  0.00     0.010 A 
ATOM     41  C   UNL A   1      36.684  29.712  30.238  1.00  0.00     0.010 A 
ATOM     42  C   UNL A   1      37.909  30.071  29.657  1.00  0.00    -0.014 A 
BRANCH  42  43
ATOM     43  C   UNL A   1      39.152  29.440  30.170  1.00  0.00     0.031 A 
ATOM     44  C   UNL A   1      39.774  29.967  31.438  1.00  0.00     0.074 A 
ATOM     45  C   UNL A   1      39.751  28.454  29.476  1.00  0.00     0.049 A 
ATOM     46  N   UNL A   1      40.912  29.648  31.999  1.00  0.00    -0.248 NA
ATOM     47  C   UNL A   1      39.033  31.026  32.141  1.00  0.00     0.031 C 
ATOM     48  C   UNL A   1      39.257  27.878  28.224  1.00  0.00     0.029 A 
ATOM     49  N   UNL A   1      40.909  27.763  29.723  1.00  0.00    -0.354 N 
ATOM     50  C   UNL A   1      41.028  30.479  33.110  1.00  0.00     0.074 A 
ATOM     51  C   UNL A   1      39.890  31.373  33.085  1.00  0.00     0.031 C 
ATOM     52  C   UNL A   1      40.087  26.898  27.834  1.00  0.00     0.029 A 
ATOM     53  C   UNL A   1      41.201  26.810  28.775  1.00  0.00     0.049 A 
ATOM     54  H   UNL A   1      41.480  27.933  30.508  1.00  0.00     0.167 HD
ATOM     55  C   UNL A   1      41.976  30.476  34.080  1.00  0.00     0.034 A 
ATOM     56  C   UNL A   1      42.250  25.972  28.672  1.00  0.00     0.034 A 
ATOM     57  C   UNL A   1      43.094  29.567  34.092  1.00  0.00     0.049 A 
ATOM     58  C   UNL A   1      43.324  26.019  29.732  1.00  0.00     0.074 A 
ATOM     59  C   UNL A   1      44.097  29.444  35.037  1.00  0.00     0.029 A 
ATOM     60  N   UNL A   1      43.363  28.626  33.104  1.00  0.00    -0.354 N 
ATOM     61  N   UNL A   1      43.405  26.789  30.793  1.00  0.00    -0.248 NA
ATOM     62  C   UNL A   1      44.442  25.079  29.583  1.00  0.00     0.031 C 
ATOM     63  C   UNL A   1      45.008  28.484  34.586  1.00  0.00     0.029 A 
ATOM     64  C   UNL A   1      44.531  27.942  33.403  1.00  0.00     0.049 A 
ATOM     65  H   UNL A   1      42.805  28.469  32.308  1.00  0.00     0.167 HD
ATOM     66  C   UNL A   1      44.563  26.393  31.460  1.00  0.00     0.074 A 
ATOM     67  C   UNL A   1      45.141  25.317  30.683  1.00  0.00     0.031 C 
ATOM     68  C   UNL A   1      45.094  26.871  32.615  1.00  0.00     0.034 A 
BRANCH  55  69
ATOM     69  C   UNL A   1      41.839  31.500  35.183  1.00  0.00     0.023 A 
ATOM     70  C   UNL A   1      40.762  31.468  36.089  1.00  0.00     0.031 A 
ATOM     71  C   UNL A   1      42.761  32.555  35.300  1.00  0.00     0.131 A 
ATOM     72  C   UNL A   1      40.576  32.522  36.996  1.00  0.00     0.055 A 
ATOM     73  C   UNL A   1      42.625  33.547  36.274  1.00  0.00     0.041 A 
ATOM     74  F   UNL A   1      43.798  32.656  34.454  1.00  0.00    -0.206 F 
ATOM     75  C   UNL A   1      41.516  33.546  37.115  1.00  0.00     0.022 A 
BRANCH  72  76
ATOM     76  S   UNL A   1      38.999  32.624  37.885  1.00  0.00     0.124 S 
ATOM     77  O   UNL A   1      38.379  33.784  37.248  1.00  0.00    -0.237 OA
ATOM     78  O   UNL A   1      38.388  31.333  37.595  1.00  0.00    -0.237 OA
ATOM     79  O   UNL A   1      39.401  32.829  39.275  1.00  0.00    -0.744 OA
ENDBRANCH  72  76
ENDBRANCH  55  69
BRANCH  56  80
ATOM     80  C   UNL A   1      42.344  25.012  27.535  1.00  0.00     0.023 A 
ATOM     81  C   UNL A   1      41.816  23.715  27.645  1.00  0.00     0.031 A 
ATOM     82  C   UNL A   1      42.994  25.358  26.336  1.00  0.00     0.131 A 
ATOM     83  C   UNL A   1      41.987  22.797  26.597  1.00  0.00     0.055 A 
ATOM     84  C   UNL A   1      43.112  24.458  25.275  1.00  0.00     0.041 A 
ATOM     85  F   UNL A   1      43.514  26.584  26.176  1.00  0.00    -0.206 F 
ATOM     86  C   UNL A   1      42.619  23.165  25.408  1.00  0.00     0.022 A 
BRANCH  83  87
ATOM     87  S   UNL A   1      41.450  21.083  26.850  1.00  0.00     0.124 S 
ATOM     88  O   UNL A   1      40.057  21.265  27.243  1.00  0.00    -0.237 OA
ATOM     89  O   UNL A   1      41.676  20.498  25.533  1.00  0.00    -0.237 OA
ATOM     90  O   UNL A   1      42.339  20.602  27.905  1.00  0.00    -0.744 OA
ENDBRANCH  83  87
ENDBRANCH  56  80
BRANCH  68  91
ATOM     91  C   UNL A   1      46.335  26.188  33.138  1.00  0.00     0.023 A 
ATOM     92  C   UNL A   1      46.271  25.014  33.909  1.00  0.00     0.031 A 
ATOM     93  C   UNL A   1      47.604  26.723  32.852  1.00  0.00     0.131 A 
ATOM     94  C   UNL A   1      47.451  24.443  34.409  1.00  0.00     0.055 A 
ATOM     95  C   UNL A   1      48.777  26.114  33.297  1.00  0.00     0.041 A 
ATOM     96  F   UNL A   1      47.725  27.845  32.124  1.00  0.00    -0.206 F 
ATOM     97  C   UNL A   1      48.704  24.973  34.091  1.00  0.00     0.022 A 
BRANCH  94  98
ATOM     98  S   UNL A   1      47.324  23.045  35.557  1.00  0.00     0.124 S 
ATOM     99  O   UNL A   1      47.142  21.920  34.645  1.00  0.00    -0.237 OA
ATOM    100  O   UNL A   1      48.604  23.096  36.256  1.00  0.00    -0.237 OA
ATOM    101  O   UNL A   1      46.158  23.375  36.375  1.00  0.00    -0.744 OA
ENDBRANCH  94  98
ENDBRANCH  68  91
ENDBRANCH  42  43
ENDBRANCH  34  37
ENDBRANCH  32  33
ENDBRANCH  31  32
ENDBRANCH   1  31
TORSDOF 18
ENDMDL
