MODEL 1
REMARK VINA RESULT:     -12.4      0.000      0.000
REMARK SMILES C[C@@H]1CCC[C@H]1NC(=O)c1csc(/C=C/C(=O)NCCCNC(=O)c2ccc(-c3c4nc(c(-c5cc(S(=O)(=O)[O-])ccc5F)c5ccc([nH]5)c(-c5cc(S(=O)(=O)[O-])ccc5F)c5nc(c(-c6cc(S(=O)(=O)[O-])ccc6F)c6ccc3[nH]6)C=C5)C=C4)cc2)c1
REMARK SMILES IDX 20 1 19 2 18 3 16 4 17 5 15 7 14 8 13 9 10 10 11 11 88 12
REMARK SMILES IDX 12 13 8 14 7 15 9 17 6 18 1 19 2 20 3 21 4 22 5 23 21 24
REMARK SMILES IDX 22 25 23 26 24 28 25 29 26 30 87 31 27 32 86 33 28 34 29 35
REMARK SMILES IDX 30 36 80 37 31 38 85 39 79 40 81 41 32 42 84 43 78 44 77 45
REMARK SMILES IDX 33 47 65 48 45 49 64 50 46 51 49 52 63 53 82 54 47 55 48 56
REMARK SMILES IDX 62 58 83 59 50 60 34 61 35 62 43 63 36 64 42 65 44 66 41 67
REMARK SMILES IDX 37 68 38 69 39 70 40 71 66 72 67 73 75 74 68 75 74 76 76 77
REMARK SMILES IDX 73 78 69 79 70 80 71 81 72 82 51 83 52 84 60 85 53 86 59 87
REMARK SMILES IDX 61 88 58 89 54 90 55 91 56 92 57 93
REMARK H PARENT 18 6 7 16 22 27 81 46 49 57
REMARK Flexibility Score: inf
ROOT
ATOM      1  C   UNL A   1      31.405  32.055  26.566  1.00  0.00     0.042 C 
ENDROOT
BRANCH   1   2
ATOM      2  C   UNL A   1      31.533  30.610  26.086  1.00  0.00     0.118 C 
BRANCH   2   3
ATOM      3  N   UNL A   1      31.033  30.455  24.729  1.00  0.00    -0.352 N 
ATOM      4  C   UNL A   1      30.766  29.337  24.002  1.00  0.00     0.244 C 
ATOM      5  O   UNL A   1      30.228  29.436  22.902  1.00  0.00    -0.270 OA
ATOM      6  H   UNL A   1      30.857  31.301  24.257  1.00  0.00     0.163 HD
BRANCH   4   7
ATOM      7  C   UNL A   1      31.019  27.994  24.564  1.00  0.00     0.072 C 
ATOM      8  C   UNL A   1      32.195  27.359  24.462  1.00  0.00     0.024 C 
BRANCH   8   9
ATOM      9  C   UNL A   1      32.453  26.090  25.057  1.00  0.00     0.028 A 
ATOM     10  C   UNL A   1      32.065  23.935  25.944  1.00  0.00     0.051 A 
ATOM     11  C   UNL A   1      33.420  24.093  26.161  1.00  0.00     0.079 A 
ATOM     12  C   UNL A   1      31.531  25.078  25.264  1.00  0.00     0.033 A 
ATOM     13  S   UNL A   1      33.994  25.620  25.657  1.00  0.00    -0.144 S 
BRANCH  10  14
ATOM     14  C   UNL A   1      31.290  22.752  26.286  1.00  0.00     0.252 C 
ATOM     15  N   UNL A   1      31.611  21.551  25.707  1.00  0.00    -0.349 N 
ATOM     16  H   UNL A   1      30.997  20.809  25.916  1.00  0.00     0.164 HD
ATOM     17  O   UNL A   1      30.381  22.795  27.111  1.00  0.00    -0.269 OA
BRANCH  15  18
ATOM     18  C   UNL A   1      32.724  21.206  24.827  1.00  0.00     0.085 C 
ATOM     19  C   UNL A   1      35.116  20.371  24.890  1.00  0.00     0.010 C 
ATOM     20  C   UNL A   1      33.730  20.288  25.535  1.00  0.00     0.008 C 
ATOM     21  C   UNL A   1      33.113  18.899  25.372  1.00  0.00     0.005 C 
ATOM     22  C   UNL A   1      32.431  18.915  24.008  1.00  0.00     0.002 C 
ATOM     23  C   UNL A   1      32.217  20.384  23.640  1.00  0.00     0.025 C 
ENDBRANCH  15  18
ENDBRANCH  10  14
ENDBRANCH   8   9
ENDBRANCH   4   7
ENDBRANCH   2   3
ENDBRANCH   1   2
BRANCH   1  24
ATOM     24  C   UNL A   1      32.667  32.585  27.245  1.00  0.00     0.118 C 
BRANCH  24  25
ATOM     25  N   UNL A   1      32.542  33.991  27.604  1.00  0.00    -0.352 N 
ATOM     26  C   UNL A   1      33.169  34.712  28.589  1.00  0.00     0.251 C 
ATOM     27  H   UNL A   1      31.909  34.505  27.053  1.00  0.00     0.163 HD
ATOM     28  O   UNL A   1      32.740  35.828  28.871  1.00  0.00    -0.269 OA
BRANCH  26  29
ATOM     29  C   UNL A   1      34.335  34.159  29.313  1.00  0.00     0.039 A 
ATOM     30  C   UNL A   1      34.112  33.370  30.445  1.00  0.00     0.014 A 
ATOM     31  C   UNL A   1      35.644  34.451  28.917  1.00  0.00     0.014 A 
ATOM     32  C   UNL A   1      35.194  32.831  31.145  1.00  0.00     0.010 A 
ATOM     33  C   UNL A   1      36.720  33.856  29.573  1.00  0.00     0.010 A 
ATOM     34  C   UNL A   1      36.508  33.043  30.697  1.00  0.00    -0.014 A 
BRANCH  34  35
ATOM     35  C   UNL A   1      37.669  32.426  31.392  1.00  0.00     0.031 A 
ATOM     36  C   UNL A   1      38.411  31.280  30.757  1.00  0.00     0.074 A 
ATOM     37  C   UNL A   1      38.015  32.859  32.621  1.00  0.00     0.049 A 
ATOM     38  N   UNL A   1      39.391  30.559  31.239  1.00  0.00    -0.248 NA
ATOM     39  C   UNL A   1      37.972  30.874  29.415  1.00  0.00     0.031 C 
ATOM     40  C   UNL A   1      37.347  33.937  33.354  1.00  0.00     0.029 A 
ATOM     41  N   UNL A   1      39.002  32.440  33.477  1.00  0.00    -0.354 N 
ATOM     42  C   UNL A   1      39.676  29.605  30.267  1.00  0.00     0.074 A 
ATOM     43  C   UNL A   1      38.723  29.807  29.195  1.00  0.00     0.031 C 
ATOM     44  C   UNL A   1      37.957  34.108  34.537  1.00  0.00     0.029 A 
ATOM     45  C   UNL A   1      39.025  33.124  34.672  1.00  0.00     0.049 A 
ATOM     46  H   UNL A   1      39.634  31.718  33.258  1.00  0.00     0.167 HD
ATOM     47  C   UNL A   1      40.653  28.664  30.261  1.00  0.00     0.034 A 
ATOM     48  C   UNL A   1      39.806  32.964  35.758  1.00  0.00     0.034 A 
ATOM     49  C   UNL A   1      41.601  28.486  31.336  1.00  0.00     0.049 A 
ATOM     50  C   UNL A   1      40.870  31.897  35.738  1.00  0.00     0.074 A 
ATOM     51  C   UNL A   1      42.665  27.604  31.411  1.00  0.00     0.029 A 
ATOM     52  N   UNL A   1      41.595  29.199  32.530  1.00  0.00    -0.354 N 
ATOM     53  N   UNL A   1      41.158  31.035  34.790  1.00  0.00    -0.248 NA
ATOM     54  C   UNL A   1      41.720  31.788  36.931  1.00  0.00     0.031 C 
ATOM     55  C   UNL A   1      43.256  27.733  32.672  1.00  0.00     0.029 A 
ATOM     56  C   UNL A   1      42.614  28.753  33.357  1.00  0.00     0.049 A 
ATOM     57  H   UNL A   1      40.959  29.916  32.754  1.00  0.00     0.167 HD
ATOM     58  C   UNL A   1      42.244  30.302  35.262  1.00  0.00     0.074 A 
ATOM     59  C   UNL A   1      42.567  30.835  36.569  1.00  0.00     0.031 C 
ATOM     60  C   UNL A   1      42.917  29.285  34.666  1.00  0.00     0.034 A 
BRANCH  47  61
ATOM     61  C   UNL A   1      40.722  27.739  29.067  1.00  0.00     0.023 A 
ATOM     62  C   UNL A   1      41.666  27.923  28.042  1.00  0.00     0.031 A 
ATOM     63  C   UNL A   1      39.816  26.671  28.939  1.00  0.00     0.131 A 
ATOM     64  C   UNL A   1      41.632  27.108  26.901  1.00  0.00     0.055 A 
ATOM     65  C   UNL A   1      39.842  25.810  27.840  1.00  0.00     0.041 A 
ATOM     66  F   UNL A   1      38.877  26.454  29.874  1.00  0.00    -0.206 F 
ATOM     67  C   UNL A   1      40.742  26.036  26.804  1.00  0.00     0.022 A 
BRANCH  64  68
ATOM     68  S   UNL A   1      42.665  27.563  25.480  1.00  0.00     0.124 S 
ATOM     69  O   UNL A   1      43.922  27.921  26.133  1.00  0.00    -0.237 OA
ATOM     70  O   UNL A   1      42.679  26.334  24.695  1.00  0.00    -0.237 OA
ATOM     71  O   UNL A   1      41.944  28.681  24.876  1.00  0.00    -0.744 OA
ENDBRANCH  64  68
ENDBRANCH  47  61
BRANCH  48  72
ATOM     72  C   UNL A   1      39.609  33.823  36.962  1.00  0.00     0.023 A 
ATOM     73  C   UNL A   1      38.983  33.323  38.114  1.00  0.00     0.031 A 
ATOM     74  C   UNL A   1      40.011  35.171  36.963  1.00  0.00     0.131 A 
ATOM     75  C   UNL A   1      38.734  34.174  39.201  1.00  0.00     0.055 A 
ATOM     76  C   UNL A   1      39.810  36.000  38.068  1.00  0.00     0.041 A 
ATOM     77  F   UNL A   1      40.620  35.700  35.890  1.00  0.00    -0.206 F 
ATOM     78  C   UNL A   1      39.156  35.505  39.192  1.00  0.00     0.022 A 
BRANCH  75  79
ATOM     79  S   UNL A   1      37.771  33.536  40.600  1.00  0.00     0.124 S 
ATOM     80  O   UNL A   1      38.672  32.527  41.145  1.00  0.00    -0.237 OA
ATOM     81  O   UNL A   1      37.585  34.735  41.410  1.00  0.00    -0.237 OA
ATOM     82  O   UNL A   1      36.559  33.019  39.970  1.00  0.00    -0.744 OA
ENDBRANCH  75  79
ENDBRANCH  48  72
BRANCH  60  83
ATOM     83  C   UNL A   1      44.099  28.715  35.413  1.00  0.00     0.023 A 
ATOM     84  C   UNL A   1      43.961  27.637  36.306  1.00  0.00     0.031 A 
ATOM     85  C   UNL A   1      45.379  29.271  35.240  1.00  0.00     0.131 A 
ATOM     86  C   UNL A   1      45.074  27.187  37.034  1.00  0.00     0.055 A 
ATOM     87  C   UNL A   1      46.493  28.779  35.920  1.00  0.00     0.041 A 
ATOM     88  F   UNL A   1      45.568  30.304  34.403  1.00  0.00    -0.206 F 
ATOM     89  C   UNL A   1      46.341  27.740  36.833  1.00  0.00     0.022 A 
BRANCH  86  90
ATOM     90  S   UNL A   1      44.823  25.932  38.319  1.00  0.00     0.124 S 
ATOM     91  O   UNL A   1      44.078  26.676  39.329  1.00  0.00    -0.237 OA
ATOM     92  O   UNL A   1      44.077  24.900  37.607  1.00  0.00    -0.237 OA
ATOM     93  O   UNL A   1      46.184  25.558  38.703  1.00  0.00    -0.744 OA
ENDBRANCH  86  90
ENDBRANCH  60  83
ENDBRANCH  34  35
ENDBRANCH  26  29
ENDBRANCH  24  25
ENDBRANCH   1  24
TORSDOF 16
ENDMDL
MODEL 2
REMARK VINA RESULT:     -12.4      2.484      3.344
REMARK SMILES C[C@@H]1CCC[C@H]1NC(=O)c1csc(/C=C/C(=O)NCCCNC(=O)c2ccc(-c3c4nc(c(-c5cc(S(=O)(=O)[O-])ccc5F)c5ccc([nH]5)c(-c5cc(S(=O)(=O)[O-])ccc5F)c5nc(c(-c6cc(S(=O)(=O)[O-])ccc6F)c6ccc3[nH]6)C=C5)C=C4)cc2)c1
REMARK SMILES IDX 20 1 19 2 18 3 16 4 17 5 15 7 14 8 13 9 10 10 11 11 88 12
REMARK SMILES IDX 12 13 8 14 7 15 9 17 6 18 1 19 2 20 3 21 4 22 5 23 21 24
REMARK SMILES IDX 22 25 23 26 24 28 25 29 26 30 87 31 27 32 86 33 28 34 29 35
REMARK SMILES IDX 30 36 80 37 31 38 85 39 79 40 81 41 32 42 84 43 78 44 77 45
REMARK SMILES IDX 33 47 65 48 45 49 64 50 46 51 49 52 63 53 82 54 47 55 48 56
REMARK SMILES IDX 62 58 83 59 50 60 34 61 35 62 43 63 36 64 42 65 44 66 41 67
REMARK SMILES IDX 37 68 38 69 39 70 40 71 66 72 67 73 75 74 68 75 74 76 76 77
REMARK SMILES IDX 73 78 69 79 70 80 71 81 72 82 51 83 52 84 60 85 53 86 59 87
REMARK SMILES IDX 61 88 58 89 54 90 55 91 56 92 57 93
REMARK H PARENT 18 6 7 16 22 27 81 46 49 57
REMARK Flexibility Score: inf
ROOT
ATOM      1  C   UNL A   1      32.573  28.882  23.949  1.00  0.00     0.042 C 
ENDROOT
BRANCH   1   2
ATOM      2  C   UNL A   1      33.787  28.367  23.178  1.00  0.00     0.118 C 
BRANCH   2   3
ATOM      3  N   UNL A   1      33.390  27.663  21.968  1.00  0.00    -0.352 N 
ATOM      4  C   UNL A   1      33.289  26.332  21.705  1.00  0.00     0.244 C 
ATOM      5  O   UNL A   1      32.811  25.954  20.639  1.00  0.00    -0.270 OA
ATOM      6  H   UNL A   1      33.152  28.249  21.212  1.00  0.00     0.163 HD
BRANCH   4   7
ATOM      7  C   UNL A   1      33.652  25.332  22.731  1.00  0.00     0.072 C 
ATOM      8  C   UNL A   1      32.794  24.422  23.211  1.00  0.00     0.024 C 
BRANCH   8   9
ATOM      9  C   UNL A   1      33.164  23.420  24.156  1.00  0.00     0.028 A 
ATOM     10  C   UNL A   1      34.270  21.556  25.094  1.00  0.00     0.051 A 
ATOM     11  C   UNL A   1      33.374  21.887  26.091  1.00  0.00     0.079 A 
ATOM     12  C   UNL A   1      34.168  22.479  24.003  1.00  0.00     0.033 A 
ATOM     13  S   UNL A   1      32.371  23.202  25.665  1.00  0.00    -0.144 S 
BRANCH  10  14
ATOM     14  C   UNL A   1      35.237  20.470  25.157  1.00  0.00     0.252 C 
ATOM     15  N   UNL A   1      34.817  19.186  24.924  1.00  0.00    -0.349 N 
ATOM     16  H   UNL A   1      35.501  18.491  25.063  1.00  0.00     0.164 HD
ATOM     17  O   UNL A   1      36.427  20.680  25.375  1.00  0.00    -0.269 OA
BRANCH  15  18
ATOM     18  C   UNL A   1      33.510  18.693  24.500  1.00  0.00     0.085 C 
ATOM     19  C   UNL A   1      32.318  17.704  22.494  1.00  0.00     0.010 C 
ATOM     20  C   UNL A   1      33.630  17.770  23.279  1.00  0.00     0.008 C 
ATOM     21  C   UNL A   1      33.989  16.418  23.895  1.00  0.00     0.005 C 
ATOM     22  C   UNL A   1      33.245  16.367  25.225  1.00  0.00     0.002 C 
ATOM     23  C   UNL A   1      32.903  17.811  25.594  1.00  0.00     0.025 C 
ENDBRANCH  15  18
ENDBRANCH  10  14
ENDBRANCH   8   9
ENDBRANCH   4   7
ENDBRANCH   2   3
ENDBRANCH   1   2
BRANCH   1  24
ATOM     24  C   UNL A   1      32.855  29.136  25.429  1.00  0.00     0.118 C 
BRANCH  24  25
ATOM     25  N   UNL A   1      32.433  30.467  25.841  1.00  0.00    -0.352 N 
ATOM     26  C   UNL A   1      32.875  31.255  26.876  1.00  0.00     0.251 C 
ATOM     27  H   UNL A   1      31.720  30.865  25.293  1.00  0.00     0.163 HD
ATOM     28  O   UNL A   1      32.218  32.244  27.190  1.00  0.00    -0.269 OA
BRANCH  26  29
ATOM     29  C   UNL A   1      34.114  30.920  27.612  1.00  0.00     0.039 A 
ATOM     30  C   UNL A   1      35.025  31.943  27.895  1.00  0.00     0.014 A 
ATOM     31  C   UNL A   1      34.409  29.605  27.983  1.00  0.00     0.014 A 
ATOM     32  C   UNL A   1      36.200  31.656  28.593  1.00  0.00     0.010 A 
ATOM     33  C   UNL A   1      35.546  29.332  28.740  1.00  0.00     0.010 A 
ATOM     34  C   UNL A   1      36.458  30.353  29.050  1.00  0.00    -0.014 A 
BRANCH  34  35
ATOM     35  C   UNL A   1      37.672  30.042  29.849  1.00  0.00     0.031 A 
ATOM     36  C   UNL A   1      38.731  29.125  29.294  1.00  0.00     0.074 A 
ATOM     37  C   UNL A   1      37.792  30.536  31.098  1.00  0.00     0.049 A 
ATOM     38  N   UNL A   1      39.815  28.670  29.867  1.00  0.00    -0.248 NA
ATOM     39  C   UNL A   1      38.523  28.634  27.925  1.00  0.00     0.031 C 
ATOM     40  C   UNL A   1      36.815  31.405  31.757  1.00  0.00     0.029 A 
ATOM     41  N   UNL A   1      38.776  30.371  32.040  1.00  0.00    -0.354 N 
ATOM     42  C   UNL A   1      40.412  27.827  28.934  1.00  0.00     0.074 A 
ATOM     43  C   UNL A   1      39.535  27.792  27.783  1.00  0.00     0.031 C 
ATOM     44  C   UNL A   1      37.259  31.714  32.985  1.00  0.00     0.029 A 
ATOM     45  C   UNL A   1      38.524  31.028  33.223  1.00  0.00     0.049 A 
ATOM     46  H   UNL A   1      39.586  29.834  31.884  1.00  0.00     0.167 HD
ATOM     47  C   UNL A   1      41.592  27.162  29.023  1.00  0.00     0.034 A 
ATOM     48  C   UNL A   1      39.225  31.060  34.374  1.00  0.00     0.034 A 
ATOM     49  C   UNL A   1      42.458  27.218  30.177  1.00  0.00     0.049 A 
ATOM     50  C   UNL A   1      40.520  30.295  34.458  1.00  0.00     0.074 A 
ATOM     51  C   UNL A   1      43.700  26.632  30.353  1.00  0.00     0.029 A 
ATOM     52  N   UNL A   1      42.172  27.896  31.357  1.00  0.00    -0.354 N 
ATOM     53  N   UNL A   1      41.096  29.542  33.549  1.00  0.00    -0.248 NA
ATOM     54  C   UNL A   1      41.266  30.393  35.719  1.00  0.00     0.031 C 
ATOM     55  C   UNL A   1      44.130  26.894  31.658  1.00  0.00     0.029 A 
ATOM     56  C   UNL A   1      43.196  27.713  32.274  1.00  0.00     0.049 A 
ATOM     57  H   UNL A   1      41.359  28.428  31.518  1.00  0.00     0.167 HD
ATOM     58  C   UNL A   1      42.287  29.102  34.120  1.00  0.00     0.074 A 
ATOM     59  C   UNL A   1      42.353  29.687  35.443  1.00  0.00     0.031 C 
ATOM     60  C   UNL A   1      43.242  28.292  33.596  1.00  0.00     0.034 A 
BRANCH  47  61
ATOM     61  C   UNL A   1      41.993  26.295  27.852  1.00  0.00     0.023 A 
ATOM     62  C   UNL A   1      41.546  24.968  27.725  1.00  0.00     0.031 A 
ATOM     63  C   UNL A   1      42.856  26.793  26.859  1.00  0.00     0.131 A 
ATOM     64  C   UNL A   1      42.023  24.163  26.680  1.00  0.00     0.055 A 
ATOM     65  C   UNL A   1      43.260  26.011  25.774  1.00  0.00     0.041 A 
ATOM     66  F   UNL A   1      43.334  28.045  26.933  1.00  0.00    -0.206 F 
ATOM     67  C   UNL A   1      42.857  24.683  25.689  1.00  0.00     0.022 A 
BRANCH  64  68
ATOM     68  S   UNL A   1      41.658  22.386  26.721  1.00  0.00     0.124 S 
ATOM     69  O   UNL A   1      40.199  22.386  26.784  1.00  0.00    -0.237 OA
ATOM     70  O   UNL A   1      42.245  21.915  25.472  1.00  0.00    -0.237 OA
ATOM     71  O   UNL A   1      42.327  21.927  27.937  1.00  0.00    -0.744 OA
ENDBRANCH  64  68
ENDBRANCH  47  61
BRANCH  48  72
ATOM     72  C   UNL A   1      38.716  31.831  35.546  1.00  0.00     0.023 A 
ATOM     73  C   UNL A   1      38.175  31.176  36.663  1.00  0.00     0.031 A 
ATOM     74  C   UNL A   1      38.730  33.238  35.548  1.00  0.00     0.131 A 
ATOM     75  C   UNL A   1      37.627  31.925  37.715  1.00  0.00     0.055 A 
ATOM     76  C   UNL A   1      38.232  33.978  36.622  1.00  0.00     0.041 A 
ATOM     77  F   UNL A   1      39.241  33.914  34.508  1.00  0.00    -0.206 F 
ATOM     78  C   UNL A   1      37.664  33.321  37.708  1.00  0.00     0.022 A 
BRANCH  75  79
ATOM     79  S   UNL A   1      36.783  31.046  39.059  1.00  0.00     0.124 S 
ATOM     80  O   UNL A   1      36.654  29.704  38.501  1.00  0.00    -0.237 OA
ATOM     81  O   UNL A   1      37.729  31.196  40.159  1.00  0.00    -0.237 OA
ATOM     82  O   UNL A   1      35.530  31.783  39.213  1.00  0.00    -0.744 OA
ENDBRANCH  75  79
ENDBRANCH  48  72
BRANCH  60  83
ATOM     83  C   UNL A   1      44.461  28.030  34.449  1.00  0.00     0.023 A 
ATOM     84  C   UNL A   1      44.529  26.937  35.330  1.00  0.00     0.031 A 
ATOM     85  C   UNL A   1      45.565  28.900  34.388  1.00  0.00     0.131 A 
ATOM     86  C   UNL A   1      45.651  26.775  36.156  1.00  0.00     0.055 A 
ATOM     87  C   UNL A   1      46.704  28.698  35.166  1.00  0.00     0.041 A 
ATOM     88  F   UNL A   1      45.553  29.963  33.567  1.00  0.00    -0.206 F 
ATOM     89  C   UNL A   1      46.746  27.638  36.067  1.00  0.00     0.022 A 
BRANCH  86  90
ATOM     90  S   UNL A   1      45.622  25.473  37.419  1.00  0.00     0.124 S 
ATOM     91  O   UNL A   1      45.724  24.263  36.609  1.00  0.00    -0.237 OA
ATOM     92  O   UNL A   1      46.789  25.798  38.232  1.00  0.00    -0.237 OA
ATOM     93  O   UNL A   1      44.333  25.667  38.082  1.00  0.00    -0.744 OA
ENDBRANCH  86  90
ENDBRANCH  60  83
ENDBRANCH  34  35
ENDBRANCH  26  29
ENDBRANCH  24  25
ENDBRANCH   1  24
TORSDOF 16
ENDMDL
MODEL 3
REMARK VINA RESULT:     -12.3      3.331      8.686
REMARK SMILES C[C@@H]1CCC[C@H]1NC(=O)c1csc(/C=C/C(=O)NCCCNC(=O)c2ccc(-c3c4nc(c(-c5cc(S(=O)(=O)[O-])ccc5F)c5ccc([nH]5)c(-c5cc(S(=O)(=O)[O-])ccc5F)c5nc(c(-c6cc(S(=O)(=O)[O-])ccc6F)c6ccc3[nH]6)C=C5)C=C4)cc2)c1
REMARK SMILES IDX 20 1 19 2 18 3 16 4 17 5 15 7 14 8 13 9 10 10 11 11 88 12
REMARK SMILES IDX 12 13 8 14 7 15 9 17 6 18 1 19 2 20 3 21 4 22 5 23 21 24
REMARK SMILES IDX 22 25 23 26 24 28 25 29 26 30 87 31 27 32 86 33 28 34 29 35
REMARK SMILES IDX 30 36 80 37 31 38 85 39 79 40 81 41 32 42 84 43 78 44 77 45
REMARK SMILES IDX 33 47 65 48 45 49 64 50 46 51 49 52 63 53 82 54 47 55 48 56
REMARK SMILES IDX 62 58 83 59 50 60 34 61 35 62 43 63 36 64 42 65 44 66 41 67
REMARK SMILES IDX 37 68 38 69 39 70 40 71 66 72 67 73 75 74 68 75 74 76 76 77
REMARK SMILES IDX 73 78 69 79 70 80 71 81 72 82 51 83 52 84 60 85 53 86 59 87
REMARK SMILES IDX 61 88 58 89 54 90 55 91 56 92 57 93
REMARK H PARENT 18 6 7 16 22 27 81 46 49 57
REMARK Flexibility Score: inf
ROOT
ATOM      1  C   UNL A   1      34.010  28.660  24.324  1.00  0.00     0.042 C 
ENDROOT
BRANCH   1   2
ATOM      2  C   UNL A   1      32.686  28.504  23.578  1.00  0.00     0.118 C 
BRANCH   2   3
ATOM      3  N   UNL A   1      32.878  27.879  22.278  1.00  0.00    -0.352 N 
ATOM      4  C   UNL A   1      33.288  26.625  21.946  1.00  0.00     0.244 C 
ATOM      5  O   UNL A   1      33.263  26.265  20.772  1.00  0.00    -0.270 OA
ATOM      6  H   UNL A   1      32.676  28.461  21.510  1.00  0.00     0.163 HD
BRANCH   4   7
ATOM      7  C   UNL A   1      33.665  25.653  22.993  1.00  0.00     0.072 C 
ATOM      8  C   UNL A   1      33.075  24.459  23.140  1.00  0.00     0.024 C 
BRANCH   8   9
ATOM      9  C   UNL A   1      33.482  23.500  24.112  1.00  0.00     0.028 A 
ATOM     10  C   UNL A   1      34.549  21.617  25.061  1.00  0.00     0.051 A 
ATOM     11  C   UNL A   1      33.816  22.097  26.128  1.00  0.00     0.079 A 
ATOM     12  C   UNL A   1      34.381  22.465  23.917  1.00  0.00     0.033 A 
ATOM     13  S   UNL A   1      32.874  23.462  25.719  1.00  0.00    -0.144 S 
BRANCH  10  14
ATOM     14  C   UNL A   1      35.428  20.458  25.096  1.00  0.00     0.252 C 
ATOM     15  N   UNL A   1      34.908  19.216  24.835  1.00  0.00    -0.349 N 
ATOM     16  H   UNL A   1      35.535  18.466  24.956  1.00  0.00     0.164 HD
ATOM     17  O   UNL A   1      36.631  20.569  25.316  1.00  0.00    -0.269 OA
BRANCH  15  18
ATOM     18  C   UNL A   1      33.565  18.837  24.404  1.00  0.00     0.085 C 
ATOM     19  C   UNL A   1      32.337  17.741  22.478  1.00  0.00     0.010 C 
ATOM     20  C   UNL A   1      33.613  17.749  23.322  1.00  0.00     0.008 C 
ATOM     21  C   UNL A   1      33.766  16.459  24.129  1.00  0.00     0.005 C 
ATOM     22  C   UNL A   1      32.967  16.683  25.409  1.00  0.00     0.002 C 
ATOM     23  C   UNL A   1      32.804  18.196  25.566  1.00  0.00     0.025 C 
ENDBRANCH  15  18
ENDBRANCH  10  14
ENDBRANCH   8   9
ENDBRANCH   4   7
ENDBRANCH   2   3
ENDBRANCH   1   2
BRANCH   1  24
ATOM     24  C   UNL A   1      33.851  28.711  25.842  1.00  0.00     0.118 C 
BRANCH  24  25
ATOM     25  N   UNL A   1      33.610  30.065  26.318  1.00  0.00    -0.352 N 
ATOM     26  C   UNL A   1      34.239  30.782  27.306  1.00  0.00     0.251 C 
ATOM     27  H   UNL A   1      32.881  30.542  25.860  1.00  0.00     0.163 HD
ATOM     28  O   UNL A   1      33.721  31.821  27.706  1.00  0.00    -0.269 OA
BRANCH  26  29
ATOM     29  C   UNL A   1      35.515  30.314  27.891  1.00  0.00     0.039 A 
ATOM     30  C   UNL A   1      35.496  29.720  29.157  1.00  0.00     0.014 A 
ATOM     31  C   UNL A   1      36.732  30.500  27.229  1.00  0.00     0.014 A 
ATOM     32  C   UNL A   1      36.685  29.265  29.731  1.00  0.00     0.010 A 
ATOM     33  C   UNL A   1      37.907  29.983  27.772  1.00  0.00     0.010 A 
ATOM     34  C   UNL A   1      37.898  29.363  29.031  1.00  0.00    -0.014 A 
BRANCH  34  35
ATOM     35  C   UNL A   1      39.163  28.828  29.600  1.00  0.00     0.031 A 
ATOM     36  C   UNL A   1      39.771  29.459  30.824  1.00  0.00     0.074 A 
ATOM     37  C   UNL A   1      39.794  27.812  28.977  1.00  0.00     0.049 A 
ATOM     38  N   UNL A   1      40.904  29.190  31.419  1.00  0.00    -0.248 NA
ATOM     39  C   UNL A   1      39.015  30.557  31.443  1.00  0.00     0.031 C 
ATOM     40  C   UNL A   1      39.322  27.144  27.763  1.00  0.00     0.029 A 
ATOM     41  N   UNL A   1      40.973  27.172  29.269  1.00  0.00    -0.354 N 
ATOM     42  C   UNL A   1      41.006  30.094  32.472  1.00  0.00     0.074 A 
ATOM     43  C   UNL A   1      39.845  30.955  32.394  1.00  0.00     0.031 C 
ATOM     44  C   UNL A   1      40.189  26.176  27.428  1.00  0.00     0.029 A 
ATOM     45  C   UNL A   1      41.303  26.184  28.369  1.00  0.00     0.049 A 
ATOM     46  H   UNL A   1      41.530  27.399  30.049  1.00  0.00     0.167 HD
ATOM     47  C   UNL A   1      41.968  30.183  33.425  1.00  0.00     0.034 A 
ATOM     48  C   UNL A   1      42.388  25.387  28.301  1.00  0.00     0.034 A 
ATOM     49  C   UNL A   1      43.114  29.308  33.491  1.00  0.00     0.049 A 
ATOM     50  C   UNL A   1      43.455  25.521  29.357  1.00  0.00     0.074 A 
ATOM     51  C   UNL A   1      44.118  29.271  34.443  1.00  0.00     0.029 A 
ATOM     52  N   UNL A   1      43.415  28.316  32.564  1.00  0.00    -0.354 N 
ATOM     53  N   UNL A   1      43.512  26.349  30.375  1.00  0.00    -0.248 NA
ATOM     54  C   UNL A   1      44.598  24.604  29.261  1.00  0.00     0.031 C 
ATOM     55  C   UNL A   1      45.059  28.312  34.055  1.00  0.00     0.029 A 
ATOM     56  C   UNL A   1      44.604  27.689  32.903  1.00  0.00     0.049 A 
ATOM     57  H   UNL A   1      42.863  28.093  31.779  1.00  0.00     0.167 HD
ATOM     58  C   UNL A   1      44.683  26.031  31.057  1.00  0.00     0.074 A 
ATOM     59  C   UNL A   1      45.291  24.926  30.344  1.00  0.00     0.031 C 
ATOM     60  C   UNL A   1      45.206  26.596  32.175  1.00  0.00     0.034 A 
BRANCH  47  61
ATOM     61  C   UNL A   1      41.832  31.286  34.451  1.00  0.00     0.023 A 
ATOM     62  C   UNL A   1      40.822  31.266  35.428  1.00  0.00     0.031 A 
ATOM     63  C   UNL A   1      42.710  32.385  34.436  1.00  0.00     0.131 A 
ATOM     64  C   UNL A   1      40.664  32.358  36.296  1.00  0.00     0.055 A 
ATOM     65  C   UNL A   1      42.599  33.428  35.358  1.00  0.00     0.041 A 
ATOM     66  F   UNL A   1      43.683  32.472  33.515  1.00  0.00    -0.206 F 
ATOM     67  C   UNL A   1      41.562  33.427  36.285  1.00  0.00     0.022 A 
BRANCH  64  68
ATOM     68  S   UNL A   1      39.179  32.428  37.337  1.00  0.00     0.124 S 
ATOM     69  O   UNL A   1      38.571  33.681  36.898  1.00  0.00    -0.237 OA
ATOM     70  O   UNL A   1      38.474  31.208  36.961  1.00  0.00    -0.237 OA
ATOM     71  O   UNL A   1      39.715  32.445  38.696  1.00  0.00    -0.744 OA
ENDBRANCH  64  68
ENDBRANCH  47  61
BRANCH  48  72
ATOM     72  C   UNL A   1      42.532  24.402  27.191  1.00  0.00     0.023 A 
ATOM     73  C   UNL A   1      41.953  23.126  27.276  1.00  0.00     0.031 A 
ATOM     74  C   UNL A   1      43.284  24.709  26.042  1.00  0.00     0.131 A 
ATOM     75  C   UNL A   1      42.173  22.188  26.256  1.00  0.00     0.055 A 
ATOM     76  C   UNL A   1      43.454  23.791  25.004  1.00  0.00     0.041 A 
ATOM     77  F   UNL A   1      43.853  25.917  25.906  1.00  0.00    -0.206 F 
ATOM     78  C   UNL A   1      42.908  22.516  25.115  1.00  0.00     0.022 A 
BRANCH  75  79
ATOM     79  S   UNL A   1      41.554  20.497  26.482  1.00  0.00     0.124 S 
ATOM     80  O   UNL A   1      42.309  19.767  25.470  1.00  0.00    -0.237 OA
ATOM     81  O   UNL A   1      41.914  20.228  27.870  1.00  0.00    -0.237 OA
ATOM     82  O   UNL A   1      40.121  20.623  26.225  1.00  0.00    -0.744 OA
ENDBRANCH  75  79
ENDBRANCH  48  72
BRANCH  60  83
ATOM     83  C   UNL A   1      46.481  25.994  32.715  1.00  0.00     0.023 A 
ATOM     84  C   UNL A   1      46.467  24.921  33.624  1.00  0.00     0.031 A 
ATOM     85  C   UNL A   1      47.728  26.515  32.326  1.00  0.00     0.131 A 
ATOM     86  C   UNL A   1      47.673  24.441  34.156  1.00  0.00     0.055 A 
ATOM     87  C   UNL A   1      48.927  25.992  32.811  1.00  0.00     0.041 A 
ATOM     88  F   UNL A   1      47.801  27.542  31.464  1.00  0.00    -0.206 F 
ATOM     89  C   UNL A   1      48.903  24.958  33.741  1.00  0.00     0.022 A 
BRANCH  86  90
ATOM     90  S   UNL A   1      47.609  23.193  35.471  1.00  0.00     0.124 S 
ATOM     91  O   UNL A   1      49.013  23.083  35.854  1.00  0.00    -0.237 OA
ATOM     92  O   UNL A   1      46.726  23.817  36.451  1.00  0.00    -0.237 OA
ATOM     93  O   UNL A   1      47.056  22.017  34.801  1.00  0.00    -0.744 OA
ENDBRANCH  86  90
ENDBRANCH  60  83
ENDBRANCH  34  35
ENDBRANCH  26  29
ENDBRANCH  24  25
ENDBRANCH   1  24
TORSDOF 16
ENDMDL
