MODEL 1
REMARK VINA RESULT:     -10.1      0.000      0.000
REMARK SMILES CSCC[C@H](C(=O)NCCCNC(=O)c1ccc(-c2c3nc(c(-c4cc(S(=O)(=O)[O-])ccc4F)c4ccc([nH]4)c(-c4cc(S(=O)(=O)[O-])ccc4F)c4nc(c(-c5cc(S(=O)(=O)[O-])ccc5F)c5ccc2[nH]5)C=C4)C=C3)cc1)N1C(=O)/C(=C/c2cn(C)c3ccccc23)SC1=S
REMARK SMILES IDX 10 1 9 2 8 3 6 4 7 5 5 7 4 8 3 9 2 10 1 11 78 12 79 13 94 14
REMARK SMILES IDX 80 15 81 16 93 17 95 18 82 19 83 20 84 21 92 22 85 23 87 24
REMARK SMILES IDX 91 25 86 26 88 27 90 28 89 29 11 30 12 31 13 32 14 34 15 35
REMARK SMILES IDX 16 36 77 37 17 38 76 39 18 40 19 41 20 42 70 43 21 44 75 45
REMARK SMILES IDX 69 46 71 47 22 48 74 49 68 50 67 51 23 53 55 54 35 55 54 56
REMARK SMILES IDX 36 57 39 58 53 59 72 60 37 61 38 62 52 64 73 65 40 66 24 67
REMARK SMILES IDX 25 68 33 69 26 70 32 71 34 72 31 73 27 74 28 75 29 76 30 77
REMARK SMILES IDX 56 78 57 79 65 80 58 81 64 82 66 83 63 84 59 85 60 86 61 87
REMARK SMILES IDX 62 88 41 89 42 90 50 91 43 92 49 93 51 94 48 95 44 96 45 97
REMARK SMILES IDX 46 98 47 99
REMARK H PARENT 8 6 12 33 71 52 39 63
REMARK Flexibility Score: inf
ROOT
ATOM      1  C   UNL A   1      45.547  38.333  26.953  1.00  0.00     0.042 C 
ENDROOT
BRANCH   1   2
ATOM      2  C   UNL A   1      45.911  39.439  26.009  1.00  0.00     0.117 C 
BRANCH   2   3
ATOM      3  N   UNL A   1      46.950  40.418  25.999  1.00  0.00    -0.354 N 
ATOM      4  C   UNL A   1      46.804  41.718  26.504  1.00  0.00     0.243 C 
ATOM      5  O   UNL A   1      47.839  42.396  26.556  1.00  0.00    -0.273 OA
ATOM      6  H   UNL A   1      47.821  40.166  25.614  1.00  0.00     0.163 HD
BRANCH   4   7
ATOM      7  C   UNL A   1      45.340  42.410  26.967  1.00  0.00     0.182 C 
BRANCH   7   8
ATOM      8  C   UNL A   1      44.878  43.374  25.790  1.00  0.00     0.046 C 
BRANCH   8   9
ATOM      9  C   UNL A   1      44.483  42.990  24.369  1.00  0.00     0.072 C 
BRANCH   9  10
ATOM     10  S   UNL A   1      43.233  43.971  23.474  1.00  0.00    -0.165 SA
ATOM     11  C   UNL A   1      43.830  43.913  21.781  1.00  0.00     0.085 C 
ENDBRANCH   9  10
ENDBRANCH   8   9
ENDBRANCH   7   8
BRANCH   7  12
ATOM     12  N   UNL A   1      44.191  41.710  28.203  1.00  0.00    -0.280 N 
ATOM     13  C   UNL A   1      44.909  41.840  29.288  1.00  0.00     0.266 C 
ATOM     14  C   UNL A   1      42.637  40.502  27.804  1.00  0.00     0.149 C 
ATOM     15  O   UNL A   1      45.912  42.327  29.720  1.00  0.00    -0.268 OA
ATOM     16  C   UNL A   1      43.776  41.248  29.762  1.00  0.00     0.081 C 
ATOM     17  S   UNL A   1      42.188  39.547  28.858  1.00  0.00    -0.054 SA
ATOM     18  S   UNL A   1      41.368  40.062  26.367  1.00  0.00    -0.052 S 
ATOM     19  C   UNL A   1      43.888  41.434  31.185  1.00  0.00     0.031 C 
BRANCH  19  20
ATOM     20  C   UNL A   1      42.971  40.597  31.847  1.00  0.00     0.001 A 
ATOM     21  C   UNL A   1      43.243  39.633  32.854  1.00  0.00     0.094 A 
ATOM     22  C   UNL A   1      42.754  41.727  32.632  1.00  0.00     0.007 A 
ATOM     23  N   UNL A   1      44.202  40.056  33.792  1.00  0.00    -0.350 N 
ATOM     24  C   UNL A   1      44.505  41.359  33.467  1.00  0.00     0.048 A 
ATOM     25  C   UNL A   1      42.645  43.712  32.360  1.00  0.00     0.011 A 
ATOM     26  C   UNL A   1      44.319  39.662  35.188  1.00  0.00     0.149 C 
ATOM     27  C   UNL A   1      45.861  42.679  33.852  1.00  0.00     0.027 A 
ATOM     28  C   UNL A   1      43.880  45.088  33.028  1.00  0.00     0.001 A 
ATOM     29  C   UNL A   1      45.677  44.637  33.811  1.00  0.00     0.002 A 
ENDBRANCH  19  20
ENDBRANCH   7  12
ENDBRANCH   4   7
ENDBRANCH   2   3
ENDBRANCH   1   2
BRANCH   1  30
ATOM     30  C   UNL A   1      46.134  36.955  26.704  1.00  0.00     0.118 C 
BRANCH  30  31
ATOM     31  N   UNL A   1      45.324  35.967  25.971  1.00  0.00    -0.352 N 
ATOM     32  C   UNL A   1      44.313  35.110  26.391  1.00  0.00     0.251 C 
ATOM     33  H   UNL A   1      45.536  35.902  25.011  1.00  0.00     0.163 HD
ATOM     34  O   UNL A   1      43.720  34.406  25.576  1.00  0.00    -0.269 OA
BRANCH  32  35
ATOM     35  C   UNL A   1      43.984  34.991  27.829  1.00  0.00     0.039 A 
ATOM     36  C   UNL A   1      43.577  36.110  28.561  1.00  0.00     0.014 A 
ATOM     37  C   UNL A   1      43.979  33.741  28.428  1.00  0.00     0.014 A 
ATOM     38  C   UNL A   1      43.034  35.932  29.838  1.00  0.00     0.010 A 
ATOM     39  C   UNL A   1      43.236  33.544  29.576  1.00  0.00     0.010 A 
ATOM     40  C   UNL A   1      42.785  34.637  30.321  1.00  0.00    -0.014 A 
BRANCH  40  41
ATOM     41  C   UNL A   1      42.107  34.379  31.618  1.00  0.00     0.031 A 
ATOM     42  C   UNL A   1      40.600  34.381  31.680  1.00  0.00     0.074 A 
ATOM     43  C   UNL A   1      42.836  34.220  32.742  1.00  0.00     0.049 A 
ATOM     44  N   UNL A   1      39.815  34.267  32.720  1.00  0.00    -0.248 NA
ATOM     45  C   UNL A   1      39.877  34.583  30.412  1.00  0.00     0.031 C 
ATOM     46  C   UNL A   1      44.299  34.253  32.816  1.00  0.00     0.029 A 
ATOM     47  N   UNL A   1      42.447  33.994  34.038  1.00  0.00    -0.354 N 
ATOM     48  C   UNL A   1      38.520  34.396  32.229  1.00  0.00     0.074 A 
ATOM     49  C   UNL A   1      38.626  34.699  30.822  1.00  0.00     0.031 C 
ATOM     50  C   UNL A   1      44.683  33.993  34.076  1.00  0.00     0.029 A 
ATOM     51  C   UNL A   1      43.498  33.850  34.916  1.00  0.00     0.049 A 
ATOM     52  H   UNL A   1      41.504  33.939  34.316  1.00  0.00     0.167 HD
ATOM     53  C   UNL A   1      37.345  34.236  32.883  1.00  0.00     0.034 A 
ATOM     54  C   UNL A   1      43.506  33.641  36.247  1.00  0.00     0.034 A 
ATOM     55  C   UNL A   1      37.258  33.921  34.284  1.00  0.00     0.049 A 
ATOM     56  C   UNL A   1      42.184  33.523  36.966  1.00  0.00     0.074 A 
ATOM     57  C   UNL A   1      36.125  33.688  35.041  1.00  0.00     0.029 A 
ATOM     58  N   UNL A   1      38.344  33.807  35.142  1.00  0.00    -0.354 N 
ATOM     59  N   UNL A   1      40.968  33.594  36.475  1.00  0.00    -0.248 NA
ATOM     60  C   UNL A   1      42.237  33.288  38.414  1.00  0.00     0.031 C 
ATOM     61  C   UNL A   1      36.518  33.539  36.372  1.00  0.00     0.029 A 
ATOM     62  C   UNL A   1      37.903  33.557  36.430  1.00  0.00     0.049 A 
ATOM     63  H   UNL A   1      39.288  33.892  34.874  1.00  0.00     0.167 HD
ATOM     64  C   UNL A   1      40.111  33.374  37.551  1.00  0.00     0.074 A 
ATOM     65  C   UNL A   1      40.953  33.154  38.709  1.00  0.00     0.031 C 
ATOM     66  C   UNL A   1      38.754  33.349  37.577  1.00  0.00     0.034 A 
BRANCH  53  67
ATOM     67  C   UNL A   1      36.072  34.426  32.093  1.00  0.00     0.023 A 
ATOM     68  C   UNL A   1      35.265  35.567  32.247  1.00  0.00     0.031 A 
ATOM     69  C   UNL A   1      35.646  33.438  31.189  1.00  0.00     0.131 A 
ATOM     70  C   UNL A   1      34.040  35.654  31.572  1.00  0.00     0.055 A 
ATOM     71  C   UNL A   1      34.475  33.578  30.444  1.00  0.00     0.041 A 
ATOM     72  F   UNL A   1      36.355  32.310  31.024  1.00  0.00    -0.206 F 
ATOM     73  C   UNL A   1      33.655  34.683  30.644  1.00  0.00     0.022 A 
BRANCH  70  74
ATOM     74  S   UNL A   1      32.880  36.965  32.051  1.00  0.00     0.124 S 
ATOM     75  O   UNL A   1      33.533  37.515  33.237  1.00  0.00    -0.237 OA
ATOM     76  O   UNL A   1      32.868  37.823  30.872  1.00  0.00    -0.237 OA
ATOM     77  O   UNL A   1      31.637  36.241  32.312  1.00  0.00    -0.744 OA
ENDBRANCH  70  74
ENDBRANCH  53  67
BRANCH  54  78
ATOM     78  C   UNL A   1      44.795  33.548  36.995  1.00  0.00     0.023 A 
ATOM     79  C   UNL A   1      45.416  32.308  37.221  1.00  0.00     0.031 A 
ATOM     80  C   UNL A   1      45.399  34.693  37.545  1.00  0.00     0.131 A 
ATOM     81  C   UNL A   1      46.565  32.237  38.024  1.00  0.00     0.055 A 
ATOM     82  C   UNL A   1      46.583  34.625  38.280  1.00  0.00     0.041 A 
ATOM     83  F   UNL A   1      44.846  35.904  37.368  1.00  0.00    -0.206 F 
ATOM     84  C   UNL A   1      47.165  33.389  38.536  1.00  0.00     0.022 A 
BRANCH  81  85
ATOM     85  S   UNL A   1      47.192  30.602  38.497  1.00  0.00     0.124 S 
ATOM     86  O   UNL A   1      46.694  30.480  39.862  1.00  0.00    -0.237 OA
ATOM     87  O   UNL A   1      46.564  29.736  37.505  1.00  0.00    -0.237 OA
ATOM     88  O   UNL A   1      48.641  30.744  38.371  1.00  0.00    -0.744 OA
ENDBRANCH  81  85
ENDBRANCH  54  78
BRANCH  66  89
ATOM     89  C   UNL A   1      38.093  33.016  38.893  1.00  0.00     0.023 A 
ATOM     90  C   UNL A   1      38.104  33.908  39.978  1.00  0.00     0.031 A 
ATOM     91  C   UNL A   1      37.439  31.781  39.059  1.00  0.00     0.131 A 
ATOM     92  C   UNL A   1      37.534  33.525  41.200  1.00  0.00     0.055 A 
ATOM     93  C   UNL A   1      36.798  31.443  40.250  1.00  0.00     0.041 A 
ATOM     94  F   UNL A   1      37.404  30.885  38.059  1.00  0.00    -0.206 F 
ATOM     95  C   UNL A   1      36.857  32.310  41.336  1.00  0.00     0.022 A 
BRANCH  92  96
ATOM     96  S   UNL A   1      37.801  34.581  42.650  1.00  0.00     0.124 S 
ATOM     97  O   UNL A   1      38.036  35.883  42.034  1.00  0.00    -0.237 OA
ATOM     98  O   UNL A   1      36.544  34.438  43.378  1.00  0.00    -0.237 OA
ATOM     99  O   UNL A   1      38.965  33.983  43.299  1.00  0.00    -0.744 OA
ENDBRANCH  92  96
ENDBRANCH  66  89
ENDBRANCH  40  41
ENDBRANCH  32  35
ENDBRANCH  30  31
ENDBRANCH   1  30
TORSDOF 18
ENDMDL
MODEL 2
REMARK VINA RESULT:      -9.9      6.839     12.112
REMARK SMILES CSCC[C@H](C(=O)NCCCNC(=O)c1ccc(-c2c3nc(c(-c4cc(S(=O)(=O)[O-])ccc4F)c4ccc([nH]4)c(-c4cc(S(=O)(=O)[O-])ccc4F)c4nc(c(-c5cc(S(=O)(=O)[O-])ccc5F)c5ccc2[nH]5)C=C4)C=C3)cc1)N1C(=O)/C(=C/c2cn(C)c3ccccc23)SC1=S
REMARK SMILES IDX 10 1 9 2 8 3 6 4 7 5 5 7 4 8 3 9 2 10 1 11 78 12 79 13 94 14
REMARK SMILES IDX 80 15 81 16 93 17 95 18 82 19 83 20 84 21 92 22 85 23 87 24
REMARK SMILES IDX 91 25 86 26 88 27 90 28 89 29 11 30 12 31 13 32 14 34 15 35
REMARK SMILES IDX 16 36 77 37 17 38 76 39 18 40 19 41 20 42 70 43 21 44 75 45
REMARK SMILES IDX 69 46 71 47 22 48 74 49 68 50 67 51 23 53 55 54 35 55 54 56
REMARK SMILES IDX 36 57 39 58 53 59 72 60 37 61 38 62 52 64 73 65 40 66 24 67
REMARK SMILES IDX 25 68 33 69 26 70 32 71 34 72 31 73 27 74 28 75 29 76 30 77
REMARK SMILES IDX 56 78 57 79 65 80 58 81 64 82 66 83 63 84 59 85 60 86 61 87
REMARK SMILES IDX 62 88 41 89 42 90 50 91 43 92 49 93 51 94 48 95 44 96 45 97
REMARK SMILES IDX 46 98 47 99
REMARK H PARENT 8 6 12 33 71 52 39 63
REMARK Flexibility Score: inf
ROOT
ATOM      1  C   UNL A   1      46.766  38.381  26.135  1.00  0.00     0.042 C 
ENDROOT
BRANCH   1   2
ATOM      2  C   UNL A   1      47.062  39.847  26.235  1.00  0.00     0.117 C 
BRANCH   2   3
ATOM      3  N   UNL A   1      47.834  40.634  27.143  1.00  0.00    -0.354 N 
ATOM      4  C   UNL A   1      47.382  41.828  27.721  1.00  0.00     0.243 C 
ATOM      5  O   UNL A   1      48.110  42.311  28.599  1.00  0.00    -0.273 OA
ATOM      6  H   UNL A   1      48.737  40.318  27.377  1.00  0.00     0.163 HD
BRANCH   4   7
ATOM      7  C   UNL A   1      45.987  42.651  27.261  1.00  0.00     0.182 C 
BRANCH   7   8
ATOM      8  C   UNL A   1      45.973  44.035  28.042  1.00  0.00     0.046 C 
BRANCH   8   9
ATOM      9  C   UNL A   1      44.949  44.523  29.060  1.00  0.00     0.072 C 
BRANCH   9  10
ATOM     10  S   UNL A   1      44.455  43.445  30.445  1.00  0.00    -0.165 SA
ATOM     11  C   UNL A   1      44.068  44.627  31.742  1.00  0.00     0.085 C 
ENDBRANCH   9  10
ENDBRANCH   8   9
ENDBRANCH   7   8
BRANCH   7  12
ATOM     12  N   UNL A   1      45.056  42.359  25.716  1.00  0.00    -0.280 N 
ATOM     13  C   UNL A   1      45.614  43.248  24.936  1.00  0.00     0.266 C 
ATOM     14  C   UNL A   1      43.279  41.435  25.578  1.00  0.00     0.149 C 
ATOM     15  O   UNL A   1      46.521  44.023  24.864  1.00  0.00    -0.268 OA
ATOM     16  C   UNL A   1      44.683  42.687  24.114  1.00  0.00     0.081 C 
ATOM     17  S   UNL A   1      42.377  41.789  24.444  1.00  0.00    -0.054 SA
ATOM     18  S   UNL A   1      42.168  40.102  26.506  1.00  0.00    -0.052 S 
ATOM     19  C   UNL A   1      45.091  43.142  22.810  1.00  0.00     0.031 C 
BRANCH  19  20
ATOM     20  C   UNL A   1      44.053  42.927  21.885  1.00  0.00     0.001 A 
ATOM     21  C   UNL A   1      43.415  43.887  21.054  1.00  0.00     0.094 A 
ATOM     22  C   UNL A   1      45.095  42.526  21.053  1.00  0.00     0.007 A 
ATOM     23  N   UNL A   1      44.303  44.828  20.501  1.00  0.00    -0.350 N 
ATOM     24  C   UNL A   1      45.565  44.436  20.888  1.00  0.00     0.048 A 
ATOM     25  C   UNL A   1      46.820  41.516  21.233  1.00  0.00     0.011 A 
ATOM     26  C   UNL A   1      44.173  45.544  19.242  1.00  0.00     0.149 C 
ATOM     27  C   UNL A   1      47.353  45.161  20.975  1.00  0.00     0.027 A 
ATOM     28  C   UNL A   1      48.647  42.206  21.013  1.00  0.00     0.001 A 
ATOM     29  C   UNL A   1      49.053  44.173  20.914  1.00  0.00     0.002 A 
ENDBRANCH  19  20
ENDBRANCH   7  12
ENDBRANCH   4   7
ENDBRANCH   2   3
ENDBRANCH   1   2
BRANCH   1  30
ATOM     30  C   UNL A   1      45.828  37.768  27.159  1.00  0.00     0.118 C 
BRANCH  30  31
ATOM     31  N   UNL A   1      46.179  37.870  28.586  1.00  0.00    -0.352 N 
ATOM     32  C   UNL A   1      46.377  36.896  29.558  1.00  0.00     0.251 C 
ATOM     33  H   UNL A   1      46.294  38.793  28.909  1.00  0.00     0.163 HD
ATOM     34  O   UNL A   1      46.737  37.215  30.689  1.00  0.00    -0.269 OA
BRANCH  32  35
ATOM     35  C   UNL A   1      46.100  35.474  29.258  1.00  0.00     0.039 A 
ATOM     36  C   UNL A   1      46.275  34.491  30.236  1.00  0.00     0.014 A 
ATOM     37  C   UNL A   1      45.560  35.128  28.028  1.00  0.00     0.014 A 
ATOM     38  C   UNL A   1      45.772  33.205  30.013  1.00  0.00     0.010 A 
ATOM     39  C   UNL A   1      44.864  33.941  27.904  1.00  0.00     0.010 A 
ATOM     40  C   UNL A   1      44.989  32.944  28.876  1.00  0.00    -0.014 A 
BRANCH  40  41
ATOM     41  C   UNL A   1      44.331  31.634  28.636  1.00  0.00     0.031 A 
ATOM     42  C   UNL A   1      45.032  30.596  27.795  1.00  0.00     0.074 A 
ATOM     43  C   UNL A   1      43.088  31.406  29.105  1.00  0.00     0.049 A 
ATOM     44  N   UNL A   1      44.600  29.429  27.392  1.00  0.00    -0.248 NA
ATOM     45  C   UNL A   1      46.380  30.930  27.304  1.00  0.00     0.031 C 
ATOM     46  C   UNL A   1      42.286  32.355  29.884  1.00  0.00     0.029 A 
ATOM     47  N   UNL A   1      42.277  30.303  28.999  1.00  0.00    -0.354 N 
ATOM     48  C   UNL A   1      45.614  28.907  26.597  1.00  0.00     0.074 A 
ATOM     49  C   UNL A   1      46.636  29.921  26.490  1.00  0.00     0.031 C 
ATOM     50  C   UNL A   1      41.130  31.771  30.236  1.00  0.00     0.029 A 
ATOM     51  C   UNL A   1      41.070  30.437  29.648  1.00  0.00     0.049 A 
ATOM     52  H   UNL A   1      42.535  29.492  28.505  1.00  0.00     0.167 HD
ATOM     53  C   UNL A   1      45.707  27.677  26.039  1.00  0.00     0.034 A 
ATOM     54  C   UNL A   1      40.028  29.587  29.745  1.00  0.00     0.034 A 
ATOM     55  C   UNL A   1      44.685  26.673  26.168  1.00  0.00     0.049 A 
ATOM     56  C   UNL A   1      40.129  28.243  29.068  1.00  0.00     0.074 A 
ATOM     57  C   UNL A   1      44.691  25.377  25.688  1.00  0.00     0.029 A 
ATOM     58  N   UNL A   1      43.468  26.855  26.813  1.00  0.00    -0.354 N 
ATOM     59  N   UNL A   1      41.121  27.745  28.364  1.00  0.00    -0.248 NA
ATOM     60  C   UNL A   1      38.977  27.344  29.204  1.00  0.00     0.031 C 
ATOM     61  C   UNL A   1      43.441  24.812  25.949  1.00  0.00     0.029 A 
ATOM     62  C   UNL A   1      42.697  25.711  26.698  1.00  0.00     0.049 A 
ATOM     63  H   UNL A   1      43.194  27.677  27.282  1.00  0.00     0.167 HD
ATOM     64  C   UNL A   1      40.724  26.459  28.007  1.00  0.00     0.074 A 
ATOM     65  C   UNL A   1      39.412  26.257  28.586  1.00  0.00     0.031 C 
ATOM     66  C   UNL A   1      41.386  25.528  27.274  1.00  0.00     0.034 A 
BRANCH  53  67
ATOM     67  C   UNL A   1      46.940  27.369  25.224  1.00  0.00     0.023 A 
ATOM     68  C   UNL A   1      47.121  27.882  23.927  1.00  0.00     0.031 A 
ATOM     69  C   UNL A   1      47.939  26.527  25.742  1.00  0.00     0.131 A 
ATOM     70  C   UNL A   1      48.230  27.487  23.166  1.00  0.00     0.055 A 
ATOM     71  C   UNL A   1      49.090  26.217  25.016  1.00  0.00     0.041 A 
ATOM     72  F   UNL A   1      47.807  25.977  26.959  1.00  0.00    -0.206 F 
ATOM     73  C   UNL A   1      49.234  26.685  23.714  1.00  0.00     0.022 A 
BRANCH  70  74
ATOM     74  S   UNL A   1      48.254  27.893  21.398  1.00  0.00     0.124 S 
ATOM     75  O   UNL A   1      46.857  28.250  21.160  1.00  0.00    -0.237 OA
ATOM     76  O   UNL A   1      49.212  28.990  21.338  1.00  0.00    -0.237 OA
ATOM     77  O   UNL A   1      48.686  26.647  20.768  1.00  0.00    -0.744 OA
ENDBRANCH  70  74
ENDBRANCH  53  67
BRANCH  54  78
ATOM     78  C   UNL A   1      38.796  29.978  30.492  1.00  0.00     0.023 A 
ATOM     79  C   UNL A   1      37.771  30.710  29.870  1.00  0.00     0.031 A 
ATOM     80  C   UNL A   1      38.648  29.674  31.857  1.00  0.00     0.131 A 
ATOM     81  C   UNL A   1      36.677  31.163  30.624  1.00  0.00     0.055 A 
ATOM     82  C   UNL A   1      37.522  30.062  32.585  1.00  0.00     0.041 A 
ATOM     83  F   UNL A   1      39.600  28.983  32.506  1.00  0.00    -0.206 F 
ATOM     84  C   UNL A   1      36.535  30.825  31.972  1.00  0.00     0.022 A 
BRANCH  81  85
ATOM     85  S   UNL A   1      35.505  32.311  29.850  1.00  0.00     0.124 S 
ATOM     86  O   UNL A   1      35.098  31.562  28.668  1.00  0.00    -0.237 OA
ATOM     87  O   UNL A   1      34.496  32.466  30.893  1.00  0.00    -0.237 OA
ATOM     88  O   UNL A   1      36.317  33.498  29.589  1.00  0.00    -0.744 OA
ENDBRANCH  81  85
ENDBRANCH  54  78
BRANCH  66  89
ATOM     89  C   UNL A   1      40.725  24.181  27.104  1.00  0.00     0.023 A 
ATOM     90  C   UNL A   1      39.561  24.015  26.337  1.00  0.00     0.031 A 
ATOM     91  C   UNL A   1      41.276  23.044  27.724  1.00  0.00     0.131 A 
ATOM     92  C   UNL A   1      38.948  22.756  26.264  1.00  0.00     0.055 A 
ATOM     93  C   UNL A   1      40.709  21.779  27.576  1.00  0.00     0.041 A 
ATOM     94  F   UNL A   1      42.384  23.144  28.477  1.00  0.00    -0.206 F 
ATOM     95  C   UNL A   1      39.529  21.632  26.856  1.00  0.00     0.022 A 
BRANCH  92  96
ATOM     96  S   UNL A   1      37.310  22.632  25.496  1.00  0.00     0.124 S 
ATOM     97  O   UNL A   1      37.078  21.192  25.515  1.00  0.00    -0.237 OA
ATOM     98  O   UNL A   1      36.480  23.424  26.399  1.00  0.00    -0.237 OA
ATOM     99  O   UNL A   1      37.510  23.212  24.169  1.00  0.00    -0.744 OA
ENDBRANCH  92  96
ENDBRANCH  66  89
ENDBRANCH  40  41
ENDBRANCH  32  35
ENDBRANCH  30  31
ENDBRANCH   1  30
TORSDOF 18
ENDMDL
MODEL 3
REMARK VINA RESULT:      -9.7      8.920     16.396
REMARK SMILES CSCC[C@H](C(=O)NCCCNC(=O)c1ccc(-c2c3nc(c(-c4cc(S(=O)(=O)[O-])ccc4F)c4ccc([nH]4)c(-c4cc(S(=O)(=O)[O-])ccc4F)c4nc(c(-c5cc(S(=O)(=O)[O-])ccc5F)c5ccc2[nH]5)C=C4)C=C3)cc1)N1C(=O)/C(=C/c2cn(C)c3ccccc23)SC1=S
REMARK SMILES IDX 10 1 9 2 8 3 6 4 7 5 5 7 4 8 3 9 2 10 1 11 78 12 79 13 94 14
REMARK SMILES IDX 80 15 81 16 93 17 95 18 82 19 83 20 84 21 92 22 85 23 87 24
REMARK SMILES IDX 91 25 86 26 88 27 90 28 89 29 11 30 12 31 13 32 14 34 15 35
REMARK SMILES IDX 16 36 77 37 17 38 76 39 18 40 19 41 20 42 70 43 21 44 75 45
REMARK SMILES IDX 69 46 71 47 22 48 74 49 68 50 67 51 23 53 55 54 35 55 54 56
REMARK SMILES IDX 36 57 39 58 53 59 72 60 37 61 38 62 52 64 73 65 40 66 24 67
REMARK SMILES IDX 25 68 33 69 26 70 32 71 34 72 31 73 27 74 28 75 29 76 30 77
REMARK SMILES IDX 56 78 57 79 65 80 58 81 64 82 66 83 63 84 59 85 60 86 61 87
REMARK SMILES IDX 62 88 41 89 42 90 50 91 43 92 49 93 51 94 48 95 44 96 45 97
REMARK SMILES IDX 46 98 47 99
REMARK H PARENT 8 6 12 33 71 52 39 63
REMARK Flexibility Score: inf
ROOT
ATOM      1  C   UNL A   1      46.853  24.464  39.304  1.00  0.00     0.042 C 
ENDROOT
BRANCH   1   2
ATOM      2  C   UNL A   1      48.041  23.554  39.225  1.00  0.00     0.117 C 
BRANCH   2   3
ATOM      3  N   UNL A   1      49.068  23.197  40.151  1.00  0.00    -0.354 N 
ATOM      4  C   UNL A   1      49.687  21.940  40.185  1.00  0.00     0.243 C 
ATOM      5  O   UNL A   1      50.658  21.837  40.947  1.00  0.00    -0.273 OA
ATOM      6  H   UNL A   1      49.359  23.874  40.804  1.00  0.00     0.163 HD
BRANCH   4   7
ATOM      7  C   UNL A   1      49.163  20.587  39.329  1.00  0.00     0.182 C 
BRANCH   7   8
ATOM      8  C   UNL A   1      50.457  19.818  38.819  1.00  0.00     0.046 C 
BRANCH   8   9
ATOM      9  C   UNL A   1      50.810  19.429  37.388  1.00  0.00     0.072 C 
BRANCH   9  10
ATOM     10  S   UNL A   1      49.946  20.220  35.990  1.00  0.00    -0.165 SA
ATOM     11  C   UNL A   1      51.150  21.426  35.419  1.00  0.00     0.085 C 
ENDBRANCH   9  10
ENDBRANCH   8   9
ENDBRANCH   7   8
BRANCH   7  12
ATOM     12  N   UNL A   1      47.529  19.791  39.519  1.00  0.00    -0.280 N 
ATOM     13  C   UNL A   1      47.610  19.388  40.760  1.00  0.00     0.266 C 
ATOM     14  C   UNL A   1      46.350  19.167  38.019  1.00  0.00     0.149 C 
ATOM     15  O   UNL A   1      48.275  19.465  41.751  1.00  0.00    -0.268 OA
ATOM     16  C   UNL A   1      46.376  18.941  40.392  1.00  0.00     0.081 C 
ATOM     17  S   UNL A   1      45.406  18.041  38.275  1.00  0.00    -0.054 SA
ATOM     18  S   UNL A   1      45.960  19.528  36.124  1.00  0.00    -0.052 S 
ATOM     19  C   UNL A   1      45.765  18.611  41.653  1.00  0.00     0.031 C 
BRANCH  19  20
ATOM     20  C   UNL A   1      44.615  17.830  41.434  1.00  0.00     0.001 A 
ATOM     21  C   UNL A   1      44.448  16.441  41.676  1.00  0.00     0.094 A 
ATOM     22  C   UNL A   1      44.224  18.350  42.666  1.00  0.00     0.007 A 
ATOM     23  N   UNL A   1      45.051  16.003  42.870  1.00  0.00    -0.350 N 
ATOM     24  C   UNL A   1      45.544  17.131  43.485  1.00  0.00     0.048 A 
ATOM     25  C   UNL A   1      44.364  20.099  43.639  1.00  0.00     0.011 A 
ATOM     26  C   UNL A   1      44.647  14.892  43.718  1.00  0.00     0.149 C 
ATOM     27  C   UNL A   1      46.777  17.602  44.896  1.00  0.00     0.027 A 
ATOM     28  C   UNL A   1      45.390  20.490  45.269  1.00  0.00     0.001 A 
ATOM     29  C   UNL A   1      46.765  19.222  46.010  1.00  0.00     0.002 A 
ENDBRANCH  19  20
ENDBRANCH   7  12
ENDBRANCH   4   7
ENDBRANCH   2   3
ENDBRANCH   1   2
BRANCH   1  30
ATOM     30  C   UNL A   1      46.452  25.228  38.055  1.00  0.00     0.118 C 
BRANCH  30  31
ATOM     31  N   UNL A   1      47.486  25.527  37.050  1.00  0.00    -0.352 N 
ATOM     32  C   UNL A   1      47.476  26.362  35.937  1.00  0.00     0.251 C 
ATOM     33  H   UNL A   1      48.336  25.050  37.190  1.00  0.00     0.163 HD
ATOM     34  O   UNL A   1      48.495  26.509  35.266  1.00  0.00    -0.269 OA
BRANCH  32  35
ATOM     35  C   UNL A   1      46.226  27.031  35.517  1.00  0.00     0.039 A 
ATOM     36  C   UNL A   1      46.238  28.364  35.095  1.00  0.00     0.014 A 
ATOM     37  C   UNL A   1      45.051  26.299  35.441  1.00  0.00     0.014 A 
ATOM     38  C   UNL A   1      45.104  28.894  34.469  1.00  0.00     0.010 A 
ATOM     39  C   UNL A   1      44.029  26.742  34.624  1.00  0.00     0.010 A 
ATOM     40  C   UNL A   1      44.019  28.059  34.156  1.00  0.00    -0.014 A 
BRANCH  40  41
ATOM     41  C   UNL A   1      42.835  28.532  33.393  1.00  0.00     0.031 A 
ATOM     42  C   UNL A   1      41.804  29.390  34.084  1.00  0.00     0.074 A 
ATOM     43  C   UNL A   1      42.650  28.135  32.118  1.00  0.00     0.049 A 
ATOM     44  N   UNL A   1      40.659  29.832  33.630  1.00  0.00    -0.248 NA
ATOM     45  C   UNL A   1      42.070  29.763  35.484  1.00  0.00     0.031 C 
ATOM     46  C   UNL A   1      43.551  27.261  31.362  1.00  0.00     0.029 A 
ATOM     47  N   UNL A   1      41.644  28.417  31.228  1.00  0.00    -0.354 N 
ATOM     48  C   UNL A   1      40.075  30.518  34.690  1.00  0.00     0.074 A 
ATOM     49  C   UNL A   1      40.938  30.347  35.835  1.00  0.00     0.031 C 
ATOM     50  C   UNL A   1      43.089  27.130  30.108  1.00  0.00     0.029 A 
ATOM     51  C   UNL A   1      41.823  27.846  29.989  1.00  0.00     0.049 A 
ATOM     52  H   UNL A   1      40.866  28.975  31.455  1.00  0.00     0.167 HD
ATOM     53  C   UNL A   1      38.942  31.259  34.699  1.00  0.00     0.034 A 
ATOM     54  C   UNL A   1      41.048  27.882  28.886  1.00  0.00     0.034 A 
ATOM     55  C   UNL A   1      38.101  31.429  33.545  1.00  0.00     0.049 A 
ATOM     56  C   UNL A   1      39.760  28.667  28.936  1.00  0.00     0.074 A 
ATOM     57  C   UNL A   1      36.957  32.196  33.424  1.00  0.00     0.029 A 
ATOM     58  N   UNL A   1      38.304  30.816  32.315  1.00  0.00    -0.354 N 
ATOM     59  N   UNL A   1      39.251  29.355  29.933  1.00  0.00    -0.248 NA
ATOM     60  C   UNL A   1      38.950  28.688  27.713  1.00  0.00     0.031 C 
ATOM     61  C   UNL A   1      36.413  31.963  32.159  1.00  0.00     0.029 A 
ATOM     62  C   UNL A   1      37.278  31.148  31.447  1.00  0.00     0.049 A 
ATOM     63  H   UNL A   1      39.065  30.231  32.094  1.00  0.00     0.167 HD
ATOM     64  C   UNL A   1      38.077  29.921  29.441  1.00  0.00     0.074 A 
ATOM     65  C   UNL A   1      37.966  29.505  28.058  1.00  0.00     0.031 C 
ATOM     66  C   UNL A   1      37.177  30.718  30.073  1.00  0.00     0.034 A 
BRANCH  53  67
ATOM     67  C   UNL A   1      38.543  31.911  36.001  1.00  0.00     0.023 A 
ATOM     68  C   UNL A   1      37.963  31.178  37.052  1.00  0.00     0.031 A 
ATOM     69  C   UNL A   1      38.721  33.293  36.185  1.00  0.00     0.131 A 
ATOM     70  C   UNL A   1      37.511  31.841  38.202  1.00  0.00     0.055 A 
ATOM     71  C   UNL A   1      38.361  33.931  37.373  1.00  0.00     0.041 A 
ATOM     72  F   UNL A   1      39.236  34.053  35.204  1.00  0.00    -0.206 F 
ATOM     73  C   UNL A   1      37.738  33.207  38.385  1.00  0.00     0.022 A 
BRANCH  70  74
ATOM     74  S   UNL A   1      36.473  30.927  39.376  1.00  0.00     0.124 S 
ATOM     75  O   UNL A   1      36.163  29.719  38.614  1.00  0.00    -0.237 OA
ATOM     76  O   UNL A   1      37.365  30.751  40.516  1.00  0.00    -0.237 OA
ATOM     77  O   UNL A   1      35.340  31.823  39.598  1.00  0.00    -0.744 OA
ENDBRANCH  70  74
ENDBRANCH  53  67
BRANCH  54  78
ATOM     78  C   UNL A   1      41.449  27.145  27.650  1.00  0.00     0.023 A 
ATOM     79  C   UNL A   1      41.328  25.749  27.566  1.00  0.00     0.031 A 
ATOM     80  C   UNL A   1      42.012  27.822  26.554  1.00  0.00     0.131 A 
ATOM     81  C   UNL A   1      41.818  25.070  26.439  1.00  0.00     0.055 A 
ATOM     82  C   UNL A   1      42.429  27.150  25.404  1.00  0.00     0.041 A 
ATOM     83  F   UNL A   1      42.160  29.156  26.582  1.00  0.00    -0.206 F 
ATOM     84  C   UNL A   1      42.347  25.763  25.348  1.00  0.00     0.022 A 
BRANCH  81  85
ATOM     85  S   UNL A   1      41.872  23.257  26.473  1.00  0.00     0.124 S 
ATOM     86  O   UNL A   1      42.536  22.959  25.211  1.00  0.00    -0.237 OA
ATOM     87  O   UNL A   1      42.645  22.999  27.683  1.00  0.00    -0.237 OA
ATOM     88  O   UNL A   1      40.462  22.877  26.543  1.00  0.00    -0.744 OA
ENDBRANCH  81  85
ENDBRANCH  54  78
BRANCH  66  89
ATOM     89  C   UNL A   1      36.021  31.241  29.255  1.00  0.00     0.023 A 
ATOM     90  C   UNL A   1      35.665  32.599  29.254  1.00  0.00     0.031 A 
ATOM     91  C   UNL A   1      35.265  30.358  28.461  1.00  0.00     0.131 A 
ATOM     92  C   UNL A   1      34.541  33.024  28.530  1.00  0.00     0.055 A 
ATOM     93  C   UNL A   1      34.203  30.803  27.675  1.00  0.00     0.041 A 
ATOM     94  F   UNL A   1      35.555  29.047  28.429  1.00  0.00    -0.206 F 
ATOM     95  C   UNL A   1      33.825  32.140  27.719  1.00  0.00     0.022 A 
BRANCH  92  96
ATOM     96  S   UNL A   1      33.950  34.722  28.765  1.00  0.00     0.124 S 
ATOM     97  O   UNL A   1      34.243  34.949  30.176  1.00  0.00    -0.237 OA
ATOM     98  O   UNL A   1      34.767  35.472  27.816  1.00  0.00    -0.237 OA
ATOM     99  O   UNL A   1      32.530  34.639  28.431  1.00  0.00    -0.744 OA
ENDBRANCH  92  96
ENDBRANCH  66  89
ENDBRANCH  40  41
ENDBRANCH  32  35
ENDBRANCH  30  31
ENDBRANCH   1  30
TORSDOF 18
ENDMDL
