MODEL 1
REMARK VINA RESULT:     -10.4      0.000      0.000
REMARK SMILES C[C@@H](C(=O)NCCCNC(=O)c1ccc(-c2c3nc(c(-c4cc(S(=O)(=O)[O-])ccc4F)c4ccc([nH]4)c(-c4cc(S(=O)(=O)[O-])ccc4F)c4nc(c(-c5cc(S(=O)(=O)[O-])ccc5F)c5ccc2[nH]5)C=C4)C=C3)cc1)c1ccc(-c2cccc(OC(=O)NCCCc3ccccc3)c2)c(F)c1
REMARK SMILES IDX 1 1 2 2 3 3 4 4 5 5 6 7 7 8 8 9 9 10 10 11 11 13 12 14 13 15
REMARK SMILES IDX 74 16 14 17 73 18 15 19 16 20 17 21 67 22 18 23 72 24 66 25
REMARK SMILES IDX 68 26 19 27 71 28 65 29 64 30 20 32 52 33 32 34 51 35 33 36
REMARK SMILES IDX 36 37 50 38 69 39 34 40 35 41 49 43 70 44 37 45 21 46 22 47
REMARK SMILES IDX 30 48 23 49 29 50 31 51 28 52 24 53 25 54 26 55 27 56 53 57
REMARK SMILES IDX 54 58 62 59 55 60 61 61 63 62 60 63 56 64 57 65 58 66 59 67
REMARK SMILES IDX 38 68 39 69 47 70 40 71 46 72 48 73 45 74 41 75 42 76 43 77
REMARK SMILES IDX 44 78 75 79 76 80 100 81 77 82 98 83 78 84 99 85 79 86 80 87
REMARK SMILES IDX 97 88 81 89 83 90 82 91 84 92 85 93 86 94 87 95 88 97 89 98
REMARK SMILES IDX 90 99 91 100 92 101 96 102 93 103 95 104 94 105
REMARK H PARENT 5 6 9 12 68 31 36 42 87 96
REMARK Flexibility Score: inf
ROOT
ATOM      1  C   UNL A   1      42.882  24.225  28.790  1.00  0.00     0.023 C 
ATOM      2  C   UNL A   1      42.505  25.026  27.538  1.00  0.00     0.105 C 
ENDROOT
BRANCH   2   3
ATOM      3  C   UNL A   1      41.771  24.135  26.519  1.00  0.00     0.227 C 
ATOM      4  O   UNL A   1      40.681  23.605  26.746  1.00  0.00    -0.274 OA
ATOM      5  N   UNL A   1      42.288  23.946  25.271  1.00  0.00    -0.356 N 
ATOM      6  H   UNL A   1      41.672  23.527  24.628  1.00  0.00     0.163 HD
BRANCH   5   7
ATOM      7  C   UNL A   1      43.599  24.263  24.739  1.00  0.00     0.117 C 
BRANCH   7   8
ATOM      8  C   UNL A   1      44.638  23.231  25.181  1.00  0.00     0.042 C 
BRANCH   8   9
ATOM      9  C   UNL A   1      45.838  23.832  25.908  1.00  0.00     0.118 C 
BRANCH   9  10
ATOM     10  N   UNL A   1      46.662  24.653  25.034  1.00  0.00    -0.352 N 
ATOM     11  C   UNL A   1      46.800  26.019  24.979  1.00  0.00     0.251 C 
ATOM     12  H   UNL A   1      47.203  24.154  24.381  1.00  0.00     0.163 HD
ATOM     13  O   UNL A   1      47.377  26.525  24.021  1.00  0.00    -0.269 OA
BRANCH  11  14
ATOM     14  C   UNL A   1      46.234  26.875  26.046  1.00  0.00     0.039 A 
ATOM     15  C   UNL A   1      44.980  27.457  25.845  1.00  0.00     0.014 A 
ATOM     16  C   UNL A   1      46.931  27.112  27.235  1.00  0.00     0.014 A 
ATOM     17  C   UNL A   1      44.387  28.200  26.869  1.00  0.00     0.010 A 
ATOM     18  C   UNL A   1      46.311  27.796  28.280  1.00  0.00     0.010 A 
ATOM     19  C   UNL A   1      45.024  28.329  28.115  1.00  0.00    -0.014 A 
BRANCH  19  20
ATOM     20  C   UNL A   1      44.329  28.957  29.271  1.00  0.00     0.031 A 
ATOM     21  C   UNL A   1      43.929  30.407  29.233  1.00  0.00     0.074 A 
ATOM     22  C   UNL A   1      44.128  28.226  30.388  1.00  0.00     0.049 A 
ATOM     23  N   UNL A   1      43.397  31.140  30.177  1.00  0.00    -0.248 NA
ATOM     24  C   UNL A   1      44.178  31.134  27.978  1.00  0.00     0.031 C 
ATOM     25  C   UNL A   1      44.503  26.819  30.553  1.00  0.00     0.029 A 
ATOM     26  N   UNL A   1      43.577  28.562  31.601  1.00  0.00    -0.354 N 
ATOM     27  C   UNL A   1      43.257  32.414  29.639  1.00  0.00     0.074 A 
ATOM     28  C   UNL A   1      43.793  32.363  28.296  1.00  0.00     0.031 C 
ATOM     29  C   UNL A   1      44.160  26.412  31.785  1.00  0.00     0.029 A 
ATOM     30  C   UNL A   1      43.597  27.538  32.522  1.00  0.00     0.049 A 
ATOM     31  H   UNL A   1      43.203  29.452  31.794  1.00  0.00     0.167 HD
ATOM     32  C   UNL A   1      42.720  33.519  30.215  1.00  0.00     0.034 A 
ATOM     33  C   UNL A   1      43.234  27.514  33.820  1.00  0.00     0.034 A 
ATOM     34  C   UNL A   1      42.176  33.547  31.551  1.00  0.00     0.049 A 
ATOM     35  C   UNL A   1      42.687  28.776  34.444  1.00  0.00     0.074 A 
ATOM     36  C   UNL A   1      41.529  34.590  32.190  1.00  0.00     0.029 A 
ATOM     37  N   UNL A   1      42.229  32.499  32.458  1.00  0.00    -0.354 N 
ATOM     38  N   UNL A   1      42.484  29.948  33.889  1.00  0.00    -0.248 NA
ATOM     39  C   UNL A   1      42.318  28.710  35.864  1.00  0.00     0.031 C 
ATOM     40  C   UNL A   1      41.273  34.205  33.509  1.00  0.00     0.029 A 
ATOM     41  C   UNL A   1      41.680  32.891  33.669  1.00  0.00     0.049 A 
ATOM     42  H   UNL A   1      42.603  31.607  32.270  1.00  0.00     0.167 HD
ATOM     43  C   UNL A   1      41.941  30.750  34.890  1.00  0.00     0.074 A 
ATOM     44  C   UNL A   1      41.822  29.920  36.070  1.00  0.00     0.031 C 
ATOM     45  C   UNL A   1      41.580  32.056  34.842  1.00  0.00     0.034 A 
BRANCH  32  46
ATOM     46  C   UNL A   1      42.718  34.803  29.423  1.00  0.00     0.023 A 
ATOM     47  C   UNL A   1      43.890  35.547  29.208  1.00  0.00     0.031 A 
ATOM     48  C   UNL A   1      41.527  35.261  28.830  1.00  0.00     0.131 A 
ATOM     49  C   UNL A   1      43.840  36.727  28.451  1.00  0.00     0.055 A 
ATOM     50  C   UNL A   1      41.496  36.399  28.023  1.00  0.00     0.041 A 
ATOM     51  F   UNL A   1      40.373  34.599  29.018  1.00  0.00    -0.206 F 
ATOM     52  C   UNL A   1      42.656  37.143  27.834  1.00  0.00     0.022 A 
BRANCH  49  53
ATOM     53  S   UNL A   1      45.326  37.762  28.350  1.00  0.00     0.124 S 
ATOM     54  O   UNL A   1      45.457  37.951  26.908  1.00  0.00    -0.237 OA
ATOM     55  O   UNL A   1      44.943  38.941  29.117  1.00  0.00    -0.237 OA
ATOM     56  O   UNL A   1      46.363  36.932  28.960  1.00  0.00    -0.744 OA
ENDBRANCH  49  53
ENDBRANCH  32  46
BRANCH  33  57
ATOM     57  C   UNL A   1      43.416  26.282  34.647  1.00  0.00     0.023 A 
ATOM     58  C   UNL A   1      44.698  25.818  34.978  1.00  0.00     0.031 A 
ATOM     59  C   UNL A   1      42.314  25.500  35.040  1.00  0.00     0.131 A 
ATOM     60  C   UNL A   1      44.851  24.575  35.612  1.00  0.00     0.055 A 
ATOM     61  C   UNL A   1      42.468  24.300  35.735  1.00  0.00     0.041 A 
ATOM     62  F   UNL A   1      41.063  25.892  34.748  1.00  0.00    -0.206 F 
ATOM     63  C   UNL A   1      43.745  23.820  36.007  1.00  0.00     0.022 A 
BRANCH  60  64
ATOM     64  S   UNL A   1      46.524  23.892  35.785  1.00  0.00     0.124 S 
ATOM     65  O   UNL A   1      46.936  23.764  34.392  1.00  0.00    -0.237 OA
ATOM     66  O   UNL A   1      47.194  24.931  36.560  1.00  0.00    -0.237 OA
ATOM     67  O   UNL A   1      46.305  22.632  36.491  1.00  0.00    -0.744 OA
ENDBRANCH  60  64
ENDBRANCH  33  57
BRANCH  45  68
ATOM     68  C   UNL A   1      40.997  32.653  36.100  1.00  0.00     0.023 A 
ATOM     69  C   UNL A   1      39.726  32.277  36.570  1.00  0.00     0.031 A 
ATOM     70  C   UNL A   1      41.716  33.613  36.833  1.00  0.00     0.131 A 
ATOM     71  C   UNL A   1      39.190  32.898  37.708  1.00  0.00     0.055 A 
ATOM     72  C   UNL A   1      41.205  34.179  38.002  1.00  0.00     0.041 A 
ATOM     73  F   UNL A   1      42.932  34.013  36.428  1.00  0.00    -0.206 F 
ATOM     74  C   UNL A   1      39.930  33.831  38.438  1.00  0.00     0.022 A 
BRANCH  71  75
ATOM     75  S   UNL A   1      37.477  32.530  38.175  1.00  0.00     0.124 S 
ATOM     76  O   UNL A   1      37.388  31.101  37.897  1.00  0.00    -0.237 OA
ATOM     77  O   UNL A   1      37.448  32.908  39.584  1.00  0.00    -0.237 OA
ATOM     78  O   UNL A   1      36.689  33.385  37.289  1.00  0.00    -0.744 OA
ENDBRANCH  71  75
ENDBRANCH  45  68
ENDBRANCH  19  20
ENDBRANCH  11  14
ENDBRANCH   9  10
ENDBRANCH   8   9
ENDBRANCH   7   8
ENDBRANCH   5   7
ENDBRANCH   2   3
BRANCH   2  79
ATOM     79  C   UNL A   1      41.707  26.294  27.854  1.00  0.00    -0.033 A 
ATOM     80  C   UNL A   1      41.267  26.533  29.171  1.00  0.00     0.005 A 
ATOM     81  C   UNL A   1      41.387  27.244  26.877  1.00  0.00     0.044 A 
ATOM     82  C   UNL A   1      40.540  27.685  29.497  1.00  0.00     0.012 A 
ATOM     83  C   UNL A   1      40.655  28.378  27.205  1.00  0.00     0.131 A 
ATOM     84  C   UNL A   1      40.210  28.620  28.509  1.00  0.00     0.018 A 
ATOM     85  F   UNL A   1      40.358  29.238  26.217  1.00  0.00    -0.206 F 
BRANCH  84  86
ATOM     86  C   UNL A   1      39.338  29.761  28.792  1.00  0.00    -0.012 A 
ATOM     87  C   UNL A   1      39.665  30.753  29.726  1.00  0.00     0.009 A 
ATOM     88  C   UNL A   1      38.133  29.874  28.083  1.00  0.00     0.056 A 
ATOM     89  C   UNL A   1      38.808  31.839  29.932  1.00  0.00     0.004 A 
ATOM     90  C   UNL A   1      37.277  30.943  28.297  1.00  0.00     0.133 A 
ATOM     91  C   UNL A   1      37.613  31.936  29.217  1.00  0.00     0.047 A 
BRANCH  90  92
ATOM     92  O   UNL A   1      36.067  31.130  27.592  1.00  0.00    -0.410 OA
BRANCH  92  93
ATOM     93  C   UNL A   1      34.793  31.094  28.158  1.00  0.00     0.412 C 
ATOM     94  O   UNL A   1      34.206  32.008  28.719  1.00  0.00    -0.224 OA
ATOM     95  N   UNL A   1      34.181  29.880  28.014  1.00  0.00    -0.321 N 
ATOM     96  H   UNL A   1      33.330  29.746  28.489  1.00  0.00     0.167 HD
BRANCH  95  97
ATOM     97  C   UNL A   1      34.677  28.784  27.223  1.00  0.00     0.120 C 
BRANCH  97  98
ATOM     98  C   UNL A   1      33.589  27.967  26.528  1.00  0.00     0.026 C 
BRANCH  98  99
ATOM     99  C   UNL A   1      32.157  28.518  26.518  1.00  0.00     0.037 C 
BRANCH  99 100
ATOM    100  C   UNL A   1      31.239  28.264  25.345  1.00  0.00    -0.048 A 
ATOM    101  C   UNL A   1      30.628  27.038  25.061  1.00  0.00     0.004 A 
ATOM    102  C   UNL A   1      31.039  29.320  24.438  1.00  0.00     0.004 A 
ATOM    103  C   UNL A   1      29.852  26.870  23.909  1.00  0.00     0.000 A 
ATOM    104  C   UNL A   1      30.256  29.158  23.293  1.00  0.00     0.000 A 
ATOM    105  C   UNL A   1      29.664  27.928  23.026  1.00  0.00     0.000 A 
ENDBRANCH  99 100
ENDBRANCH  98  99
ENDBRANCH  97  98
ENDBRANCH  95  97
ENDBRANCH  92  93
ENDBRANCH  90  92
ENDBRANCH  84  86
ENDBRANCH   2  79
TORSDOF 21
ENDMDL
MODEL 2
REMARK VINA RESULT:     -10.3      4.694      9.598
REMARK SMILES C[C@@H](C(=O)NCCCNC(=O)c1ccc(-c2c3nc(c(-c4cc(S(=O)(=O)[O-])ccc4F)c4ccc([nH]4)c(-c4cc(S(=O)(=O)[O-])ccc4F)c4nc(c(-c5cc(S(=O)(=O)[O-])ccc5F)c5ccc2[nH]5)C=C4)C=C3)cc1)c1ccc(-c2cccc(OC(=O)NCCCc3ccccc3)c2)c(F)c1
REMARK SMILES IDX 1 1 2 2 3 3 4 4 5 5 6 7 7 8 8 9 9 10 10 11 11 13 12 14 13 15
REMARK SMILES IDX 74 16 14 17 73 18 15 19 16 20 17 21 67 22 18 23 72 24 66 25
REMARK SMILES IDX 68 26 19 27 71 28 65 29 64 30 20 32 52 33 32 34 51 35 33 36
REMARK SMILES IDX 36 37 50 38 69 39 34 40 35 41 49 43 70 44 37 45 21 46 22 47
REMARK SMILES IDX 30 48 23 49 29 50 31 51 28 52 24 53 25 54 26 55 27 56 53 57
REMARK SMILES IDX 54 58 62 59 55 60 61 61 63 62 60 63 56 64 57 65 58 66 59 67
REMARK SMILES IDX 38 68 39 69 47 70 40 71 46 72 48 73 45 74 41 75 42 76 43 77
REMARK SMILES IDX 44 78 75 79 76 80 100 81 77 82 98 83 78 84 99 85 79 86 80 87
REMARK SMILES IDX 97 88 81 89 83 90 82 91 84 92 85 93 86 94 87 95 88 97 89 98
REMARK SMILES IDX 90 99 91 100 92 101 96 102 93 103 95 104 94 105
REMARK H PARENT 5 6 9 12 68 31 36 42 87 96
REMARK Flexibility Score: inf
ROOT
ATOM      1  C   UNL A   1      35.774  33.007  27.640  1.00  0.00     0.023 C 
ATOM      2  C   UNL A   1      34.515  32.559  28.392  1.00  0.00     0.105 C 
ENDROOT
BRANCH   2   3
ATOM      3  C   UNL A   1      33.543  33.738  28.585  1.00  0.00     0.227 C 
ATOM      4  O   UNL A   1      32.553  33.921  27.873  1.00  0.00    -0.274 OA
ATOM      5  N   UNL A   1      33.716  34.612  29.618  1.00  0.00    -0.356 N 
ATOM      6  H   UNL A   1      32.955  35.214  29.781  1.00  0.00     0.163 HD
BRANCH   5   7
ATOM      7  C   UNL A   1      34.841  34.796  30.514  1.00  0.00     0.117 C 
BRANCH   7   8
ATOM      8  C   UNL A   1      34.810  33.780  31.656  1.00  0.00     0.042 C 
BRANCH   8   9
ATOM      9  C   UNL A   1      36.110  32.999  31.827  1.00  0.00     0.118 C 
BRANCH   9  10
ATOM     10  N   UNL A   1      35.883  31.568  31.961  1.00  0.00    -0.352 N 
ATOM     11  C   UNL A   1      36.683  30.510  31.602  1.00  0.00     0.251 C 
ATOM     12  H   UNL A   1      35.024  31.319  32.372  1.00  0.00     0.163 HD
ATOM     13  O   UNL A   1      36.211  29.377  31.598  1.00  0.00    -0.269 OA
BRANCH  11  14
ATOM     14  C   UNL A   1      38.088  30.735  31.195  1.00  0.00     0.039 A 
ATOM     15  C   UNL A   1      38.405  30.708  29.835  1.00  0.00     0.014 A 
ATOM     16  C   UNL A   1      39.091  30.965  32.141  1.00  0.00     0.014 A 
ATOM     17  C   UNL A   1      39.707  31.000  29.419  1.00  0.00     0.010 A 
ATOM     18  C   UNL A   1      40.373  31.322  31.723  1.00  0.00     0.010 A 
ATOM     19  C   UNL A   1      40.689  31.364  30.357  1.00  0.00    -0.014 A 
BRANCH  19  20
ATOM     20  C   UNL A   1      42.023  31.855  29.920  1.00  0.00     0.031 A 
ATOM     21  C   UNL A   1      42.257  33.319  29.663  1.00  0.00     0.074 A 
ATOM     22  C   UNL A   1      43.004  30.958  29.682  1.00  0.00     0.049 A 
ATOM     23  N   UNL A   1      43.326  33.913  29.197  1.00  0.00    -0.248 NA
ATOM     24  C   UNL A   1      41.140  34.232  29.950  1.00  0.00     0.031 C 
ATOM     25  C   UNL A   1      42.883  29.509  29.864  1.00  0.00     0.029 A 
ATOM     26  N   UNL A   1      44.288  31.124  29.223  1.00  0.00    -0.354 N 
ATOM     27  C   UNL A   1      43.009  35.265  29.121  1.00  0.00     0.074 A 
ATOM     28  C   UNL A   1      41.636  35.398  29.558  1.00  0.00     0.031 C 
ATOM     29  C   UNL A   1      44.045  28.924  29.535  1.00  0.00     0.029 A 
ATOM     30  C   UNL A   1      44.976  29.942  29.060  1.00  0.00     0.049 A 
ATOM     31  H   UNL A   1      44.681  32.006  29.028  1.00  0.00     0.167 HD
ATOM     32  C   UNL A   1      43.800  36.296  28.732  1.00  0.00     0.034 A 
ATOM     33  C   UNL A   1      46.203  29.699  28.556  1.00  0.00     0.034 A 
ATOM     34  C   UNL A   1      45.172  36.144  28.314  1.00  0.00     0.049 A 
ATOM     35  C   UNL A   1      47.037  30.866  28.085  1.00  0.00     0.074 A 
ATOM     36  C   UNL A   1      46.082  37.136  27.987  1.00  0.00     0.029 A 
ATOM     37  N   UNL A   1      45.828  34.934  28.144  1.00  0.00    -0.354 N 
ATOM     38  N   UNL A   1      46.748  32.147  28.102  1.00  0.00    -0.248 NA
ATOM     39  C   UNL A   1      48.361  30.556  27.529  1.00  0.00     0.031 C 
ATOM     40  C   UNL A   1      47.255  36.523  27.536  1.00  0.00     0.029 A 
ATOM     41  C   UNL A   1      47.110  35.152  27.662  1.00  0.00     0.049 A 
ATOM     42  H   UNL A   1      45.440  34.050  28.336  1.00  0.00     0.167 HD
ATOM     43  C   UNL A   1      47.866  32.793  27.583  1.00  0.00     0.074 A 
ATOM     44  C   UNL A   1      48.843  31.765  27.289  1.00  0.00     0.031 C 
ATOM     45  C   UNL A   1      48.068  34.116  27.361  1.00  0.00     0.034 A 
BRANCH  32  46
ATOM     46  C   UNL A   1      43.200  37.680  28.704  1.00  0.00     0.023 A 
ATOM     47  C   UNL A   1      43.484  38.633  29.696  1.00  0.00     0.031 A 
ATOM     48  C   UNL A   1      42.372  38.066  27.634  1.00  0.00     0.131 A 
ATOM     49  C   UNL A   1      42.914  39.914  29.617  1.00  0.00     0.055 A 
ATOM     50  C   UNL A   1      41.863  39.360  27.526  1.00  0.00     0.041 A 
ATOM     51  F   UNL A   1      42.054  37.189  26.667  1.00  0.00    -0.206 F 
ATOM     52  C   UNL A   1      42.128  40.292  28.525  1.00  0.00     0.022 A 
BRANCH  49  53
ATOM     53  S   UNL A   1      43.145  41.057  31.007  1.00  0.00     0.124 S 
ATOM     54  O   UNL A   1      41.856  40.959  31.686  1.00  0.00    -0.237 OA
ATOM     55  O   UNL A   1      44.283  40.476  31.709  1.00  0.00    -0.237 OA
ATOM     56  O   UNL A   1      43.403  42.340  30.355  1.00  0.00    -0.744 OA
ENDBRANCH  49  53
ENDBRANCH  32  46
BRANCH  33  57
ATOM     57  C   UNL A   1      46.713  28.302  28.414  1.00  0.00     0.023 A 
ATOM     58  C   UNL A   1      46.389  27.525  27.291  1.00  0.00     0.031 A 
ATOM     59  C   UNL A   1      47.455  27.690  29.441  1.00  0.00     0.131 A 
ATOM     60  C   UNL A   1      46.739  26.166  27.254  1.00  0.00     0.055 A 
ATOM     61  C   UNL A   1      47.864  26.358  29.367  1.00  0.00     0.041 A 
ATOM     62  F   UNL A   1      47.792  28.383  30.542  1.00  0.00    -0.206 F 
ATOM     63  C   UNL A   1      47.488  25.581  28.276  1.00  0.00     0.022 A 
BRANCH  60  64
ATOM     64  S   UNL A   1      46.076  25.138  25.914  1.00  0.00     0.124 S 
ATOM     65  O   UNL A   1      46.995  24.007  25.926  1.00  0.00    -0.237 OA
ATOM     66  O   UNL A   1      44.720  24.870  26.383  1.00  0.00    -0.237 OA
ATOM     67  O   UNL A   1      46.169  26.006  24.742  1.00  0.00    -0.744 OA
ENDBRANCH  60  64
ENDBRANCH  33  57
BRANCH  45  68
ATOM     68  C   UNL A   1      49.408  34.520  26.797  1.00  0.00     0.023 A 
ATOM     69  C   UNL A   1      50.559  34.571  27.602  1.00  0.00     0.031 A 
ATOM     70  C   UNL A   1      49.535  34.865  25.439  1.00  0.00     0.131 A 
ATOM     71  C   UNL A   1      51.775  35.010  27.058  1.00  0.00     0.055 A 
ATOM     72  C   UNL A   1      50.762  35.239  24.889  1.00  0.00     0.041 A 
ATOM     73  F   UNL A   1      48.469  34.839  24.625  1.00  0.00    -0.206 F 
ATOM     74  C   UNL A   1      51.888  35.325  25.702  1.00  0.00     0.022 A 
BRANCH  71  75
ATOM     75  S   UNL A   1      53.190  35.247  28.167  1.00  0.00     0.124 S 
ATOM     76  O   UNL A   1      52.875  34.332  29.259  1.00  0.00    -0.237 OA
ATOM     77  O   UNL A   1      54.317  34.866  27.322  1.00  0.00    -0.237 OA
ATOM     78  O   UNL A   1      53.125  36.667  28.508  1.00  0.00    -0.744 OA
ENDBRANCH  71  75
ENDBRANCH  45  68
ENDBRANCH  19  20
ENDBRANCH  11  14
ENDBRANCH   9  10
ENDBRANCH   8   9
ENDBRANCH   7   8
ENDBRANCH   5   7
ENDBRANCH   2   3
BRANCH   2  79
ATOM     79  C   UNL A   1      33.822  31.358  27.742  1.00  0.00    -0.033 A 
ATOM     80  C   UNL A   1      32.468  31.453  27.365  1.00  0.00     0.005 A 
ATOM     81  C   UNL A   1      34.482  30.148  27.502  1.00  0.00     0.044 A 
ATOM     82  C   UNL A   1      31.804  30.377  26.762  1.00  0.00     0.012 A 
ATOM     83  C   UNL A   1      33.814  29.080  26.917  1.00  0.00     0.131 A 
ATOM     84  C   UNL A   1      32.468  29.165  26.544  1.00  0.00     0.018 A 
ATOM     85  F   UNL A   1      34.497  27.937  26.737  1.00  0.00    -0.206 F 
BRANCH  84  86
ATOM     86  C   UNL A   1      31.765  27.983  26.043  1.00  0.00    -0.012 A 
ATOM     87  C   UNL A   1      30.939  28.013  24.912  1.00  0.00     0.009 A 
ATOM     88  C   UNL A   1      31.942  26.764  26.716  1.00  0.00     0.056 A 
ATOM     89  C   UNL A   1      30.317  26.845  24.459  1.00  0.00     0.004 A 
ATOM     90  C   UNL A   1      31.316  25.610  26.275  1.00  0.00     0.133 A 
ATOM     91  C   UNL A   1      30.505  25.641  25.140  1.00  0.00     0.047 A 
BRANCH  90  92
ATOM     92  O   UNL A   1      31.480  24.347  26.888  1.00  0.00    -0.410 OA
BRANCH  92  93
ATOM     93  C   UNL A   1      30.529  23.328  26.899  1.00  0.00     0.412 C 
ATOM     94  O   UNL A   1      29.410  23.364  27.392  1.00  0.00    -0.224 OA
ATOM     95  N   UNL A   1      30.949  22.201  26.250  1.00  0.00    -0.321 N 
ATOM     96  H   UNL A   1      30.378  21.403  26.318  1.00  0.00     0.167 HD
BRANCH  95  97
ATOM     97  C   UNL A   1      32.157  22.086  25.474  1.00  0.00     0.120 C 
BRANCH  97  98
ATOM     98  C   UNL A   1      31.955  22.247  23.969  1.00  0.00     0.026 C 
BRANCH  98  99
ATOM     99  C   UNL A   1      33.098  22.845  23.139  1.00  0.00     0.037 C 
BRANCH  99 100
ATOM    100  C   UNL A   1      33.209  24.339  22.937  1.00  0.00    -0.048 A 
ATOM    101  C   UNL A   1      32.715  25.032  21.827  1.00  0.00     0.004 A 
ATOM    102  C   UNL A   1      33.919  25.073  23.904  1.00  0.00     0.004 A 
ATOM    103  C   UNL A   1      32.927  26.408  21.685  1.00  0.00     0.000 A 
ATOM    104  C   UNL A   1      34.123  26.447  23.770  1.00  0.00     0.000 A 
ATOM    105  C   UNL A   1      33.630  27.116  22.655  1.00  0.00     0.000 A 
ENDBRANCH  99 100
ENDBRANCH  98  99
ENDBRANCH  97  98
ENDBRANCH  95  97
ENDBRANCH  92  93
ENDBRANCH  90  92
ENDBRANCH  84  86
ENDBRANCH   2  79
TORSDOF 21
ENDMDL
MODEL 3
REMARK VINA RESULT:     -10.2      3.653      5.063
REMARK SMILES C[C@@H](C(=O)NCCCNC(=O)c1ccc(-c2c3nc(c(-c4cc(S(=O)(=O)[O-])ccc4F)c4ccc([nH]4)c(-c4cc(S(=O)(=O)[O-])ccc4F)c4nc(c(-c5cc(S(=O)(=O)[O-])ccc5F)c5ccc2[nH]5)C=C4)C=C3)cc1)c1ccc(-c2cccc(OC(=O)NCCCc3ccccc3)c2)c(F)c1
REMARK SMILES IDX 1 1 2 2 3 3 4 4 5 5 6 7 7 8 8 9 9 10 10 11 11 13 12 14 13 15
REMARK SMILES IDX 74 16 14 17 73 18 15 19 16 20 17 21 67 22 18 23 72 24 66 25
REMARK SMILES IDX 68 26 19 27 71 28 65 29 64 30 20 32 52 33 32 34 51 35 33 36
REMARK SMILES IDX 36 37 50 38 69 39 34 40 35 41 49 43 70 44 37 45 21 46 22 47
REMARK SMILES IDX 30 48 23 49 29 50 31 51 28 52 24 53 25 54 26 55 27 56 53 57
REMARK SMILES IDX 54 58 62 59 55 60 61 61 63 62 60 63 56 64 57 65 58 66 59 67
REMARK SMILES IDX 38 68 39 69 47 70 40 71 46 72 48 73 45 74 41 75 42 76 43 77
REMARK SMILES IDX 44 78 75 79 76 80 100 81 77 82 98 83 78 84 99 85 79 86 80 87
REMARK SMILES IDX 97 88 81 89 83 90 82 91 84 92 85 93 86 94 87 95 88 97 89 98
REMARK SMILES IDX 90 99 91 100 92 101 96 102 93 103 95 104 94 105
REMARK H PARENT 5 6 9 12 68 31 36 42 87 96
REMARK Flexibility Score: inf
ROOT
ATOM      1  C   UNL A   1      41.520  24.066  28.434  1.00  0.00     0.023 C 
ATOM      2  C   UNL A   1      40.629  24.814  27.435  1.00  0.00     0.105 C 
ENDROOT
BRANCH   2   3
ATOM      3  C   UNL A   1      39.484  23.911  26.940  1.00  0.00     0.227 C 
ATOM      4  O   UNL A   1      38.339  24.322  26.735  1.00  0.00    -0.274 OA
ATOM      5  N   UNL A   1      39.719  22.600  26.646  1.00  0.00    -0.356 N 
ATOM      6  H   UNL A   1      38.990  22.149  26.161  1.00  0.00     0.163 HD
BRANCH   5   7
ATOM      7  C   UNL A   1      40.868  21.764  26.932  1.00  0.00     0.117 C 
BRANCH   7   8
ATOM      8  C   UNL A   1      41.837  21.734  25.750  1.00  0.00     0.042 C 
BRANCH   8   9
ATOM      9  C   UNL A   1      43.309  21.707  26.155  1.00  0.00     0.118 C 
BRANCH   9  10
ATOM     10  N   UNL A   1      44.199  21.924  25.025  1.00  0.00    -0.352 N 
ATOM     11  C   UNL A   1      44.824  23.072  24.602  1.00  0.00     0.251 C 
ATOM     12  H   UNL A   1      44.382  21.126  24.478  1.00  0.00     0.163 HD
ATOM     13  O   UNL A   1      45.357  23.092  23.496  1.00  0.00    -0.269 OA
BRANCH  11  14
ATOM     14  C   UNL A   1      44.832  24.282  25.456  1.00  0.00     0.039 A 
ATOM     15  C   UNL A   1      43.756  25.169  25.370  1.00  0.00     0.014 A 
ATOM     16  C   UNL A   1      45.888  24.548  26.331  1.00  0.00     0.014 A 
ATOM     17  C   UNL A   1      43.698  26.274  26.224  1.00  0.00     0.010 A 
ATOM     18  C   UNL A   1      45.797  25.611  27.228  1.00  0.00     0.010 A 
ATOM     19  C   UNL A   1      44.690  26.473  27.198  1.00  0.00    -0.014 A 
BRANCH  19  20
ATOM     20  C   UNL A   1      44.549  27.533  28.232  1.00  0.00     0.031 A 
ATOM     21  C   UNL A   1      44.893  28.964  27.918  1.00  0.00     0.074 A 
ATOM     22  C   UNL A   1      44.179  27.182  29.482  1.00  0.00     0.049 A 
ATOM     23  N   UNL A   1      44.914  30.001  28.717  1.00  0.00    -0.248 NA
ATOM     24  C   UNL A   1      45.283  29.267  26.532  1.00  0.00     0.031 C 
ATOM     25  C   UNL A   1      43.853  25.820  29.913  1.00  0.00     0.029 A 
ATOM     26  N   UNL A   1      44.031  27.931  30.625  1.00  0.00    -0.354 N 
ATOM     27  C   UNL A   1      45.329  31.075  27.938  1.00  0.00     0.074 A 
ATOM     28  C   UNL A   1      45.583  30.557  26.611  1.00  0.00     0.031 C 
ATOM     29  C   UNL A   1      43.530  25.833  31.215  1.00  0.00     0.029 A 
ATOM     30  C   UNL A   1      43.684  27.189  31.733  1.00  0.00     0.049 A 
ATOM     31  H   UNL A   1      44.160  28.906  30.650  1.00  0.00     0.167 HD
ATOM     32  C   UNL A   1      45.474  32.374  28.301  1.00  0.00     0.034 A 
ATOM     33  C   UNL A   1      43.539  27.550  33.024  1.00  0.00     0.034 A 
ATOM     34  C   UNL A   1      45.201  32.875  29.626  1.00  0.00     0.049 A 
ATOM     35  C   UNL A   1      43.756  28.995  33.402  1.00  0.00     0.074 A 
ATOM     36  C   UNL A   1      45.229  34.187  30.068  1.00  0.00     0.029 A 
ATOM     37  N   UNL A   1      44.870  32.094  30.724  1.00  0.00    -0.354 N 
ATOM     38  N   UNL A   1      44.066  30.011  32.630  1.00  0.00    -0.248 NA
ATOM     39  C   UNL A   1      43.602  29.343  34.821  1.00  0.00     0.031 C 
ATOM     40  C   UNL A   1      45.005  34.189  31.448  1.00  0.00     0.029 A 
ATOM     41  C   UNL A   1      44.750  32.890  31.853  1.00  0.00     0.049 A 
ATOM     42  H   UNL A   1      44.740  31.118  30.704  1.00  0.00     0.167 HD
ATOM     43  C   UNL A   1      44.119  31.120  33.470  1.00  0.00     0.074 A 
ATOM     44  C   UNL A   1      43.781  30.654  34.798  1.00  0.00     0.031 C 
ATOM     45  C   UNL A   1      44.426  32.408  33.174  1.00  0.00     0.034 A 
BRANCH  32  46
ATOM     46  C   UNL A   1      45.979  33.349  27.266  1.00  0.00     0.023 A 
ATOM     47  C   UNL A   1      47.348  33.609  27.093  1.00  0.00     0.031 A 
ATOM     48  C   UNL A   1      45.070  33.989  26.402  1.00  0.00     0.131 A 
ATOM     49  C   UNL A   1      47.769  34.513  26.105  1.00  0.00     0.055 A 
ATOM     50  C   UNL A   1      45.499  34.835  25.379  1.00  0.00     0.041 A 
ATOM     51  F   UNL A   1      43.748  33.791  26.534  1.00  0.00    -0.206 F 
ATOM     52  C   UNL A   1      46.855  35.106  25.229  1.00  0.00     0.022 A 
BRANCH  49  53
ATOM     53  S   UNL A   1      49.522  34.970  26.033  1.00  0.00     0.124 S 
ATOM     54  O   UNL A   1      50.084  34.154  27.106  1.00  0.00    -0.237 OA
ATOM     55  O   UNL A   1      49.894  34.586  24.677  1.00  0.00    -0.237 OA
ATOM     56  O   UNL A   1      49.512  36.408  26.294  1.00  0.00    -0.744 OA
ENDBRANCH  49  53
ENDBRANCH  32  46
BRANCH  33  57
ATOM     57  C   UNL A   1      43.221  26.536  34.074  1.00  0.00     0.023 A 
ATOM     58  C   UNL A   1      44.200  25.645  34.539  1.00  0.00     0.031 A 
ATOM     59  C   UNL A   1      41.910  26.381  34.562  1.00  0.00     0.131 A 
ATOM     60  C   UNL A   1      43.843  24.597  35.401  1.00  0.00     0.055 A 
ATOM     61  C   UNL A   1      41.574  25.381  35.476  1.00  0.00     0.041 A 
ATOM     62  F   UNL A   1      40.929  27.201  34.151  1.00  0.00    -0.206 F 
ATOM     63  C   UNL A   1      42.540  24.468  35.886  1.00  0.00     0.022 A 
BRANCH  60  64
ATOM     64  S   UNL A   1      45.077  23.318  35.767  1.00  0.00     0.124 S 
ATOM     65  O   UNL A   1      45.083  23.322  37.225  1.00  0.00    -0.237 OA
ATOM     66  O   UNL A   1      44.491  22.144  35.130  1.00  0.00    -0.237 OA
ATOM     67  O   UNL A   1      46.292  23.828  35.136  1.00  0.00    -0.744 OA
ENDBRANCH  60  64
ENDBRANCH  33  57
BRANCH  45  68
ATOM     68  C   UNL A   1      44.381  33.402  34.309  1.00  0.00     0.023 A 
ATOM     69  C   UNL A   1      43.202  34.100  34.628  1.00  0.00     0.031 A 
ATOM     70  C   UNL A   1      45.531  33.660  35.077  1.00  0.00     0.131 A 
ATOM     71  C   UNL A   1      43.213  35.061  35.650  1.00  0.00     0.055 A 
ATOM     72  C   UNL A   1      45.518  34.570  36.135  1.00  0.00     0.041 A 
ATOM     73  F   UNL A   1      46.684  33.027  34.814  1.00  0.00    -0.206 F 
ATOM     74  C   UNL A   1      44.358  35.286  36.418  1.00  0.00     0.022 A 
BRANCH  71  75
ATOM     75  S   UNL A   1      41.733  36.076  35.906  1.00  0.00     0.124 S 
ATOM     76  O   UNL A   1      41.972  37.194  35.000  1.00  0.00    -0.237 OA
ATOM     77  O   UNL A   1      40.659  35.165  35.524  1.00  0.00    -0.237 OA
ATOM     78  O   UNL A   1      41.787  36.407  37.329  1.00  0.00    -0.744 OA
ENDBRANCH  71  75
ENDBRANCH  45  68
ENDBRANCH  19  20
ENDBRANCH  11  14
ENDBRANCH   9  10
ENDBRANCH   8   9
ENDBRANCH   7   8
ENDBRANCH   5   7
ENDBRANCH   2   3
BRANCH   2  79
ATOM     79  C   UNL A   1      40.101  26.144  27.980  1.00  0.00    -0.033 A 
ATOM     80  C   UNL A   1      39.652  26.226  29.312  1.00  0.00     0.005 A 
ATOM     81  C   UNL A   1      40.040  27.305  27.199  1.00  0.00     0.044 A 
ATOM     82  C   UNL A   1      39.169  27.427  29.845  1.00  0.00     0.012 A 
ATOM     83  C   UNL A   1      39.547  28.490  27.729  1.00  0.00     0.131 A 
ATOM     84  C   UNL A   1      39.095  28.577  29.051  1.00  0.00     0.018 A 
ATOM     85  F   UNL A   1      39.490  29.561  26.921  1.00  0.00    -0.206 F 
BRANCH  84  86
ATOM     86  C   UNL A   1      38.469  29.808  29.538  1.00  0.00    -0.012 A 
ATOM     87  C   UNL A   1      38.498  31.010  28.819  1.00  0.00     0.009 A 
ATOM     88  C   UNL A   1      37.797  29.774  30.769  1.00  0.00     0.056 A 
ATOM     89  C   UNL A   1      37.855  32.147  29.318  1.00  0.00     0.004 A 
ATOM     90  C   UNL A   1      37.171  30.905  31.270  1.00  0.00     0.133 A 
ATOM     91  C   UNL A   1      37.190  32.096  30.544  1.00  0.00     0.047 A 
BRANCH  90  92
ATOM     92  O   UNL A   1      36.451  30.926  32.485  1.00  0.00    -0.410 OA
BRANCH  92  93
ATOM     93  C   UNL A   1      36.496  31.953  33.428  1.00  0.00     0.412 C 
ATOM     94  O   UNL A   1      35.808  32.965  33.455  1.00  0.00    -0.224 OA
ATOM     95  N   UNL A   1      37.414  31.729  34.415  1.00  0.00    -0.321 N 
ATOM     96  H   UNL A   1      37.583  32.464  35.048  1.00  0.00     0.167 HD
BRANCH  95  97
ATOM     97  C   UNL A   1      38.153  30.509  34.607  1.00  0.00     0.120 C 
BRANCH  97  98
ATOM     98  C   UNL A   1      39.582  30.547  34.068  1.00  0.00     0.026 C 
BRANCH  98  99
ATOM     99  C   UNL A   1      40.233  31.914  33.824  1.00  0.00     0.037 C 
BRANCH  99 100
ATOM    100  C   UNL A   1      40.660  32.330  32.435  1.00  0.00    -0.048 A 
ATOM    101  C   UNL A   1      41.115  31.454  31.443  1.00  0.00     0.004 A 
ATOM    102  C   UNL A   1      40.662  33.706  32.142  1.00  0.00     0.004 A 
ATOM    103  C   UNL A   1      41.562  31.935  30.207  1.00  0.00     0.000 A 
ATOM    104  C   UNL A   1      41.098  34.187  30.906  1.00  0.00     0.000 A 
ATOM    105  C   UNL A   1      41.553  33.299  29.938  1.00  0.00     0.000 A 
ENDBRANCH  99 100
ENDBRANCH  98  99
ENDBRANCH  97  98
ENDBRANCH  95  97
ENDBRANCH  92  93
ENDBRANCH  90  92
ENDBRANCH  84  86
ENDBRANCH   2  79
TORSDOF 21
ENDMDL
