MODEL 1
REMARK VINA RESULT:     -11.5      0.000      0.000
REMARK SMILES N#Cc1cc2c(nc1N(CC(=O)NCCCNC(=O)c1ccc(-c3c4nc(c(-c5cc(S(=O)(=O)[O-])ccc5F)c5ccc([nH]5)c(-c5cc(S(=O)(=O)[O-])ccc5F)c5nc(c(-c6cc(S(=O)(=O)[O-])ccc6F)c6ccc3[nH]6)C=C5)C=C4)cc1)CC(F)(F)F)CCC2
REMARK SMILES IDX 15 1 14 2 13 3 11 4 12 5 10 7 9 8 8 9 3 10 4 11 5 12 7 13
REMARK SMILES IDX 6 14 90 15 88 16 89 17 2 18 1 19 83 20 84 21 85 22 86 23
REMARK SMILES IDX 87 24 16 25 17 26 18 27 19 29 20 30 21 31 82 32 22 33 81 34
REMARK SMILES IDX 23 35 24 36 25 37 75 38 26 39 80 40 74 41 76 42 27 43 79 44
REMARK SMILES IDX 73 45 72 46 28 48 60 49 40 50 59 51 41 52 44 53 58 54 77 55
REMARK SMILES IDX 42 56 43 57 57 59 78 60 45 61 29 62 30 63 38 64 31 65 37 66
REMARK SMILES IDX 39 67 36 68 32 69 33 70 34 71 35 72 61 73 62 74 70 75 63 76
REMARK SMILES IDX 69 77 71 78 68 79 64 80 65 81 66 82 67 83 46 84 47 85 55 86
REMARK SMILES IDX 48 87 54 88 56 89 53 90 49 91 50 92 51 93 52 94
REMARK H PARENT 13 6 17 28 76 47 44 58
REMARK Flexibility Score: inf
ROOT
ATOM      1  C   UNL A   1      31.339  31.791  26.461  1.00  0.00     0.042 C 
ENDROOT
BRANCH   1   2
ATOM      2  C   UNL A   1      31.421  30.302  26.148  1.00  0.00     0.117 C 
BRANCH   2   3
ATOM      3  N   UNL A   1      31.709  30.041  24.750  1.00  0.00    -0.354 N 
ATOM      4  C   UNL A   1      32.423  29.017  24.198  1.00  0.00     0.239 C 
ATOM      5  O   UNL A   1      32.580  29.002  22.973  1.00  0.00    -0.273 OA
ATOM      6  H   UNL A   1      31.340  30.693  24.111  1.00  0.00     0.163 HD
BRANCH   4   7
ATOM      7  C   UNL A   1      33.019  27.915  25.082  1.00  0.00     0.218 C 
BRANCH   7   8
ATOM      8  N   UNL A   1      32.318  26.612  24.936  1.00  0.00    -0.337 N 
BRANCH   8   9
ATOM      9  C   UNL A   1      33.089  25.472  24.767  1.00  0.00     0.147 A 
ATOM     10  C   UNL A   1      33.727  25.042  23.578  1.00  0.00     0.095 A 
ATOM     11  C   UNL A   1      34.601  23.932  23.589  1.00  0.00     0.029 A 
ATOM     12  C   UNL A   1      34.756  23.228  24.757  1.00  0.00    -0.025 A 
ATOM     13  N   UNL A   1      33.244  24.715  25.891  1.00  0.00    -0.234 NA
ATOM     14  C   UNL A   1      34.042  23.635  25.860  1.00  0.00     0.046 A 
ATOM     15  C   UNL A   1      35.620  22.055  25.067  1.00  0.00     0.038 C 
ATOM     16  C   UNL A   1      34.310  22.740  27.037  1.00  0.00     0.057 C 
ATOM     17  C   UNL A   1      34.943  21.525  26.341  1.00  0.00     0.011 C 
BRANCH  10  18
ATOM     18  C   UNL A   1      33.502  25.622  22.289  1.00  0.00     0.103 C 
ATOM     19  N   UNL A   1      33.351  26.069  21.231  1.00  0.00    -0.192 NA
ENDBRANCH  10  18
ENDBRANCH   8   9
BRANCH   8  20
ATOM     20  C   UNL A   1      30.832  26.675  25.040  1.00  0.00     0.234 C 
BRANCH  20  21
ATOM     21  C   UNL A   1      30.024  26.174  23.826  1.00  0.00     0.405 C 
ATOM     22  F   UNL A   1      30.228  24.863  23.571  1.00  0.00    -0.169 F 
ATOM     23  F   UNL A   1      28.699  26.349  24.035  1.00  0.00    -0.169 F 
ATOM     24  F   UNL A   1      30.342  26.852  22.699  1.00  0.00    -0.169 F 
ENDBRANCH  20  21
ENDBRANCH   8  20
ENDBRANCH   7   8
ENDBRANCH   4   7
ENDBRANCH   2   3
ENDBRANCH   1   2
BRANCH   1  25
ATOM     25  C   UNL A   1      32.673  32.396  26.888  1.00  0.00     0.118 C 
BRANCH  25  26
ATOM     26  N   UNL A   1      32.520  33.774  27.339  1.00  0.00    -0.352 N 
ATOM     27  C   UNL A   1      33.121  34.419  28.391  1.00  0.00     0.251 C 
ATOM     28  H   UNL A   1      31.893  34.322  26.812  1.00  0.00     0.163 HD
ATOM     29  O   UNL A   1      32.669  35.491  28.781  1.00  0.00    -0.269 OA
BRANCH  27  30
ATOM     30  C   UNL A   1      34.294  33.814  29.057  1.00  0.00     0.039 A 
ATOM     31  C   UNL A   1      34.091  32.835  30.033  1.00  0.00     0.014 A 
ATOM     32  C   UNL A   1      35.592  34.221  28.732  1.00  0.00     0.014 A 
ATOM     33  C   UNL A   1      35.192  32.221  30.633  1.00  0.00     0.010 A 
ATOM     34  C   UNL A   1      36.688  33.554  29.276  1.00  0.00     0.010 A 
ATOM     35  C   UNL A   1      36.500  32.548  30.234  1.00  0.00    -0.014 A 
BRANCH  35  36
ATOM     36  C   UNL A   1      37.675  31.849  30.820  1.00  0.00     0.031 A 
ATOM     37  C   UNL A   1      38.108  32.151  32.229  1.00  0.00     0.074 A 
ATOM     38  C   UNL A   1      38.353  30.947  30.079  1.00  0.00     0.049 A 
ATOM     39  N   UNL A   1      39.118  31.662  32.900  1.00  0.00    -0.248 NA
ATOM     40  C   UNL A   1      37.311  33.137  32.981  1.00  0.00     0.031 C 
ATOM     41  C   UNL A   1      38.034  30.579  28.696  1.00  0.00     0.029 A 
ATOM     42  N   UNL A   1      39.440  30.166  30.383  1.00  0.00    -0.354 N 
ATOM     43  C   UNL A   1      39.069  32.263  34.153  1.00  0.00     0.074 A 
ATOM     44  C   UNL A   1      37.971  33.204  34.129  1.00  0.00     0.031 C 
ATOM     45  C   UNL A   1      38.872  29.611  28.293  1.00  0.00     0.029 A 
ATOM     46  C   UNL A   1      39.824  29.324  29.363  1.00  0.00     0.049 A 
ATOM     47  H   UNL A   1      39.903  30.204  31.251  1.00  0.00     0.167 HD
ATOM     48  C   UNL A   1      39.844  32.023  35.235  1.00  0.00     0.034 A 
ATOM     49  C   UNL A   1      40.827  28.425  29.296  1.00  0.00     0.034 A 
ATOM     50  C   UNL A   1      40.924  31.073  35.260  1.00  0.00     0.049 A 
ATOM     51  C   UNL A   1      41.727  28.246  30.494  1.00  0.00     0.074 A 
ATOM     52  C   UNL A   1      41.759  30.756  36.317  1.00  0.00     0.029 A 
ATOM     53  N   UNL A   1      41.315  30.284  34.190  1.00  0.00    -0.354 N 
ATOM     54  N   UNL A   1      41.657  28.824  31.671  1.00  0.00    -0.248 NA
ATOM     55  C   UNL A   1      42.841  27.296  30.358  1.00  0.00     0.031 C 
ATOM     56  C   UNL A   1      42.692  29.819  35.870  1.00  0.00     0.029 A 
ATOM     57  C   UNL A   1      42.393  29.497  34.557  1.00  0.00     0.049 A 
ATOM     58  H   UNL A   1      40.890  30.283  33.302  1.00  0.00     0.167 HD
ATOM     59  C   UNL A   1      42.692  28.275  32.423  1.00  0.00     0.074 A 
ATOM     60  C   UNL A   1      43.368  27.319  31.574  1.00  0.00     0.031 C 
ATOM     61  C   UNL A   1      43.048  28.537  33.705  1.00  0.00     0.034 A 
BRANCH  48  62
ATOM     62  C   UNL A   1      39.547  32.775  36.504  1.00  0.00     0.023 A 
ATOM     63  C   UNL A   1      38.602  32.293  37.424  1.00  0.00     0.031 A 
ATOM     64  C   UNL A   1      40.286  33.921  36.845  1.00  0.00     0.131 A 
ATOM     65  C   UNL A   1      38.414  32.958  38.641  1.00  0.00     0.055 A 
ATOM     66  C   UNL A   1      40.132  34.549  38.082  1.00  0.00     0.041 A 
ATOM     67  F   UNL A   1      41.193  34.428  35.995  1.00  0.00    -0.206 F 
ATOM     68  C   UNL A   1      39.191  34.067  38.988  1.00  0.00     0.022 A 
BRANCH  65  69
ATOM     69  S   UNL A   1      37.116  32.369  39.761  1.00  0.00     0.124 S 
ATOM     70  O   UNL A   1      35.910  32.639  38.981  1.00  0.00    -0.237 OA
ATOM     71  O   UNL A   1      37.461  30.963  39.937  1.00  0.00    -0.237 OA
ATOM     72  O   UNL A   1      37.284  33.205  40.949  1.00  0.00    -0.744 OA
ENDBRANCH  65  69
ENDBRANCH  48  62
BRANCH  49  73
ATOM     73  C   UNL A   1      41.050  27.617  28.061  1.00  0.00     0.023 A 
ATOM     74  C   UNL A   1      40.751  26.245  28.038  1.00  0.00     0.031 A 
ATOM     75  C   UNL A   1      41.623  28.185  26.909  1.00  0.00     0.131 A 
ATOM     76  C   UNL A   1      41.075  25.476  26.910  1.00  0.00     0.055 A 
ATOM     77  C   UNL A   1      41.890  27.427  25.767  1.00  0.00     0.041 A 
ATOM     78  F   UNL A   1      41.928  29.491  26.874  1.00  0.00    -0.206 F 
ATOM     79  C   UNL A   1      41.629  26.060  25.770  1.00  0.00     0.022 A 
BRANCH  76  80
ATOM     80  S   UNL A   1      40.843  23.679  26.991  1.00  0.00     0.124 S 
ATOM     81  O   UNL A   1      41.421  23.365  28.293  1.00  0.00    -0.237 OA
ATOM     82  O   UNL A   1      39.393  23.555  26.884  1.00  0.00    -0.237 OA
ATOM     83  O   UNL A   1      41.595  23.188  25.838  1.00  0.00    -0.744 OA
ENDBRANCH  76  80
ENDBRANCH  49  73
BRANCH  61  84
ATOM     84  C   UNL A   1      44.188  27.753  34.294  1.00  0.00     0.023 A 
ATOM     85  C   UNL A   1      43.980  26.518  34.928  1.00  0.00     0.031 A 
ATOM     86  C   UNL A   1      45.509  28.215  34.148  1.00  0.00     0.131 A 
ATOM     87  C   UNL A   1      45.077  25.792  35.412  1.00  0.00     0.055 A 
ATOM     88  C   UNL A   1      46.600  27.464  34.586  1.00  0.00     0.041 A 
ATOM     89  F   UNL A   1      45.761  29.387  33.544  1.00  0.00    -0.206 F 
ATOM     90  C   UNL A   1      46.386  26.247  35.227  1.00  0.00     0.022 A 
BRANCH  87  91
ATOM     91  S   UNL A   1      44.771  24.248  36.312  1.00  0.00     0.124 S 
ATOM     92  O   UNL A   1      43.597  23.723  35.621  1.00  0.00    -0.237 OA
ATOM     93  O   UNL A   1      46.014  23.512  36.105  1.00  0.00    -0.237 OA
ATOM     94  O   UNL A   1      44.537  24.691  37.685  1.00  0.00    -0.744 OA
ENDBRANCH  87  91
ENDBRANCH  61  84
ENDBRANCH  35  36
ENDBRANCH  27  30
ENDBRANCH  25  26
ENDBRANCH   1  25
TORSDOF 18
ENDMDL
MODEL 2
REMARK VINA RESULT:     -11.5      1.554      7.647
REMARK SMILES N#Cc1cc2c(nc1N(CC(=O)NCCCNC(=O)c1ccc(-c3c4nc(c(-c5cc(S(=O)(=O)[O-])ccc5F)c5ccc([nH]5)c(-c5cc(S(=O)(=O)[O-])ccc5F)c5nc(c(-c6cc(S(=O)(=O)[O-])ccc6F)c6ccc3[nH]6)C=C5)C=C4)cc1)CC(F)(F)F)CCC2
REMARK SMILES IDX 15 1 14 2 13 3 11 4 12 5 10 7 9 8 8 9 3 10 4 11 5 12 7 13
REMARK SMILES IDX 6 14 90 15 88 16 89 17 2 18 1 19 83 20 84 21 85 22 86 23
REMARK SMILES IDX 87 24 16 25 17 26 18 27 19 29 20 30 21 31 82 32 22 33 81 34
REMARK SMILES IDX 23 35 24 36 25 37 75 38 26 39 80 40 74 41 76 42 27 43 79 44
REMARK SMILES IDX 73 45 72 46 28 48 60 49 40 50 59 51 41 52 44 53 58 54 77 55
REMARK SMILES IDX 42 56 43 57 57 59 78 60 45 61 29 62 30 63 38 64 31 65 37 66
REMARK SMILES IDX 39 67 36 68 32 69 33 70 34 71 35 72 61 73 62 74 70 75 63 76
REMARK SMILES IDX 69 77 71 78 68 79 64 80 65 81 66 82 67 83 46 84 47 85 55 86
REMARK SMILES IDX 48 87 54 88 56 89 53 90 49 91 50 92 51 93 52 94
REMARK H PARENT 13 6 17 28 76 47 44 58
REMARK Flexibility Score: inf
ROOT
ATOM      1  C   UNL A   1      31.518  31.882  26.581  1.00  0.00     0.042 C 
ENDROOT
BRANCH   1   2
ATOM      2  C   UNL A   1      31.639  30.392  26.284  1.00  0.00     0.117 C 
BRANCH   2   3
ATOM      3  N   UNL A   1      31.883  30.121  24.879  1.00  0.00    -0.354 N 
ATOM      4  C   UNL A   1      32.541  29.070  24.310  1.00  0.00     0.239 C 
ATOM      5  O   UNL A   1      32.668  29.051  23.082  1.00  0.00    -0.273 OA
ATOM      6  H   UNL A   1      31.524  30.789  24.249  1.00  0.00     0.163 HD
BRANCH   4   7
ATOM      7  C   UNL A   1      33.114  27.944  25.179  1.00  0.00     0.218 C 
BRANCH   7   8
ATOM      8  N   UNL A   1      32.408  26.650  24.990  1.00  0.00    -0.337 N 
BRANCH   8   9
ATOM      9  C   UNL A   1      33.175  25.510  24.803  1.00  0.00     0.147 A 
ATOM     10  C   UNL A   1      33.795  25.086  23.602  1.00  0.00     0.095 A 
ATOM     11  C   UNL A   1      34.668  23.975  23.594  1.00  0.00     0.029 A 
ATOM     12  C   UNL A   1      34.839  23.264  24.756  1.00  0.00    -0.025 A 
ATOM     13  N   UNL A   1      33.346  24.747  25.921  1.00  0.00    -0.234 NA
ATOM     14  C   UNL A   1      34.143  23.665  25.871  1.00  0.00     0.046 A 
ATOM     15  C   UNL A   1      35.707  22.089  25.047  1.00  0.00     0.038 C 
ATOM     16  C   UNL A   1      34.427  22.764  27.039  1.00  0.00     0.057 C 
ATOM     17  C   UNL A   1      35.048  21.552  26.327  1.00  0.00     0.011 C 
BRANCH  10  18
ATOM     18  C   UNL A   1      33.551  25.674  22.320  1.00  0.00     0.103 C 
ATOM     19  N   UNL A   1      33.327  26.176  21.301  1.00  0.00    -0.192 NA
ENDBRANCH  10  18
ENDBRANCH   8   9
BRANCH   8  20
ATOM     20  C   UNL A   1      30.921  26.719  25.074  1.00  0.00     0.234 C 
BRANCH  20  21
ATOM     21  C   UNL A   1      30.128  26.236  23.842  1.00  0.00     0.405 C 
ATOM     22  F   UNL A   1      30.415  26.946  22.729  1.00  0.00    -0.169 F 
ATOM     23  F   UNL A   1      30.404  24.937  23.581  1.00  0.00    -0.169 F 
ATOM     24  F   UNL A   1      28.793  26.328  24.039  1.00  0.00    -0.169 F 
ENDBRANCH  20  21
ENDBRANCH   8  20
ENDBRANCH   7   8
ENDBRANCH   4   7
ENDBRANCH   2   3
ENDBRANCH   1   2
BRANCH   1  25
ATOM     25  C   UNL A   1      32.765  32.474  27.230  1.00  0.00     0.118 C 
BRANCH  25  26
ATOM     26  N   UNL A   1      32.595  33.890  27.533  1.00  0.00    -0.352 N 
ATOM     27  C   UNL A   1      33.146  34.638  28.543  1.00  0.00     0.251 C 
ATOM     28  H   UNL A   1      31.997  34.381  26.923  1.00  0.00     0.163 HD
ATOM     29  O   UNL A   1      32.678  35.743  28.801  1.00  0.00    -0.269 OA
BRANCH  27  30
ATOM     30  C   UNL A   1      34.283  34.105  29.323  1.00  0.00     0.039 A 
ATOM     31  C   UNL A   1      34.025  33.319  30.449  1.00  0.00     0.014 A 
ATOM     32  C   UNL A   1      35.602  34.391  28.955  1.00  0.00     0.014 A 
ATOM     33  C   UNL A   1      35.091  32.769  31.164  1.00  0.00     0.010 A 
ATOM     34  C   UNL A   1      36.660  33.780  29.624  1.00  0.00     0.010 A 
ATOM     35  C   UNL A   1      36.416  32.964  30.737  1.00  0.00    -0.014 A 
BRANCH  35  36
ATOM     36  C   UNL A   1      37.551  32.324  31.455  1.00  0.00     0.031 A 
ATOM     37  C   UNL A   1      38.304  31.189  30.814  1.00  0.00     0.074 A 
ATOM     38  C   UNL A   1      37.897  32.761  32.683  1.00  0.00     0.049 A 
ATOM     39  N   UNL A   1      39.302  30.492  31.293  1.00  0.00    -0.248 NA
ATOM     40  C   UNL A   1      37.879  30.774  29.466  1.00  0.00     0.031 C 
ATOM     41  C   UNL A   1      37.233  33.846  33.411  1.00  0.00     0.029 A 
ATOM     42  N   UNL A   1      38.897  32.361  33.534  1.00  0.00    -0.354 N 
ATOM     43  C   UNL A   1      39.634  29.574  30.304  1.00  0.00     0.074 A 
ATOM     44  C   UNL A   1      38.690  29.753  29.224  1.00  0.00     0.031 C 
ATOM     45  C   UNL A   1      37.875  34.057  34.571  1.00  0.00     0.029 A 
ATOM     46  C   UNL A   1      38.961  33.090  34.701  1.00  0.00     0.049 A 
ATOM     47  H   UNL A   1      39.512  31.620  33.329  1.00  0.00     0.167 HD
ATOM     48  C   UNL A   1      40.657  28.689  30.282  1.00  0.00     0.034 A 
ATOM     49  C   UNL A   1      39.798  32.991  35.754  1.00  0.00     0.034 A 
ATOM     50  C   UNL A   1      41.606  28.525  31.352  1.00  0.00     0.049 A 
ATOM     51  C   UNL A   1      40.874  31.933  35.734  1.00  0.00     0.074 A 
ATOM     52  C   UNL A   1      42.683  27.658  31.414  1.00  0.00     0.029 A 
ATOM     53  N   UNL A   1      41.600  29.242  32.537  1.00  0.00    -0.354 N 
ATOM     54  N   UNL A   1      41.171  31.078  34.783  1.00  0.00    -0.248 NA
ATOM     55  C   UNL A   1      41.727  31.825  36.926  1.00  0.00     0.031 C 
ATOM     56  C   UNL A   1      43.293  27.809  32.660  1.00  0.00     0.029 A 
ATOM     57  C   UNL A   1      42.642  28.822  33.346  1.00  0.00     0.049 A 
ATOM     58  H   UNL A   1      40.952  29.946  32.770  1.00  0.00     0.167 HD
ATOM     59  C   UNL A   1      42.270  30.362  35.249  1.00  0.00     0.074 A 
ATOM     60  C   UNL A   1      42.587  30.884  36.560  1.00  0.00     0.031 C 
ATOM     61  C   UNL A   1      42.956  29.362  34.643  1.00  0.00     0.034 A 
BRANCH  48  62
ATOM     62  C   UNL A   1      40.835  27.836  29.056  1.00  0.00     0.023 A 
ATOM     63  C   UNL A   1      41.814  28.147  28.098  1.00  0.00     0.031 A 
ATOM     64  C   UNL A   1      40.097  26.650  28.896  1.00  0.00     0.131 A 
ATOM     65  C   UNL A   1      42.026  27.285  27.015  1.00  0.00     0.055 A 
ATOM     66  C   UNL A   1      40.349  25.769  27.843  1.00  0.00     0.041 A 
ATOM     67  F   UNL A   1      39.143  26.316  29.778  1.00  0.00    -0.206 F 
ATOM     68  C   UNL A   1      41.319  26.085  26.895  1.00  0.00     0.022 A 
BRANCH  65  69
ATOM     69  S   UNL A   1      43.224  27.766  25.743  1.00  0.00     0.124 S 
ATOM     70  O   UNL A   1      43.895  28.894  26.385  1.00  0.00    -0.237 OA
ATOM     71  O   UNL A   1      44.022  26.556  25.583  1.00  0.00    -0.237 OA
ATOM     72  O   UNL A   1      42.386  28.116  24.598  1.00  0.00    -0.744 OA
ENDBRANCH  65  69
ENDBRANCH  48  62
BRANCH  49  73
ATOM     73  C   UNL A   1      39.667  33.908  36.924  1.00  0.00     0.023 A 
ATOM     74  C   UNL A   1      39.125  33.450  38.136  1.00  0.00     0.031 A 
ATOM     75  C   UNL A   1      40.021  35.266  36.834  1.00  0.00     0.131 A 
ATOM     76  C   UNL A   1      38.900  34.351  39.188  1.00  0.00     0.055 A 
ATOM     77  C   UNL A   1      39.850  36.146  37.904  1.00  0.00     0.041 A 
ATOM     78  F   UNL A   1      40.546  35.758  35.701  1.00  0.00    -0.206 F 
ATOM     79  C   UNL A   1      39.272  35.692  39.086  1.00  0.00     0.022 A 
BRANCH  76  80
ATOM     80  S   UNL A   1      38.029  33.759  40.665  1.00  0.00     0.124 S 
ATOM     81  O   UNL A   1      37.887  34.989  41.436  1.00  0.00    -0.237 OA
ATOM     82  O   UNL A   1      36.803  33.211  40.095  1.00  0.00    -0.237 OA
ATOM     83  O   UNL A   1      38.948  32.772  41.227  1.00  0.00    -0.744 OA
ENDBRANCH  76  80
ENDBRANCH  49  73
BRANCH  61  84
ATOM     84  C   UNL A   1      44.150  28.792  35.360  1.00  0.00     0.023 A 
ATOM     85  C   UNL A   1      44.020  27.749  36.291  1.00  0.00     0.031 A 
ATOM     86  C   UNL A   1      45.443  29.249  35.045  1.00  0.00     0.131 A 
ATOM     87  C   UNL A   1      45.164  27.208  36.892  1.00  0.00     0.055 A 
ATOM     88  C   UNL A   1      46.581  28.672  35.609  1.00  0.00     0.041 A 
ATOM     89  F   UNL A   1      45.621  30.240  34.157  1.00  0.00    -0.206 F 
ATOM     90  C   UNL A   1      46.444  27.648  36.542  1.00  0.00     0.022 A 
BRANCH  87  91
ATOM     91  S   UNL A   1      44.959  25.929  38.161  1.00  0.00     0.124 S 
ATOM     92  O   UNL A   1      44.203  26.640  39.187  1.00  0.00    -0.237 OA
ATOM     93  O   UNL A   1      44.234  24.886  37.443  1.00  0.00    -0.237 OA
ATOM     94  O   UNL A   1      46.331  25.586  38.528  1.00  0.00    -0.744 OA
ENDBRANCH  87  91
ENDBRANCH  61  84
ENDBRANCH  35  36
ENDBRANCH  27  30
ENDBRANCH  25  26
ENDBRANCH   1  25
TORSDOF 18
ENDMDL
MODEL 3
REMARK VINA RESULT:     -11.4      1.567      1.866
REMARK SMILES N#Cc1cc2c(nc1N(CC(=O)NCCCNC(=O)c1ccc(-c3c4nc(c(-c5cc(S(=O)(=O)[O-])ccc5F)c5ccc([nH]5)c(-c5cc(S(=O)(=O)[O-])ccc5F)c5nc(c(-c6cc(S(=O)(=O)[O-])ccc6F)c6ccc3[nH]6)C=C5)C=C4)cc1)CC(F)(F)F)CCC2
REMARK SMILES IDX 15 1 14 2 13 3 11 4 12 5 10 7 9 8 8 9 3 10 4 11 5 12 7 13
REMARK SMILES IDX 6 14 90 15 88 16 89 17 2 18 1 19 83 20 84 21 85 22 86 23
REMARK SMILES IDX 87 24 16 25 17 26 18 27 19 29 20 30 21 31 82 32 22 33 81 34
REMARK SMILES IDX 23 35 24 36 25 37 75 38 26 39 80 40 74 41 76 42 27 43 79 44
REMARK SMILES IDX 73 45 72 46 28 48 60 49 40 50 59 51 41 52 44 53 58 54 77 55
REMARK SMILES IDX 42 56 43 57 57 59 78 60 45 61 29 62 30 63 38 64 31 65 37 66
REMARK SMILES IDX 39 67 36 68 32 69 33 70 34 71 35 72 61 73 62 74 70 75 63 76
REMARK SMILES IDX 69 77 71 78 68 79 64 80 65 81 66 82 67 83 46 84 47 85 55 86
REMARK SMILES IDX 48 87 54 88 56 89 53 90 49 91 50 92 51 93 52 94
REMARK H PARENT 13 6 17 28 76 47 44 58
REMARK Flexibility Score: inf
ROOT
ATOM      1  C   UNL A   1      31.415  32.011  26.569  1.00  0.00     0.042 C 
ENDROOT
BRANCH   1   2
ATOM      2  C   UNL A   1      31.629  30.637  25.945  1.00  0.00     0.117 C 
BRANCH   2   3
ATOM      3  N   UNL A   1      31.475  29.559  26.904  1.00  0.00    -0.354 N 
ATOM      4  C   UNL A   1      31.990  28.295  26.864  1.00  0.00     0.239 C 
ATOM      5  O   UNL A   1      31.703  27.514  27.776  1.00  0.00    -0.273 OA
ATOM      6  H   UNL A   1      30.921  29.766  27.692  1.00  0.00     0.163 HD
BRANCH   4   7
ATOM      7  C   UNL A   1      32.899  27.859  25.709  1.00  0.00     0.218 C 
BRANCH   7   8
ATOM      8  N   UNL A   1      32.331  26.739  24.915  1.00  0.00    -0.337 N 
BRANCH   8   9
ATOM      9  C   UNL A   1      33.061  25.563  24.831  1.00  0.00     0.147 A 
ATOM     10  C   UNL A   1      33.721  25.047  23.689  1.00  0.00     0.095 A 
ATOM     11  C   UNL A   1      34.548  23.907  23.787  1.00  0.00     0.029 A 
ATOM     12  C   UNL A   1      34.635  23.258  24.994  1.00  0.00    -0.025 A 
ATOM     13  N   UNL A   1      33.147  24.859  25.997  1.00  0.00    -0.234 NA
ATOM     14  C   UNL A   1      33.901  23.749  26.049  1.00  0.00     0.046 A 
ATOM     15  C   UNL A   1      35.441  22.071  25.394  1.00  0.00     0.038 C 
ATOM     16  C   UNL A   1      34.093  22.906  27.278  1.00  0.00     0.057 C 
ATOM     17  C   UNL A   1      34.699  21.634  26.667  1.00  0.00     0.011 C 
BRANCH  10  18
ATOM     18  C   UNL A   1      33.563  25.569  22.365  1.00  0.00     0.103 C 
ATOM     19  N   UNL A   1      33.408  26.019  21.310  1.00  0.00    -0.192 NA
ENDBRANCH  10  18
ENDBRANCH   8   9
BRANCH   8  20
ATOM     20  C   UNL A   1      30.986  26.996  24.325  1.00  0.00     0.234 C 
BRANCH  20  21
ATOM     21  C   UNL A   1      29.896  25.934  24.575  1.00  0.00     0.405 C 
ATOM     22  F   UNL A   1      28.681  26.321  24.131  1.00  0.00    -0.169 F 
ATOM     23  F   UNL A   1      30.211  24.777  23.947  1.00  0.00    -0.169 F 
ATOM     24  F   UNL A   1      29.768  25.650  25.891  1.00  0.00    -0.169 F 
ENDBRANCH  20  21
ENDBRANCH   8  20
ENDBRANCH   7   8
ENDBRANCH   4   7
ENDBRANCH   2   3
ENDBRANCH   1   2
BRANCH   1  25
ATOM     25  C   UNL A   1      32.663  32.573  27.242  1.00  0.00     0.118 C 
BRANCH  25  26
ATOM     26  N   UNL A   1      32.494  33.974  27.608  1.00  0.00    -0.352 N 
ATOM     27  C   UNL A   1      33.094  34.692  28.612  1.00  0.00     0.251 C 
ATOM     28  H   UNL A   1      31.856  34.479  27.052  1.00  0.00     0.163 HD
ATOM     29  O   UNL A   1      32.629  35.780  28.938  1.00  0.00    -0.269 OA
BRANCH  27  30
ATOM     30  C   UNL A   1      34.279  34.146  29.305  1.00  0.00     0.039 A 
ATOM     31  C   UNL A   1      34.098  33.372  30.454  1.00  0.00     0.014 A 
ATOM     32  C   UNL A   1      35.570  34.408  28.834  1.00  0.00     0.014 A 
ATOM     33  C   UNL A   1      35.207  32.809  31.089  1.00  0.00     0.010 A 
ATOM     34  C   UNL A   1      36.667  33.784  29.424  1.00  0.00     0.010 A 
ATOM     35  C   UNL A   1      36.498  32.980  30.559  1.00  0.00    -0.014 A 
BRANCH  35  36
ATOM     36  C   UNL A   1      37.675  32.326  31.191  1.00  0.00     0.031 A 
ATOM     37  C   UNL A   1      38.183  32.811  32.522  1.00  0.00     0.074 A 
ATOM     38  C   UNL A   1      38.288  31.302  30.562  1.00  0.00     0.049 A 
ATOM     39  N   UNL A   1      39.207  32.384  33.216  1.00  0.00    -0.248 NA
ATOM     40  C   UNL A   1      37.455  33.924  33.156  1.00  0.00     0.031 C 
ATOM     41  C   UNL A   1      37.894  30.752  29.262  1.00  0.00     0.029 A 
ATOM     42  N   UNL A   1      39.362  30.531  30.931  1.00  0.00    -0.354 N 
ATOM     43  C   UNL A   1      39.235  33.160  34.368  1.00  0.00     0.074 A 
ATOM     44  C   UNL A   1      38.169  34.130  34.254  1.00  0.00     0.031 C 
ATOM     45  C   UNL A   1      38.680  29.704  28.969  1.00  0.00     0.029 A 
ATOM     46  C   UNL A   1      39.670  29.536  30.029  1.00  0.00     0.049 A 
ATOM     47  H   UNL A   1      39.866  30.675  31.764  1.00  0.00     0.167 HD
ATOM     48  C   UNL A   1      40.051  33.048  35.441  1.00  0.00     0.034 A 
ATOM     49  C   UNL A   1      40.640  28.599  30.052  1.00  0.00     0.034 A 
ATOM     50  C   UNL A   1      41.101  32.070  35.559  1.00  0.00     0.049 A 
ATOM     51  C   UNL A   1      41.588  28.558  31.225  1.00  0.00     0.074 A 
ATOM     52  C   UNL A   1      41.973  31.875  36.615  1.00  0.00     0.029 A 
ATOM     53  N   UNL A   1      41.415  31.121  34.600  1.00  0.00    -0.354 N 
ATOM     54  N   UNL A   1      41.592  29.302  32.307  1.00  0.00    -0.248 NA
ATOM     55  C   UNL A   1      42.663  27.556  31.182  1.00  0.00     0.031 C 
ATOM     56  C   UNL A   1      42.853  30.848  36.271  1.00  0.00     0.029 A 
ATOM     57  C   UNL A   1      42.483  30.353  35.032  1.00  0.00     0.049 A 
ATOM     58  H   UNL A   1      40.949  31.009  33.740  1.00  0.00     0.167 HD
ATOM     59  C   UNL A   1      42.642  28.827  33.088  1.00  0.00     0.074 A 
ATOM     60  C   UNL A   1      43.247  27.733  32.359  1.00  0.00     0.031 C 
ATOM     61  C   UNL A   1      43.066  29.257  34.302  1.00  0.00     0.034 A 
BRANCH  48  62
ATOM     62  C   UNL A   1      39.839  33.986  36.599  1.00  0.00     0.023 A 
ATOM     63  C   UNL A   1      39.227  33.542  37.782  1.00  0.00     0.031 A 
ATOM     64  C   UNL A   1      40.344  35.297  36.559  1.00  0.00     0.131 A 
ATOM     65  C   UNL A   1      39.128  34.406  38.880  1.00  0.00     0.055 A 
ATOM     66  C   UNL A   1      40.290  36.135  37.673  1.00  0.00     0.041 A 
ATOM     67  F   UNL A   1      40.927  35.770  35.447  1.00  0.00    -0.206 F 
ATOM     68  C   UNL A   1      39.679  35.690  38.843  1.00  0.00     0.022 A 
BRANCH  65  69
ATOM     69  S   UNL A   1      38.242  33.837  40.356  1.00  0.00     0.124 S 
ATOM     70  O   UNL A   1      36.973  33.393  39.783  1.00  0.00    -0.237 OA
ATOM     71  O   UNL A   1      39.116  32.786  40.865  1.00  0.00    -0.237 OA
ATOM     72  O   UNL A   1      38.159  35.036  41.188  1.00  0.00    -0.744 OA
ENDBRANCH  65  69
ENDBRANCH  48  62
BRANCH  49  73
ATOM     73  C   UNL A   1      40.779  27.614  28.939  1.00  0.00     0.023 A 
ATOM     74  C   UNL A   1      41.728  27.811  27.923  1.00  0.00     0.031 A 
ATOM     75  C   UNL A   1      39.928  26.499  28.837  1.00  0.00     0.131 A 
ATOM     76  C   UNL A   1      41.769  26.941  26.823  1.00  0.00     0.055 A 
ATOM     77  C   UNL A   1      40.011  25.602  27.770  1.00  0.00     0.041 A 
ATOM     78  F   UNL A   1      39.004  26.260  29.780  1.00  0.00    -0.206 F 
ATOM     79  C   UNL A   1      40.926  25.830  26.747  1.00  0.00     0.022 A 
BRANCH  76  80
ATOM     80  S   UNL A   1      42.881  27.335  25.446  1.00  0.00     0.124 S 
ATOM     81  O   UNL A   1      44.091  27.742  26.152  1.00  0.00    -0.237 OA
ATOM     82  O   UNL A   1      42.948  26.062  24.736  1.00  0.00    -0.237 OA
ATOM     83  O   UNL A   1      42.180  28.405  24.740  1.00  0.00    -0.744 OA
ENDBRANCH  76  80
ENDBRANCH  49  73
BRANCH  61  84
ATOM     84  C   UNL A   1      44.206  28.521  34.951  1.00  0.00     0.023 A 
ATOM     85  C   UNL A   1      43.997  27.347  35.692  1.00  0.00     0.031 A 
ATOM     86  C   UNL A   1      45.528  28.962  34.758  1.00  0.00     0.131 A 
ATOM     87  C   UNL A   1      45.094  26.661  36.231  1.00  0.00     0.055 A 
ATOM     88  C   UNL A   1      46.619  28.247  35.254  1.00  0.00     0.041 A 
ATOM     89  F   UNL A   1      45.781  30.076  34.052  1.00  0.00    -0.206 F 
ATOM     90  C   UNL A   1      46.403  27.092  36.000  1.00  0.00     0.022 A 
BRANCH  87  91
ATOM     91  S   UNL A   1      44.786  25.203  37.264  1.00  0.00     0.124 S 
ATOM     92  O   UNL A   1      45.250  25.655  38.572  1.00  0.00    -0.237 OA
ATOM     93  O   UNL A   1      43.345  25.019  37.128  1.00  0.00    -0.237 OA
ATOM     94  O   UNL A   1      45.603  24.163  36.642  1.00  0.00    -0.744 OA
ENDBRANCH  87  91
ENDBRANCH  61  84
ENDBRANCH  35  36
ENDBRANCH  27  30
ENDBRANCH  25  26
ENDBRANCH   1  25
TORSDOF 18
ENDMDL
