MODEL 1
REMARK VINA RESULT:     -12.9      0.000      0.000
REMARK SMILES O=C(NCCCNC(=O)c1ccccc1-n1ccnn1)c1ccc(-c2c3nc(c(-c4cc(S(=O)(=O)[O-])ccc4F)c4ccc([nH]4)c(-c4cc(S(=O)(=O)[O-])ccc4F)c4nc(c(-c5cc(S(=O)(=O)[O-])ccc5F)c5ccc2[nH]5)C=C4)C=C3)cc1
REMARK SMILES IDX 4 1 3 2 1 3 2 4 21 6 22 7 83 8 23 9 82 10 24 11 25 12 26 13
REMARK SMILES IDX 76 14 27 15 81 16 75 17 77 18 28 19 80 20 74 21 73 22 29 24
REMARK SMILES IDX 61 25 41 26 60 27 42 28 45 29 59 30 78 31 43 32 44 33 58 35
REMARK SMILES IDX 79 36 46 37 30 38 31 39 39 40 32 41 38 42 40 43 37 44 33 45
REMARK SMILES IDX 34 46 35 47 36 48 62 49 63 50 71 51 64 52 70 53 72 54 69 55
REMARK SMILES IDX 65 56 66 57 67 58 68 59 47 60 48 61 56 62 49 63 55 64 57 65
REMARK SMILES IDX 54 66 50 67 51 68 52 69 53 70 5 71 6 72 7 73 8 74 9 76 10 77
REMARK SMILES IDX 11 78 15 79 12 80 14 81 13 82 16 83 17 84 20 85 18 86 19 87
REMARK H PARENT 3 5 77 23 45 34 7 75
REMARK Flexibility Score: inf
ROOT
ATOM      1  C   UNL A   1      37.785  22.870  25.533  1.00  0.00     0.118 C 
ENDROOT
BRANCH   1   2
ATOM      2  N   UNL A   1      39.084  22.391  25.964  1.00  0.00    -0.352 N 
ATOM      3  O   UNL A   1      40.903  22.012  27.147  1.00  0.00    -0.269 OA
ATOM      4  C   UNL A   1      40.022  22.829  26.860  1.00  0.00     0.251 C 
ATOM      5  H   UNL A   1      39.352  21.562  25.508  1.00  0.00     0.163 HD
BRANCH   4   6
ATOM      6  C   UNL A   1      40.084  24.197  27.448  1.00  0.00     0.039 A 
ATOM      7  C   UNL A   1      39.124  25.195  27.292  1.00  0.00     0.014 A 
ATOM      8  C   UNL A   1      41.248  24.502  28.181  1.00  0.00     0.014 A 
ATOM      9  C   UNL A   1      39.355  26.487  27.764  1.00  0.00     0.010 A 
ATOM     10  C   UNL A   1      41.471  25.782  28.682  1.00  0.00     0.010 A 
ATOM     11  C   UNL A   1      40.538  26.788  28.441  1.00  0.00    -0.014 A 
BRANCH  11  12
ATOM     12  C   UNL A   1      40.693  28.133  29.002  1.00  0.00     0.031 A 
ATOM     13  C   UNL A   1      41.834  28.933  28.462  1.00  0.00     0.074 A 
ATOM     14  C   UNL A   1      39.779  28.713  29.805  1.00  0.00     0.049 A 
ATOM     15  N   UNL A   1      42.772  29.552  29.103  1.00  0.00    -0.248 NA
ATOM     16  C   UNL A   1      41.982  28.992  26.999  1.00  0.00     0.031 C 
ATOM     17  C   UNL A   1      38.464  28.185  30.177  1.00  0.00     0.029 A 
ATOM     18  N   UNL A   1      39.779  29.966  30.352  1.00  0.00    -0.354 N 
ATOM     19  C   UNL A   1      43.516  30.240  28.143  1.00  0.00     0.074 A 
ATOM     20  C   UNL A   1      43.070  29.748  26.868  1.00  0.00     0.031 C 
ATOM     21  C   UNL A   1      37.711  29.188  30.679  1.00  0.00     0.029 A 
ATOM     22  C   UNL A   1      38.525  30.390  30.776  1.00  0.00     0.049 A 
ATOM     23  H   UNL A   1      40.591  30.515  30.437  1.00  0.00     0.167 HD
ATOM     24  C   UNL A   1      44.317  31.296  28.462  1.00  0.00     0.034 A 
ATOM     25  C   UNL A   1      38.145  31.654  31.100  1.00  0.00     0.034 A 
ATOM     26  C   UNL A   1      44.683  31.274  29.859  1.00  0.00     0.049 A 
ATOM     27  C   UNL A   1      39.368  32.424  31.424  1.00  0.00     0.074 A 
ATOM     28  C   UNL A   1      45.328  30.365  30.677  1.00  0.00     0.029 A 
ATOM     29  N   UNL A   1      44.106  32.182  30.716  1.00  0.00    -0.354 N 
ATOM     30  N   UNL A   1      40.126  32.180  32.456  1.00  0.00    -0.248 NA
ATOM     31  C   UNL A   1      39.992  33.208  30.370  1.00  0.00     0.031 C 
ATOM     32  C   UNL A   1      44.673  30.476  31.939  1.00  0.00     0.029 A 
ATOM     33  C   UNL A   1      43.709  31.477  31.825  1.00  0.00     0.049 A 
ATOM     34  H   UNL A   1      43.999  33.149  30.564  1.00  0.00     0.167 HD
ATOM     35  C   UNL A   1      41.419  32.404  32.012  1.00  0.00     0.074 A 
ATOM     36  C   UNL A   1      41.267  33.143  30.763  1.00  0.00     0.031 C 
ATOM     37  C   UNL A   1      42.482  31.733  32.550  1.00  0.00     0.034 A 
BRANCH  24  38
ATOM     38  C   UNL A   1      44.509  32.529  27.597  1.00  0.00     0.023 A 
ATOM     39  C   UNL A   1      43.883  33.720  28.022  1.00  0.00     0.031 A 
ATOM     40  C   UNL A   1      44.992  32.542  26.269  1.00  0.00     0.131 A 
ATOM     41  C   UNL A   1      43.637  34.775  27.125  1.00  0.00     0.055 A 
ATOM     42  C   UNL A   1      44.811  33.625  25.401  1.00  0.00     0.041 A 
ATOM     43  F   UNL A   1      45.587  31.486  25.702  1.00  0.00    -0.206 F 
ATOM     44  C   UNL A   1      44.094  34.734  25.813  1.00  0.00     0.022 A 
BRANCH  41  45
ATOM     45  S   UNL A   1      42.512  36.097  27.646  1.00  0.00     0.124 S 
ATOM     46  O   UNL A   1      42.873  36.251  29.053  1.00  0.00    -0.237 OA
ATOM     47  O   UNL A   1      42.902  37.187  26.758  1.00  0.00    -0.237 OA
ATOM     48  O   UNL A   1      41.188  35.532  27.400  1.00  0.00    -0.744 OA
ENDBRANCH  41  45
ENDBRANCH  24  38
BRANCH  25  49
ATOM     49  C   UNL A   1      36.822  32.277  30.823  1.00  0.00     0.023 A 
ATOM     50  C   UNL A   1      35.973  32.757  31.841  1.00  0.00     0.031 A 
ATOM     51  C   UNL A   1      36.467  32.605  29.495  1.00  0.00     0.131 A 
ATOM     52  C   UNL A   1      34.822  33.509  31.509  1.00  0.00     0.055 A 
ATOM     53  C   UNL A   1      35.322  33.334  29.171  1.00  0.00     0.041 A 
ATOM     54  F   UNL A   1      37.271  32.298  28.464  1.00  0.00    -0.206 F 
ATOM     55  C   UNL A   1      34.495  33.794  30.181  1.00  0.00     0.022 A 
BRANCH  52  56
ATOM     56  S   UNL A   1      33.774  34.219  32.820  1.00  0.00     0.124 S 
ATOM     57  O   UNL A   1      32.899  35.110  32.068  1.00  0.00    -0.237 OA
ATOM     58  O   UNL A   1      33.152  33.034  33.399  1.00  0.00    -0.237 OA
ATOM     59  O   UNL A   1      34.732  34.894  33.695  1.00  0.00    -0.744 OA
ENDBRANCH  52  56
ENDBRANCH  25  49
BRANCH  37  60
ATOM     60  C   UNL A   1      42.291  30.985  33.851  1.00  0.00     0.023 A 
ATOM     61  C   UNL A   1      42.042  29.597  33.945  1.00  0.00     0.031 A 
ATOM     62  C   UNL A   1      42.508  31.691  35.047  1.00  0.00     0.131 A 
ATOM     63  C   UNL A   1      42.007  28.972  35.206  1.00  0.00     0.055 A 
ATOM     64  C   UNL A   1      42.489  31.065  36.293  1.00  0.00     0.041 A 
ATOM     65  F   UNL A   1      42.786  33.006  35.022  1.00  0.00    -0.206 F 
ATOM     66  C   UNL A   1      42.232  29.702  36.377  1.00  0.00     0.022 A 
BRANCH  63  67
ATOM     67  S   UNL A   1      41.671  27.188  35.343  1.00  0.00     0.124 S 
ATOM     68  O   UNL A   1      42.962  26.575  35.055  1.00  0.00    -0.237 OA
ATOM     69  O   UNL A   1      41.191  27.064  36.718  1.00  0.00    -0.237 OA
ATOM     70  O   UNL A   1      40.646  26.957  34.323  1.00  0.00    -0.744 OA
ENDBRANCH  63  67
ENDBRANCH  37  60
ENDBRANCH  11  12
ENDBRANCH   4   6
ENDBRANCH   1   2
BRANCH   1  71
ATOM     71  C   UNL A   1      37.096  22.047  24.446  1.00  0.00     0.042 C 
BRANCH  71  72
ATOM     72  C   UNL A   1      36.365  20.800  24.923  1.00  0.00     0.118 C 
BRANCH  72  73
ATOM     73  N   UNL A   1      35.495  21.036  26.070  1.00  0.00    -0.352 N 
ATOM     74  C   UNL A   1      34.129  21.147  26.130  1.00  0.00     0.253 C 
ATOM     75  H   UNL A   1      35.959  21.129  26.933  1.00  0.00     0.163 HD
ATOM     76  O   UNL A   1      33.570  21.318  27.213  1.00  0.00    -0.269 OA
BRANCH  74  77
ATOM     77  C   UNL A   1      33.312  21.096  24.900  1.00  0.00     0.065 A 
ATOM     78  C   UNL A   1      32.943  22.348  24.379  1.00  0.00     0.016 A 
ATOM     79  C   UNL A   1      32.975  19.924  24.206  1.00  0.00     0.079 A 
ATOM     80  C   UNL A   1      32.301  22.439  23.144  1.00  0.00     0.001 A 
ATOM     81  C   UNL A   1      32.381  20.031  22.935  1.00  0.00     0.029 A 
ATOM     82  C   UNL A   1      32.043  21.282  22.413  1.00  0.00     0.002 A 
BRANCH  79  83
ATOM     83  N   UNL A   1      33.209  18.628  24.731  1.00  0.00    -0.220 N 
ATOM     84  C   UNL A   1      34.211  17.728  24.447  1.00  0.00     0.137 A 
ATOM     85  N   UNL A   1      32.392  18.093  25.671  1.00  0.00    -0.062 NA
ATOM     86  C   UNL A   1      33.863  16.590  25.131  1.00  0.00     0.157 A 
ATOM     87  N   UNL A   1      32.749  16.831  25.869  1.00  0.00    -0.139 NA
ENDBRANCH  79  83
ENDBRANCH  74  77
ENDBRANCH  72  73
ENDBRANCH  71  72
ENDBRANCH   1  71
TORSDOF 14
ENDMDL
MODEL 2
REMARK VINA RESULT:     -12.7      4.747     10.113
REMARK SMILES O=C(NCCCNC(=O)c1ccccc1-n1ccnn1)c1ccc(-c2c3nc(c(-c4cc(S(=O)(=O)[O-])ccc4F)c4ccc([nH]4)c(-c4cc(S(=O)(=O)[O-])ccc4F)c4nc(c(-c5cc(S(=O)(=O)[O-])ccc5F)c5ccc2[nH]5)C=C4)C=C3)cc1
REMARK SMILES IDX 4 1 3 2 1 3 2 4 21 6 22 7 83 8 23 9 82 10 24 11 25 12 26 13
REMARK SMILES IDX 76 14 27 15 81 16 75 17 77 18 28 19 80 20 74 21 73 22 29 24
REMARK SMILES IDX 61 25 41 26 60 27 42 28 45 29 59 30 78 31 43 32 44 33 58 35
REMARK SMILES IDX 79 36 46 37 30 38 31 39 39 40 32 41 38 42 40 43 37 44 33 45
REMARK SMILES IDX 34 46 35 47 36 48 62 49 63 50 71 51 64 52 70 53 72 54 69 55
REMARK SMILES IDX 65 56 66 57 67 58 68 59 47 60 48 61 56 62 49 63 55 64 57 65
REMARK SMILES IDX 54 66 50 67 51 68 52 69 53 70 5 71 6 72 7 73 8 74 9 76 10 77
REMARK SMILES IDX 11 78 15 79 12 80 14 81 13 82 16 83 17 84 20 85 18 86 19 87
REMARK H PARENT 3 5 77 23 45 34 7 75
REMARK Flexibility Score: inf
ROOT
ATOM      1  C   UNL A   1      34.022  29.994  27.307  1.00  0.00     0.118 C 
ENDROOT
BRANCH   1   2
ATOM      2  N   UNL A   1      34.130  31.093  28.246  1.00  0.00    -0.352 N 
ATOM      3  O   UNL A   1      34.916  32.743  29.476  1.00  0.00    -0.269 OA
ATOM      4  C   UNL A   1      35.152  31.640  28.974  1.00  0.00     0.251 C 
ATOM      5  H   UNL A   1      33.272  31.552  28.393  1.00  0.00     0.163 HD
BRANCH   4   6
ATOM      6  C   UNL A   1      36.467  30.990  29.242  1.00  0.00     0.039 A 
ATOM      7  C   UNL A   1      37.702  31.636  29.283  1.00  0.00     0.014 A 
ATOM      8  C   UNL A   1      36.442  29.593  29.417  1.00  0.00     0.014 A 
ATOM      9  C   UNL A   1      38.885  30.907  29.395  1.00  0.00     0.010 A 
ATOM     10  C   UNL A   1      37.618  28.861  29.560  1.00  0.00     0.010 A 
ATOM     11  C   UNL A   1      38.846  29.517  29.512  1.00  0.00    -0.014 A 
BRANCH  11  12
ATOM     12  C   UNL A   1      40.108  28.803  29.724  1.00  0.00     0.031 A 
ATOM     13  C   UNL A   1      40.529  28.638  31.148  1.00  0.00     0.074 A 
ATOM     14  C   UNL A   1      40.771  28.158  28.743  1.00  0.00     0.049 A 
ATOM     15  N   UNL A   1      41.661  28.930  31.704  1.00  0.00    -0.248 NA
ATOM     16  C   UNL A   1      39.519  28.139  32.095  1.00  0.00     0.031 C 
ATOM     17  C   UNL A   1      40.334  27.963  27.359  1.00  0.00     0.029 A 
ATOM     18  N   UNL A   1      41.921  27.423  28.815  1.00  0.00    -0.354 N 
ATOM     19  C   UNL A   1      41.580  28.474  33.021  1.00  0.00     0.074 A 
ATOM     20  C   UNL A   1      40.202  28.128  33.238  1.00  0.00     0.031 C 
ATOM     21  C   UNL A   1      41.072  26.980  26.797  1.00  0.00     0.029 A 
ATOM     22  C   UNL A   1      42.105  26.567  27.735  1.00  0.00     0.049 A 
ATOM     23  H   UNL A   1      42.559  27.492  29.561  1.00  0.00     0.167 HD
ATOM     24  C   UNL A   1      42.688  28.245  33.781  1.00  0.00     0.034 A 
ATOM     25  C   UNL A   1      42.978  25.531  27.639  1.00  0.00     0.034 A 
ATOM     26  C   UNL A   1      43.829  28.977  33.282  1.00  0.00     0.049 A 
ATOM     27  C   UNL A   1      44.051  25.751  28.637  1.00  0.00     0.074 A 
ATOM     28  C   UNL A   1      44.097  30.314  33.053  1.00  0.00     0.029 A 
ATOM     29  N   UNL A   1      44.829  28.294  32.630  1.00  0.00    -0.354 N 
ATOM     30  N   UNL A   1      44.907  26.732  28.577  1.00  0.00    -0.248 NA
ATOM     31  C   UNL A   1      43.921  25.123  29.943  1.00  0.00     0.031 C 
ATOM     32  C   UNL A   1      44.903  30.332  31.877  1.00  0.00     0.029 A 
ATOM     33  C   UNL A   1      45.116  29.008  31.494  1.00  0.00     0.049 A 
ATOM     34  H   UNL A   1      45.256  27.455  32.921  1.00  0.00     0.167 HD
ATOM     35  C   UNL A   1      45.105  27.117  29.894  1.00  0.00     0.074 A 
ATOM     36  C   UNL A   1      44.565  26.021  30.692  1.00  0.00     0.031 C 
ATOM     37  C   UNL A   1      45.433  28.404  30.216  1.00  0.00     0.034 A 
BRANCH  24  38
ATOM     38  C   UNL A   1      42.833  27.112  34.782  1.00  0.00     0.023 A 
ATOM     39  C   UNL A   1      43.626  26.010  34.399  1.00  0.00     0.031 A 
ATOM     40  C   UNL A   1      42.024  26.906  35.922  1.00  0.00     0.131 A 
ATOM     41  C   UNL A   1      43.494  24.760  35.032  1.00  0.00     0.055 A 
ATOM     42  C   UNL A   1      41.952  25.681  36.597  1.00  0.00     0.041 A 
ATOM     43  F   UNL A   1      41.194  27.838  36.402  1.00  0.00    -0.206 F 
ATOM     44  C   UNL A   1      42.657  24.587  36.128  1.00  0.00     0.022 A 
BRANCH  41  45
ATOM     45  S   UNL A   1      44.265  23.319  34.250  1.00  0.00     0.124 S 
ATOM     46  O   UNL A   1      44.535  22.468  35.405  1.00  0.00    -0.237 OA
ATOM     47  O   UNL A   1      43.209  22.868  33.351  1.00  0.00    -0.237 OA
ATOM     48  O   UNL A   1      45.446  23.879  33.598  1.00  0.00    -0.744 OA
ENDBRANCH  41  45
ENDBRANCH  24  38
BRANCH  25  49
ATOM     49  C   UNL A   1      42.737  24.232  26.955  1.00  0.00     0.023 A 
ATOM     50  C   UNL A   1      43.675  23.637  26.087  1.00  0.00     0.031 A 
ATOM     51  C   UNL A   1      41.628  23.439  27.330  1.00  0.00     0.131 A 
ATOM     52  C   UNL A   1      43.472  22.317  25.621  1.00  0.00     0.055 A 
ATOM     53  C   UNL A   1      41.424  22.143  26.855  1.00  0.00     0.041 A 
ATOM     54  F   UNL A   1      40.742  23.869  28.243  1.00  0.00    -0.206 F 
ATOM     55  C   UNL A   1      42.351  21.573  25.999  1.00  0.00     0.022 A 
BRANCH  52  56
ATOM     56  S   UNL A   1      44.727  21.502  24.580  1.00  0.00     0.124 S 
ATOM     57  O   UNL A   1      44.236  20.131  24.519  1.00  0.00    -0.237 OA
ATOM     58  O   UNL A   1      44.657  22.274  23.344  1.00  0.00    -0.237 OA
ATOM     59  O   UNL A   1      45.966  21.678  25.339  1.00  0.00    -0.744 OA
ENDBRANCH  52  56
ENDBRANCH  25  49
BRANCH  37  60
ATOM     60  C   UNL A   1      45.901  29.335  29.120  1.00  0.00     0.023 A 
ATOM     61  C   UNL A   1      45.045  30.147  28.342  1.00  0.00     0.031 A 
ATOM     62  C   UNL A   1      47.287  29.503  28.954  1.00  0.00     0.131 A 
ATOM     63  C   UNL A   1      45.588  31.076  27.434  1.00  0.00     0.055 A 
ATOM     64  C   UNL A   1      47.822  30.435  28.066  1.00  0.00     0.041 A 
ATOM     65  F   UNL A   1      48.153  28.786  29.691  1.00  0.00    -0.206 F 
ATOM     66  C   UNL A   1      46.973  31.222  27.297  1.00  0.00     0.022 A 
BRANCH  63  67
ATOM     67  S   UNL A   1      44.498  32.117  26.415  1.00  0.00     0.124 S 
ATOM     68  O   UNL A   1      45.375  32.586  25.347  1.00  0.00    -0.237 OA
ATOM     69  O   UNL A   1      43.448  31.182  26.021  1.00  0.00    -0.237 OA
ATOM     70  O   UNL A   1      44.060  33.161  27.345  1.00  0.00    -0.744 OA
ENDBRANCH  63  67
ENDBRANCH  37  60
ENDBRANCH  11  12
ENDBRANCH   4   6
ENDBRANCH   1   2
BRANCH   1  71
ATOM     71  C   UNL A   1      32.616  29.433  27.095  1.00  0.00     0.042 C 
BRANCH  71  72
ATOM     72  C   UNL A   1      31.869  29.963  25.879  1.00  0.00     0.118 C 
BRANCH  72  73
ATOM     73  N   UNL A   1      32.607  29.819  24.629  1.00  0.00    -0.352 N 
ATOM     74  C   UNL A   1      32.464  28.897  23.624  1.00  0.00     0.253 C 
ATOM     75  H   UNL A   1      33.317  30.485  24.486  1.00  0.00     0.163 HD
ATOM     76  O   UNL A   1      33.174  28.962  22.621  1.00  0.00    -0.269 OA
BRANCH  74  77
ATOM     77  C   UNL A   1      31.483  27.798  23.741  1.00  0.00     0.065 A 
ATOM     78  C   UNL A   1      31.998  26.592  24.246  1.00  0.00     0.016 A 
ATOM     79  C   UNL A   1      30.111  27.914  23.471  1.00  0.00     0.079 A 
ATOM     80  C   UNL A   1      31.147  25.529  24.544  1.00  0.00     0.001 A 
ATOM     81  C   UNL A   1      29.255  26.856  23.831  1.00  0.00     0.029 A 
ATOM     82  C   UNL A   1      29.774  25.671  24.359  1.00  0.00     0.002 A 
BRANCH  79  83
ATOM     83  N   UNL A   1      29.544  29.054  22.850  1.00  0.00    -0.220 N 
ATOM     84  C   UNL A   1      28.645  29.973  23.344  1.00  0.00     0.137 A 
ATOM     85  N   UNL A   1      29.871  29.399  21.581  1.00  0.00    -0.062 NA
ATOM     86  C   UNL A   1      28.337  30.771  22.271  1.00  0.00     0.157 A 
ATOM     87  N   UNL A   1      29.092  30.403  21.203  1.00  0.00    -0.139 NA
ENDBRANCH  79  83
ENDBRANCH  74  77
ENDBRANCH  72  73
ENDBRANCH  71  72
ENDBRANCH   1  71
TORSDOF 14
ENDMDL
MODEL 3
REMARK VINA RESULT:     -12.6      3.519      6.307
REMARK SMILES O=C(NCCCNC(=O)c1ccccc1-n1ccnn1)c1ccc(-c2c3nc(c(-c4cc(S(=O)(=O)[O-])ccc4F)c4ccc([nH]4)c(-c4cc(S(=O)(=O)[O-])ccc4F)c4nc(c(-c5cc(S(=O)(=O)[O-])ccc5F)c5ccc2[nH]5)C=C4)C=C3)cc1
REMARK SMILES IDX 4 1 3 2 1 3 2 4 21 6 22 7 83 8 23 9 82 10 24 11 25 12 26 13
REMARK SMILES IDX 76 14 27 15 81 16 75 17 77 18 28 19 80 20 74 21 73 22 29 24
REMARK SMILES IDX 61 25 41 26 60 27 42 28 45 29 59 30 78 31 43 32 44 33 58 35
REMARK SMILES IDX 79 36 46 37 30 38 31 39 39 40 32 41 38 42 40 43 37 44 33 45
REMARK SMILES IDX 34 46 35 47 36 48 62 49 63 50 71 51 64 52 70 53 72 54 69 55
REMARK SMILES IDX 65 56 66 57 67 58 68 59 47 60 48 61 56 62 49 63 55 64 57 65
REMARK SMILES IDX 54 66 50 67 51 68 52 69 53 70 5 71 6 72 7 73 8 74 9 76 10 77
REMARK SMILES IDX 11 78 15 79 12 80 14 81 13 82 16 83 17 84 20 85 18 86 19 87
REMARK H PARENT 3 5 77 23 45 34 7 75
REMARK Flexibility Score: inf
ROOT
ATOM      1  C   UNL A   1      42.702  22.136  26.053  1.00  0.00     0.118 C 
ENDROOT
BRANCH   1   2
ATOM      2  N   UNL A   1      41.283  22.017  26.325  1.00  0.00    -0.352 N 
ATOM      3  O   UNL A   1      39.144  22.473  26.589  1.00  0.00    -0.269 OA
ATOM      4  C   UNL A   1      40.300  22.892  26.703  1.00  0.00     0.251 C 
ATOM      5  H   UNL A   1      40.950  21.098  26.213  1.00  0.00     0.163 HD
BRANCH   4   6
ATOM      6  C   UNL A   1      40.523  24.249  27.278  1.00  0.00     0.039 A 
ATOM      7  C   UNL A   1      41.452  24.572  28.267  1.00  0.00     0.014 A 
ATOM      8  C   UNL A   1      39.678  25.269  26.801  1.00  0.00     0.014 A 
ATOM      9  C   UNL A   1      41.474  25.844  28.836  1.00  0.00     0.010 A 
ATOM     10  C   UNL A   1      39.716  26.551  27.344  1.00  0.00     0.010 A 
ATOM     11  C   UNL A   1      40.591  26.830  28.391  1.00  0.00    -0.014 A 
BRANCH  11  12
ATOM     12  C   UNL A   1      40.717  28.178  28.952  1.00  0.00     0.031 A 
ATOM     13  C   UNL A   1      41.853  28.995  28.428  1.00  0.00     0.074 A 
ATOM     14  C   UNL A   1      39.781  28.745  29.740  1.00  0.00     0.049 A 
ATOM     15  N   UNL A   1      42.771  29.630  29.083  1.00  0.00    -0.248 NA
ATOM     16  C   UNL A   1      42.022  29.054  26.968  1.00  0.00     0.031 C 
ATOM     17  C   UNL A   1      38.469  28.196  30.093  1.00  0.00     0.029 A 
ATOM     18  N   UNL A   1      39.753  29.998  30.284  1.00  0.00    -0.354 N 
ATOM     19  C   UNL A   1      43.518  30.329  28.133  1.00  0.00     0.074 A 
ATOM     20  C   UNL A   1      43.100  29.827  26.852  1.00  0.00     0.031 C 
ATOM     21  C   UNL A   1      37.693  29.188  30.581  1.00  0.00     0.029 A 
ATOM     22  C   UNL A   1      38.486  30.403  30.688  1.00  0.00     0.049 A 
ATOM     23  H   UNL A   1      40.554  30.561  30.381  1.00  0.00     0.167 HD
ATOM     24  C   UNL A   1      44.298  31.398  28.463  1.00  0.00     0.034 A 
ATOM     25  C   UNL A   1      38.081  31.661  31.004  1.00  0.00     0.034 A 
ATOM     26  C   UNL A   1      44.643  31.384  29.865  1.00  0.00     0.049 A 
ATOM     27  C   UNL A   1      39.286  32.451  31.346  1.00  0.00     0.074 A 
ATOM     28  C   UNL A   1      45.289  30.487  30.694  1.00  0.00     0.029 A 
ATOM     29  N   UNL A   1      44.038  32.284  30.711  1.00  0.00    -0.354 N 
ATOM     30  N   UNL A   1      40.032  32.221  32.390  1.00  0.00    -0.248 NA
ATOM     31  C   UNL A   1      39.914  33.244  30.300  1.00  0.00     0.031 C 
ATOM     32  C   UNL A   1      44.613  30.589  31.946  1.00  0.00     0.029 A 
ATOM     33  C   UNL A   1      43.635  31.575  31.815  1.00  0.00     0.049 A 
ATOM     34  H   UNL A   1      43.917  33.249  30.556  1.00  0.00     0.167 HD
ATOM     35  C   UNL A   1      41.328  32.465  31.965  1.00  0.00     0.074 A 
ATOM     36  C   UNL A   1      41.183  33.200  30.713  1.00  0.00     0.031 C 
ATOM     37  C   UNL A   1      42.393  31.812  32.521  1.00  0.00     0.034 A 
BRANCH  24  38
ATOM     38  C   UNL A   1      44.483  32.633  27.598  1.00  0.00     0.023 A 
ATOM     39  C   UNL A   1      43.843  33.817  28.018  1.00  0.00     0.031 A 
ATOM     40  C   UNL A   1      44.975  32.649  26.273  1.00  0.00     0.131 A 
ATOM     41  C   UNL A   1      43.592  34.870  27.119  1.00  0.00     0.055 A 
ATOM     42  C   UNL A   1      44.790  33.731  25.404  1.00  0.00     0.041 A 
ATOM     43  F   UNL A   1      45.584  31.600  25.711  1.00  0.00    -0.206 F 
ATOM     44  C   UNL A   1      44.058  34.832  25.810  1.00  0.00     0.022 A 
BRANCH  41  45
ATOM     45  S   UNL A   1      42.451  36.181  27.633  1.00  0.00     0.124 S 
ATOM     46  O   UNL A   1      41.187  35.454  27.712  1.00  0.00    -0.237 OA
ATOM     47  O   UNL A   1      43.033  36.601  28.903  1.00  0.00    -0.237 OA
ATOM     48  O   UNL A   1      42.545  37.154  26.548  1.00  0.00    -0.744 OA
ENDBRANCH  41  45
ENDBRANCH  24  38
BRANCH  25  49
ATOM     49  C   UNL A   1      36.752  32.263  30.706  1.00  0.00     0.023 A 
ATOM     50  C   UNL A   1      35.940  32.855  31.695  1.00  0.00     0.031 A 
ATOM     51  C   UNL A   1      36.355  32.452  29.362  1.00  0.00     0.131 A 
ATOM     52  C   UNL A   1      34.782  33.577  31.322  1.00  0.00     0.055 A 
ATOM     53  C   UNL A   1      35.204  33.152  29.001  1.00  0.00     0.041 A 
ATOM     54  F   UNL A   1      37.123  32.030  28.344  1.00  0.00    -0.206 F 
ATOM     55  C   UNL A   1      34.413  33.723  29.982  1.00  0.00     0.022 A 
BRANCH  52  56
ATOM     56  S   UNL A   1      33.782  34.430  32.583  1.00  0.00     0.124 S 
ATOM     57  O   UNL A   1      33.271  33.319  33.377  1.00  0.00    -0.237 OA
ATOM     58  O   UNL A   1      34.764  35.294  33.229  1.00  0.00    -0.237 OA
ATOM     59  O   UNL A   1      32.772  35.138  31.796  1.00  0.00    -0.744 OA
ENDBRANCH  52  56
ENDBRANCH  25  49
BRANCH  37  60
ATOM     60  C   UNL A   1      42.194  31.063  33.820  1.00  0.00     0.023 A 
ATOM     61  C   UNL A   1      42.023  29.664  33.917  1.00  0.00     0.031 A 
ATOM     62  C   UNL A   1      42.321  31.789  35.017  1.00  0.00     0.131 A 
ATOM     63  C   UNL A   1      41.974  29.046  35.181  1.00  0.00     0.055 A 
ATOM     64  C   UNL A   1      42.288  31.172  36.267  1.00  0.00     0.041 A 
ATOM     65  F   UNL A   1      42.522  33.118  34.991  1.00  0.00    -0.206 F 
ATOM     66  C   UNL A   1      42.109  29.797  36.354  1.00  0.00     0.022 A 
BRANCH  63  67
ATOM     67  S   UNL A   1      41.738  27.247  35.322  1.00  0.00     0.124 S 
ATOM     68  O   UNL A   1      40.769  26.947  34.273  1.00  0.00    -0.237 OA
ATOM     69  O   UNL A   1      43.090  26.735  35.115  1.00  0.00    -0.237 OA
ATOM     70  O   UNL A   1      41.230  27.077  36.686  1.00  0.00    -0.744 OA
ENDBRANCH  63  67
ENDBRANCH  37  60
ENDBRANCH  11  12
ENDBRANCH   4   6
ENDBRANCH   1   2
BRANCH   1  71
ATOM     71  C   UNL A   1      43.087  23.080  24.915  1.00  0.00     0.042 C 
BRANCH  71  72
ATOM     72  C   UNL A   1      43.968  24.260  25.304  1.00  0.00     0.118 C 
BRANCH  72  73
ATOM     73  N   UNL A   1      45.342  23.886  25.618  1.00  0.00    -0.352 N 
ATOM     74  C   UNL A   1      46.093  24.152  26.735  1.00  0.00     0.253 C 
ATOM     75  H   UNL A   1      45.800  23.362  24.923  1.00  0.00     0.163 HD
ATOM     76  O   UNL A   1      47.241  23.718  26.825  1.00  0.00    -0.269 OA
BRANCH  74  77
ATOM     77  C   UNL A   1      45.553  24.988  27.827  1.00  0.00     0.065 A 
ATOM     78  C   UNL A   1      45.066  24.276  28.936  1.00  0.00     0.016 A 
ATOM     79  C   UNL A   1      45.578  26.391  27.853  1.00  0.00     0.079 A 
ATOM     80  C   UNL A   1      44.669  24.949  30.090  1.00  0.00     0.001 A 
ATOM     81  C   UNL A   1      45.230  27.055  29.044  1.00  0.00     0.029 A 
ATOM     82  C   UNL A   1      44.774  26.336  30.151  1.00  0.00     0.002 A 
BRANCH  79  83
ATOM     83  N   UNL A   1      45.940  27.173  26.728  1.00  0.00    -0.220 N 
ATOM     84  C   UNL A   1      47.087  27.896  26.489  1.00  0.00     0.137 A 
ATOM     85  N   UNL A   1      45.116  27.291  25.659  1.00  0.00    -0.062 NA
ATOM     86  C   UNL A   1      46.838  28.569  25.319  1.00  0.00     0.157 A 
ATOM     87  N   UNL A   1      45.629  28.190  24.829  1.00  0.00    -0.139 NA
ENDBRANCH  79  83
ENDBRANCH  74  77
ENDBRANCH  72  73
ENDBRANCH  71  72
ENDBRANCH   1  71
TORSDOF 14
ENDMDL
