MODEL 1
REMARK VINA RESULT:     -13.0      0.000      0.000
REMARK SMILES O=C(NCCCNC(=O)c1cc(S(=O)(=O)Nc2ccccc2-n2cc(Br)cn2)c[nH]1)c1ccc(-c2c3nc(c(-c4cc(S(=O)(=O)[O-])ccc4F)c4ccc([nH]4)c(-c4cc(S(=O)(=O)[O-])ccc4F)c4nc(c(-c5cc(S(=O)(=O)[O-])ccc5F)c5ccc2[nH]5)C=C4)C=C3)cc1
REMARK SMILES IDX 5 1 4 2 3 3 1 4 2 5 31 7 32 8 93 9 33 10 92 11 34 12 35 13
REMARK SMILES IDX 36 14 86 15 37 16 91 17 85 18 87 19 38 20 90 21 84 22 83 23
REMARK SMILES IDX 39 25 71 26 51 27 70 28 52 29 55 30 69 31 88 32 53 33 54 34
REMARK SMILES IDX 68 36 89 37 56 38 40 39 41 40 49 41 42 42 48 43 50 44 47 45
REMARK SMILES IDX 43 46 44 47 45 48 46 49 72 50 73 51 81 52 74 53 80 54 82 55
REMARK SMILES IDX 79 56 75 57 76 58 77 59 78 60 57 61 58 62 66 63 59 64 65 65
REMARK SMILES IDX 67 66 64 67 60 68 61 69 62 70 63 71 6 72 7 73 8 74 9 76
REMARK SMILES IDX 10 77 11 78 30 79 12 80 29 81 13 83 14 84 15 85 16 86 17 88
REMARK SMILES IDX 18 89 22 90 19 91 21 92 20 93 23 94 24 95 28 96 25 97 27 98
REMARK SMILES IDX 26 99
REMARK H PARENT 3 6 87 24 55 35 7 75 30 82 16 87
REMARK Flexibility Score: inf
ROOT
ATOM      1  C   UNL A   1      33.673  29.299  26.011  1.00  0.00     0.042 C 
ENDROOT
BRANCH   1   2
ATOM      2  C   UNL A   1      34.620  28.852  27.120  1.00  0.00     0.118 C 
BRANCH   2   3
ATOM      3  N   UNL A   1      34.815  29.800  28.208  1.00  0.00    -0.352 N 
ATOM      4  O   UNL A   1      35.712  31.164  29.712  1.00  0.00    -0.269 OA
ATOM      5  C   UNL A   1      35.909  30.261  28.897  1.00  0.00     0.251 C 
ATOM      6  H   UNL A   1      33.972  30.202  28.518  1.00  0.00     0.163 HD
BRANCH   5   7
ATOM      7  C   UNL A   1      37.276  29.688  28.773  1.00  0.00     0.039 A 
ATOM      8  C   UNL A   1      38.064  29.792  27.628  1.00  0.00     0.014 A 
ATOM      9  C   UNL A   1      37.794  29.010  29.893  1.00  0.00     0.014 A 
ATOM     10  C   UNL A   1      39.286  29.134  27.556  1.00  0.00     0.010 A 
ATOM     11  C   UNL A   1      39.044  28.388  29.845  1.00  0.00     0.010 A 
ATOM     12  C   UNL A   1      39.783  28.437  28.663  1.00  0.00    -0.014 A 
BRANCH  12  13
ATOM     13  C   UNL A   1      41.177  27.949  28.554  1.00  0.00     0.031 A 
ATOM     14  C   UNL A   1      42.163  29.136  28.527  1.00  0.00     0.074 A 
ATOM     15  C   UNL A   1      41.358  26.613  28.334  1.00  0.00     0.049 A 
ATOM     16  N   UNL A   1      43.149  29.403  27.721  1.00  0.00    -0.248 NA
ATOM     17  C   UNL A   1      41.893  30.276  29.444  1.00  0.00     0.031 C 
ATOM     18  C   UNL A   1      40.303  25.574  28.433  1.00  0.00     0.029 A 
ATOM     19  N   UNL A   1      42.444  25.852  27.962  1.00  0.00    -0.354 N 
ATOM     20  C   UNL A   1      43.742  30.610  28.167  1.00  0.00     0.074 A 
ATOM     21  C   UNL A   1      42.829  31.171  29.117  1.00  0.00     0.031 C 
ATOM     22  C   UNL A   1      40.775  24.362  28.054  1.00  0.00     0.029 A 
ATOM     23  C   UNL A   1      42.161  24.493  27.649  1.00  0.00     0.049 A 
ATOM     24  H   UNL A   1      43.355  26.224  27.915  1.00  0.00     0.167 HD
ATOM     25  C   UNL A   1      45.015  30.997  27.845  1.00  0.00     0.034 A 
ATOM     26  C   UNL A   1      42.962  23.566  27.033  1.00  0.00     0.034 A 
ATOM     27  C   UNL A   1      45.637  30.008  27.031  1.00  0.00     0.049 A 
ATOM     28  C   UNL A   1      44.204  24.303  26.752  1.00  0.00     0.074 A 
ATOM     29  C   UNL A   1      45.686  29.709  25.698  1.00  0.00     0.029 A 
ATOM     30  N   UNL A   1      46.345  29.046  27.708  1.00  0.00    -0.354 N 
ATOM     31  N   UNL A   1      45.120  24.590  27.620  1.00  0.00    -0.248 NA
ATOM     32  C   UNL A   1      44.395  24.839  25.398  1.00  0.00     0.031 C 
ATOM     33  C   UNL A   1      46.149  28.370  25.644  1.00  0.00     0.029 A 
ATOM     34  C   UNL A   1      46.319  27.905  26.951  1.00  0.00     0.049 A 
ATOM     35  H   UNL A   1      46.790  29.156  28.579  1.00  0.00     0.167 HD
ATOM     36  C   UNL A   1      45.862  25.559  26.988  1.00  0.00     0.074 A 
ATOM     37  C   UNL A   1      45.563  25.448  25.578  1.00  0.00     0.031 C 
ATOM     38  C   UNL A   1      46.303  26.646  27.668  1.00  0.00     0.034 A 
BRANCH  25  39
ATOM     39  C   UNL A   1      45.952  32.068  28.386  1.00  0.00     0.023 A 
ATOM     40  C   UNL A   1      46.657  32.832  27.415  1.00  0.00     0.031 A 
ATOM     41  C   UNL A   1      46.428  32.174  29.700  1.00  0.00     0.131 A 
ATOM     42  C   UNL A   1      47.845  33.512  27.717  1.00  0.00     0.055 A 
ATOM     43  C   UNL A   1      47.576  32.922  30.017  1.00  0.00     0.041 A 
ATOM     44  F   UNL A   1      45.864  31.503  30.712  1.00  0.00    -0.206 F 
ATOM     45  C   UNL A   1      48.314  33.560  29.021  1.00  0.00     0.022 A 
BRANCH  42  46
ATOM     46  S   UNL A   1      48.839  34.163  26.341  1.00  0.00     0.124 S 
ATOM     47  O   UNL A   1      47.818  34.508  25.357  1.00  0.00    -0.237 OA
ATOM     48  O   UNL A   1      49.527  35.288  26.967  1.00  0.00    -0.237 OA
ATOM     49  O   UNL A   1      49.697  33.037  25.980  1.00  0.00    -0.744 OA
ENDBRANCH  42  46
ENDBRANCH  25  39
BRANCH  26  50
ATOM     50  C   UNL A   1      42.888  22.152  26.471  1.00  0.00     0.023 A 
ATOM     51  C   UNL A   1      43.940  21.426  25.885  1.00  0.00     0.031 A 
ATOM     52  C   UNL A   1      41.643  21.445  26.522  1.00  0.00     0.131 A 
ATOM     53  C   UNL A   1      43.739  20.077  25.466  1.00  0.00     0.055 A 
ATOM     54  C   UNL A   1      41.470  20.104  26.181  1.00  0.00     0.041 A 
ATOM     55  F   UNL A   1      40.501  22.030  26.910  1.00  0.00    -0.206 F 
ATOM     56  C   UNL A   1      42.530  19.403  25.661  1.00  0.00     0.022 A 
BRANCH  53  57
ATOM     57  S   UNL A   1      45.050  19.121  24.643  1.00  0.00     0.124 S 
ATOM     58  O   UNL A   1      45.111  17.918  25.467  1.00  0.00    -0.237 OA
ATOM     59  O   UNL A   1      44.535  18.944  23.289  1.00  0.00    -0.237 OA
ATOM     60  O   UNL A   1      46.215  20.002  24.749  1.00  0.00    -0.744 OA
ENDBRANCH  53  57
ENDBRANCH  26  50
BRANCH  38  61
ATOM     61  C   UNL A   1      46.232  26.483  29.186  1.00  0.00     0.023 A 
ATOM     62  C   UNL A   1      45.196  27.067  29.932  1.00  0.00     0.031 A 
ATOM     63  C   UNL A   1      47.267  25.882  29.932  1.00  0.00     0.131 A 
ATOM     64  C   UNL A   1      45.228  27.041  31.343  1.00  0.00     0.055 A 
ATOM     65  C   UNL A   1      47.291  25.834  31.328  1.00  0.00     0.041 A 
ATOM     66  F   UNL A   1      48.311  25.333  29.319  1.00  0.00    -0.206 F 
ATOM     67  C   UNL A   1      46.266  26.422  32.044  1.00  0.00     0.022 A 
BRANCH  64  68
ATOM     68  S   UNL A   1      43.886  27.825  32.276  1.00  0.00     0.124 S 
ATOM     69  O   UNL A   1      43.961  27.152  33.568  1.00  0.00    -0.237 OA
ATOM     70  O   UNL A   1      44.275  29.233  32.264  1.00  0.00    -0.237 OA
ATOM     71  O   UNL A   1      42.693  27.515  31.486  1.00  0.00    -0.744 OA
ENDBRANCH  64  68
ENDBRANCH  38  61
ENDBRANCH  12  13
ENDBRANCH   5   7
ENDBRANCH   2   3
ENDBRANCH   1   2
BRANCH   1  72
ATOM     72  C   UNL A   1      32.281  28.696  26.118  1.00  0.00     0.118 C 
BRANCH  72  73
ATOM     73  N   UNL A   1      31.459  29.039  24.974  1.00  0.00    -0.351 N 
ATOM     74  C   UNL A   1      31.401  28.555  23.694  1.00  0.00     0.267 C 
ATOM     75  H   UNL A   1      30.817  29.763  25.151  1.00  0.00     0.163 HD
ATOM     76  O   UNL A   1      30.734  29.218  22.895  1.00  0.00    -0.268 OA
BRANCH  74  77
ATOM     77  C   UNL A   1      32.036  27.321  23.280  1.00  0.00     0.105 A 
ATOM     78  C   UNL A   1      32.222  26.080  23.860  1.00  0.00     0.055 A 
ATOM     79  N   UNL A   1      32.567  27.204  22.004  1.00  0.00    -0.356 N 
ATOM     80  C   UNL A   1      32.675  25.171  22.874  1.00  0.00     0.106 A 
ATOM     81  C   UNL A   1      32.939  25.911  21.743  1.00  0.00     0.105 A 
ATOM     82  H   UNL A   1      32.664  27.951  21.371  1.00  0.00     0.166 HD
BRANCH  80  83
ATOM     83  S   UNL A   1      32.873  23.471  23.130  1.00  0.00     0.263 S 
ATOM     84  O   UNL A   1      31.538  22.936  23.046  1.00  0.00    -0.201 OA
ATOM     85  O   UNL A   1      33.912  23.116  22.181  1.00  0.00    -0.201 OA
BRANCH  83  86
ATOM     86  N   UNL A   1      33.471  23.081  24.687  1.00  0.00    -0.277 N 
ATOM     87  H   UNL A   1      32.857  23.030  25.454  1.00  0.00     0.180 HD
BRANCH  86  88
ATOM     88  C   UNL A   1      34.876  22.830  24.864  1.00  0.00     0.075 A 
ATOM     89  C   UNL A   1      35.737  23.932  24.962  1.00  0.00     0.029 A 
ATOM     90  C   UNL A   1      35.389  21.537  25.098  1.00  0.00     0.089 A 
ATOM     91  C   UNL A   1      37.087  23.755  25.282  1.00  0.00     0.002 A 
ATOM     92  C   UNL A   1      36.738  21.374  25.465  1.00  0.00     0.030 A 
ATOM     93  C   UNL A   1      37.586  22.479  25.538  1.00  0.00     0.002 A 
BRANCH  90  94
ATOM     94  N   UNL A   1      34.569  20.380  25.031  1.00  0.00    -0.238 N 
ATOM     95  C   UNL A   1      34.925  19.107  24.643  1.00  0.00     0.130 A 
ATOM     96  N   UNL A   1      33.237  20.451  25.329  1.00  0.00    -0.175 NA
ATOM     97  C   UNL A   1      33.757  18.421  24.473  1.00  0.00     0.056 A 
ATOM     98  C   UNL A   1      32.745  19.293  24.874  1.00  0.00     0.151 A 
ATOM     99  Br  UNL A   1      33.528  16.683  23.842  1.00  0.00    -0.047 Br
ENDBRANCH  90  94
ENDBRANCH  86  88
ENDBRANCH  83  86
ENDBRANCH  80  83
ENDBRANCH  74  77
ENDBRANCH  72  73
ENDBRANCH   1  72
TORSDOF 17
ENDMDL
MODEL 2
REMARK VINA RESULT:     -12.7      5.263     11.071
REMARK SMILES O=C(NCCCNC(=O)c1cc(S(=O)(=O)Nc2ccccc2-n2cc(Br)cn2)c[nH]1)c1ccc(-c2c3nc(c(-c4cc(S(=O)(=O)[O-])ccc4F)c4ccc([nH]4)c(-c4cc(S(=O)(=O)[O-])ccc4F)c4nc(c(-c5cc(S(=O)(=O)[O-])ccc5F)c5ccc2[nH]5)C=C4)C=C3)cc1
REMARK SMILES IDX 5 1 4 2 3 3 1 4 2 5 31 7 32 8 93 9 33 10 92 11 34 12 35 13
REMARK SMILES IDX 36 14 86 15 37 16 91 17 85 18 87 19 38 20 90 21 84 22 83 23
REMARK SMILES IDX 39 25 71 26 51 27 70 28 52 29 55 30 69 31 88 32 53 33 54 34
REMARK SMILES IDX 68 36 89 37 56 38 40 39 41 40 49 41 42 42 48 43 50 44 47 45
REMARK SMILES IDX 43 46 44 47 45 48 46 49 72 50 73 51 81 52 74 53 80 54 82 55
REMARK SMILES IDX 79 56 75 57 76 58 77 59 78 60 57 61 58 62 66 63 59 64 65 65
REMARK SMILES IDX 67 66 64 67 60 68 61 69 62 70 63 71 6 72 7 73 8 74 9 76
REMARK SMILES IDX 10 77 11 78 30 79 12 80 29 81 13 83 14 84 15 85 16 86 17 88
REMARK SMILES IDX 18 89 22 90 19 91 21 92 20 93 23 94 24 95 28 96 25 97 27 98
REMARK SMILES IDX 26 99
REMARK H PARENT 3 6 87 24 55 35 7 75 30 82 16 87
REMARK Flexibility Score: inf
ROOT
ATOM      1  C   UNL A   1      35.186  34.115  28.009  1.00  0.00     0.042 C 
ENDROOT
BRANCH   1   2
ATOM      2  C   UNL A   1      36.023  32.844  28.107  1.00  0.00     0.118 C 
BRANCH   2   3
ATOM      3  N   UNL A   1      35.315  31.598  27.848  1.00  0.00    -0.352 N 
ATOM      4  O   UNL A   1      34.745  29.456  27.726  1.00  0.00    -0.269 OA
ATOM      5  C   UNL A   1      35.649  30.269  27.928  1.00  0.00     0.251 C 
ATOM      6  H   UNL A   1      34.389  31.741  27.550  1.00  0.00     0.163 HD
BRANCH   5   7
ATOM      7  C   UNL A   1      37.029  29.767  28.163  1.00  0.00     0.039 A 
ATOM      8  C   UNL A   1      38.093  29.970  27.287  1.00  0.00     0.014 A 
ATOM      9  C   UNL A   1      37.260  29.051  29.354  1.00  0.00     0.014 A 
ATOM     10  C   UNL A   1      39.325  29.373  27.527  1.00  0.00     0.010 A 
ATOM     11  C   UNL A   1      38.510  28.490  29.628  1.00  0.00     0.010 A 
ATOM     12  C   UNL A   1      39.540  28.638  28.699  1.00  0.00    -0.014 A 
BRANCH  12  13
ATOM     13  C   UNL A   1      40.937  28.221  28.959  1.00  0.00     0.031 A 
ATOM     14  C   UNL A   1      41.239  26.879  28.262  1.00  0.00     0.074 A 
ATOM     15  C   UNL A   1      41.651  28.956  29.864  1.00  0.00     0.049 A 
ATOM     16  N   UNL A   1      41.782  25.788  28.717  1.00  0.00    -0.248 NA
ATOM     17  C   UNL A   1      40.697  26.678  26.891  1.00  0.00     0.031 C 
ATOM     18  C   UNL A   1      41.239  30.266  30.426  1.00  0.00     0.029 A 
ATOM     19  N   UNL A   1      42.847  28.753  30.516  1.00  0.00    -0.354 N 
ATOM     20  C   UNL A   1      41.845  24.867  27.642  1.00  0.00     0.074 A 
ATOM     21  C   UNL A   1      41.020  25.414  26.606  1.00  0.00     0.031 C 
ATOM     22  C   UNL A   1      42.110  30.686  31.374  1.00  0.00     0.029 A 
ATOM     23  C   UNL A   1      43.151  29.691  31.543  1.00  0.00     0.049 A 
ATOM     24  H   UNL A   1      43.451  28.010  30.287  1.00  0.00     0.167 HD
ATOM     25  C   UNL A   1      42.691  23.792  27.608  1.00  0.00     0.034 A 
ATOM     26  C   UNL A   1      44.122  29.626  32.508  1.00  0.00     0.034 A 
ATOM     27  C   UNL A   1      43.492  23.761  28.786  1.00  0.00     0.049 A 
ATOM     28  C   UNL A   1      44.791  28.341  32.251  1.00  0.00     0.074 A 
ATOM     29  C   UNL A   1      43.365  23.273  30.057  1.00  0.00     0.029 A 
ATOM     30  N   UNL A   1      44.693  24.420  28.701  1.00  0.00    -0.354 N 
ATOM     31  N   UNL A   1      45.647  28.116  31.306  1.00  0.00    -0.248 NA
ATOM     32  C   UNL A   1      44.403  27.186  33.071  1.00  0.00     0.031 C 
ATOM     33  C   UNL A   1      44.361  23.951  30.805  1.00  0.00     0.029 A 
ATOM     34  C   UNL A   1      45.017  24.851  29.960  1.00  0.00     0.049 A 
ATOM     35  H   UNL A   1      45.225  24.558  27.884  1.00  0.00     0.167 HD
ATOM     36  C   UNL A   1      45.700  26.745  31.249  1.00  0.00     0.074 A 
ATOM     37  C   UNL A   1      45.172  26.262  32.505  1.00  0.00     0.031 C 
ATOM     38  C   UNL A   1      45.740  26.103  30.055  1.00  0.00     0.034 A 
BRANCH  25  39
ATOM     39  C   UNL A   1      43.133  22.842  26.504  1.00  0.00     0.023 A 
ATOM     40  C   UNL A   1      42.509  21.563  26.491  1.00  0.00     0.031 A 
ATOM     41  C   UNL A   1      44.282  22.962  25.711  1.00  0.00     0.131 A 
ATOM     42  C   UNL A   1      43.092  20.454  25.863  1.00  0.00     0.055 A 
ATOM     43  C   UNL A   1      44.824  21.865  25.016  1.00  0.00     0.041 A 
ATOM     44  F   UNL A   1      44.973  24.106  25.637  1.00  0.00    -0.206 F 
ATOM     45  C   UNL A   1      44.256  20.597  25.123  1.00  0.00     0.022 A 
BRANCH  42  46
ATOM     46  S   UNL A   1      42.393  18.809  26.198  1.00  0.00     0.124 S 
ATOM     47  O   UNL A   1      41.023  18.951  25.718  1.00  0.00    -0.237 OA
ATOM     48  O   UNL A   1      43.260  17.942  25.406  1.00  0.00    -0.237 OA
ATOM     49  O   UNL A   1      42.534  18.669  27.645  1.00  0.00    -0.744 OA
ENDBRANCH  42  46
ENDBRANCH  25  39
BRANCH  26  50
ATOM     50  C   UNL A   1      44.574  30.371  33.758  1.00  0.00     0.023 A 
ATOM     51  C   UNL A   1      44.086  30.190  35.065  1.00  0.00     0.031 A 
ATOM     52  C   UNL A   1      45.599  31.365  33.645  1.00  0.00     0.131 A 
ATOM     53  C   UNL A   1      44.659  30.913  36.154  1.00  0.00     0.055 A 
ATOM     54  C   UNL A   1      46.207  32.013  34.721  1.00  0.00     0.041 A 
ATOM     55  F   UNL A   1      46.075  31.774  32.462  1.00  0.00    -0.206 F 
ATOM     56  C   UNL A   1      45.745  31.777  35.992  1.00  0.00     0.022 A 
BRANCH  53  57
ATOM     57  S   UNL A   1      44.017  30.762  37.849  1.00  0.00     0.124 S 
ATOM     58  O   UNL A   1      44.498  29.440  38.238  1.00  0.00    -0.237 OA
ATOM     59  O   UNL A   1      44.628  31.893  38.540  1.00  0.00    -0.237 OA
ATOM     60  O   UNL A   1      42.569  30.863  37.663  1.00  0.00    -0.744 OA
ENDBRANCH  53  57
ENDBRANCH  26  50
BRANCH  38  61
ATOM     61  C   UNL A   1      46.099  27.019  28.885  1.00  0.00     0.023 A 
ATOM     62  C   UNL A   1      45.238  28.051  28.478  1.00  0.00     0.031 A 
ATOM     63  C   UNL A   1      47.219  26.789  28.060  1.00  0.00     0.131 A 
ATOM     64  C   UNL A   1      45.507  28.786  27.304  1.00  0.00     0.055 A 
ATOM     65  C   UNL A   1      47.502  27.529  26.910  1.00  0.00     0.041 A 
ATOM     66  F   UNL A   1      48.076  25.811  28.340  1.00  0.00    -0.206 F 
ATOM     67  C   UNL A   1      46.637  28.535  26.522  1.00  0.00     0.022 A 
BRANCH  64  68
ATOM     68  S   UNL A   1      44.362  30.095  26.795  1.00  0.00     0.124 S 
ATOM     69  O   UNL A   1      45.208  30.958  25.979  1.00  0.00    -0.237 OA
ATOM     70  O   UNL A   1      43.328  29.350  26.080  1.00  0.00    -0.237 OA
ATOM     71  O   UNL A   1      43.925  30.680  28.063  1.00  0.00    -0.744 OA
ENDBRANCH  64  68
ENDBRANCH  38  61
ENDBRANCH  12  13
ENDBRANCH   5   7
ENDBRANCH   2   3
ENDBRANCH   1   2
BRANCH   1  72
ATOM     72  C   UNL A   1      33.737  33.924  28.426  1.00  0.00     0.118 C 
BRANCH  72  73
ATOM     73  N   UNL A   1      33.225  35.082  29.134  1.00  0.00    -0.351 N 
ATOM     74  C   UNL A   1      33.179  35.413  30.462  1.00  0.00     0.267 C 
ATOM     75  H   UNL A   1      32.833  35.764  28.544  1.00  0.00     0.163 HD
ATOM     76  O   UNL A   1      32.474  36.383  30.753  1.00  0.00    -0.268 OA
BRANCH  74  77
ATOM     77  C   UNL A   1      33.932  34.714  31.483  1.00  0.00     0.105 A 
ATOM     78  C   UNL A   1      35.276  34.513  31.734  1.00  0.00     0.055 A 
ATOM     79  N   UNL A   1      33.275  34.115  32.547  1.00  0.00    -0.356 N 
ATOM     80  C   UNL A   1      35.430  33.979  33.036  1.00  0.00     0.106 A 
ATOM     81  C   UNL A   1      34.165  33.685  33.496  1.00  0.00     0.105 A 
ATOM     82  H   UNL A   1      32.298  34.013  32.612  1.00  0.00     0.166 HD
BRANCH  80  83
ATOM     83  S   UNL A   1      36.953  33.735  33.819  1.00  0.00     0.263 S 
ATOM     84  O   UNL A   1      37.471  35.063  34.025  1.00  0.00    -0.201 OA
ATOM     85  O   UNL A   1      36.617  32.853  34.922  1.00  0.00    -0.201 OA
BRANCH  83  86
ATOM     86  N   UNL A   1      38.091  32.900  32.849  1.00  0.00    -0.277 N 
ATOM     87  H   UNL A   1      38.276  33.203  31.931  1.00  0.00     0.180 HD
BRANCH  86  88
ATOM     88  C   UNL A   1      38.775  31.754  33.386  1.00  0.00     0.075 A 
ATOM     89  C   UNL A   1      38.419  30.487  32.904  1.00  0.00     0.029 A 
ATOM     90  C   UNL A   1      39.884  31.872  34.250  1.00  0.00     0.089 A 
ATOM     91  C   UNL A   1      39.148  29.352  33.276  1.00  0.00     0.002 A 
ATOM     92  C   UNL A   1      40.639  30.730  34.581  1.00  0.00     0.030 A 
ATOM     93  C   UNL A   1      40.258  29.474  34.110  1.00  0.00     0.002 A 
BRANCH  90  94
ATOM     94  N   UNL A   1      40.308  33.127  34.761  1.00  0.00    -0.238 N 
ATOM     95  C   UNL A   1      40.258  33.575  36.063  1.00  0.00     0.130 A 
ATOM     96  N   UNL A   1      40.802  34.089  33.926  1.00  0.00    -0.175 NA
ATOM     97  C   UNL A   1      40.507  34.916  36.012  1.00  0.00     0.056 A 
ATOM     98  C   UNL A   1      40.804  35.195  34.678  1.00  0.00     0.151 A 
ATOM     99  Br  UNL A   1      40.469  36.144  37.413  1.00  0.00    -0.047 Br
ENDBRANCH  90  94
ENDBRANCH  86  88
ENDBRANCH  83  86
ENDBRANCH  80  83
ENDBRANCH  74  77
ENDBRANCH  72  73
ENDBRANCH   1  72
TORSDOF 17
ENDMDL
MODEL 3
REMARK VINA RESULT:     -12.5      5.185     10.441
REMARK SMILES O=C(NCCCNC(=O)c1cc(S(=O)(=O)Nc2ccccc2-n2cc(Br)cn2)c[nH]1)c1ccc(-c2c3nc(c(-c4cc(S(=O)(=O)[O-])ccc4F)c4ccc([nH]4)c(-c4cc(S(=O)(=O)[O-])ccc4F)c4nc(c(-c5cc(S(=O)(=O)[O-])ccc5F)c5ccc2[nH]5)C=C4)C=C3)cc1
REMARK SMILES IDX 5 1 4 2 3 3 1 4 2 5 31 7 32 8 93 9 33 10 92 11 34 12 35 13
REMARK SMILES IDX 36 14 86 15 37 16 91 17 85 18 87 19 38 20 90 21 84 22 83 23
REMARK SMILES IDX 39 25 71 26 51 27 70 28 52 29 55 30 69 31 88 32 53 33 54 34
REMARK SMILES IDX 68 36 89 37 56 38 40 39 41 40 49 41 42 42 48 43 50 44 47 45
REMARK SMILES IDX 43 46 44 47 45 48 46 49 72 50 73 51 81 52 74 53 80 54 82 55
REMARK SMILES IDX 79 56 75 57 76 58 77 59 78 60 57 61 58 62 66 63 59 64 65 65
REMARK SMILES IDX 67 66 64 67 60 68 61 69 62 70 63 71 6 72 7 73 8 74 9 76
REMARK SMILES IDX 10 77 11 78 30 79 12 80 29 81 13 83 14 84 15 85 16 86 17 88
REMARK SMILES IDX 18 89 22 90 19 91 21 92 20 93 23 94 24 95 28 96 25 97 27 98
REMARK SMILES IDX 26 99
REMARK H PARENT 3 6 87 24 55 35 7 75 30 82 16 87
REMARK Flexibility Score: inf
ROOT
ATOM      1  C   UNL A   1      35.597  33.911  27.922  1.00  0.00     0.042 C 
ENDROOT
BRANCH   1   2
ATOM      2  C   UNL A   1      36.355  32.596  28.073  1.00  0.00     0.118 C 
BRANCH   2   3
ATOM      3  N   UNL A   1      35.614  31.393  27.722  1.00  0.00    -0.352 N 
ATOM      4  O   UNL A   1      34.966  29.284  27.477  1.00  0.00    -0.269 OA
ATOM      5  C   UNL A   1      35.889  30.048  27.764  1.00  0.00     0.251 C 
ATOM      6  H   UNL A   1      34.713  31.587  27.379  1.00  0.00     0.163 HD
BRANCH   5   7
ATOM      7  C   UNL A   1      37.232  29.479  28.054  1.00  0.00     0.039 A 
ATOM      8  C   UNL A   1      38.368  29.733  27.288  1.00  0.00     0.014 A 
ATOM      9  C   UNL A   1      37.346  28.641  29.180  1.00  0.00     0.014 A 
ATOM     10  C   UNL A   1      39.560  29.073  27.563  1.00  0.00     0.010 A 
ATOM     11  C   UNL A   1      38.555  28.013  29.492  1.00  0.00     0.010 A 
ATOM     12  C   UNL A   1      39.660  28.218  28.666  1.00  0.00    -0.014 A 
BRANCH  12  13
ATOM     13  C   UNL A   1      41.021  27.730  28.992  1.00  0.00     0.031 A 
ATOM     14  C   UNL A   1      41.429  26.592  28.035  1.00  0.00     0.074 A 
ATOM     15  C   UNL A   1      41.603  28.215  30.129  1.00  0.00     0.049 A 
ATOM     16  N   UNL A   1      41.929  25.416  28.278  1.00  0.00    -0.248 NA
ATOM     17  C   UNL A   1      41.067  26.736  26.599  1.00  0.00     0.031 C 
ATOM     18  C   UNL A   1      41.103  29.356  30.934  1.00  0.00     0.029 A 
ATOM     19  N   UNL A   1      42.711  27.843  30.858  1.00  0.00    -0.354 N 
ATOM     20  C   UNL A   1      42.141  24.781  27.028  1.00  0.00     0.074 A 
ATOM     21  C   UNL A   1      41.443  25.574  26.060  1.00  0.00     0.031 C 
ATOM     22  C   UNL A   1      41.841  29.521  32.057  1.00  0.00     0.029 A 
ATOM     23  C   UNL A   1      42.869  28.500  32.110  1.00  0.00     0.049 A 
ATOM     24  H   UNL A   1      43.352  27.168  30.533  1.00  0.00     0.167 HD
ATOM     25  C   UNL A   1      43.001  23.733  26.843  1.00  0.00     0.034 A 
ATOM     26  C   UNL A   1      43.713  28.190  33.146  1.00  0.00     0.034 A 
ATOM     27  C   UNL A   1      43.649  23.407  28.069  1.00  0.00     0.049 A 
ATOM     28  C   UNL A   1      44.430  26.995  32.672  1.00  0.00     0.074 A 
ATOM     29  C   UNL A   1      43.372  22.629  29.158  1.00  0.00     0.029 A 
ATOM     30  N   UNL A   1      44.840  24.049  28.297  1.00  0.00    -0.354 N 
ATOM     31  N   UNL A   1      45.400  26.993  31.816  1.00  0.00    -0.248 NA
ATOM     32  C   UNL A   1      43.961  25.683  33.133  1.00  0.00     0.031 C 
ATOM     33  C   UNL A   1      44.256  23.091  30.166  1.00  0.00     0.029 A 
ATOM     34  C   UNL A   1      44.998  24.159  29.653  1.00  0.00     0.049 A 
ATOM     35  H   UNL A   1      45.468  24.373  27.611  1.00  0.00     0.167 HD
ATOM     36  C   UNL A   1      45.483  25.675  31.436  1.00  0.00     0.074 A 
ATOM     37  C   UNL A   1      44.809  24.911  32.462  1.00  0.00     0.031 C 
ATOM     38  C   UNL A   1      45.682  25.340  30.138  1.00  0.00     0.034 A 
BRANCH  25  39
ATOM     39  C   UNL A   1      43.594  23.072  25.606  1.00  0.00     0.023 A 
ATOM     40  C   UNL A   1      43.439  21.660  25.516  1.00  0.00     0.031 A 
ATOM     41  C   UNL A   1      44.527  23.634  24.725  1.00  0.00     0.131 A 
ATOM     42  C   UNL A   1      44.276  20.866  24.721  1.00  0.00     0.055 A 
ATOM     43  C   UNL A   1      45.313  22.842  23.868  1.00  0.00     0.041 A 
ATOM     44  F   UNL A   1      44.779  24.949  24.708  1.00  0.00    -0.206 F 
ATOM     45  C   UNL A   1      45.221  21.451  23.893  1.00  0.00     0.022 A 
BRANCH  42  46
ATOM     46  S   UNL A   1      44.216  19.062  24.943  1.00  0.00     0.124 S 
ATOM     47  O   UNL A   1      42.838  18.847  25.368  1.00  0.00    -0.237 OA
ATOM     48  O   UNL A   1      44.555  18.579  23.608  1.00  0.00    -0.237 OA
ATOM     49  O   UNL A   1      45.229  18.812  25.966  1.00  0.00    -0.744 OA
ENDBRANCH  42  46
ENDBRANCH  25  39
BRANCH  26  50
ATOM     50  C   UNL A   1      43.992  28.604  34.585  1.00  0.00     0.023 A 
ATOM     51  C   UNL A   1      44.216  27.746  35.676  1.00  0.00     0.031 A 
ATOM     52  C   UNL A   1      44.045  29.998  34.912  1.00  0.00     0.131 A 
ATOM     53  C   UNL A   1      44.539  28.282  36.959  1.00  0.00     0.055 A 
ATOM     54  C   UNL A   1      44.434  30.515  36.148  1.00  0.00     0.041 A 
ATOM     55  F   UNL A   1      43.713  30.954  34.034  1.00  0.00    -0.206 F 
ATOM     56  C   UNL A   1      44.699  29.652  37.182  1.00  0.00     0.022 A 
BRANCH  53  57
ATOM     57  S   UNL A   1      44.771  27.214  38.414  1.00  0.00     0.124 S 
ATOM     58  O   UNL A   1      45.905  26.391  38.008  1.00  0.00    -0.237 OA
ATOM     59  O   UNL A   1      45.025  28.167  39.490  1.00  0.00    -0.237 OA
ATOM     60  O   UNL A   1      43.494  26.504  38.508  1.00  0.00    -0.744 OA
ENDBRANCH  53  57
ENDBRANCH  26  50
BRANCH  38  61
ATOM     61  C   UNL A   1      46.170  26.506  29.278  1.00  0.00     0.023 A 
ATOM     62  C   UNL A   1      45.273  27.279  28.524  1.00  0.00     0.031 A 
ATOM     63  C   UNL A   1      47.539  26.771  29.069  1.00  0.00     0.131 A 
ATOM     64  C   UNL A   1      45.750  28.249  27.617  1.00  0.00     0.055 A 
ATOM     65  C   UNL A   1      48.016  27.746  28.189  1.00  0.00     0.041 A 
ATOM     66  F   UNL A   1      48.470  26.068  29.709  1.00  0.00    -0.206 F 
ATOM     67  C   UNL A   1      47.116  28.491  27.451  1.00  0.00     0.022 A 
BRANCH  64  68
ATOM     68  S   UNL A   1      44.565  29.213  26.643  1.00  0.00     0.124 S 
ATOM     69  O   UNL A   1      43.589  29.625  27.645  1.00  0.00    -0.237 OA
ATOM     70  O   UNL A   1      45.402  30.275  26.089  1.00  0.00    -0.237 OA
ATOM     71  O   UNL A   1      44.069  28.251  25.657  1.00  0.00    -0.744 OA
ENDBRANCH  64  68
ENDBRANCH  38  61
ENDBRANCH  12  13
ENDBRANCH   5   7
ENDBRANCH   2   3
ENDBRANCH   1   2
BRANCH   1  72
ATOM     72  C   UNL A   1      34.087  33.757  28.018  1.00  0.00     0.118 C 
BRANCH  72  73
ATOM     73  N   UNL A   1      33.446  34.998  28.407  1.00  0.00    -0.351 N 
ATOM     74  C   UNL A   1      33.100  35.524  29.623  1.00  0.00     0.267 C 
ATOM     75  H   UNL A   1      33.213  35.578  27.646  1.00  0.00     0.163 HD
ATOM     76  O   UNL A   1      32.363  36.514  29.594  1.00  0.00    -0.268 OA
BRANCH  74  77
ATOM     77  C   UNL A   1      33.585  35.000  30.883  1.00  0.00     0.105 A 
ATOM     78  C   UNL A   1      34.813  34.574  31.352  1.00  0.00     0.055 A 
ATOM     79  N   UNL A   1      32.734  34.911  31.975  1.00  0.00    -0.356 N 
ATOM     80  C   UNL A   1      34.747  34.425  32.758  1.00  0.00     0.106 A 
ATOM     81  C   UNL A   1      33.424  34.582  33.112  1.00  0.00     0.105 A 
ATOM     82  H   UNL A   1      31.761  35.063  31.937  1.00  0.00     0.166 HD
BRANCH  80  83
ATOM     83  S   UNL A   1      36.106  34.072  33.768  1.00  0.00     0.263 S 
ATOM     84  O   UNL A   1      37.094  35.054  33.400  1.00  0.00    -0.201 OA
ATOM     85  O   UNL A   1      35.522  34.019  35.096  1.00  0.00    -0.201 OA
BRANCH  83  86
ATOM     86  N   UNL A   1      36.796  32.533  33.470  1.00  0.00    -0.277 N 
ATOM     87  H   UNL A   1      36.388  31.927  32.810  1.00  0.00     0.180 HD
BRANCH  86  88
ATOM     88  C   UNL A   1      37.974  32.133  34.191  1.00  0.00     0.075 A 
ATOM     89  C   UNL A   1      37.822  31.695  35.514  1.00  0.00     0.029 A 
ATOM     90  C   UNL A   1      39.236  32.016  33.572  1.00  0.00     0.089 A 
ATOM     91  C   UNL A   1      38.905  31.154  36.215  1.00  0.00     0.002 A 
ATOM     92  C   UNL A   1      40.308  31.428  34.270  1.00  0.00     0.030 A 
ATOM     93  C   UNL A   1      40.145  31.017  35.593  1.00  0.00     0.002 A 
BRANCH  90  94
ATOM     94  N   UNL A   1      39.454  32.425  32.230  1.00  0.00    -0.238 N 
ATOM     95  C   UNL A   1      40.241  33.460  31.774  1.00  0.00     0.130 A 
ATOM     96  N   UNL A   1      38.815  31.799  31.197  1.00  0.00    -0.175 NA
ATOM     97  C   UNL A   1      39.913  33.636  30.460  1.00  0.00     0.056 A 
ATOM     98  C   UNL A   1      39.011  32.617  30.157  1.00  0.00     0.151 A 
ATOM     99  Br  UNL A   1      40.526  34.951  29.291  1.00  0.00    -0.047 Br
ENDBRANCH  90  94
ENDBRANCH  86  88
ENDBRANCH  83  86
ENDBRANCH  80  83
ENDBRANCH  74  77
ENDBRANCH  72  73
ENDBRANCH   1  72
TORSDOF 17
ENDMDL
