MODEL 1
REMARK VINA RESULT:     -12.8      0.000      0.000
REMARK SMILES COc1cccc(C(=O)Nc2cccc(C(=O)NCCCNC(=O)c3ccc(-c4c5nc(c(-c6cc(S(=O)(=O)[O-])ccc6F)c6ccc([nH]6)c(-c6cc(S(=O)(=O)[O-])ccc6F)c6nc(c(-c7cc(S(=O)(=O)[O-])ccc7F)c7ccc4[nH]7)C=C6)C=C5)cc3)c2C)c1
REMARK SMILES IDX 20 1 19 2 18 3 16 4 17 5 15 7 11 8 12 9 88 10 13 11 89 12
REMARK SMILES IDX 14 13 10 14 8 15 9 16 7 18 3 19 4 20 90 21 5 22 6 23 2 24
REMARK SMILES IDX 1 25 21 26 22 27 23 28 24 30 25 31 26 32 87 33 27 34 86 35
REMARK SMILES IDX 28 36 29 37 30 38 80 39 31 40 85 41 79 42 81 43 32 44 84 45
REMARK SMILES IDX 78 46 77 47 33 49 65 50 45 51 64 52 46 53 49 54 63 55 82 56
REMARK SMILES IDX 47 57 48 58 62 60 83 61 50 62 34 63 35 64 43 65 36 66 42 67
REMARK SMILES IDX 44 68 41 69 37 70 38 71 39 72 40 73 66 74 67 75 75 76 68 77
REMARK SMILES IDX 74 78 76 79 73 80 69 81 70 82 71 83 72 84 51 85 52 86 60 87
REMARK SMILES IDX 53 88 59 89 61 90 58 91 54 92 55 93 56 94 57 95
REMARK H PARENT 18 6 10 17 22 29 81 48 49 59
REMARK Flexibility Score: inf
ROOT
ATOM      1  C   UNL A   1      31.563  32.173  26.802  1.00  0.00     0.042 C 
ENDROOT
BRANCH   1   2
ATOM      2  C   UNL A   1      31.649  30.662  26.604  1.00  0.00     0.118 C 
BRANCH   2   3
ATOM      3  N   UNL A   1      32.367  30.355  25.384  1.00  0.00    -0.352 N 
ATOM      4  C   UNL A   1      32.393  29.266  24.553  1.00  0.00     0.251 C 
ATOM      5  O   UNL A   1      33.175  29.338  23.600  1.00  0.00    -0.269 OA
ATOM      6  H   UNL A   1      32.963  31.082  25.090  1.00  0.00     0.163 HD
BRANCH   4   7
ATOM      7  C   UNL A   1      31.468  28.085  24.626  1.00  0.00     0.044 A 
ATOM      8  C   UNL A   1      30.447  26.051  25.484  1.00  0.00     0.045 A 
ATOM      9  C   UNL A   1      29.470  26.092  24.489  1.00  0.00     0.026 A 
ATOM     10  C   UNL A   1      31.545  26.942  25.448  1.00  0.00    -0.015 A 
ATOM     11  C   UNL A   1      29.464  27.133  23.575  1.00  0.00     0.003 A 
ATOM     12  C   UNL A   1      32.820  26.483  26.098  1.00  0.00     0.047 C 
ATOM     13  C   UNL A   1      30.417  28.145  23.684  1.00  0.00     0.014 A 
BRANCH   8  14
ATOM     14  N   UNL A   1      30.262  25.088  26.493  1.00  0.00    -0.322 N 
ATOM     15  C   UNL A   1      30.626  23.754  26.525  1.00  0.00     0.255 C 
ATOM     16  O   UNL A   1      30.202  23.044  27.437  1.00  0.00    -0.269 OA
ATOM     17  H   UNL A   1      29.801  25.413  27.300  1.00  0.00     0.170 HD
BRANCH  15  18
ATOM     18  C   UNL A   1      31.602  23.168  25.558  1.00  0.00     0.043 A 
ATOM     19  C   UNL A   1      33.810  22.346  24.959  1.00  0.00     0.119 A 
ATOM     20  C   UNL A   1      33.360  22.119  23.656  1.00  0.00     0.046 A 
ATOM     21  C   UNL A   1      32.914  22.822  25.921  1.00  0.00     0.060 A 
ATOM     22  C   UNL A   1      32.037  22.384  23.305  1.00  0.00     0.005 A 
ATOM     23  C   UNL A   1      31.160  22.911  24.253  1.00  0.00     0.014 A 
BRANCH  19  24
ATOM     24  O   UNL A   1      35.140  22.097  25.155  1.00  0.00    -0.497 OA
ATOM     25  C   UNL A   1      35.550  20.735  25.182  1.00  0.00     0.278 C 
ENDBRANCH  19  24
ENDBRANCH  15  18
ENDBRANCH   8  14
ENDBRANCH   4   7
ENDBRANCH   2   3
ENDBRANCH   1   2
BRANCH   1  26
ATOM     26  C   UNL A   1      32.858  32.815  27.262  1.00  0.00     0.118 C 
BRANCH  26  27
ATOM     27  N   UNL A   1      32.655  34.189  27.691  1.00  0.00    -0.352 N 
ATOM     28  C   UNL A   1      33.202  34.870  28.752  1.00  0.00     0.251 C 
ATOM     29  H   UNL A   1      32.032  34.712  27.136  1.00  0.00     0.163 HD
ATOM     30  O   UNL A   1      32.703  35.947  29.085  1.00  0.00    -0.269 OA
BRANCH  28  31
ATOM     31  C   UNL A   1      34.349  34.314  29.510  1.00  0.00     0.039 A 
ATOM     32  C   UNL A   1      34.102  33.521  30.634  1.00  0.00     0.014 A 
ATOM     33  C   UNL A   1      35.669  34.583  29.138  1.00  0.00     0.014 A 
ATOM     34  C   UNL A   1      35.170  32.953  31.337  1.00  0.00     0.010 A 
ATOM     35  C   UNL A   1      36.721  33.921  29.761  1.00  0.00     0.010 A 
ATOM     36  C   UNL A   1      36.489  33.115  30.883  1.00  0.00    -0.014 A 
BRANCH  36  37
ATOM     37  C   UNL A   1      37.640  32.485  31.586  1.00  0.00     0.031 A 
ATOM     38  C   UNL A   1      38.386  31.348  30.935  1.00  0.00     0.074 A 
ATOM     39  C   UNL A   1      37.969  32.890  32.827  1.00  0.00     0.049 A 
ATOM     40  N   UNL A   1      39.360  30.615  31.411  1.00  0.00    -0.248 NA
ATOM     41  C   UNL A   1      37.950  30.960  29.586  1.00  0.00     0.031 C 
ATOM     42  C   UNL A   1      37.290  33.946  33.581  1.00  0.00     0.029 A 
ATOM     43  N   UNL A   1      38.956  32.461  33.681  1.00  0.00    -0.354 N 
ATOM     44  C   UNL A   1      39.635  29.668  30.430  1.00  0.00     0.074 A 
ATOM     45  C   UNL A   1      38.673  29.873  29.370  1.00  0.00     0.031 C 
ATOM     46  C   UNL A   1      37.898  34.105  34.766  1.00  0.00     0.029 A 
ATOM     47  C   UNL A   1      38.976  33.128  34.885  1.00  0.00     0.049 A 
ATOM     48  H   UNL A   1      39.588  31.741  33.454  1.00  0.00     0.167 HD
ATOM     49  C   UNL A   1      40.617  28.731  30.403  1.00  0.00     0.034 A 
ATOM     50  C   UNL A   1      39.764  32.964  35.966  1.00  0.00     0.034 A 
ATOM     51  C   UNL A   1      41.576  28.556  31.467  1.00  0.00     0.049 A 
ATOM     52  C   UNL A   1      40.838  31.908  35.924  1.00  0.00     0.074 A 
ATOM     53  C   UNL A   1      42.653  27.688  31.522  1.00  0.00     0.029 A 
ATOM     54  N   UNL A   1      41.567  29.254  32.669  1.00  0.00    -0.354 N 
ATOM     55  N   UNL A   1      41.126  31.058  34.964  1.00  0.00    -0.248 NA
ATOM     56  C   UNL A   1      41.702  31.795  37.106  1.00  0.00     0.031 C 
ATOM     57  C   UNL A   1      43.242  27.803  32.785  1.00  0.00     0.029 A 
ATOM     58  C   UNL A   1      42.595  28.808  33.487  1.00  0.00     0.049 A 
ATOM     59  H   UNL A   1      40.925  29.961  32.905  1.00  0.00     0.167 HD
ATOM     60  C   UNL A   1      42.223  30.331  35.416  1.00  0.00     0.074 A 
ATOM     61  C   UNL A   1      42.553  30.853  36.727  1.00  0.00     0.031 C 
ATOM     62  C   UNL A   1      42.902  29.328  34.800  1.00  0.00     0.034 A 
BRANCH  49  63
ATOM     63  C   UNL A   1      40.674  27.815  29.200  1.00  0.00     0.023 A 
ATOM     64  C   UNL A   1      41.617  27.997  28.171  1.00  0.00     0.031 A 
ATOM     65  C   UNL A   1      39.742  26.772  29.054  1.00  0.00     0.131 A 
ATOM     66  C   UNL A   1      41.544  27.219  27.006  1.00  0.00     0.055 A 
ATOM     67  C   UNL A   1      39.738  25.937  27.934  1.00  0.00     0.041 A 
ATOM     68  F   UNL A   1      38.802  26.557  29.988  1.00  0.00    -0.206 F 
ATOM     69  C   UNL A   1      40.631  26.170  26.893  1.00  0.00     0.022 A 
BRANCH  66  70
ATOM     70  S   UNL A   1      42.543  27.714  25.574  1.00  0.00     0.124 S 
ATOM     71  O   UNL A   1      43.838  27.982  26.197  1.00  0.00    -0.237 OA
ATOM     72  O   UNL A   1      42.477  26.534  24.721  1.00  0.00    -0.237 OA
ATOM     73  O   UNL A   1      41.849  28.895  25.064  1.00  0.00    -0.744 OA
ENDBRANCH  66  70
ENDBRANCH  49  63
BRANCH  50  74
ATOM     74  C   UNL A   1      39.562  33.811  37.177  1.00  0.00     0.023 A 
ATOM     75  C   UNL A   1      38.867  33.325  38.297  1.00  0.00     0.031 A 
ATOM     76  C   UNL A   1      40.050  35.129  37.227  1.00  0.00     0.131 A 
ATOM     77  C   UNL A   1      38.646  34.164  39.402  1.00  0.00     0.055 A 
ATOM     78  C   UNL A   1      39.876  35.940  38.350  1.00  0.00     0.041 A 
ATOM     79  F   UNL A   1      40.726  35.642  36.186  1.00  0.00    -0.206 F 
ATOM     80  C   UNL A   1      39.161  35.462  39.442  1.00  0.00     0.022 A 
BRANCH  77  81
ATOM     81  S   UNL A   1      37.611  33.557  40.761  1.00  0.00     0.124 S 
ATOM     82  O   UNL A   1      36.531  32.893  40.039  1.00  0.00    -0.237 OA
ATOM     83  O   UNL A   1      38.534  32.685  41.480  1.00  0.00    -0.237 OA
ATOM     84  O   UNL A   1      37.230  34.777  41.469  1.00  0.00    -0.744 OA
ENDBRANCH  77  81
ENDBRANCH  50  74
BRANCH  62  85
ATOM     85  C   UNL A   1      44.100  28.762  35.524  1.00  0.00     0.023 A 
ATOM     86  C   UNL A   1      43.978  27.721  36.461  1.00  0.00     0.031 A 
ATOM     87  C   UNL A   1      45.384  29.277  35.273  1.00  0.00     0.131 A 
ATOM     88  C   UNL A   1      45.111  27.268  37.154  1.00  0.00     0.055 A 
ATOM     89  C   UNL A   1      46.518  28.775  35.914  1.00  0.00     0.041 A 
ATOM     90  F   UNL A   1      45.560  30.275  34.392  1.00  0.00    -0.206 F 
ATOM     91  C   UNL A   1      46.383  27.775  36.871  1.00  0.00     0.022 A 
BRANCH  88  92
ATOM     92  S   UNL A   1      44.889  26.081  38.506  1.00  0.00     0.124 S 
ATOM     93  O   UNL A   1      44.492  24.874  37.788  1.00  0.00    -0.237 OA
ATOM     94  O   UNL A   1      46.214  26.052  39.119  1.00  0.00    -0.237 OA
ATOM     95  O   UNL A   1      43.841  26.686  39.326  1.00  0.00    -0.744 OA
ENDBRANCH  88  92
ENDBRANCH  62  85
ENDBRANCH  36  37
ENDBRANCH  28  31
ENDBRANCH  26  27
ENDBRANCH   1  26
TORSDOF 16
ENDMDL
MODEL 2
REMARK VINA RESULT:     -12.6      3.272      8.617
REMARK SMILES COc1cccc(C(=O)Nc2cccc(C(=O)NCCCNC(=O)c3ccc(-c4c5nc(c(-c6cc(S(=O)(=O)[O-])ccc6F)c6ccc([nH]6)c(-c6cc(S(=O)(=O)[O-])ccc6F)c6nc(c(-c7cc(S(=O)(=O)[O-])ccc7F)c7ccc4[nH]7)C=C6)C=C5)cc3)c2C)c1
REMARK SMILES IDX 20 1 19 2 18 3 16 4 17 5 15 7 11 8 12 9 88 10 13 11 89 12
REMARK SMILES IDX 14 13 10 14 8 15 9 16 7 18 3 19 4 20 90 21 5 22 6 23 2 24
REMARK SMILES IDX 1 25 21 26 22 27 23 28 24 30 25 31 26 32 87 33 27 34 86 35
REMARK SMILES IDX 28 36 29 37 30 38 80 39 31 40 85 41 79 42 81 43 32 44 84 45
REMARK SMILES IDX 78 46 77 47 33 49 65 50 45 51 64 52 46 53 49 54 63 55 82 56
REMARK SMILES IDX 47 57 48 58 62 60 83 61 50 62 34 63 35 64 43 65 36 66 42 67
REMARK SMILES IDX 44 68 41 69 37 70 38 71 39 72 40 73 66 74 67 75 75 76 68 77
REMARK SMILES IDX 74 78 76 79 73 80 69 81 70 82 71 83 72 84 51 85 52 86 60 87
REMARK SMILES IDX 53 88 59 89 61 90 58 91 54 92 55 93 56 94 57 95
REMARK H PARENT 18 6 10 17 22 29 81 48 49 59
REMARK Flexibility Score: inf
ROOT
ATOM      1  C   UNL A   1      33.884  28.552  25.121  1.00  0.00     0.042 C 
ENDROOT
BRANCH   1   2
ATOM      2  C   UNL A   1      32.882  28.778  23.992  1.00  0.00     0.118 C 
BRANCH   2   3
ATOM      3  N   UNL A   1      33.261  28.013  22.822  1.00  0.00    -0.352 N 
ATOM      4  C   UNL A   1      33.223  26.679  22.513  1.00  0.00     0.251 C 
ATOM      5  O   UNL A   1      33.678  26.371  21.407  1.00  0.00    -0.269 OA
ATOM      6  H   UNL A   1      33.622  28.570  22.094  1.00  0.00     0.163 HD
BRANCH   4   7
ATOM      7  C   UNL A   1      32.561  25.608  23.333  1.00  0.00     0.044 A 
ATOM      8  C   UNL A   1      32.131  24.132  25.219  1.00  0.00     0.045 A 
ATOM      9  C   UNL A   1      30.968  23.655  24.612  1.00  0.00     0.026 A 
ATOM     10  C   UNL A   1      33.019  24.973  24.507  1.00  0.00    -0.015 A 
ATOM     11  C   UNL A   1      30.578  24.162  23.383  1.00  0.00     0.003 A 
ATOM     12  C   UNL A   1      34.466  24.940  24.911  1.00  0.00     0.047 C 
ATOM     13  C   UNL A   1      31.337  25.167  22.784  1.00  0.00     0.014 A 
BRANCH   8  14
ATOM     14  N   UNL A   1      32.345  23.727  26.549  1.00  0.00    -0.322 N 
ATOM     15  C   UNL A   1      32.722  22.495  27.052  1.00  0.00     0.255 C 
ATOM     16  O   UNL A   1      32.673  22.310  28.268  1.00  0.00    -0.269 OA
ATOM     17  H   UNL A   1      32.204  24.428  27.226  1.00  0.00     0.170 HD
BRANCH  15  18
ATOM     18  C   UNL A   1      33.289  21.418  26.188  1.00  0.00     0.043 A 
ATOM     19  C   UNL A   1      33.080  19.405  24.840  1.00  0.00     0.119 A 
ATOM     20  C   UNL A   1      34.461  19.419  24.625  1.00  0.00     0.046 A 
ATOM     21  C   UNL A   1      32.491  20.436  25.579  1.00  0.00     0.060 A 
ATOM     22  C   UNL A   1      35.252  20.435  25.157  1.00  0.00     0.005 A 
ATOM     23  C   UNL A   1      34.670  21.431  25.941  1.00  0.00     0.014 A 
BRANCH  19  24
ATOM     24  O   UNL A   1      32.431  18.325  24.310  1.00  0.00    -0.497 OA
ATOM     25  C   UNL A   1      33.152  17.522  23.383  1.00  0.00     0.278 C 
ENDBRANCH  19  24
ENDBRANCH  15  18
ENDBRANCH   8  14
ENDBRANCH   4   7
ENDBRANCH   2   3
ENDBRANCH   1   2
BRANCH   1  26
ATOM     26  C   UNL A   1      33.358  28.905  26.498  1.00  0.00     0.118 C 
BRANCH  26  27
ATOM     27  N   UNL A   1      33.451  30.332  26.761  1.00  0.00    -0.352 N 
ATOM     28  C   UNL A   1      34.341  31.026  27.544  1.00  0.00     0.251 C 
ATOM     29  H   UNL A   1      32.774  30.885  26.308  1.00  0.00     0.163 HD
ATOM     30  O   UNL A   1      34.089  32.198  27.831  1.00  0.00    -0.269 OA
BRANCH  28  31
ATOM     31  C   UNL A   1      35.570  30.379  28.067  1.00  0.00     0.039 A 
ATOM     32  C   UNL A   1      36.737  30.416  27.300  1.00  0.00     0.014 A 
ATOM     33  C   UNL A   1      35.579  29.718  29.297  1.00  0.00     0.014 A 
ATOM     34  C   UNL A   1      37.916  29.849  27.794  1.00  0.00     0.010 A 
ATOM     35  C   UNL A   1      36.776  29.264  29.840  1.00  0.00     0.010 A 
ATOM     36  C   UNL A   1      37.957  29.303  29.087  1.00  0.00    -0.014 A 
BRANCH  36  37
ATOM     37  C   UNL A   1      39.209  28.732  29.655  1.00  0.00     0.031 A 
ATOM     38  C   UNL A   1      39.814  29.336  30.897  1.00  0.00     0.074 A 
ATOM     39  C   UNL A   1      39.832  27.720  29.021  1.00  0.00     0.049 A 
ATOM     40  N   UNL A   1      40.936  29.041  31.501  1.00  0.00    -0.248 NA
ATOM     41  C   UNL A   1      39.077  30.448  31.515  1.00  0.00     0.031 C 
ATOM     42  C   UNL A   1      39.371  27.085  27.785  1.00  0.00     0.029 A 
ATOM     43  N   UNL A   1      40.990  27.047  29.323  1.00  0.00    -0.354 N 
ATOM     44  C   UNL A   1      41.048  29.943  32.555  1.00  0.00     0.074 A 
ATOM     45  C   UNL A   1      39.920  30.843  32.455  1.00  0.00     0.031 C 
ATOM     46  C   UNL A   1      40.215  26.096  27.454  1.00  0.00     0.029 A 
ATOM     47  C   UNL A   1      41.309  26.059  28.420  1.00  0.00     0.049 A 
ATOM     48  H   UNL A   1      41.542  27.254  30.112  1.00  0.00     0.167 HD
ATOM     49  C   UNL A   1      41.989  30.000  33.530  1.00  0.00     0.034 A 
ATOM     50  C   UNL A   1      42.368  25.227  28.367  1.00  0.00     0.034 A 
ATOM     51  C   UNL A   1      43.098  29.081  33.618  1.00  0.00     0.049 A 
ATOM     52  C   UNL A   1      43.412  25.315  29.450  1.00  0.00     0.074 A 
ATOM     53  C   UNL A   1      44.074  28.998  34.595  1.00  0.00     0.029 A 
ATOM     54  N   UNL A   1      43.386  28.090  32.685  1.00  0.00    -0.354 N 
ATOM     55  N   UNL A   1      43.474  26.135  30.475  1.00  0.00    -0.248 NA
ATOM     56  C   UNL A   1      44.524  24.359  29.377  1.00  0.00     0.031 C 
ATOM     57  C   UNL A   1      44.994  28.017  34.213  1.00  0.00     0.029 A 
ATOM     58  C   UNL A   1      44.545  27.420  33.045  1.00  0.00     0.049 A 
ATOM     59  H   UNL A   1      42.845  27.893  31.887  1.00  0.00     0.167 HD
ATOM     60  C   UNL A   1      44.614  25.772  31.185  1.00  0.00     0.074 A 
ATOM     61  C   UNL A   1      45.201  24.651  30.478  1.00  0.00     0.031 C 
ATOM     62  C   UNL A   1      45.127  26.311  32.321  1.00  0.00     0.034 A 
BRANCH  49  63
ATOM     63  C   UNL A   1      41.868  31.109  34.552  1.00  0.00     0.023 A 
ATOM     64  C   UNL A   1      40.834  31.130  35.507  1.00  0.00     0.031 A 
ATOM     65  C   UNL A   1      42.770  32.187  34.546  1.00  0.00     0.131 A 
ATOM     66  C   UNL A   1      40.670  32.245  36.341  1.00  0.00     0.055 A 
ATOM     67  C   UNL A   1      42.660  33.249  35.445  1.00  0.00     0.041 A 
ATOM     68  F   UNL A   1      43.767  32.240  33.647  1.00  0.00    -0.206 F 
ATOM     69  C   UNL A   1      41.593  33.292  36.338  1.00  0.00     0.022 A 
BRANCH  66  70
ATOM     70  S   UNL A   1      39.137  32.388  37.302  1.00  0.00     0.124 S 
ATOM     71  O   UNL A   1      38.476  33.509  36.636  1.00  0.00    -0.237 OA
ATOM     72  O   UNL A   1      38.523  31.080  37.114  1.00  0.00    -0.237 OA
ATOM     73  O   UNL A   1      39.607  32.670  38.658  1.00  0.00    -0.744 OA
ENDBRANCH  66  70
ENDBRANCH  49  63
BRANCH  50  74
ATOM     74  C   UNL A   1      42.498  24.247  27.249  1.00  0.00     0.023 A 
ATOM     75  C   UNL A   1      41.878  22.989  27.309  1.00  0.00     0.031 A 
ATOM     76  C   UNL A   1      43.261  24.552  26.106  1.00  0.00     0.131 A 
ATOM     77  C   UNL A   1      42.063  22.067  26.265  1.00  0.00     0.055 A 
ATOM     78  C   UNL A   1      43.396  23.653  25.047  1.00  0.00     0.041 A 
ATOM     79  F   UNL A   1      43.871  25.742  25.996  1.00  0.00    -0.206 F 
ATOM     80  C   UNL A   1      42.803  22.398  25.127  1.00  0.00     0.022 A 
BRANCH  77  81
ATOM     81  S   UNL A   1      41.379  20.398  26.447  1.00  0.00     0.124 S 
ATOM     82  O   UNL A   1      42.110  19.664  25.419  1.00  0.00    -0.237 OA
ATOM     83  O   UNL A   1      41.721  20.078  27.829  1.00  0.00    -0.237 OA
ATOM     84  O   UNL A   1      39.953  20.584  26.187  1.00  0.00    -0.744 OA
ENDBRANCH  77  81
ENDBRANCH  50  74
BRANCH  62  85
ATOM     85  C   UNL A   1      46.364  25.662  32.895  1.00  0.00     0.023 A 
ATOM     86  C   UNL A   1      46.288  24.596  33.808  1.00  0.00     0.031 A 
ATOM     87  C   UNL A   1      47.639  26.123  32.522  1.00  0.00     0.131 A 
ATOM     88  C   UNL A   1      47.463  24.064  34.360  1.00  0.00     0.055 A 
ATOM     89  C   UNL A   1      48.806  25.544  33.021  1.00  0.00     0.041 A 
ATOM     90  F   UNL A   1      47.772  27.142  31.657  1.00  0.00    -0.206 F 
ATOM     91  C   UNL A   1      48.722  24.518  33.957  1.00  0.00     0.022 A 
BRANCH  88  92
ATOM     92  S   UNL A   1      47.324  22.841  35.692  1.00  0.00     0.124 S 
ATOM     93  O   UNL A   1      47.435  21.583  34.961  1.00  0.00    -0.237 OA
ATOM     94  O   UNL A   1      48.455  23.183  36.550  1.00  0.00    -0.237 OA
ATOM     95  O   UNL A   1      46.007  23.109  36.268  1.00  0.00    -0.744 OA
ENDBRANCH  88  92
ENDBRANCH  62  85
ENDBRANCH  36  37
ENDBRANCH  28  31
ENDBRANCH  26  27
ENDBRANCH   1  26
TORSDOF 16
ENDMDL
MODEL 3
REMARK VINA RESULT:     -12.6      2.676      7.989
REMARK SMILES COc1cccc(C(=O)Nc2cccc(C(=O)NCCCNC(=O)c3ccc(-c4c5nc(c(-c6cc(S(=O)(=O)[O-])ccc6F)c6ccc([nH]6)c(-c6cc(S(=O)(=O)[O-])ccc6F)c6nc(c(-c7cc(S(=O)(=O)[O-])ccc7F)c7ccc4[nH]7)C=C6)C=C5)cc3)c2C)c1
REMARK SMILES IDX 20 1 19 2 18 3 16 4 17 5 15 7 11 8 12 9 88 10 13 11 89 12
REMARK SMILES IDX 14 13 10 14 8 15 9 16 7 18 3 19 4 20 90 21 5 22 6 23 2 24
REMARK SMILES IDX 1 25 21 26 22 27 23 28 24 30 25 31 26 32 87 33 27 34 86 35
REMARK SMILES IDX 28 36 29 37 30 38 80 39 31 40 85 41 79 42 81 43 32 44 84 45
REMARK SMILES IDX 78 46 77 47 33 49 65 50 45 51 64 52 46 53 49 54 63 55 82 56
REMARK SMILES IDX 47 57 48 58 62 60 83 61 50 62 34 63 35 64 43 65 36 66 42 67
REMARK SMILES IDX 44 68 41 69 37 70 38 71 39 72 40 73 66 74 67 75 75 76 68 77
REMARK SMILES IDX 74 78 76 79 73 80 69 81 70 82 71 83 72 84 51 85 52 86 60 87
REMARK SMILES IDX 53 88 59 89 61 90 58 91 54 92 55 93 56 94 57 95
REMARK H PARENT 18 6 10 17 22 29 81 48 49 59
REMARK Flexibility Score: inf
ROOT
ATOM      1  C   UNL A   1      33.267  29.005  24.689  1.00  0.00     0.042 C 
ENDROOT
BRANCH   1   2
ATOM      2  C   UNL A   1      32.323  28.923  23.493  1.00  0.00     0.118 C 
BRANCH   2   3
ATOM      3  N   UNL A   1      32.898  28.095  22.453  1.00  0.00    -0.352 N 
ATOM      4  C   UNL A   1      33.059  26.742  22.305  1.00  0.00     0.251 C 
ATOM      5  O   UNL A   1      33.646  26.381  21.280  1.00  0.00    -0.269 OA
ATOM      6  H   UNL A   1      33.247  28.613  21.692  1.00  0.00     0.163 HD
BRANCH   4   7
ATOM      7  C   UNL A   1      32.472  25.687  23.198  1.00  0.00     0.044 A 
ATOM      8  C   UNL A   1      32.188  24.265  25.151  1.00  0.00     0.045 A 
ATOM      9  C   UNL A   1      31.001  23.747  24.632  1.00  0.00     0.026 A 
ATOM     10  C   UNL A   1      33.013  25.099  24.360  1.00  0.00    -0.015 A 
ATOM     11  C   UNL A   1      30.526  24.205  23.414  1.00  0.00     0.003 A 
ATOM     12  C   UNL A   1      34.482  25.106  24.675  1.00  0.00     0.047 C 
ATOM     13  C   UNL A   1      31.226  25.205  22.739  1.00  0.00     0.014 A 
BRANCH   8  14
ATOM     14  N   UNL A   1      32.491  23.907  26.477  1.00  0.00    -0.322 N 
ATOM     15  C   UNL A   1      32.857  22.682  27.006  1.00  0.00     0.255 C 
ATOM     16  O   UNL A   1      32.898  22.551  28.229  1.00  0.00    -0.269 OA
ATOM     17  H   UNL A   1      32.435  24.642  27.130  1.00  0.00     0.170 HD
BRANCH  15  18
ATOM     18  C   UNL A   1      33.307  21.544  26.150  1.00  0.00     0.043 A 
ATOM     19  C   UNL A   1      32.913  19.474  24.938  1.00  0.00     0.119 A 
ATOM     20  C   UNL A   1      34.266  19.433  24.591  1.00  0.00     0.046 A 
ATOM     21  C   UNL A   1      32.427  20.559  25.674  1.00  0.00     0.060 A 
ATOM     22  C   UNL A   1      35.133  20.448  24.990  1.00  0.00     0.005 A 
ATOM     23  C   UNL A   1      34.657  21.501  25.771  1.00  0.00     0.014 A 
BRANCH  19  24
ATOM     24  O   UNL A   1      32.185  18.391  24.531  1.00  0.00    -0.497 OA
ATOM     25  C   UNL A   1      32.881  17.367  23.829  1.00  0.00     0.278 C 
ENDBRANCH  19  24
ENDBRANCH  15  18
ENDBRANCH   8  14
ENDBRANCH   4   7
ENDBRANCH   2   3
ENDBRANCH   1   2
BRANCH   1  26
ATOM     26  C   UNL A   1      32.578  29.316  26.004  1.00  0.00     0.118 C 
BRANCH  26  27
ATOM     27  N   UNL A   1      32.438  30.749  26.212  1.00  0.00    -0.352 N 
ATOM     28  C   UNL A   1      33.136  31.589  27.046  1.00  0.00     0.251 C 
ATOM     29  H   UNL A   1      31.737  31.182  25.674  1.00  0.00     0.163 HD
ATOM     30  O   UNL A   1      32.691  32.719  27.256  1.00  0.00    -0.269 OA
BRANCH  28  31
ATOM     31  C   UNL A   1      34.386  31.145  27.710  1.00  0.00     0.039 A 
ATOM     32  C   UNL A   1      35.396  32.080  27.954  1.00  0.00     0.014 A 
ATOM     33  C   UNL A   1      34.584  29.812  28.078  1.00  0.00     0.014 A 
ATOM     34  C   UNL A   1      36.565  31.691  28.616  1.00  0.00     0.010 A 
ATOM     35  C   UNL A   1      35.688  29.453  28.843  1.00  0.00     0.010 A 
ATOM     36  C   UNL A   1      36.704  30.381  29.104  1.00  0.00    -0.014 A 
BRANCH  36  37
ATOM     37  C   UNL A   1      37.918  29.951  29.851  1.00  0.00     0.031 A 
ATOM     38  C   UNL A   1      38.176  30.488  31.235  1.00  0.00     0.074 A 
ATOM     39  C   UNL A   1      38.813  29.134  29.263  1.00  0.00     0.049 A 
ATOM     40  N   UNL A   1      39.209  30.303  32.018  1.00  0.00    -0.248 NA
ATOM     41  C   UNL A   1      37.156  31.387  31.795  1.00  0.00     0.031 C 
ATOM     42  C   UNL A   1      38.697  28.588  27.908  1.00  0.00     0.029 A 
ATOM     43  N   UNL A   1      40.000  28.621  29.723  1.00  0.00    -0.354 N 
ATOM     44  C   UNL A   1      38.971  31.078  33.149  1.00  0.00     0.074 A 
ATOM     45  C   UNL A   1      37.736  31.793  32.913  1.00  0.00     0.031 C 
ATOM     46  C   UNL A   1      39.749  27.793  27.662  1.00  0.00     0.029 A 
ATOM     47  C   UNL A   1      40.644  27.813  28.815  1.00  0.00     0.049 A 
ATOM     48  H   UNL A   1      40.358  28.815  30.620  1.00  0.00     0.167 HD
ATOM     49  C   UNL A   1      39.700  31.164  34.290  1.00  0.00     0.034 A 
ATOM     50  C   UNL A   1      41.827  27.170  28.894  1.00  0.00     0.034 A 
ATOM     51  C   UNL A   1      40.921  30.428  34.509  1.00  0.00     0.049 A 
ATOM     52  C   UNL A   1      42.630  27.291  30.163  1.00  0.00     0.074 A 
ATOM     53  C   UNL A   1      41.708  30.383  35.647  1.00  0.00     0.029 A 
ATOM     54  N   UNL A   1      41.541  29.615  33.566  1.00  0.00    -0.354 N 
ATOM     55  N   UNL A   1      42.363  27.981  31.249  1.00  0.00    -0.248 NA
ATOM     56  C   UNL A   1      43.889  26.538  30.223  1.00  0.00     0.031 C 
ATOM     57  C   UNL A   1      42.841  29.612  35.364  1.00  0.00     0.029 A 
ATOM     58  C   UNL A   1      42.719  29.098  34.083  1.00  0.00     0.049 A 
ATOM     59  H   UNL A   1      41.193  29.433  32.663  1.00  0.00     0.167 HD
ATOM     60  C   UNL A   1      43.407  27.719  32.132  1.00  0.00     0.074 A 
ATOM     61  C   UNL A   1      44.299  26.798  31.456  1.00  0.00     0.031 C 
ATOM     62  C   UNL A   1      43.607  28.191  33.390  1.00  0.00     0.034 A 
BRANCH  49  63
ATOM     63  C   UNL A   1      39.205  32.108  35.364  1.00  0.00     0.023 A 
ATOM     64  C   UNL A   1      39.596  33.460  35.403  1.00  0.00     0.031 A 
ATOM     65  C   UNL A   1      38.368  31.642  36.393  1.00  0.00     0.131 A 
ATOM     66  C   UNL A   1      39.234  34.265  36.493  1.00  0.00     0.055 A 
ATOM     67  C   UNL A   1      37.930  32.476  37.425  1.00  0.00     0.041 A 
ATOM     68  F   UNL A   1      37.976  30.358  36.428  1.00  0.00    -0.206 F 
ATOM     69  C   UNL A   1      38.379  33.791  37.489  1.00  0.00     0.022 A 
BRANCH  66  70
ATOM     70  S   UNL A   1      40.040  35.880  36.679  1.00  0.00     0.124 S 
ATOM     71  O   UNL A   1      41.445  35.495  36.806  1.00  0.00    -0.237 OA
ATOM     72  O   UNL A   1      39.673  36.561  35.444  1.00  0.00    -0.237 OA
ATOM     73  O   UNL A   1      39.440  36.424  37.896  1.00  0.00    -0.744 OA
ENDBRANCH  66  70
ENDBRANCH  49  63
BRANCH  50  74
ATOM     74  C   UNL A   1      42.324  26.366  27.740  1.00  0.00     0.023 A 
ATOM     75  C   UNL A   1      41.946  25.025  27.571  1.00  0.00     0.031 A 
ATOM     76  C   UNL A   1      43.201  26.927  26.793  1.00  0.00     0.131 A 
ATOM     77  C   UNL A   1      42.472  24.278  26.505  1.00  0.00     0.055 A 
ATOM     78  C   UNL A   1      43.678  26.195  25.704  1.00  0.00     0.041 A 
ATOM     79  F   UNL A   1      43.592  28.206  26.904  1.00  0.00    -0.206 F 
ATOM     80  C   UNL A   1      43.322  24.859  25.562  1.00  0.00     0.022 A 
BRANCH  77  81
ATOM     81  S   UNL A   1      42.087  22.508  26.409  1.00  0.00     0.124 S 
ATOM     82  O   UNL A   1      42.626  22.017  27.673  1.00  0.00    -0.237 OA
ATOM     83  O   UNL A   1      40.633  22.519  26.292  1.00  0.00    -0.237 OA
ATOM     84  O   UNL A   1      42.803  22.069  25.213  1.00  0.00    -0.744 OA
ENDBRANCH  77  81
ENDBRANCH  50  74
BRANCH  62  85
ATOM     85  C   UNL A   1      44.818  27.680  34.133  1.00  0.00     0.023 A 
ATOM     86  C   UNL A   1      44.779  26.503  34.900  1.00  0.00     0.031 A 
ATOM     87  C   UNL A   1      46.032  28.389  34.073  1.00  0.00     0.131 A 
ATOM     88  C   UNL A   1      45.913  26.101  35.621  1.00  0.00     0.055 A 
ATOM     89  C   UNL A   1      47.177  27.946  34.737  1.00  0.00     0.041 A 
ATOM     90  F   UNL A   1      46.127  29.523  33.360  1.00  0.00    -0.206 F 
ATOM     91  C   UNL A   1      47.117  26.803  35.528  1.00  0.00     0.022 A 
BRANCH  88  92
ATOM     92  S   UNL A   1      45.765  24.704  36.768  1.00  0.00     0.124 S 
ATOM     93  O   UNL A   1      47.160  24.437  37.103  1.00  0.00    -0.237 OA
ATOM     94  O   UNL A   1      44.948  25.264  37.840  1.00  0.00    -0.237 OA
ATOM     95  O   UNL A   1      45.111  23.670  35.967  1.00  0.00    -0.744 OA
ENDBRANCH  88  92
ENDBRANCH  62  85
ENDBRANCH  36  37
ENDBRANCH  28  31
ENDBRANCH  26  27
ENDBRANCH   1  26
TORSDOF 16
ENDMDL
