MODEL 1
REMARK VINA RESULT:     -11.2      0.000      0.000
REMARK SMILES CCCC[C@@H](C(=O)NCCCNC(=O)c1ccc(-c2c3nc(c(-c4cc(S(=O)(=O)[O-])ccc4F)c4ccc([nH]4)c(-c4cc(S(=O)(=O)[O-])ccc4F)c4nc(c(-c5cc(S(=O)(=O)[O-])ccc5F)c5ccc2[nH]5)C=C4)C=C3)cc1)[C@@H](O)c1cccc(C(F)(F)F)c1
REMARK SMILES IDX 10 1 9 2 8 3 6 4 7 5 5 7 4 8 3 9 2 10 1 11 78 12 79 13 80 15
REMARK SMILES IDX 81 16 89 17 82 18 84 19 83 20 85 21 86 22 87 23 88 24 11 25
REMARK SMILES IDX 12 26 13 27 14 29 15 30 16 31 77 32 17 33 76 34 18 35 19 36
REMARK SMILES IDX 20 37 70 38 21 39 75 40 69 41 71 42 22 43 74 44 68 45 67 46
REMARK SMILES IDX 23 48 55 49 35 50 54 51 36 52 39 53 53 54 72 55 37 56 38 57
REMARK SMILES IDX 52 59 73 60 40 61 24 62 25 63 33 64 26 65 32 66 34 67 31 68
REMARK SMILES IDX 27 69 28 70 29 71 30 72 56 73 57 74 65 75 58 76 64 77 66 78
REMARK SMILES IDX 63 79 59 80 60 81 61 82 62 83 41 84 42 85 50 86 43 87 49 88
REMARK SMILES IDX 51 89 48 90 44 91 45 92 46 93 47 94
REMARK H PARENT 8 6 79 14 12 28 71 47 39 58
REMARK Flexibility Score: inf
ROOT
ATOM      1  C   UNL A   1      31.424  32.217  26.818  1.00  0.00     0.042 C 
ENDROOT
BRANCH   1   2
ATOM      2  C   UNL A   1      31.630  30.877  26.121  1.00  0.00     0.117 C 
BRANCH   2   3
ATOM      3  N   UNL A   1      31.810  29.827  27.108  1.00  0.00    -0.356 N 
ATOM      4  C   UNL A   1      31.709  28.475  26.994  1.00  0.00     0.226 C 
ATOM      5  O   UNL A   1      31.637  27.839  28.047  1.00  0.00    -0.275 OA
ATOM      6  H   UNL A   1      32.041  30.148  28.009  1.00  0.00     0.163 HD
BRANCH   4   7
ATOM      7  C   UNL A   1      31.745  27.772  25.631  1.00  0.00     0.111 C 
BRANCH   7   8
ATOM      8  C   UNL A   1      31.039  26.385  25.718  1.00  0.00     0.016 C 
BRANCH   8   9
ATOM      9  C   UNL A   1      30.113  25.968  24.573  1.00  0.00     0.001 C 
BRANCH   9  10
ATOM     10  C   UNL A   1      29.531  27.103  23.727  1.00  0.00    -0.003 C 
ATOM     11  C   UNL A   1      30.397  27.456  22.530  1.00  0.00     0.004 C 
ENDBRANCH   9  10
ENDBRANCH   8   9
ENDBRANCH   7   8
BRANCH   7  12
ATOM     12  C   UNL A   1      33.259  27.597  25.247  1.00  0.00     0.157 C 
BRANCH  12  13
ATOM     13  O   UNL A   1      34.082  27.930  26.378  1.00  0.00    -0.388 OA
ATOM     14  H   UNL A   1      33.793  27.419  27.151  1.00  0.00     0.211 HD
ENDBRANCH  12  13
BRANCH  12  15
ATOM     15  C   UNL A   1      33.694  26.210  24.762  1.00  0.00    -0.018 A 
ATOM     16  C   UNL A   1      33.589  25.814  23.420  1.00  0.00     0.006 A 
ATOM     17  C   UNL A   1      34.332  25.316  25.647  1.00  0.00     0.019 A 
ATOM     18  C   UNL A   1      34.061  24.570  22.991  1.00  0.00     0.001 A 
ATOM     19  C   UNL A   1      34.821  24.066  25.230  1.00  0.00     0.056 A 
ATOM     20  C   UNL A   1      34.671  23.698  23.890  1.00  0.00     0.013 A 
BRANCH  19  21
ATOM     21  C   UNL A   1      35.507  23.139  26.201  1.00  0.00     0.416 C 
ATOM     22  F   UNL A   1      36.791  23.512  26.462  1.00  0.00    -0.166 F 
ATOM     23  F   UNL A   1      34.882  23.098  27.413  1.00  0.00    -0.166 F 
ATOM     24  F   UNL A   1      35.574  21.844  25.781  1.00  0.00    -0.166 F 
ENDBRANCH  19  21
ENDBRANCH  12  15
ENDBRANCH   7  12
ENDBRANCH   4   7
ENDBRANCH   2   3
ENDBRANCH   1   2
BRANCH   1  25
ATOM     25  C   UNL A   1      32.703  32.814  27.378  1.00  0.00     0.118 C 
BRANCH  25  26
ATOM     26  N   UNL A   1      32.541  34.210  27.739  1.00  0.00    -0.352 N 
ATOM     27  C   UNL A   1      33.156  34.930  28.738  1.00  0.00     0.251 C 
ATOM     28  H   UNL A   1      31.900  34.715  27.189  1.00  0.00     0.163 HD
ATOM     29  O   UNL A   1      32.718  36.038  29.028  1.00  0.00    -0.269 OA
BRANCH  27  30
ATOM     30  C   UNL A   1      34.311  34.362  29.478  1.00  0.00     0.039 A 
ATOM     31  C   UNL A   1      34.072  33.609  30.631  1.00  0.00     0.014 A 
ATOM     32  C   UNL A   1      35.626  34.579  29.056  1.00  0.00     0.014 A 
ATOM     33  C   UNL A   1      35.142  33.034  31.323  1.00  0.00     0.010 A 
ATOM     34  C   UNL A   1      36.679  33.919  29.683  1.00  0.00     0.010 A 
ATOM     35  C   UNL A   1      36.454  33.155  30.837  1.00  0.00    -0.014 A 
BRANCH  35  36
ATOM     36  C   UNL A   1      37.609  32.537  31.545  1.00  0.00     0.031 A 
ATOM     37  C   UNL A   1      38.334  31.373  30.916  1.00  0.00     0.074 A 
ATOM     38  C   UNL A   1      37.978  32.986  32.762  1.00  0.00     0.049 A 
ATOM     39  N   UNL A   1      39.300  30.636  31.403  1.00  0.00    -0.248 NA
ATOM     40  C   UNL A   1      37.890  30.967  29.574  1.00  0.00     0.031 C 
ATOM     41  C   UNL A   1      37.343  34.089  33.485  1.00  0.00     0.029 A 
ATOM     42  N   UNL A   1      38.978  32.571  33.608  1.00  0.00    -0.354 N 
ATOM     43  C   UNL A   1      39.573  29.680  30.429  1.00  0.00     0.074 A 
ATOM     44  C   UNL A   1      38.616  29.880  29.364  1.00  0.00     0.031 C 
ATOM     45  C   UNL A   1      37.989  34.286  34.645  1.00  0.00     0.029 A 
ATOM     46  C   UNL A   1      39.047  33.290  34.780  1.00  0.00     0.049 A 
ATOM     47  H   UNL A   1      39.586  31.827  33.396  1.00  0.00     0.167 HD
ATOM     48  C   UNL A   1      40.555  28.744  30.407  1.00  0.00     0.034 A 
ATOM     49  C   UNL A   1      39.863  33.153  35.844  1.00  0.00     0.034 A 
ATOM     50  C   UNL A   1      41.511  28.562  31.471  1.00  0.00     0.049 A 
ATOM     51  C   UNL A   1      40.907  32.061  35.823  1.00  0.00     0.074 A 
ATOM     52  C   UNL A   1      42.557  27.659  31.547  1.00  0.00     0.029 A 
ATOM     53  N   UNL A   1      41.539  29.300  32.648  1.00  0.00    -0.354 N 
ATOM     54  N   UNL A   1      41.167  31.182  34.882  1.00  0.00    -0.248 NA
ATOM     55  C   UNL A   1      41.774  31.949  37.004  1.00  0.00     0.031 C 
ATOM     56  C   UNL A   1      43.173  27.805  32.793  1.00  0.00     0.029 A 
ATOM     57  C   UNL A   1      42.568  28.855  33.463  1.00  0.00     0.049 A 
ATOM     58  H   UNL A   1      40.917  30.031  32.872  1.00  0.00     0.167 HD
ATOM     59  C   UNL A   1      42.258  30.448  35.341  1.00  0.00     0.074 A 
ATOM     60  C   UNL A   1      42.612  30.993  36.634  1.00  0.00     0.031 C 
ATOM     61  C   UNL A   1      42.912  29.416  34.748  1.00  0.00     0.034 A 
BRANCH  48  62
ATOM     62  C   UNL A   1      40.630  27.844  29.197  1.00  0.00     0.023 A 
ATOM     63  C   UNL A   1      41.568  28.069  28.173  1.00  0.00     0.031 A 
ATOM     64  C   UNL A   1      39.745  26.762  29.049  1.00  0.00     0.131 A 
ATOM     65  C   UNL A   1      41.548  27.277  27.016  1.00  0.00     0.055 A 
ATOM     66  C   UNL A   1      39.788  25.922  27.934  1.00  0.00     0.041 A 
ATOM     67  F   UNL A   1      38.812  26.509  29.980  1.00  0.00    -0.206 F 
ATOM     68  C   UNL A   1      40.684  26.186  26.901  1.00  0.00     0.022 A 
BRANCH  65  69
ATOM     69  S   UNL A   1      42.566  27.784  25.603  1.00  0.00     0.124 S 
ATOM     70  O   UNL A   1      43.841  28.082  26.253  1.00  0.00    -0.237 OA
ATOM     71  O   UNL A   1      42.543  26.599  24.754  1.00  0.00    -0.237 OA
ATOM     72  O   UNL A   1      41.860  28.948  25.072  1.00  0.00    -0.744 OA
ENDBRANCH  65  69
ENDBRANCH  48  62
BRANCH  49  73
ATOM     73  C   UNL A   1      39.738  34.055  37.029  1.00  0.00     0.023 A 
ATOM     74  C   UNL A   1      39.181  33.588  38.231  1.00  0.00     0.031 A 
ATOM     75  C   UNL A   1      40.095  35.412  36.956  1.00  0.00     0.131 A 
ATOM     76  C   UNL A   1      38.933  34.484  39.282  1.00  0.00     0.055 A 
ATOM     77  C   UNL A   1      39.910  36.285  38.030  1.00  0.00     0.041 A 
ATOM     78  F   UNL A   1      40.633  35.915  35.832  1.00  0.00    -0.206 F 
ATOM     79  C   UNL A   1      39.307  35.825  39.197  1.00  0.00     0.022 A 
BRANCH  76  80
ATOM     80  S   UNL A   1      37.991  33.892  40.716  1.00  0.00     0.124 S 
ATOM     81  O   UNL A   1      39.032  33.246  41.507  1.00  0.00    -0.237 OA
ATOM     82  O   UNL A   1      37.449  35.134  41.256  1.00  0.00    -0.237 OA
ATOM     83  O   UNL A   1      37.005  32.989  40.125  1.00  0.00    -0.744 OA
ENDBRANCH  76  80
ENDBRANCH  49  73
BRANCH  61  84
ATOM     84  C   UNL A   1      44.118  28.860  35.466  1.00  0.00     0.023 A 
ATOM     85  C   UNL A   1      44.022  27.781  36.358  1.00  0.00     0.031 A 
ATOM     86  C   UNL A   1      45.387  29.431  35.251  1.00  0.00     0.131 A 
ATOM     87  C   UNL A   1      45.161  27.340  37.048  1.00  0.00     0.055 A 
ATOM     88  C   UNL A   1      46.529  28.945  35.890  1.00  0.00     0.041 A 
ATOM     89  F   UNL A   1      45.539  30.466  34.410  1.00  0.00    -0.206 F 
ATOM     90  C   UNL A   1      46.417  27.903  36.805  1.00  0.00     0.022 A 
BRANCH  87  91
ATOM     91  S   UNL A   1      44.964  26.083  38.340  1.00  0.00     0.124 S 
ATOM     92  O   UNL A   1      46.344  25.675  38.578  1.00  0.00    -0.237 OA
ATOM     93  O   UNL A   1      44.327  26.836  39.416  1.00  0.00    -0.237 OA
ATOM     94  O   UNL A   1      44.118  25.071  37.708  1.00  0.00    -0.744 OA
ENDBRANCH  87  91
ENDBRANCH  61  84
ENDBRANCH  35  36
ENDBRANCH  27  30
ENDBRANCH  25  26
ENDBRANCH   1  25
TORSDOF 20
ENDMDL
MODEL 2
REMARK VINA RESULT:     -11.2      2.196      8.000
REMARK SMILES CCCC[C@@H](C(=O)NCCCNC(=O)c1ccc(-c2c3nc(c(-c4cc(S(=O)(=O)[O-])ccc4F)c4ccc([nH]4)c(-c4cc(S(=O)(=O)[O-])ccc4F)c4nc(c(-c5cc(S(=O)(=O)[O-])ccc5F)c5ccc2[nH]5)C=C4)C=C3)cc1)[C@@H](O)c1cccc(C(F)(F)F)c1
REMARK SMILES IDX 10 1 9 2 8 3 6 4 7 5 5 7 4 8 3 9 2 10 1 11 78 12 79 13 80 15
REMARK SMILES IDX 81 16 89 17 82 18 84 19 83 20 85 21 86 22 87 23 88 24 11 25
REMARK SMILES IDX 12 26 13 27 14 29 15 30 16 31 77 32 17 33 76 34 18 35 19 36
REMARK SMILES IDX 20 37 70 38 21 39 75 40 69 41 71 42 22 43 74 44 68 45 67 46
REMARK SMILES IDX 23 48 55 49 35 50 54 51 36 52 39 53 53 54 72 55 37 56 38 57
REMARK SMILES IDX 52 59 73 60 40 61 24 62 25 63 33 64 26 65 32 66 34 67 31 68
REMARK SMILES IDX 27 69 28 70 29 71 30 72 56 73 57 74 65 75 58 76 64 77 66 78
REMARK SMILES IDX 63 79 59 80 60 81 61 82 62 83 41 84 42 85 50 86 43 87 49 88
REMARK SMILES IDX 51 89 48 90 44 91 45 92 46 93 47 94
REMARK H PARENT 8 6 79 14 12 28 71 47 39 58
REMARK Flexibility Score: inf
ROOT
ATOM      1  C   UNL A   1      31.359  32.222  26.496  1.00  0.00     0.042 C 
ENDROOT
BRANCH   1   2
ATOM      2  C   UNL A   1      31.428  30.803  25.943  1.00  0.00     0.117 C 
BRANCH   2   3
ATOM      3  N   UNL A   1      30.508  30.659  24.829  1.00  0.00    -0.356 N 
ATOM      4  C   UNL A   1      30.507  29.785  23.787  1.00  0.00     0.226 C 
ATOM      5  O   UNL A   1      29.770  30.062  22.838  1.00  0.00    -0.275 OA
ATOM      6  H   UNL A   1      29.763  31.302  24.828  1.00  0.00     0.163 HD
BRANCH   4   7
ATOM      7  C   UNL A   1      31.330  28.491  23.813  1.00  0.00     0.111 C 
BRANCH   7   8
ATOM      8  C   UNL A   1      32.716  28.716  23.138  1.00  0.00     0.016 C 
BRANCH   8   9
ATOM      9  C   UNL A   1      33.971  28.257  23.884  1.00  0.00     0.001 C 
BRANCH   9  10
ATOM     10  C   UNL A   1      33.940  26.833  24.446  1.00  0.00    -0.003 C 
ATOM     11  C   UNL A   1      33.760  26.794  25.955  1.00  0.00     0.004 C 
ENDBRANCH   9  10
ENDBRANCH   8   9
ENDBRANCH   7   8
BRANCH   7  12
ATOM     12  C   UNL A   1      30.504  27.408  23.027  1.00  0.00     0.157 C 
BRANCH  12  13
ATOM     13  O   UNL A   1      30.716  27.575  21.614  1.00  0.00    -0.388 OA
ATOM     14  H   UNL A   1      30.189  28.325  21.295  1.00  0.00     0.211 HD
ENDBRANCH  12  13
BRANCH  12  15
ATOM     15  C   UNL A   1      30.793  25.941  23.360  1.00  0.00    -0.018 A 
ATOM     16  C   UNL A   1      31.441  25.078  22.464  1.00  0.00     0.006 A 
ATOM     17  C   UNL A   1      30.514  25.437  24.648  1.00  0.00     0.019 A 
ATOM     18  C   UNL A   1      31.759  23.764  22.822  1.00  0.00     0.001 A 
ATOM     19  C   UNL A   1      30.835  24.123  25.027  1.00  0.00     0.056 A 
ATOM     20  C   UNL A   1      31.455  23.286  24.094  1.00  0.00     0.013 A 
BRANCH  19  21
ATOM     21  C   UNL A   1      30.531  23.620  26.415  1.00  0.00     0.416 C 
ATOM     22  F   UNL A   1      29.381  24.148  26.922  1.00  0.00    -0.166 F 
ATOM     23  F   UNL A   1      30.362  22.267  26.454  1.00  0.00    -0.166 F 
ATOM     24  F   UNL A   1      31.501  23.894  27.332  1.00  0.00    -0.166 F 
ENDBRANCH  19  21
ENDBRANCH  12  15
ENDBRANCH   7  12
ENDBRANCH   4   7
ENDBRANCH   2   3
ENDBRANCH   1   2
BRANCH   1  25
ATOM     25  C   UNL A   1      32.689  32.740  27.012  1.00  0.00     0.118 C 
BRANCH  25  26
ATOM     26  N   UNL A   1      32.570  34.061  27.600  1.00  0.00    -0.352 N 
ATOM     27  C   UNL A   1      33.228  34.597  28.684  1.00  0.00     0.251 C 
ATOM     28  H   UNL A   1      31.926  34.661  27.159  1.00  0.00     0.163 HD
ATOM     29  O   UNL A   1      32.824  35.651  29.163  1.00  0.00    -0.269 OA
BRANCH  27  30
ATOM     30  C   UNL A   1      34.390  33.894  29.285  1.00  0.00     0.039 A 
ATOM     31  C   UNL A   1      34.157  32.869  30.206  1.00  0.00     0.014 A 
ATOM     32  C   UNL A   1      35.703  34.248  28.963  1.00  0.00     0.014 A 
ATOM     33  C   UNL A   1      35.235  32.170  30.758  1.00  0.00     0.010 A 
ATOM     34  C   UNL A   1      36.768  33.482  29.431  1.00  0.00     0.010 A 
ATOM     35  C   UNL A   1      36.550  32.446  30.350  1.00  0.00    -0.014 A 
BRANCH  35  36
ATOM     36  C   UNL A   1      37.713  31.703  30.908  1.00  0.00     0.031 A 
ATOM     37  C   UNL A   1      38.185  31.999  32.310  1.00  0.00     0.074 A 
ATOM     38  C   UNL A   1      38.370  30.802  30.150  1.00  0.00     0.049 A 
ATOM     39  N   UNL A   1      39.227  31.535  32.951  1.00  0.00    -0.248 NA
ATOM     40  C   UNL A   1      37.393  32.970  33.081  1.00  0.00     0.031 C 
ATOM     41  C   UNL A   1      38.025  30.444  28.773  1.00  0.00     0.029 A 
ATOM     42  N   UNL A   1      39.465  30.021  30.428  1.00  0.00    -0.354 N 
ATOM     43  C   UNL A   1      39.217  32.160  34.194  1.00  0.00     0.074 A 
ATOM     44  C   UNL A   1      38.116  33.097  34.183  1.00  0.00     0.031 C 
ATOM     45  C   UNL A   1      38.867  29.491  28.341  1.00  0.00     0.029 A 
ATOM     46  C   UNL A   1      39.848  29.209  29.385  1.00  0.00     0.049 A 
ATOM     47  H   UNL A   1      39.934  30.042  31.293  1.00  0.00     0.167 HD
ATOM     48  C   UNL A   1      40.028  31.949  35.260  1.00  0.00     0.034 A 
ATOM     49  C   UNL A   1      40.877  28.345  29.279  1.00  0.00     0.034 A 
ATOM     50  C   UNL A   1      41.117  31.004  35.261  1.00  0.00     0.049 A 
ATOM     51  C   UNL A   1      41.806  28.175  30.459  1.00  0.00     0.074 A 
ATOM     52  C   UNL A   1      41.991  30.695  36.289  1.00  0.00     0.029 A 
ATOM     53  N   UNL A   1      41.482  30.211  34.180  1.00  0.00    -0.354 N 
ATOM     54  N   UNL A   1      41.765  28.757  31.635  1.00  0.00    -0.248 NA
ATOM     55  C   UNL A   1      42.914  27.223  30.299  1.00  0.00     0.031 C 
ATOM     56  C   UNL A   1      42.922  29.768  35.811  1.00  0.00     0.029 A 
ATOM     57  C   UNL A   1      42.581  29.434  34.511  1.00  0.00     0.049 A 
ATOM     58  H   UNL A   1      41.027  30.203  33.306  1.00  0.00     0.167 HD
ATOM     59  C   UNL A   1      42.813  28.204  32.368  1.00  0.00     0.074 A 
ATOM     60  C   UNL A   1      43.458  27.236  31.505  1.00  0.00     0.031 C 
ATOM     61  C   UNL A   1      43.207  28.467  33.640  1.00  0.00     0.034 A 
BRANCH  48  62
ATOM     62  C   UNL A   1      39.769  32.766  36.504  1.00  0.00     0.023 A 
ATOM     63  C   UNL A   1      38.898  32.311  37.510  1.00  0.00     0.031 A 
ATOM     64  C   UNL A   1      40.378  34.020  36.681  1.00  0.00     0.131 A 
ATOM     65  C   UNL A   1      38.600  33.134  38.606  1.00  0.00     0.055 A 
ATOM     66  C   UNL A   1      40.145  34.798  37.818  1.00  0.00     0.041 A 
ATOM     67  F   UNL A   1      41.200  34.519  35.746  1.00  0.00    -0.206 F 
ATOM     68  C   UNL A   1      39.240  34.363  38.782  1.00  0.00     0.022 A 
BRANCH  65  69
ATOM     69  S   UNL A   1      37.256  32.640  39.718  1.00  0.00     0.124 S 
ATOM     70  O   UNL A   1      37.693  31.309  40.134  1.00  0.00    -0.237 OA
ATOM     71  O   UNL A   1      37.297  33.675  40.744  1.00  0.00    -0.237 OA
ATOM     72  O   UNL A   1      36.074  32.659  38.858  1.00  0.00    -0.744 OA
ENDBRANCH  65  69
ENDBRANCH  48  62
BRANCH  49  73
ATOM     73  C   UNL A   1      41.107  27.574  28.020  1.00  0.00     0.023 A 
ATOM     74  C   UNL A   1      40.821  26.200  27.957  1.00  0.00     0.031 A 
ATOM     75  C   UNL A   1      41.690  28.175  26.891  1.00  0.00     0.131 A 
ATOM     76  C   UNL A   1      41.182  25.461  26.820  1.00  0.00     0.055 A 
ATOM     77  C   UNL A   1      41.984  27.448  25.735  1.00  0.00     0.041 A 
ATOM     78  F   UNL A   1      41.986  29.485  26.893  1.00  0.00    -0.206 F 
ATOM     79  C   UNL A   1      41.747  26.077  25.703  1.00  0.00     0.022 A 
BRANCH  76  80
ATOM     80  S   UNL A   1      41.020  23.655  26.878  1.00  0.00     0.124 S 
ATOM     81  O   UNL A   1      39.604  23.475  26.576  1.00  0.00    -0.237 OA
ATOM     82  O   UNL A   1      41.957  23.233  25.842  1.00  0.00    -0.237 OA
ATOM     83  O   UNL A   1      41.414  23.323  28.245  1.00  0.00    -0.744 OA
ENDBRANCH  76  80
ENDBRANCH  49  73
BRANCH  61  84
ATOM     84  C   UNL A   1      44.348  27.647  34.193  1.00  0.00     0.023 A 
ATOM     85  C   UNL A   1      44.131  26.464  34.917  1.00  0.00     0.031 A 
ATOM     86  C   UNL A   1      45.676  28.066  33.992  1.00  0.00     0.131 A 
ATOM     87  C   UNL A   1      45.220  25.770  35.465  1.00  0.00     0.055 A 
ATOM     88  C   UNL A   1      46.759  27.336  34.482  1.00  0.00     0.041 A 
ATOM     89  F   UNL A   1      45.943  29.190  33.309  1.00  0.00    -0.206 F 
ATOM     90  C   UNL A   1      46.534  26.188  35.235  1.00  0.00     0.022 A 
BRANCH  87  91
ATOM     91  S   UNL A   1      44.894  24.363  36.562  1.00  0.00     0.124 S 
ATOM     92  O   UNL A   1      44.259  23.413  35.656  1.00  0.00    -0.237 OA
ATOM     93  O   UNL A   1      46.233  24.009  37.022  1.00  0.00    -0.237 OA
ATOM     94  O   UNL A   1      44.016  24.925  37.588  1.00  0.00    -0.744 OA
ENDBRANCH  87  91
ENDBRANCH  61  84
ENDBRANCH  35  36
ENDBRANCH  27  30
ENDBRANCH  25  26
ENDBRANCH   1  25
TORSDOF 20
ENDMDL
MODEL 3
REMARK VINA RESULT:     -11.0      2.601      3.611
REMARK SMILES CCCC[C@@H](C(=O)NCCCNC(=O)c1ccc(-c2c3nc(c(-c4cc(S(=O)(=O)[O-])ccc4F)c4ccc([nH]4)c(-c4cc(S(=O)(=O)[O-])ccc4F)c4nc(c(-c5cc(S(=O)(=O)[O-])ccc5F)c5ccc2[nH]5)C=C4)C=C3)cc1)[C@@H](O)c1cccc(C(F)(F)F)c1
REMARK SMILES IDX 10 1 9 2 8 3 6 4 7 5 5 7 4 8 3 9 2 10 1 11 78 12 79 13 80 15
REMARK SMILES IDX 81 16 89 17 82 18 84 19 83 20 85 21 86 22 87 23 88 24 11 25
REMARK SMILES IDX 12 26 13 27 14 29 15 30 16 31 77 32 17 33 76 34 18 35 19 36
REMARK SMILES IDX 20 37 70 38 21 39 75 40 69 41 71 42 22 43 74 44 68 45 67 46
REMARK SMILES IDX 23 48 55 49 35 50 54 51 36 52 39 53 53 54 72 55 37 56 38 57
REMARK SMILES IDX 52 59 73 60 40 61 24 62 25 63 33 64 26 65 32 66 34 67 31 68
REMARK SMILES IDX 27 69 28 70 29 71 30 72 56 73 57 74 65 75 58 76 64 77 66 78
REMARK SMILES IDX 63 79 59 80 60 81 61 82 62 83 41 84 42 85 50 86 43 87 49 88
REMARK SMILES IDX 51 89 48 90 44 91 45 92 46 93 47 94
REMARK H PARENT 8 6 79 14 12 28 71 47 39 58
REMARK Flexibility Score: inf
ROOT
ATOM      1  C   UNL A   1      32.404  27.907  25.512  1.00  0.00     0.042 C 
ENDROOT
BRANCH   1   2
ATOM      2  C   UNL A   1      32.778  26.722  26.396  1.00  0.00     0.117 C 
BRANCH   2   3
ATOM      3  N   UNL A   1      31.578  26.031  26.831  1.00  0.00    -0.356 N 
ATOM      4  C   UNL A   1      30.984  24.901  26.358  1.00  0.00     0.226 C 
ATOM      5  O   UNL A   1      29.827  24.692  26.730  1.00  0.00    -0.275 OA
ATOM      6  H   UNL A   1      31.117  26.450  27.593  1.00  0.00     0.163 HD
BRANCH   4   7
ATOM      7  C   UNL A   1      31.731  23.908  25.460  1.00  0.00     0.111 C 
BRANCH   7   8
ATOM      8  C   UNL A   1      31.046  23.817  24.064  1.00  0.00     0.016 C 
BRANCH   8   9
ATOM      9  C   UNL A   1      31.884  24.123  22.821  1.00  0.00     0.001 C 
BRANCH   9  10
ATOM     10  C   UNL A   1      32.912  23.061  22.421  1.00  0.00    -0.003 C 
ATOM     11  C   UNL A   1      34.346  23.496  22.673  1.00  0.00     0.004 C 
ENDBRANCH   9  10
ENDBRANCH   8   9
ENDBRANCH   7   8
BRANCH   7  12
ATOM     12  C   UNL A   1      31.688  22.514  26.186  1.00  0.00     0.157 C 
BRANCH  12  13
ATOM     13  O   UNL A   1      30.351  21.985  26.131  1.00  0.00    -0.388 OA
ATOM     14  H   UNL A   1      30.233  21.332  26.838  1.00  0.00     0.211 HD
ENDBRANCH  12  13
BRANCH  12  15
ATOM     15  C   UNL A   1      32.629  21.428  25.655  1.00  0.00    -0.018 A 
ATOM     16  C   UNL A   1      32.158  20.241  25.074  1.00  0.00     0.006 A 
ATOM     17  C   UNL A   1      34.023  21.647  25.631  1.00  0.00     0.019 A 
ATOM     18  C   UNL A   1      33.038  19.300  24.530  1.00  0.00     0.001 A 
ATOM     19  C   UNL A   1      34.919  20.716  25.080  1.00  0.00     0.056 A 
ATOM     20  C   UNL A   1      34.411  19.532  24.535  1.00  0.00     0.013 A 
BRANCH  19  21
ATOM     21  C   UNL A   1      36.403  20.985  25.061  1.00  0.00     0.416 C 
ATOM     22  F   UNL A   1      36.813  21.723  26.132  1.00  0.00    -0.166 F 
ATOM     23  F   UNL A   1      37.141  19.839  25.100  1.00  0.00    -0.166 F 
ATOM     24  F   UNL A   1      36.832  21.661  23.959  1.00  0.00    -0.166 F 
ENDBRANCH  19  21
ENDBRANCH  12  15
ENDBRANCH   7  12
ENDBRANCH   4   7
ENDBRANCH   2   3
ENDBRANCH   1   2
BRANCH   1  25
ATOM     25  C   UNL A   1      33.474  28.983  25.453  1.00  0.00     0.118 C 
BRANCH  25  26
ATOM     26  N   UNL A   1      32.951  30.292  25.794  1.00  0.00    -0.352 N 
ATOM     27  C   UNL A   1      33.310  31.134  26.823  1.00  0.00     0.251 C 
ATOM     28  H   UNL A   1      32.238  30.627  25.205  1.00  0.00     0.163 HD
ATOM     29  O   UNL A   1      32.595  32.097  27.079  1.00  0.00    -0.269 OA
BRANCH  27  30
ATOM     30  C   UNL A   1      34.526  30.864  27.631  1.00  0.00     0.039 A 
ATOM     31  C   UNL A   1      34.664  29.618  28.248  1.00  0.00     0.014 A 
ATOM     32  C   UNL A   1      35.519  31.833  27.801  1.00  0.00     0.014 A 
ATOM     33  C   UNL A   1      35.818  29.329  28.984  1.00  0.00     0.010 A 
ATOM     34  C   UNL A   1      36.711  31.506  28.443  1.00  0.00     0.010 A 
ATOM     35  C   UNL A   1      36.868  30.257  29.061  1.00  0.00    -0.014 A 
BRANCH  35  36
ATOM     36  C   UNL A   1      38.113  29.967  29.823  1.00  0.00     0.031 A 
ATOM     37  C   UNL A   1      39.126  29.001  29.258  1.00  0.00     0.074 A 
ATOM     38  C   UNL A   1      38.316  30.530  31.031  1.00  0.00     0.049 A 
ATOM     39  N   UNL A   1      40.226  28.542  29.798  1.00  0.00    -0.248 NA
ATOM     40  C   UNL A   1      38.844  28.458  27.920  1.00  0.00     0.031 C 
ATOM     41  C   UNL A   1      37.403  31.462  31.695  1.00  0.00     0.029 A 
ATOM     42  N   UNL A   1      39.356  30.401  31.919  1.00  0.00    -0.354 N 
ATOM     43  C   UNL A   1      40.762  27.655  28.870  1.00  0.00     0.074 A 
ATOM     44  C   UNL A   1      39.823  27.579  27.772  1.00  0.00     0.031 C 
ATOM     45  C   UNL A   1      37.938  31.847  32.864  1.00  0.00     0.029 A 
ATOM     46  C   UNL A   1      39.205  31.149  33.065  1.00  0.00     0.049 A 
ATOM     47  H   UNL A   1      40.137  29.826  31.752  1.00  0.00     0.167 HD
ATOM     48  C   UNL A   1      41.944  26.992  28.909  1.00  0.00     0.034 A 
ATOM     49  C   UNL A   1      39.990  31.251  34.156  1.00  0.00     0.034 A 
ATOM     50  C   UNL A   1      42.877  27.085  30.005  1.00  0.00     0.049 A 
ATOM     51  C   UNL A   1      41.272  30.452  34.204  1.00  0.00     0.074 A 
ATOM     52  C   UNL A   1      44.110  26.473  30.143  1.00  0.00     0.029 A 
ATOM     53  N   UNL A   1      42.679  27.841  31.154  1.00  0.00    -0.354 N 
ATOM     54  N   UNL A   1      41.774  29.638  33.304  1.00  0.00    -0.248 NA
ATOM     55  C   UNL A   1      42.096  30.593  35.411  1.00  0.00     0.031 C 
ATOM     56  C   UNL A   1      44.626  26.804  31.399  1.00  0.00     0.029 A 
ATOM     57  C   UNL A   1      43.757  27.690  32.013  1.00  0.00     0.049 A 
ATOM     58  H   UNL A   1      41.889  28.401  31.332  1.00  0.00     0.167 HD
ATOM     59  C   UNL A   1      42.996  29.211  33.820  1.00  0.00     0.074 A 
ATOM     60  C   UNL A   1      43.157  29.865  35.101  1.00  0.00     0.031 C 
ATOM     61  C   UNL A   1      43.905  28.357  33.284  1.00  0.00     0.034 A 
BRANCH  48  62
ATOM     62  C   UNL A   1      42.283  26.103  27.736  1.00  0.00     0.023 A 
ATOM     63  C   UNL A   1      41.797  24.786  27.650  1.00  0.00     0.031 A 
ATOM     64  C   UNL A   1      43.116  26.563  26.702  1.00  0.00     0.131 A 
ATOM     65  C   UNL A   1      42.209  23.953  26.600  1.00  0.00     0.055 A 
ATOM     66  C   UNL A   1      43.452  25.757  25.612  1.00  0.00     0.041 A 
ATOM     67  F   UNL A   1      43.630  27.802  26.738  1.00  0.00    -0.206 F 
ATOM     68  C   UNL A   1      43.010  24.437  25.564  1.00  0.00     0.022 A 
BRANCH  65  69
ATOM     69  S   UNL A   1      41.802  22.187  26.687  1.00  0.00     0.124 S 
ATOM     70  O   UNL A   1      42.647  21.746  27.795  1.00  0.00    -0.237 OA
ATOM     71  O   UNL A   1      40.368  22.205  26.945  1.00  0.00    -0.237 OA
ATOM     72  O   UNL A   1      42.195  21.680  25.374  1.00  0.00    -0.744 OA
ENDBRANCH  65  69
ENDBRANCH  48  62
BRANCH  49  73
ATOM     73  C   UNL A   1      39.604  32.128  35.302  1.00  0.00     0.023 A 
ATOM     74  C   UNL A   1      38.878  31.612  36.388  1.00  0.00     0.031 A 
ATOM     75  C   UNL A   1      39.881  33.506  35.294  1.00  0.00     0.131 A 
ATOM     76  C   UNL A   1      38.394  32.477  37.381  1.00  0.00     0.055 A 
ATOM     77  C   UNL A   1      39.456  34.352  36.321  1.00  0.00     0.041 A 
ATOM     78  F   UNL A   1      40.571  34.056  34.281  1.00  0.00    -0.206 F 
ATOM     79  C   UNL A   1      38.691  33.841  37.364  1.00  0.00     0.022 A 
BRANCH  76  80
ATOM     80  S   UNL A   1      37.258  31.810  38.629  1.00  0.00     0.124 S 
ATOM     81  O   UNL A   1      38.046  31.944  39.848  1.00  0.00    -0.237 OA
ATOM     82  O   UNL A   1      36.111  32.702  38.502  1.00  0.00    -0.237 OA
ATOM     83  O   UNL A   1      37.030  30.438  38.180  1.00  0.00    -0.744 OA
ENDBRANCH  76  80
ENDBRANCH  49  73
BRANCH  61  84
ATOM     84  C   UNL A   1      45.185  28.140  34.055  1.00  0.00     0.023 A 
ATOM     85  C   UNL A   1      45.319  27.110  35.000  1.00  0.00     0.031 A 
ATOM     86  C   UNL A   1      46.287  28.987  33.838  1.00  0.00     0.131 A 
ATOM     87  C   UNL A   1      46.507  26.987  35.736  1.00  0.00     0.055 A 
ATOM     88  C   UNL A   1      47.491  28.818  34.525  1.00  0.00     0.041 A 
ATOM     89  F   UNL A   1      46.216  29.989  32.948  1.00  0.00    -0.206 F 
ATOM     90  C   UNL A   1      47.600  27.822  35.491  1.00  0.00     0.022 A 
BRANCH  87  91
ATOM     91  S   UNL A   1      46.574  25.779  37.087  1.00  0.00     0.124 S 
ATOM     92  O   UNL A   1      47.492  26.419  38.021  1.00  0.00    -0.237 OA
ATOM     93  O   UNL A   1      45.179  25.708  37.512  1.00  0.00    -0.237 OA
ATOM     94  O   UNL A   1      47.086  24.570  36.442  1.00  0.00    -0.744 OA
ENDBRANCH  87  91
ENDBRANCH  61  84
ENDBRANCH  35  36
ENDBRANCH  27  30
ENDBRANCH  25  26
ENDBRANCH   1  25
TORSDOF 20
ENDMDL
