MODEL 1
REMARK VINA RESULT:     -12.9      0.000      0.000
REMARK SMILES O=C(NCCCNC(=O)[C@H]1[C@H](C(=O)NC2CC[NH+](Cc3ccccc3)CC2)[C@H]2C=C[C@@H]1C2)c1ccc(-c2c3nc(c(-c4cc(S(=O)(=O)[O-])ccc4F)c4ccc([nH]4)c(-c4cc(S(=O)(=O)[O-])ccc4F)c4nc(c(-c5cc(S(=O)(=O)[O-])ccc5F)c5ccc2[nH]5)C=C4)C=C3)cc1
REMARK SMILES IDX 5 1 4 2 3 3 1 4 2 5 33 7 34 8 95 9 35 10 94 11 36 12 37 13
REMARK SMILES IDX 38 14 88 15 39 16 93 17 87 18 89 19 40 20 92 21 86 22 85 23
REMARK SMILES IDX 41 25 73 26 53 27 72 28 54 29 57 30 71 31 90 32 55 33 56 34
REMARK SMILES IDX 70 36 91 37 58 38 42 39 43 40 51 41 44 42 50 43 52 44 49 45
REMARK SMILES IDX 45 46 46 47 47 48 48 49 74 50 75 51 83 52 76 53 82 54 84 55
REMARK SMILES IDX 81 56 77 57 78 58 79 59 80 60 59 61 60 62 68 63 61 64 67 65
REMARK SMILES IDX 69 66 66 67 62 68 63 69 64 70 65 71 6 72 7 73 8 74 9 76
REMARK SMILES IDX 10 77 11 78 31 79 28 80 30 81 32 82 29 83 12 84 13 85 14 86
REMARK SMILES IDX 15 88 16 89 27 90 17 91 26 92 18 93 19 95 20 96 21 97 25 98
REMARK SMILES IDX 22 99 24 100 23 101
REMARK H PARENT 3 6 89 24 57 35 7 75 14 87 18 94
REMARK Flexibility Score: inf
ROOT
ATOM      1  C   UNL A   1      31.723  31.822  26.702  1.00  0.00     0.042 C 
ENDROOT
BRANCH   1   2
ATOM      2  C   UNL A   1      33.015  32.499  27.125  1.00  0.00     0.118 C 
BRANCH   2   3
ATOM      3  N   UNL A   1      32.792  33.845  27.633  1.00  0.00    -0.352 N 
ATOM      4  O   UNL A   1      32.822  35.525  29.126  1.00  0.00    -0.269 OA
ATOM      5  C   UNL A   1      33.306  34.466  28.749  1.00  0.00     0.251 C 
ATOM      6  H   UNL A   1      32.178  34.397  27.095  1.00  0.00     0.163 HD
BRANCH   5   7
ATOM      7  C   UNL A   1      34.424  33.846  29.497  1.00  0.00     0.039 A 
ATOM      8  C   UNL A   1      35.744  34.225  29.252  1.00  0.00     0.014 A 
ATOM      9  C   UNL A   1      34.148  32.885  30.473  1.00  0.00     0.014 A 
ATOM     10  C   UNL A   1      36.787  33.523  29.840  1.00  0.00     0.010 A 
ATOM     11  C   UNL A   1      35.200  32.264  31.156  1.00  0.00     0.010 A 
ATOM     12  C   UNL A   1      36.531  32.552  30.820  1.00  0.00    -0.014 A 
BRANCH  12  13
ATOM     13  C   UNL A   1      37.681  31.905  31.510  1.00  0.00     0.031 A 
ATOM     14  C   UNL A   1      38.518  30.862  30.821  1.00  0.00     0.074 A 
ATOM     15  C   UNL A   1      37.988  32.304  32.760  1.00  0.00     0.049 A 
ATOM     16  N   UNL A   1      39.572  30.225  31.266  1.00  0.00    -0.248 NA
ATOM     17  C   UNL A   1      38.114  30.474  29.463  1.00  0.00     0.031 C 
ATOM     18  C   UNL A   1      37.244  33.308  33.528  1.00  0.00     0.029 A 
ATOM     19  N   UNL A   1      39.016  31.948  33.594  1.00  0.00    -0.354 N 
ATOM     20  C   UNL A   1      39.945  29.345  30.255  1.00  0.00     0.074 A 
ATOM     21  C   UNL A   1      38.978  29.506  29.189  1.00  0.00     0.031 C 
ATOM     22  C   UNL A   1      37.878  33.536  34.686  1.00  0.00     0.029 A 
ATOM     23  C   UNL A   1      39.021  32.639  34.785  1.00  0.00     0.049 A 
ATOM     24  H   UNL A   1      39.685  31.264  33.365  1.00  0.00     0.167 HD
ATOM     25  C   UNL A   1      40.998  28.489  30.221  1.00  0.00     0.034 A 
ATOM     26  C   UNL A   1      39.842  32.548  35.849  1.00  0.00     0.034 A 
ATOM     27  C   UNL A   1      41.953  28.348  31.297  1.00  0.00     0.049 A 
ATOM     28  C   UNL A   1      40.973  31.558  35.802  1.00  0.00     0.074 A 
ATOM     29  C   UNL A   1      43.078  27.541  31.353  1.00  0.00     0.029 A 
ATOM     30  N   UNL A   1      41.892  29.018  32.515  1.00  0.00    -0.354 N 
ATOM     31  N   UNL A   1      41.323  30.749  34.829  1.00  0.00    -0.248 NA
ATOM     32  C   UNL A   1      41.818  31.470  36.998  1.00  0.00     0.031 C 
ATOM     33  C   UNL A   1      43.647  27.663  32.626  1.00  0.00     0.029 A 
ATOM     34  C   UNL A   1      42.933  28.614  33.338  1.00  0.00     0.049 A 
ATOM     35  H   UNL A   1      41.208  29.683  32.757  1.00  0.00     0.167 HD
ATOM     36  C   UNL A   1      42.450  30.075  35.288  1.00  0.00     0.074 A 
ATOM     37  C   UNL A   1      42.729  30.589  36.614  1.00  0.00     0.031 C 
ATOM     38  C   UNL A   1      43.190  29.120  34.668  1.00  0.00     0.034 A 
BRANCH  25  39
ATOM     39  C   UNL A   1      41.137  27.601  29.003  1.00  0.00     0.023 A 
ATOM     40  C   UNL A   1      42.133  27.816  28.034  1.00  0.00     0.031 A 
ATOM     41  C   UNL A   1      40.238  26.541  28.794  1.00  0.00     0.131 A 
ATOM     42  C   UNL A   1      42.155  27.037  26.865  1.00  0.00     0.055 A 
ATOM     43  C   UNL A   1      40.318  25.713  27.671  1.00  0.00     0.041 A 
ATOM     44  F   UNL A   1      39.251  26.297  29.671  1.00  0.00    -0.206 F 
ATOM     45  C   UNL A   1      41.270  25.971  26.689  1.00  0.00     0.022 A 
BRANCH  42  46
ATOM     46  S   UNL A   1      43.249  27.540  25.508  1.00  0.00     0.124 S 
ATOM     47  O   UNL A   1      42.308  28.177  24.588  1.00  0.00    -0.237 OA
ATOM     48  O   UNL A   1      44.191  28.432  26.175  1.00  0.00    -0.237 OA
ATOM     49  O   UNL A   1      43.811  26.277  25.033  1.00  0.00    -0.744 OA
ENDBRANCH  42  46
ENDBRANCH  25  39
BRANCH  26  50
ATOM     50  C   UNL A   1      39.612  33.399  37.051  1.00  0.00     0.023 A 
ATOM     51  C   UNL A   1      39.020  32.869  38.208  1.00  0.00     0.031 A 
ATOM     52  C   UNL A   1      39.953  34.764  37.050  1.00  0.00     0.131 A 
ATOM     53  C   UNL A   1      38.750  33.707  39.300  1.00  0.00     0.055 A 
ATOM     54  C   UNL A   1      39.737  35.578  38.161  1.00  0.00     0.041 A 
ATOM     55  F   UNL A   1      40.524  35.321  35.971  1.00  0.00    -0.206 F 
ATOM     56  C   UNL A   1      39.118  35.053  39.291  1.00  0.00     0.022 A 
BRANCH  53  57
ATOM     57  S   UNL A   1      37.826  33.026  40.705  1.00  0.00     0.124 S 
ATOM     58  O   UNL A   1      38.194  33.946  41.775  1.00  0.00    -0.237 OA
ATOM     59  O   UNL A   1      36.449  33.110  40.230  1.00  0.00    -0.237 OA
ATOM     60  O   UNL A   1      38.357  31.670  40.835  1.00  0.00    -0.744 OA
ENDBRANCH  53  57
ENDBRANCH  26  50
BRANCH  38  61
ATOM     61  C   UNL A   1      44.401  28.610  35.413  1.00  0.00     0.023 A 
ATOM     62  C   UNL A   1      44.307  27.574  36.360  1.00  0.00     0.031 A 
ATOM     63  C   UNL A   1      45.661  29.199  35.201  1.00  0.00     0.131 A 
ATOM     64  C   UNL A   1      45.436  27.209  37.110  1.00  0.00     0.055 A 
ATOM     65  C   UNL A   1      46.795  28.782  35.899  1.00  0.00     0.041 A 
ATOM     66  F   UNL A   1      45.809  30.194  34.313  1.00  0.00    -0.206 F 
ATOM     67  C   UNL A   1      46.682  27.794  36.873  1.00  0.00     0.022 A 
BRANCH  64  68
ATOM     68  S   UNL A   1      45.228  26.042  38.483  1.00  0.00     0.124 S 
ATOM     69  O   UNL A   1      46.596  25.906  38.975  1.00  0.00    -0.237 OA
ATOM     70  O   UNL A   1      44.303  26.753  39.360  1.00  0.00    -0.237 OA
ATOM     71  O   UNL A   1      44.679  24.849  37.840  1.00  0.00    -0.744 OA
ENDBRANCH  64  68
ENDBRANCH  38  61
ENDBRANCH  12  13
ENDBRANCH   5   7
ENDBRANCH   2   3
ENDBRANCH   1   2
BRANCH   1  72
ATOM     72  C   UNL A   1      31.927  30.454  26.067  1.00  0.00     0.117 C 
BRANCH  72  73
ATOM     73  N   UNL A   1      31.456  29.356  26.895  1.00  0.00    -0.356 N 
ATOM     74  C   UNL A   1      31.552  28.007  26.702  1.00  0.00     0.224 C 
ATOM     75  H   UNL A   1      30.997  29.626  27.723  1.00  0.00     0.163 HD
ATOM     76  O   UNL A   1      31.199  27.267  27.618  1.00  0.00    -0.275 OA
BRANCH  74  77
ATOM     77  C   UNL A   1      32.064  27.502  25.367  1.00  0.00     0.098 C 
ATOM     78  C   UNL A   1      32.177  25.958  25.247  1.00  0.00     0.098 C 
ATOM     79  C   UNL A   1      31.059  27.847  24.228  1.00  0.00     0.025 C 
ATOM     80  C   UNL A   1      31.461  25.673  23.903  1.00  0.00     0.025 C 
ATOM     81  C   UNL A   1      29.743  27.122  24.400  1.00  0.00    -0.027 C 
ATOM     82  C   UNL A   1      31.616  26.979  23.112  1.00  0.00     0.017 C 
ATOM     83  C   UNL A   1      29.976  25.817  24.181  1.00  0.00    -0.027 C 
BRANCH  78  84
ATOM     84  C   UNL A   1      33.554  25.327  25.437  1.00  0.00     0.224 C 
ATOM     85  O   UNL A   1      34.545  25.914  24.978  1.00  0.00    -0.275 OA
ATOM     86  N   UNL A   1      33.843  24.171  26.076  1.00  0.00    -0.353 N 
ATOM     87  H   UNL A   1      34.800  23.944  26.020  1.00  0.00     0.163 HD
BRANCH  86  88
ATOM     88  C   UNL A   1      33.080  23.174  26.829  1.00  0.00     0.093 C 
ATOM     89  C   UNL A   1      33.827  21.845  26.943  1.00  0.00     0.086 C 
ATOM     90  C   UNL A   1      31.703  22.922  26.186  1.00  0.00     0.086 C 
ATOM     91  C   UNL A   1      33.884  21.110  25.622  1.00  0.00     0.264 C 
ATOM     92  C   UNL A   1      31.772  22.055  24.917  1.00  0.00     0.264 C 
ATOM     93  N   UNL A   1      32.542  20.825  25.132  1.00  0.00    -0.331 N 
ATOM     94  H   UNL A   1      32.040  20.314  25.857  1.00  0.00     0.348 HD
BRANCH  93  95
ATOM     95  C   UNL A   1      32.568  19.924  23.964  1.00  0.00     0.299 C 
BRANCH  95  96
ATOM     96  C   UNL A   1      32.862  18.465  24.259  1.00  0.00     0.006 A 
ATOM     97  C   UNL A   1      33.562  17.689  23.324  1.00  0.00     0.009 A 
ATOM     98  C   UNL A   1      32.498  17.880  25.481  1.00  0.00     0.009 A 
ATOM     99  C   UNL A   1      33.936  16.381  23.630  1.00  0.00     0.001 A 
ATOM    100  C   UNL A   1      32.901  16.583  25.799  1.00  0.00     0.001 A 
ATOM    101  C   UNL A   1      33.625  15.836  24.875  1.00  0.00     0.000 A 
ENDBRANCH  95  96
ENDBRANCH  93  95
ENDBRANCH  86  88
ENDBRANCH  78  84
ENDBRANCH  74  77
ENDBRANCH  72  73
ENDBRANCH   1  72
TORSDOF 17
ENDMDL
MODEL 2
REMARK VINA RESULT:     -12.8      1.817      7.522
REMARK SMILES O=C(NCCCNC(=O)[C@H]1[C@H](C(=O)NC2CC[NH+](Cc3ccccc3)CC2)[C@H]2C=C[C@@H]1C2)c1ccc(-c2c3nc(c(-c4cc(S(=O)(=O)[O-])ccc4F)c4ccc([nH]4)c(-c4cc(S(=O)(=O)[O-])ccc4F)c4nc(c(-c5cc(S(=O)(=O)[O-])ccc5F)c5ccc2[nH]5)C=C4)C=C3)cc1
REMARK SMILES IDX 5 1 4 2 3 3 1 4 2 5 33 7 34 8 95 9 35 10 94 11 36 12 37 13
REMARK SMILES IDX 38 14 88 15 39 16 93 17 87 18 89 19 40 20 92 21 86 22 85 23
REMARK SMILES IDX 41 25 73 26 53 27 72 28 54 29 57 30 71 31 90 32 55 33 56 34
REMARK SMILES IDX 70 36 91 37 58 38 42 39 43 40 51 41 44 42 50 43 52 44 49 45
REMARK SMILES IDX 45 46 46 47 47 48 48 49 74 50 75 51 83 52 76 53 82 54 84 55
REMARK SMILES IDX 81 56 77 57 78 58 79 59 80 60 59 61 60 62 68 63 61 64 67 65
REMARK SMILES IDX 69 66 66 67 62 68 63 69 64 70 65 71 6 72 7 73 8 74 9 76
REMARK SMILES IDX 10 77 11 78 31 79 28 80 30 81 32 82 29 83 12 84 13 85 14 86
REMARK SMILES IDX 15 88 16 89 27 90 17 91 26 92 18 93 19 95 20 96 21 97 25 98
REMARK SMILES IDX 22 99 24 100 23 101
REMARK H PARENT 3 6 89 24 57 35 7 75 14 87 18 94
REMARK Flexibility Score: inf
ROOT
ATOM      1  C   UNL A   1      31.496  31.972  26.561  1.00  0.00     0.042 C 
ENDROOT
BRANCH   1   2
ATOM      2  C   UNL A   1      32.732  32.474  27.286  1.00  0.00     0.118 C 
BRANCH   2   3
ATOM      3  N   UNL A   1      32.602  33.863  27.700  1.00  0.00    -0.352 N 
ATOM      4  O   UNL A   1      32.828  35.653  29.042  1.00  0.00    -0.269 OA
ATOM      5  C   UNL A   1      33.239  34.549  28.710  1.00  0.00     0.251 C 
ATOM      6  H   UNL A   1      31.959  34.395  27.177  1.00  0.00     0.163 HD
BRANCH   5   7
ATOM      7  C   UNL A   1      34.402  33.945  29.401  1.00  0.00     0.039 A 
ATOM      8  C   UNL A   1      35.701  34.356  29.104  1.00  0.00     0.014 A 
ATOM      9  C   UNL A   1      34.188  32.967  30.377  1.00  0.00     0.014 A 
ATOM     10  C   UNL A   1      36.784  33.670  29.638  1.00  0.00     0.010 A 
ATOM     11  C   UNL A   1      35.283  32.362  31.006  1.00  0.00     0.010 A 
ATOM     12  C   UNL A   1      36.591  32.683  30.616  1.00  0.00    -0.014 A 
BRANCH  12  13
ATOM     13  C   UNL A   1      37.783  32.053  31.247  1.00  0.00     0.031 A 
ATOM     14  C   UNL A   1      38.272  32.490  32.602  1.00  0.00     0.074 A 
ATOM     15  C   UNL A   1      38.399  31.046  30.597  1.00  0.00     0.049 A 
ATOM     16  N   UNL A   1      39.272  32.024  33.306  1.00  0.00    -0.248 NA
ATOM     17  C   UNL A   1      37.554  33.600  33.242  1.00  0.00     0.031 C 
ATOM     18  C   UNL A   1      38.014  30.539  29.276  1.00  0.00     0.029 A 
ATOM     19  N   UNL A   1      39.451  30.245  30.961  1.00  0.00    -0.354 N 
ATOM     20  C   UNL A   1      39.321  32.797  34.463  1.00  0.00     0.074 A 
ATOM     21  C   UNL A   1      38.270  33.786  34.343  1.00  0.00     0.031 C 
ATOM     22  C   UNL A   1      38.768  29.475  28.974  1.00  0.00     0.029 A 
ATOM     23  C   UNL A   1      39.747  29.272  30.033  1.00  0.00     0.049 A 
ATOM     24  H   UNL A   1      39.946  30.356  31.804  1.00  0.00     0.167 HD
ATOM     25  C   UNL A   1      40.161  32.685  35.524  1.00  0.00     0.034 A 
ATOM     26  C   UNL A   1      40.711  28.332  30.025  1.00  0.00     0.034 A 
ATOM     27  C   UNL A   1      41.201  31.686  35.622  1.00  0.00     0.049 A 
ATOM     28  C   UNL A   1      41.656  28.261  31.192  1.00  0.00     0.074 A 
ATOM     29  C   UNL A   1      42.082  31.457  36.666  1.00  0.00     0.029 A 
ATOM     30  N   UNL A   1      41.514  30.756  34.636  1.00  0.00    -0.354 N 
ATOM     31  N   UNL A   1      41.673  28.986  32.287  1.00  0.00    -0.248 NA
ATOM     32  C   UNL A   1      42.712  27.244  31.121  1.00  0.00     0.031 C 
ATOM     33  C   UNL A   1      42.972  30.449  36.281  1.00  0.00     0.029 A 
ATOM     34  C   UNL A   1      42.595  29.982  35.031  1.00  0.00     0.049 A 
ATOM     35  H   UNL A   1      41.036  30.661  33.780  1.00  0.00     0.167 HD
ATOM     36  C   UNL A   1      42.727  28.491  33.049  1.00  0.00     0.074 A 
ATOM     37  C   UNL A   1      43.304  27.395  32.296  1.00  0.00     0.031 C 
ATOM     38  C   UNL A   1      43.175  28.903  34.263  1.00  0.00     0.034 A 
BRANCH  25  39
ATOM     39  C   UNL A   1      40.021  33.703  36.635  1.00  0.00     0.023 A 
ATOM     40  C   UNL A   1      40.936  34.758  36.799  1.00  0.00     0.031 A 
ATOM     41  C   UNL A   1      38.971  33.598  37.564  1.00  0.00     0.131 A 
ATOM     42  C   UNL A   1      40.831  35.613  37.909  1.00  0.00     0.055 A 
ATOM     43  C   UNL A   1      38.821  34.504  38.617  1.00  0.00     0.041 A 
ATOM     44  F   UNL A   1      38.076  32.600  37.475  1.00  0.00    -0.206 F 
ATOM     45  C   UNL A   1      39.765  35.509  38.803  1.00  0.00     0.022 A 
BRANCH  42  46
ATOM     46  S   UNL A   1      42.197  36.757  38.253  1.00  0.00     0.124 S 
ATOM     47  O   UNL A   1      42.541  37.223  36.910  1.00  0.00    -0.237 OA
ATOM     48  O   UNL A   1      41.572  37.742  39.129  1.00  0.00    -0.237 OA
ATOM     49  O   UNL A   1      43.205  35.908  38.885  1.00  0.00    -0.744 OA
ENDBRANCH  42  46
ENDBRANCH  25  39
BRANCH  26  50
ATOM     50  C   UNL A   1      40.844  27.402  28.868  1.00  0.00     0.023 A 
ATOM     51  C   UNL A   1      41.819  27.612  27.881  1.00  0.00     0.031 A 
ATOM     52  C   UNL A   1      39.977  26.304  28.716  1.00  0.00     0.131 A 
ATOM     53  C   UNL A   1      41.878  26.764  26.766  1.00  0.00     0.055 A 
ATOM     54  C   UNL A   1      40.080  25.428  27.635  1.00  0.00     0.041 A 
ATOM     55  F   UNL A   1      39.029  26.055  29.632  1.00  0.00    -0.206 F 
ATOM     56  C   UNL A   1      41.026  25.664  26.644  1.00  0.00     0.022 A 
BRANCH  53  57
ATOM     57  S   UNL A   1      43.033  27.171  25.428  1.00  0.00     0.124 S 
ATOM     58  O   UNL A   1      44.202  27.625  26.172  1.00  0.00    -0.237 OA
ATOM     59  O   UNL A   1      43.165  25.891  24.742  1.00  0.00    -0.237 OA
ATOM     60  O   UNL A   1      42.328  28.209  24.677  1.00  0.00    -0.744 OA
ENDBRANCH  53  57
ENDBRANCH  26  50
BRANCH  38  61
ATOM     61  C   UNL A   1      44.321  28.123  34.863  1.00  0.00     0.023 A 
ATOM     62  C   UNL A   1      44.106  27.023  35.712  1.00  0.00     0.031 A 
ATOM     63  C   UNL A   1      45.649  28.516  34.613  1.00  0.00     0.131 A 
ATOM     64  C   UNL A   1      45.197  26.399  36.336  1.00  0.00     0.055 A 
ATOM     65  C   UNL A   1      46.733  27.845  35.181  1.00  0.00     0.041 A 
ATOM     66  F   UNL A   1      45.914  29.562  33.815  1.00  0.00    -0.206 F 
ATOM     67  C   UNL A   1      46.509  26.792  36.062  1.00  0.00     0.022 A 
BRANCH  64  68
ATOM     68  S   UNL A   1      44.872  25.143  37.604  1.00  0.00     0.124 S 
ATOM     69  O   UNL A   1      45.310  23.920  36.937  1.00  0.00    -0.237 OA
ATOM     70  O   UNL A   1      45.704  25.597  38.714  1.00  0.00    -0.237 OA
ATOM     71  O   UNL A   1      43.431  25.245  37.828  1.00  0.00    -0.744 OA
ENDBRANCH  64  68
ENDBRANCH  38  61
ENDBRANCH  12  13
ENDBRANCH   5   7
ENDBRANCH   2   3
ENDBRANCH   1   2
BRANCH   1  72
ATOM     72  C   UNL A   1      31.607  30.531  26.085  1.00  0.00     0.117 C 
BRANCH  72  73
ATOM     73  N   UNL A   1      30.952  30.288  24.811  1.00  0.00    -0.356 N 
ATOM     74  C   UNL A   1      30.939  29.168  24.028  1.00  0.00     0.224 C 
ATOM     75  H   UNL A   1      30.437  31.049  24.456  1.00  0.00     0.163 HD
ATOM     76  O   UNL A   1      30.192  29.156  23.052  1.00  0.00    -0.275 OA
BRANCH  74  77
ATOM     77  C   UNL A   1      31.859  28.020  24.394  1.00  0.00     0.098 C 
ATOM     78  C   UNL A   1      31.835  26.819  23.410  1.00  0.00     0.098 C 
ATOM     79  C   UNL A   1      33.350  28.469  24.328  1.00  0.00     0.025 C 
ATOM     80  C   UNL A   1      33.342  26.573  23.145  1.00  0.00     0.025 C 
ATOM     81  C   UNL A   1      33.768  28.823  22.919  1.00  0.00    -0.027 C 
ATOM     82  C   UNL A   1      34.037  27.116  24.401  1.00  0.00     0.017 C 
ATOM     83  C   UNL A   1      33.789  27.682  22.211  1.00  0.00    -0.027 C 
BRANCH  78  84
ATOM     84  C   UNL A   1      30.999  25.600  23.793  1.00  0.00     0.224 C 
ATOM     85  O   UNL A   1      29.763  25.688  23.739  1.00  0.00    -0.275 OA
ATOM     86  N   UNL A   1      31.450  24.388  24.187  1.00  0.00    -0.353 N 
ATOM     87  H   UNL A   1      30.717  23.779  24.432  1.00  0.00     0.163 HD
BRANCH  86  88
ATOM     88  C   UNL A   1      32.765  23.762  24.338  1.00  0.00     0.093 C 
ATOM     89  C   UNL A   1      33.253  23.130  23.035  1.00  0.00     0.086 C 
ATOM     90  C   UNL A   1      32.748  22.687  25.441  1.00  0.00     0.086 C 
ATOM     91  C   UNL A   1      32.468  21.887  22.677  1.00  0.00     0.264 C 
ATOM     92  C   UNL A   1      32.065  21.379  25.007  1.00  0.00     0.264 C 
ATOM     93  N   UNL A   1      32.584  20.884  23.728  1.00  0.00    -0.331 N 
ATOM     94  H   UNL A   1      33.575  20.705  23.888  1.00  0.00     0.348 HD
BRANCH  93  95
ATOM     95  C   UNL A   1      32.015  19.589  23.310  1.00  0.00     0.299 C 
BRANCH  95  96
ATOM     96  C   UNL A   1      32.703  18.354  23.856  1.00  0.00     0.006 A 
ATOM     97  C   UNL A   1      32.428  17.917  25.159  1.00  0.00     0.009 A 
ATOM     98  C   UNL A   1      33.577  17.594  23.063  1.00  0.00     0.009 A 
ATOM     99  C   UNL A   1      32.968  16.720  25.633  1.00  0.00     0.001 A 
ATOM    100  C   UNL A   1      34.089  16.382  23.525  1.00  0.00     0.001 A 
ATOM    101  C   UNL A   1      33.780  15.943  24.809  1.00  0.00     0.000 A 
ENDBRANCH  95  96
ENDBRANCH  93  95
ENDBRANCH  86  88
ENDBRANCH  78  84
ENDBRANCH  74  77
ENDBRANCH  72  73
ENDBRANCH   1  72
TORSDOF 17
ENDMDL
MODEL 3
REMARK VINA RESULT:     -12.8      2.924      8.342
REMARK SMILES O=C(NCCCNC(=O)[C@H]1[C@H](C(=O)NC2CC[NH+](Cc3ccccc3)CC2)[C@H]2C=C[C@@H]1C2)c1ccc(-c2c3nc(c(-c4cc(S(=O)(=O)[O-])ccc4F)c4ccc([nH]4)c(-c4cc(S(=O)(=O)[O-])ccc4F)c4nc(c(-c5cc(S(=O)(=O)[O-])ccc5F)c5ccc2[nH]5)C=C4)C=C3)cc1
REMARK SMILES IDX 5 1 4 2 3 3 1 4 2 5 33 7 34 8 95 9 35 10 94 11 36 12 37 13
REMARK SMILES IDX 38 14 88 15 39 16 93 17 87 18 89 19 40 20 92 21 86 22 85 23
REMARK SMILES IDX 41 25 73 26 53 27 72 28 54 29 57 30 71 31 90 32 55 33 56 34
REMARK SMILES IDX 70 36 91 37 58 38 42 39 43 40 51 41 44 42 50 43 52 44 49 45
REMARK SMILES IDX 45 46 46 47 47 48 48 49 74 50 75 51 83 52 76 53 82 54 84 55
REMARK SMILES IDX 81 56 77 57 78 58 79 59 80 60 59 61 60 62 68 63 61 64 67 65
REMARK SMILES IDX 69 66 66 67 62 68 63 69 64 70 65 71 6 72 7 73 8 74 9 76
REMARK SMILES IDX 10 77 11 78 31 79 28 80 30 81 32 82 29 83 12 84 13 85 14 86
REMARK SMILES IDX 15 88 16 89 27 90 17 91 26 92 18 93 19 95 20 96 21 97 25 98
REMARK SMILES IDX 22 99 24 100 23 101
REMARK H PARENT 3 6 89 24 57 35 7 75 14 87 18 94
REMARK Flexibility Score: inf
ROOT
ATOM      1  C   UNL A   1      33.161  27.631  26.315  1.00  0.00     0.042 C 
ENDROOT
BRANCH   1   2
ATOM      2  C   UNL A   1      33.985  28.765  25.729  1.00  0.00     0.118 C 
BRANCH   2   3
ATOM      3  N   UNL A   1      33.453  30.073  26.084  1.00  0.00    -0.352 N 
ATOM      4  O   UNL A   1      33.105  31.888  27.363  1.00  0.00    -0.269 OA
ATOM      5  C   UNL A   1      33.823  30.935  27.092  1.00  0.00     0.251 C 
ATOM      6  H   UNL A   1      32.714  30.390  25.515  1.00  0.00     0.163 HD
BRANCH   5   7
ATOM      7  C   UNL A   1      35.072  30.698  27.852  1.00  0.00     0.039 A 
ATOM      8  C   UNL A   1      35.272  29.502  28.541  1.00  0.00     0.014 A 
ATOM      9  C   UNL A   1      36.068  31.678  27.857  1.00  0.00     0.014 A 
ATOM     10  C   UNL A   1      36.371  29.360  29.378  1.00  0.00     0.010 A 
ATOM     11  C   UNL A   1      37.235  31.480  28.605  1.00  0.00     0.010 A 
ATOM     12  C   UNL A   1      37.381  30.334  29.401  1.00  0.00    -0.014 A 
BRANCH  12  13
ATOM     13  C   UNL A   1      38.597  30.089  30.224  1.00  0.00     0.031 A 
ATOM     14  C   UNL A   1      38.730  30.659  31.610  1.00  0.00     0.074 A 
ATOM     15  C   UNL A   1      39.569  29.306  29.717  1.00  0.00     0.049 A 
ATOM     16  N   UNL A   1      39.706  30.515  32.470  1.00  0.00    -0.248 NA
ATOM     17  C   UNL A   1      37.632  31.511  32.088  1.00  0.00     0.031 C 
ATOM     18  C   UNL A   1      39.550  28.700  28.381  1.00  0.00     0.029 A 
ATOM     19  N   UNL A   1      40.743  28.855  30.264  1.00  0.00    -0.354 N 
ATOM     20  C   UNL A   1      39.355  31.274  33.583  1.00  0.00     0.074 A 
ATOM     21  C   UNL A   1      38.090  31.906  33.268  1.00  0.00     0.031 C 
ATOM     22  C   UNL A   1      40.619  27.905  28.241  1.00  0.00     0.029 A 
ATOM     23  C   UNL A   1      41.445  28.008  29.436  1.00  0.00     0.049 A 
ATOM     24  H   UNL A   1      41.053  29.112  31.161  1.00  0.00     0.167 HD
ATOM     25  C   UNL A   1      40.023  31.421  34.755  1.00  0.00     0.034 A 
ATOM     26  C   UNL A   1      42.631  27.396  29.610  1.00  0.00     0.034 A 
ATOM     27  C   UNL A   1      41.283  30.776  35.048  1.00  0.00     0.049 A 
ATOM     28  C   UNL A   1      43.372  27.614  30.900  1.00  0.00     0.074 A 
ATOM     29  C   UNL A   1      42.027  30.825  36.215  1.00  0.00     0.029 A 
ATOM     30  N   UNL A   1      41.997  29.975  34.162  1.00  0.00    -0.354 N 
ATOM     31  N   UNL A   1      43.014  28.318  31.949  1.00  0.00    -0.248 NA
ATOM     32  C   UNL A   1      44.677  26.956  31.028  1.00  0.00     0.031 C 
ATOM     33  C   UNL A   1      43.220  30.123  36.008  1.00  0.00     0.029 A 
ATOM     34  C   UNL A   1      43.186  29.558  34.743  1.00  0.00     0.049 A 
ATOM     35  H   UNL A   1      41.700  29.737  33.254  1.00  0.00     0.167 HD
ATOM     36  C   UNL A   1      44.040  28.162  32.875  1.00  0.00     0.074 A 
ATOM     37  C   UNL A   1      45.017  27.282  32.266  1.00  0.00     0.031 C 
ATOM     38  C   UNL A   1      44.163  28.695  34.118  1.00  0.00     0.034 A 
BRANCH  25  39
ATOM     39  C   UNL A   1      39.429  32.359  35.784  1.00  0.00     0.023 A 
ATOM     40  C   UNL A   1      39.805  33.712  35.866  1.00  0.00     0.031 A 
ATOM     41  C   UNL A   1      38.491  31.883  36.718  1.00  0.00     0.131 A 
ATOM     42  C   UNL A   1      39.311  34.516  36.906  1.00  0.00     0.055 A 
ATOM     43  C   UNL A   1      37.937  32.711  37.697  1.00  0.00     0.041 A 
ATOM     44  F   UNL A   1      38.106  30.597  36.706  1.00  0.00    -0.206 F 
ATOM     45  C   UNL A   1      38.360  34.032  37.806  1.00  0.00     0.022 A 
BRANCH  42  46
ATOM     46  S   UNL A   1      40.052  36.153  37.162  1.00  0.00     0.124 S 
ATOM     47  O   UNL A   1      39.810  36.794  35.870  1.00  0.00    -0.237 OA
ATOM     48  O   UNL A   1      39.285  36.676  38.287  1.00  0.00    -0.237 OA
ATOM     49  O   UNL A   1      41.455  35.855  37.446  1.00  0.00    -0.744 OA
ENDBRANCH  42  46
ENDBRANCH  25  39
BRANCH  26  50
ATOM     50  C   UNL A   1      43.201  26.540  28.531  1.00  0.00     0.023 A 
ATOM     51  C   UNL A   1      44.224  27.016  27.696  1.00  0.00     0.031 A 
ATOM     52  C   UNL A   1      42.709  25.242  28.297  1.00  0.00     0.131 A 
ATOM     53  C   UNL A   1      44.694  26.218  26.643  1.00  0.00     0.055 A 
ATOM     54  C   UNL A   1      43.222  24.430  27.286  1.00  0.00     0.041 A 
ATOM     55  F   UNL A   1      41.733  24.737  29.068  1.00  0.00    -0.206 F 
ATOM     56  C   UNL A   1      44.211  24.923  26.442  1.00  0.00     0.022 A 
BRANCH  53  57
ATOM     57  S   UNL A   1      45.888  26.933  25.480  1.00  0.00     0.124 S 
ATOM     58  O   UNL A   1      45.118  28.027  24.899  1.00  0.00    -0.237 OA
ATOM     59  O   UNL A   1      46.981  27.316  26.367  1.00  0.00    -0.237 OA
ATOM     60  O   UNL A   1      46.184  25.825  24.573  1.00  0.00    -0.744 OA
ENDBRANCH  53  57
ENDBRANCH  26  50
BRANCH  38  61
ATOM     61  C   UNL A   1      45.385  28.294  34.911  1.00  0.00     0.023 A 
ATOM     62  C   UNL A   1      45.389  27.161  35.744  1.00  0.00     0.031 A 
ATOM     63  C   UNL A   1      46.548  29.083  34.861  1.00  0.00     0.131 A 
ATOM     64  C   UNL A   1      46.507  26.890  36.548  1.00  0.00     0.055 A 
ATOM     65  C   UNL A   1      47.683  28.766  35.610  1.00  0.00     0.041 A 
ATOM     66  F   UNL A   1      46.600  30.178  34.088  1.00  0.00    -0.206 F 
ATOM     67  C   UNL A   1      47.660  27.675  36.472  1.00  0.00     0.022 A 
BRANCH  64  68
ATOM     68  S   UNL A   1      46.390  25.565  37.782  1.00  0.00     0.124 S 
ATOM     69  O   UNL A   1      46.906  24.417  37.043  1.00  0.00    -0.237 OA
ATOM     70  O   UNL A   1      47.240  26.065  38.858  1.00  0.00    -0.237 OA
ATOM     71  O   UNL A   1      44.963  25.512  38.095  1.00  0.00    -0.744 OA
ENDBRANCH  64  68
ENDBRANCH  38  61
ENDBRANCH  12  13
ENDBRANCH   5   7
ENDBRANCH   2   3
ENDBRANCH   1   2
BRANCH   1  72
ATOM     72  C   UNL A   1      32.424  26.806  25.271  1.00  0.00     0.117 C 
BRANCH  72  73
ATOM     73  N   UNL A   1      31.683  25.690  25.833  1.00  0.00    -0.356 N 
ATOM     74  C   UNL A   1      32.024  24.370  25.936  1.00  0.00     0.224 C 
ATOM     75  H   UNL A   1      30.796  25.919  26.195  1.00  0.00     0.163 HD
ATOM     76  O   UNL A   1      31.283  23.632  26.583  1.00  0.00    -0.275 OA
BRANCH  74  77
ATOM     77  C   UNL A   1      33.278  23.891  25.232  1.00  0.00     0.098 C 
ATOM     78  C   UNL A   1      33.586  22.378  25.394  1.00  0.00     0.098 C 
ATOM     79  C   UNL A   1      33.129  24.033  23.688  1.00  0.00     0.025 C 
ATOM     80  C   UNL A   1      33.848  21.932  23.933  1.00  0.00     0.025 C 
ATOM     81  C   UNL A   1      32.048  23.127  23.142  1.00  0.00    -0.027 C 
ATOM     82  C   UNL A   1      34.322  23.211  23.230  1.00  0.00     0.017 C 
ATOM     83  C   UNL A   1      32.488  21.864  23.265  1.00  0.00    -0.027 C 
BRANCH  78  84
ATOM     84  C   UNL A   1      34.626  21.968  26.433  1.00  0.00     0.224 C 
ATOM     85  O   UNL A   1      34.234  21.523  27.522  1.00  0.00    -0.275 OA
ATOM     86  N   UNL A   1      35.972  22.020  26.309  1.00  0.00    -0.353 N 
ATOM     87  H   UNL A   1      36.432  21.752  27.137  1.00  0.00     0.163 HD
BRANCH  86  88
ATOM     88  C   UNL A   1      36.910  22.378  25.244  1.00  0.00     0.093 C 
ATOM     89  C   UNL A   1      37.841  21.221  24.886  1.00  0.00     0.086 C 
ATOM     90  C   UNL A   1      37.759  23.602  25.635  1.00  0.00     0.086 C 
ATOM     91  C   UNL A   1      38.855  20.949  25.975  1.00  0.00     0.264 C 
ATOM     92  C   UNL A   1      38.874  23.274  26.643  1.00  0.00     0.264 C 
ATOM     93  N   UNL A   1      39.681  22.125  26.216  1.00  0.00    -0.331 N 
ATOM     94  H   UNL A   1      40.103  22.404  25.331  1.00  0.00     0.348 HD
BRANCH  93  95
ATOM     95  C   UNL A   1      40.813  21.822  27.112  1.00  0.00     0.299 C 
BRANCH  95  96
ATOM     96  C   UNL A   1      41.852  20.862  26.566  1.00  0.00     0.006 A 
ATOM     97  C   UNL A   1      41.717  19.485  26.784  1.00  0.00     0.009 A 
ATOM     98  C   UNL A   1      42.929  21.317  25.789  1.00  0.00     0.009 A 
ATOM     99  C   UNL A   1      42.603  18.584  26.193  1.00  0.00     0.001 A 
ATOM    100  C   UNL A   1      43.795  20.415  25.171  1.00  0.00     0.001 A 
ATOM    101  C   UNL A   1      43.628  19.048  25.370  1.00  0.00     0.000 A 
ENDBRANCH  95  96
ENDBRANCH  93  95
ENDBRANCH  86  88
ENDBRANCH  78  84
ENDBRANCH  74  77
ENDBRANCH  72  73
ENDBRANCH   1  72
TORSDOF 17
ENDMDL
