MODEL 1
REMARK VINA RESULT:     -13.2      0.000      0.000
REMARK SMILES O=C(NCCCNC(=O)c1ccc([C@H]2Nc3ccc(Cl)cc3[C@@H]3C=CC[C@@H]23)cc1)c1ccc(-c2c3nc(c(-c4cc(S(=O)(=O)[O-])ccc4F)c4ccc([nH]4)c(-c4cc(S(=O)(=O)[O-])ccc4F)c4nc(c(-c5cc(S(=O)(=O)[O-])ccc5F)c5ccc2[nH]5)C=C4)C=C3)cc1
REMARK SMILES IDX 4 1 3 2 1 3 2 4 30 6 31 7 92 8 32 9 91 10 33 11 34 12 35 13
REMARK SMILES IDX 85 14 36 15 90 16 84 17 86 18 37 19 89 20 83 21 82 22 38 24
REMARK SMILES IDX 70 25 50 26 69 27 51 28 54 29 68 30 87 31 52 32 53 33 67 35
REMARK SMILES IDX 88 36 55 37 39 38 40 39 48 40 41 41 47 42 49 43 46 44 42 45
REMARK SMILES IDX 43 46 44 47 45 48 71 49 72 50 80 51 73 52 79 53 81 54 78 55
REMARK SMILES IDX 74 56 75 57 76 58 77 59 56 60 57 61 65 62 58 63 64 64 66 65
REMARK SMILES IDX 63 66 59 67 60 68 61 69 62 70 5 71 6 72 7 73 8 74 9 76 10 77
REMARK SMILES IDX 11 78 29 79 12 80 28 81 13 82 14 83 15 84 27 85 16 86 23 88
REMARK SMILES IDX 26 89 17 90 22 91 24 92 25 93 18 94 21 95 19 96 20 97
REMARK H PARENT 3 5 86 23 54 34 7 75 15 87
REMARK Flexibility Score: inf
ROOT
ATOM      1  C   UNL A   1      33.968  29.194  26.145  1.00  0.00     0.118 C 
ENDROOT
BRANCH   1   2
ATOM      2  N   UNL A   1      33.727  30.514  26.709  1.00  0.00    -0.352 N 
ATOM      3  O   UNL A   1      33.926  32.269  28.098  1.00  0.00    -0.269 OA
ATOM      4  C   UNL A   1      34.403  31.211  27.682  1.00  0.00     0.251 C 
ATOM      5  H   UNL A   1      32.951  30.988  26.330  1.00  0.00     0.163 HD
BRANCH   4   6
ATOM      6  C   UNL A   1      35.672  30.706  28.255  1.00  0.00     0.039 A 
ATOM      7  C   UNL A   1      36.913  31.134  27.778  1.00  0.00     0.014 A 
ATOM      8  C   UNL A   1      35.618  29.812  29.330  1.00  0.00     0.014 A 
ATOM      9  C   UNL A   1      38.087  30.561  28.268  1.00  0.00     0.010 A 
ATOM     10  C   UNL A   1      36.799  29.301  29.878  1.00  0.00     0.010 A 
ATOM     11  C   UNL A   1      38.045  29.644  29.328  1.00  0.00    -0.014 A 
BRANCH  11  12
ATOM     12  C   UNL A   1      39.303  29.068  29.876  1.00  0.00     0.031 A 
ATOM     13  C   UNL A   1      39.971  29.686  31.074  1.00  0.00     0.074 A 
ATOM     14  C   UNL A   1      39.854  27.992  29.281  1.00  0.00     0.049 A 
ATOM     15  N   UNL A   1      41.109  29.375  31.642  1.00  0.00    -0.248 NA
ATOM     16  C   UNL A   1      39.270  30.809  31.709  1.00  0.00     0.031 C 
ATOM     17  C   UNL A   1      39.296  27.296  28.121  1.00  0.00     0.029 A 
ATOM     18  N   UNL A   1      41.004  27.297  29.564  1.00  0.00    -0.354 N 
ATOM     19  C   UNL A   1      41.273  30.275  32.689  1.00  0.00     0.074 A 
ATOM     20  C   UNL A   1      40.133  31.169  32.648  1.00  0.00     0.031 C 
ATOM     21  C   UNL A   1      40.094  26.266  27.802  1.00  0.00     0.029 A 
ATOM     22  C   UNL A   1      41.255  26.271  28.684  1.00  0.00     0.049 A 
ATOM     23  H   UNL A   1      41.591  27.512  30.324  1.00  0.00     0.167 HD
ATOM     24  C   UNL A   1      42.276  30.345  33.603  1.00  0.00     0.034 A 
ATOM     25  C   UNL A   1      42.318  25.450  28.569  1.00  0.00     0.034 A 
ATOM     26  C   UNL A   1      43.410  29.448  33.618  1.00  0.00     0.049 A 
ATOM     27  C   UNL A   1      43.456  25.588  29.543  1.00  0.00     0.074 A 
ATOM     28  C   UNL A   1      44.468  29.411  34.511  1.00  0.00     0.029 A 
ATOM     29  N   UNL A   1      43.646  28.442  32.688  1.00  0.00    -0.354 N 
ATOM     30  N   UNL A   1      43.595  26.439  30.534  1.00  0.00    -0.248 NA
ATOM     31  C   UNL A   1      44.579  24.655  29.389  1.00  0.00     0.031 C 
ATOM     32  C   UNL A   1      45.381  28.445  34.073  1.00  0.00     0.029 A 
ATOM     33  C   UNL A   1      44.849  27.807  32.964  1.00  0.00     0.049 A 
ATOM     34  H   UNL A   1      43.046  28.213  31.941  1.00  0.00     0.167 HD
ATOM     35  C   UNL A   1      44.806  26.119  31.143  1.00  0.00     0.074 A 
ATOM     36  C   UNL A   1      45.355  24.998  30.408  1.00  0.00     0.031 C 
ATOM     37  C   UNL A   1      45.398  26.693  32.221  1.00  0.00     0.034 A 
BRANCH  24  38
ATOM     38  C   UNL A   1      42.214  31.464  34.620  1.00  0.00     0.023 A 
ATOM     39  C   UNL A   1      41.278  31.463  35.670  1.00  0.00     0.031 A 
ATOM     40  C   UNL A   1      43.071  32.573  34.511  1.00  0.00     0.131 A 
ATOM     41  C   UNL A   1      41.156  32.585  36.504  1.00  0.00     0.055 A 
ATOM     42  C   UNL A   1      43.010  33.646  35.404  1.00  0.00     0.041 A 
ATOM     43  F   UNL A   1      43.973  32.647  33.520  1.00  0.00    -0.206 F 
ATOM     44  C   UNL A   1      42.034  33.666  36.396  1.00  0.00     0.022 A 
BRANCH  41  45
ATOM     45  S   UNL A   1      39.716  32.692  37.603  1.00  0.00     0.124 S 
ATOM     46  O   UNL A   1      40.342  32.607  38.921  1.00  0.00    -0.237 OA
ATOM     47  O   UNL A   1      39.146  33.986  37.251  1.00  0.00    -0.237 OA
ATOM     48  O   UNL A   1      38.913  31.530  37.230  1.00  0.00    -0.744 OA
ENDBRANCH  41  45
ENDBRANCH  24  38
BRANCH  25  49
ATOM     49  C   UNL A   1      42.366  24.455  27.460  1.00  0.00     0.023 A 
ATOM     50  C   UNL A   1      41.660  23.244  27.536  1.00  0.00     0.031 A 
ATOM     51  C   UNL A   1      43.126  24.706  26.302  1.00  0.00     0.131 A 
ATOM     52  C   UNL A   1      41.750  22.319  26.485  1.00  0.00     0.055 A 
ATOM     53  C   UNL A   1      43.169  23.806  25.238  1.00  0.00     0.041 A 
ATOM     54  F   UNL A   1      43.818  25.850  26.179  1.00  0.00    -0.206 F 
ATOM     55  C   UNL A   1      42.484  22.598  25.330  1.00  0.00     0.022 A 
BRANCH  52  56
ATOM     56  S   UNL A   1      40.941  20.707  26.676  1.00  0.00     0.124 S 
ATOM     57  O   UNL A   1      41.879  19.822  25.996  1.00  0.00    -0.237 OA
ATOM     58  O   UNL A   1      40.868  20.574  28.127  1.00  0.00    -0.237 OA
ATOM     59  O   UNL A   1      39.655  20.890  26.004  1.00  0.00    -0.744 OA
ENDBRANCH  52  56
ENDBRANCH  25  49
BRANCH  37  60
ATOM     60  C   UNL A   1      46.682  26.074  32.718  1.00  0.00     0.023 A 
ATOM     61  C   UNL A   1      46.697  24.993  33.617  1.00  0.00     0.031 A 
ATOM     62  C   UNL A   1      47.918  26.576  32.269  1.00  0.00     0.131 A 
ATOM     63  C   UNL A   1      47.922  24.478  34.068  1.00  0.00     0.055 A 
ATOM     64  C   UNL A   1      49.131  26.020  32.674  1.00  0.00     0.041 A 
ATOM     65  F   UNL A   1      47.964  27.612  31.416  1.00  0.00    -0.206 F 
ATOM     66  C   UNL A   1      49.139  24.971  33.587  1.00  0.00     0.022 A 
BRANCH  63  67
ATOM     67  S   UNL A   1      47.914  23.202  35.358  1.00  0.00     0.124 S 
ATOM     68  O   UNL A   1      48.736  23.815  36.397  1.00  0.00    -0.237 OA
ATOM     69  O   UNL A   1      46.493  23.072  35.662  1.00  0.00    -0.237 OA
ATOM     70  O   UNL A   1      48.513  22.042  34.699  1.00  0.00    -0.744 OA
ENDBRANCH  63  67
ENDBRANCH  37  60
ENDBRANCH  11  12
ENDBRANCH   4   6
ENDBRANCH   1   2
BRANCH   1  71
ATOM     71  C   UNL A   1      33.100  28.881  24.931  1.00  0.00     0.042 C 
BRANCH  71  72
ATOM     72  C   UNL A   1      31.604  29.135  25.094  1.00  0.00     0.118 C 
BRANCH  72  73
ATOM     73  N   UNL A   1      30.919  29.464  23.852  1.00  0.00    -0.352 N 
ATOM     74  C   UNL A   1      30.503  28.703  22.786  1.00  0.00     0.251 C 
ATOM     75  H   UNL A   1      30.713  30.423  23.756  1.00  0.00     0.163 HD
ATOM     76  O   UNL A   1      29.992  29.282  21.827  1.00  0.00    -0.269 OA
BRANCH  74  77
ATOM     77  C   UNL A   1      30.694  27.231  22.715  1.00  0.00     0.039 A 
ATOM     78  C   UNL A   1      31.733  26.755  21.908  1.00  0.00     0.014 A 
ATOM     79  C   UNL A   1      29.896  26.309  23.392  1.00  0.00     0.014 A 
ATOM     80  C   UNL A   1      32.080  25.401  21.922  1.00  0.00     0.006 A 
ATOM     81  C   UNL A   1      30.271  24.959  23.441  1.00  0.00     0.006 A 
ATOM     82  C   UNL A   1      31.432  24.509  22.791  1.00  0.00    -0.025 A 
BRANCH  82  83
ATOM     83  C   UNL A   1      32.079  23.189  23.228  1.00  0.00     0.114 C 
ATOM     84  N   UNL A   1      33.468  23.057  22.744  1.00  0.00    -0.378 N 
ATOM     85  C   UNL A   1      32.119  23.028  24.758  1.00  0.00     0.031 C 
ATOM     86  C   UNL A   1      34.569  23.264  23.579  1.00  0.00     0.038 A 
ATOM     87  H   UNL A   1      33.622  22.814  21.804  1.00  0.00     0.161 HD
ATOM     88  C   UNL A   1      33.020  24.137  25.325  1.00  0.00     0.049 C 
ATOM     89  C   UNL A   1      30.861  23.018  25.621  1.00  0.00     0.034 C 
ATOM     90  C   UNL A   1      35.851  22.919  23.140  1.00  0.00     0.027 A 
ATOM     91  C   UNL A   1      34.417  23.782  24.895  1.00  0.00    -0.016 A 
ATOM     92  C   UNL A   1      32.577  24.197  26.745  1.00  0.00    -0.023 C 
ATOM     93  C   UNL A   1      31.362  23.649  26.888  1.00  0.00    -0.030 C 
ATOM     94  C   UNL A   1      36.962  23.107  23.970  1.00  0.00     0.022 A 
ATOM     95  C   UNL A   1      35.535  24.001  25.708  1.00  0.00     0.027 A 
ATOM     96  C   UNL A   1      36.800  23.655  25.242  1.00  0.00     0.041 A 
ATOM     97  Cl  UNL A   1      38.177  23.905  26.242  1.00  0.00    -0.084 Cl
ENDBRANCH  82  83
ENDBRANCH  74  77
ENDBRANCH  72  73
ENDBRANCH  71  72
ENDBRANCH   1  71
TORSDOF 14
ENDMDL
MODEL 2
REMARK VINA RESULT:     -13.2      5.211      7.949
REMARK SMILES O=C(NCCCNC(=O)c1ccc([C@H]2Nc3ccc(Cl)cc3[C@@H]3C=CC[C@@H]23)cc1)c1ccc(-c2c3nc(c(-c4cc(S(=O)(=O)[O-])ccc4F)c4ccc([nH]4)c(-c4cc(S(=O)(=O)[O-])ccc4F)c4nc(c(-c5cc(S(=O)(=O)[O-])ccc5F)c5ccc2[nH]5)C=C4)C=C3)cc1
REMARK SMILES IDX 4 1 3 2 1 3 2 4 30 6 31 7 92 8 32 9 91 10 33 11 34 12 35 13
REMARK SMILES IDX 85 14 36 15 90 16 84 17 86 18 37 19 89 20 83 21 82 22 38 24
REMARK SMILES IDX 70 25 50 26 69 27 51 28 54 29 68 30 87 31 52 32 53 33 67 35
REMARK SMILES IDX 88 36 55 37 39 38 40 39 48 40 41 41 47 42 49 43 46 44 42 45
REMARK SMILES IDX 43 46 44 47 45 48 71 49 72 50 80 51 73 52 79 53 81 54 78 55
REMARK SMILES IDX 74 56 75 57 76 58 77 59 56 60 57 61 65 62 58 63 64 64 66 65
REMARK SMILES IDX 63 66 59 67 60 68 61 69 62 70 5 71 6 72 7 73 8 74 9 76 10 77
REMARK SMILES IDX 11 78 29 79 12 80 28 81 13 82 14 83 15 84 27 85 16 86 23 88
REMARK SMILES IDX 26 89 17 90 22 91 24 92 25 93 18 94 21 95 19 96 20 97
REMARK H PARENT 3 5 86 23 54 34 7 75 15 87
REMARK Flexibility Score: inf
ROOT
ATOM      1  C   UNL A   1      35.875  22.012  25.968  1.00  0.00     0.118 C 
ENDROOT
BRANCH   1   2
ATOM      2  N   UNL A   1      36.894  20.998  25.736  1.00  0.00    -0.352 N 
ATOM      3  O   UNL A   1      38.929  20.113  25.381  1.00  0.00    -0.269 OA
ATOM      4  C   UNL A   1      38.266  21.086  25.748  1.00  0.00     0.251 C 
ATOM      5  H   UNL A   1      36.542  20.100  25.537  1.00  0.00     0.163 HD
BRANCH   4   6
ATOM      6  C   UNL A   1      38.957  22.327  26.167  1.00  0.00     0.039 A 
ATOM      7  C   UNL A   1      38.483  23.589  25.803  1.00  0.00     0.014 A 
ATOM      8  C   UNL A   1      40.087  22.225  26.986  1.00  0.00     0.014 A 
ATOM      9  C   UNL A   1      39.214  24.732  26.127  1.00  0.00     0.010 A 
ATOM     10  C   UNL A   1      40.774  23.378  27.380  1.00  0.00     0.010 A 
ATOM     11  C   UNL A   1      40.363  24.642  26.924  1.00  0.00    -0.014 A 
BRANCH  11  12
ATOM     12  C   UNL A   1      41.116  25.869  27.302  1.00  0.00     0.031 A 
ATOM     13  C   UNL A   1      40.477  26.927  28.159  1.00  0.00     0.074 A 
ATOM     14  C   UNL A   1      42.377  26.036  26.858  1.00  0.00     0.049 A 
ATOM     15  N   UNL A   1      40.945  28.095  28.523  1.00  0.00    -0.248 NA
ATOM     16  C   UNL A   1      39.129  26.636  28.664  1.00  0.00     0.031 C 
ATOM     17  C   UNL A   1      43.111  25.077  26.031  1.00  0.00     0.029 A 
ATOM     18  N   UNL A   1      43.264  27.070  27.034  1.00  0.00    -0.354 N 
ATOM     19  C   UNL A   1      39.942  28.689  29.282  1.00  0.00     0.074 A 
ATOM     20  C   UNL A   1      38.826  27.764  29.289  1.00  0.00     0.031 C 
ATOM     21  C   UNL A   1      44.338  25.559  25.785  1.00  0.00     0.029 A 
ATOM     22  C   UNL A   1      44.456  26.889  26.372  1.00  0.00     0.049 A 
ATOM     23  H   UNL A   1      43.066  27.863  27.582  1.00  0.00     0.167 HD
ATOM     24  C   UNL A   1      39.955  29.889  29.919  1.00  0.00     0.034 A 
ATOM     25  C   UNL A   1      45.510  27.713  26.217  1.00  0.00     0.034 A 
ATOM     26  C   UNL A   1      41.077  30.801  29.888  1.00  0.00     0.049 A 
ATOM     27  C   UNL A   1      45.478  29.070  26.866  1.00  0.00     0.074 A 
ATOM     28  C   UNL A   1      41.207  32.028  30.517  1.00  0.00     0.029 A 
ATOM     29  N   UNL A   1      42.254  30.596  29.178  1.00  0.00    -0.354 N 
ATOM     30  N   UNL A   1      44.527  29.617  27.588  1.00  0.00    -0.248 NA
ATOM     31  C   UNL A   1      46.662  29.920  26.685  1.00  0.00     0.031 C 
ATOM     32  C   UNL A   1      42.421  32.599  30.119  1.00  0.00     0.029 A 
ATOM     33  C   UNL A   1      43.097  31.690  29.321  1.00  0.00     0.049 A 
ATOM     34  H   UNL A   1      42.460  29.792  28.648  1.00  0.00     0.167 HD
ATOM     35  C   UNL A   1      45.013  30.862  27.977  1.00  0.00     0.074 A 
ATOM     36  C   UNL A   1      46.341  30.983  27.410  1.00  0.00     0.031 C 
ATOM     37  C   UNL A   1      44.418  31.809  28.746  1.00  0.00     0.034 A 
BRANCH  24  38
ATOM     38  C   UNL A   1      38.695  30.302  30.649  1.00  0.00     0.023 A 
ATOM     39  C   UNL A   1      37.648  30.980  30.000  1.00  0.00     0.031 A 
ATOM     40  C   UNL A   1      38.560  30.059  32.028  1.00  0.00     0.131 A 
ATOM     41  C   UNL A   1      36.563  31.473  30.742  1.00  0.00     0.055 A 
ATOM     42  C   UNL A   1      37.432  30.468  32.744  1.00  0.00     0.041 A 
ATOM     43  F   UNL A   1      39.532  29.437  32.712  1.00  0.00    -0.206 F 
ATOM     44  C   UNL A   1      36.434  31.198  32.105  1.00  0.00     0.022 A 
BRANCH  41  45
ATOM     45  S   UNL A   1      35.425  32.637  29.939  1.00  0.00     0.124 S 
ATOM     46  O   UNL A   1      34.367  32.755  30.941  1.00  0.00    -0.237 OA
ATOM     47  O   UNL A   1      36.260  33.815  29.751  1.00  0.00    -0.237 OA
ATOM     48  O   UNL A   1      35.033  31.943  28.714  1.00  0.00    -0.744 OA
ENDBRANCH  41  45
ENDBRANCH  24  38
BRANCH  25  49
ATOM     49  C   UNL A   1      46.664  27.286  25.374  1.00  0.00     0.023 A 
ATOM     50  C   UNL A   1      46.852  27.800  24.082  1.00  0.00     0.031 A 
ATOM     51  C   UNL A   1      47.599  26.351  25.857  1.00  0.00     0.131 A 
ATOM     52  C   UNL A   1      47.933  27.355  23.307  1.00  0.00     0.055 A 
ATOM     53  C   UNL A   1      48.702  25.954  25.102  1.00  0.00     0.041 A 
ATOM     54  F   UNL A   1      47.465  25.832  27.088  1.00  0.00    -0.206 F 
ATOM     55  C   UNL A   1      48.869  26.450  23.814  1.00  0.00     0.022 A 
BRANCH  52  56
ATOM     56  S   UNL A   1      48.068  27.931  21.592  1.00  0.00     0.124 S 
ATOM     57  O   UNL A   1      48.281  26.679  20.875  1.00  0.00    -0.237 OA
ATOM     58  O   UNL A   1      46.777  28.578  21.387  1.00  0.00    -0.237 OA
ATOM     59  O   UNL A   1      49.217  28.834  21.626  1.00  0.00    -0.744 OA
ENDBRANCH  52  56
ENDBRANCH  25  49
BRANCH  37  60
ATOM     60  C   UNL A   1      45.227  33.040  29.079  1.00  0.00     0.023 A 
ATOM     61  C   UNL A   1      45.185  34.203  28.291  1.00  0.00     0.031 A 
ATOM     62  C   UNL A   1      46.050  33.046  30.221  1.00  0.00     0.131 A 
ATOM     63  C   UNL A   1      45.983  35.307  28.633  1.00  0.00     0.055 A 
ATOM     64  C   UNL A   1      46.793  34.167  30.589  1.00  0.00     0.041 A 
ATOM     65  F   UNL A   1      46.136  31.960  31.006  1.00  0.00    -0.206 F 
ATOM     66  C   UNL A   1      46.771  35.304  29.787  1.00  0.00     0.022 A 
BRANCH  63  67
ATOM     67  S   UNL A   1      46.043  36.727  27.505  1.00  0.00     0.124 S 
ATOM     68  O   UNL A   1      47.165  37.492  28.039  1.00  0.00    -0.237 OA
ATOM     69  O   UNL A   1      46.263  36.091  26.211  1.00  0.00    -0.237 OA
ATOM     70  O   UNL A   1      44.732  37.354  27.671  1.00  0.00    -0.744 OA
ENDBRANCH  63  67
ENDBRANCH  37  60
ENDBRANCH  11  12
ENDBRANCH   4   6
ENDBRANCH   1   2
BRANCH   1  71
ATOM     71  C   UNL A   1      34.718  21.526  26.835  1.00  0.00     0.042 C 
BRANCH  71  72
ATOM     72  C   UNL A   1      33.401  21.266  26.111  1.00  0.00     0.118 C 
BRANCH  72  73
ATOM     73  N   UNL A   1      32.255  21.946  26.700  1.00  0.00    -0.352 N 
ATOM     74  C   UNL A   1      31.753  23.217  26.562  1.00  0.00     0.251 C 
ATOM     75  H   UNL A   1      31.738  21.382  27.320  1.00  0.00     0.163 HD
ATOM     76  O   UNL A   1      30.782  23.532  27.251  1.00  0.00    -0.269 OA
BRANCH  74  77
ATOM     77  C   UNL A   1      32.360  24.239  25.670  1.00  0.00     0.039 A 
ATOM     78  C   UNL A   1      31.653  24.584  24.513  1.00  0.00     0.014 A 
ATOM     79  C   UNL A   1      33.586  24.856  25.915  1.00  0.00     0.014 A 
ATOM     80  C   UNL A   1      32.075  25.652  23.715  1.00  0.00     0.006 A 
ATOM     81  C   UNL A   1      33.987  25.954  25.141  1.00  0.00     0.006 A 
ATOM     82  C   UNL A   1      33.179  26.431  24.095  1.00  0.00    -0.025 A 
BRANCH  82  83
ATOM     83  C   UNL A   1      33.371  27.866  23.587  1.00  0.00     0.114 C 
ATOM     84  N   UNL A   1      32.426  28.211  22.506  1.00  0.00    -0.378 N 
ATOM     85  C   UNL A   1      33.189  28.917  24.696  1.00  0.00     0.031 C 
ATOM     86  C   UNL A   1      31.297  29.003  22.730  1.00  0.00     0.038 A 
ATOM     87  H   UNL A   1      32.598  27.873  21.599  1.00  0.00     0.161 HD
ATOM     88  C   UNL A   1      31.731  28.842  25.179  1.00  0.00     0.049 C 
ATOM     89  C   UNL A   1      34.053  28.952  25.953  1.00  0.00     0.034 C 
ATOM     90  C   UNL A   1      30.554  29.480  21.647  1.00  0.00     0.027 A 
ATOM     91  C   UNL A   1      30.901  29.378  24.044  1.00  0.00    -0.016 A 
ATOM     92  C   UNL A   1      31.818  29.484  26.520  1.00  0.00    -0.023 C 
ATOM     93  C   UNL A   1      33.082  29.474  26.970  1.00  0.00    -0.030 C 
ATOM     94  C   UNL A   1      29.430  30.287  21.855  1.00  0.00     0.022 A 
ATOM     95  C   UNL A   1      29.756  30.155  24.249  1.00  0.00     0.027 A 
ATOM     96  C   UNL A   1      29.032  30.610  23.151  1.00  0.00     0.041 A 
ATOM     97  Cl  UNL A   1      27.632  31.581  23.393  1.00  0.00    -0.084 Cl
ENDBRANCH  82  83
ENDBRANCH  74  77
ENDBRANCH  72  73
ENDBRANCH  71  72
ENDBRANCH   1  71
TORSDOF 14
ENDMDL
MODEL 3
REMARK VINA RESULT:     -13.2      1.270      1.454
REMARK SMILES O=C(NCCCNC(=O)c1ccc([C@H]2Nc3ccc(Cl)cc3[C@@H]3C=CC[C@@H]23)cc1)c1ccc(-c2c3nc(c(-c4cc(S(=O)(=O)[O-])ccc4F)c4ccc([nH]4)c(-c4cc(S(=O)(=O)[O-])ccc4F)c4nc(c(-c5cc(S(=O)(=O)[O-])ccc5F)c5ccc2[nH]5)C=C4)C=C3)cc1
REMARK SMILES IDX 4 1 3 2 1 3 2 4 30 6 31 7 92 8 32 9 91 10 33 11 34 12 35 13
REMARK SMILES IDX 85 14 36 15 90 16 84 17 86 18 37 19 89 20 83 21 82 22 38 24
REMARK SMILES IDX 70 25 50 26 69 27 51 28 54 29 68 30 87 31 52 32 53 33 67 35
REMARK SMILES IDX 88 36 55 37 39 38 40 39 48 40 41 41 47 42 49 43 46 44 42 45
REMARK SMILES IDX 43 46 44 47 45 48 71 49 72 50 80 51 73 52 79 53 81 54 78 55
REMARK SMILES IDX 74 56 75 57 76 58 77 59 56 60 57 61 65 62 58 63 64 64 66 65
REMARK SMILES IDX 63 66 59 67 60 68 61 69 62 70 5 71 6 72 7 73 8 74 9 76 10 77
REMARK SMILES IDX 11 78 29 79 12 80 28 81 13 82 14 83 15 84 27 85 16 86 23 88
REMARK SMILES IDX 26 89 17 90 22 91 24 92 25 93 18 94 21 95 19 96 20 97
REMARK H PARENT 3 5 86 23 54 34 7 75 15 87
REMARK Flexibility Score: inf
ROOT
ATOM      1  C   UNL A   1      33.983  29.158  26.166  1.00  0.00     0.118 C 
ENDROOT
BRANCH   1   2
ATOM      2  N   UNL A   1      33.754  30.485  26.719  1.00  0.00    -0.352 N 
ATOM      3  O   UNL A   1      33.973  32.253  28.089  1.00  0.00    -0.269 OA
ATOM      4  C   UNL A   1      34.441  31.188  27.680  1.00  0.00     0.251 C 
ATOM      5  H   UNL A   1      32.978  30.959  26.341  1.00  0.00     0.163 HD
BRANCH   4   6
ATOM      6  C   UNL A   1      35.712  30.681  28.248  1.00  0.00     0.039 A 
ATOM      7  C   UNL A   1      36.951  31.080  27.742  1.00  0.00     0.014 A 
ATOM      8  C   UNL A   1      35.661  29.818  29.347  1.00  0.00     0.014 A 
ATOM      9  C   UNL A   1      38.124  30.505  28.231  1.00  0.00     0.010 A 
ATOM     10  C   UNL A   1      36.844  29.306  29.892  1.00  0.00     0.010 A 
ATOM     11  C   UNL A   1      38.086  29.618  29.315  1.00  0.00    -0.014 A 
BRANCH  11  12
ATOM     12  C   UNL A   1      39.345  29.040  29.860  1.00  0.00     0.031 A 
ATOM     13  C   UNL A   1      40.018  29.658  31.056  1.00  0.00     0.074 A 
ATOM     14  C   UNL A   1      39.892  27.961  29.266  1.00  0.00     0.049 A 
ATOM     15  N   UNL A   1      41.156  29.346  31.621  1.00  0.00    -0.248 NA
ATOM     16  C   UNL A   1      39.320  30.784  31.691  1.00  0.00     0.031 C 
ATOM     17  C   UNL A   1      39.329  27.264  28.109  1.00  0.00     0.029 A 
ATOM     18  N   UNL A   1      41.041  27.264  29.547  1.00  0.00    -0.354 N 
ATOM     19  C   UNL A   1      41.325  30.248  32.666  1.00  0.00     0.074 A 
ATOM     20  C   UNL A   1      40.187  31.144  32.626  1.00  0.00     0.031 C 
ATOM     21  C   UNL A   1      40.123  26.232  27.789  1.00  0.00     0.029 A 
ATOM     22  C   UNL A   1      41.287  26.236  28.668  1.00  0.00     0.049 A 
ATOM     23  H   UNL A   1      41.631  27.479  30.305  1.00  0.00     0.167 HD
ATOM     24  C   UNL A   1      42.331  30.317  33.577  1.00  0.00     0.034 A 
ATOM     25  C   UNL A   1      42.348  25.413  28.552  1.00  0.00     0.034 A 
ATOM     26  C   UNL A   1      43.463  29.417  33.590  1.00  0.00     0.049 A 
ATOM     27  C   UNL A   1      43.489  25.550  29.522  1.00  0.00     0.074 A 
ATOM     28  C   UNL A   1      44.523  29.380  34.480  1.00  0.00     0.029 A 
ATOM     29  N   UNL A   1      43.694  28.409  32.662  1.00  0.00    -0.354 N 
ATOM     30  N   UNL A   1      43.633  26.403  30.512  1.00  0.00    -0.248 NA
ATOM     31  C   UNL A   1      44.609  24.614  29.367  1.00  0.00     0.031 C 
ATOM     32  C   UNL A   1      45.433  28.411  34.041  1.00  0.00     0.029 A 
ATOM     33  C   UNL A   1      44.897  27.772  32.935  1.00  0.00     0.049 A 
ATOM     34  H   UNL A   1      43.092  28.181  31.917  1.00  0.00     0.167 HD
ATOM     35  C   UNL A   1      44.844  26.081  31.117  1.00  0.00     0.074 A 
ATOM     36  C   UNL A   1      45.389  24.957  30.382  1.00  0.00     0.031 C 
ATOM     37  C   UNL A   1      45.441  26.656  32.193  1.00  0.00     0.034 A 
BRANCH  24  38
ATOM     38  C   UNL A   1      42.274  31.438  34.592  1.00  0.00     0.023 A 
ATOM     39  C   UNL A   1      41.335  31.446  35.639  1.00  0.00     0.031 A 
ATOM     40  C   UNL A   1      43.141  32.540  34.484  1.00  0.00     0.131 A 
ATOM     41  C   UNL A   1      41.219  32.571  36.470  1.00  0.00     0.055 A 
ATOM     42  C   UNL A   1      43.085  33.615  35.376  1.00  0.00     0.041 A 
ATOM     43  F   UNL A   1      44.046  32.605  33.496  1.00  0.00    -0.206 F 
ATOM     44  C   UNL A   1      42.106  33.644  36.364  1.00  0.00     0.022 A 
BRANCH  41  45
ATOM     45  S   UNL A   1      39.776  32.691  37.564  1.00  0.00     0.124 S 
ATOM     46  O   UNL A   1      40.397  32.601  38.884  1.00  0.00    -0.237 OA
ATOM     47  O   UNL A   1      39.218  33.989  37.208  1.00  0.00    -0.237 OA
ATOM     48  O   UNL A   1      38.964  31.535  37.190  1.00  0.00    -0.744 OA
ENDBRANCH  41  45
ENDBRANCH  24  38
BRANCH  25  49
ATOM     49  C   UNL A   1      42.390  24.415  27.444  1.00  0.00     0.023 A 
ATOM     50  C   UNL A   1      41.679  23.208  27.523  1.00  0.00     0.031 A 
ATOM     51  C   UNL A   1      43.150  24.661  26.285  1.00  0.00     0.131 A 
ATOM     52  C   UNL A   1      41.765  22.280  26.474  1.00  0.00     0.055 A 
ATOM     53  C   UNL A   1      43.187  23.759  25.222  1.00  0.00     0.041 A 
ATOM     54  F   UNL A   1      43.846  25.802  26.159  1.00  0.00    -0.206 F 
ATOM     55  C   UNL A   1      42.498  22.554  25.317  1.00  0.00     0.022 A 
BRANCH  52  56
ATOM     56  S   UNL A   1      40.949  20.672  26.669  1.00  0.00     0.124 S 
ATOM     57  O   UNL A   1      41.876  19.784  25.977  1.00  0.00    -0.237 OA
ATOM     58  O   UNL A   1      40.890  20.535  28.120  1.00  0.00    -0.237 OA
ATOM     59  O   UNL A   1      39.658  20.863  26.010  1.00  0.00    -0.744 OA
ENDBRANCH  52  56
ENDBRANCH  25  49
BRANCH  37  60
ATOM     60  C   UNL A   1      46.725  26.035  32.687  1.00  0.00     0.023 A 
ATOM     61  C   UNL A   1      47.981  26.388  32.163  1.00  0.00     0.031 A 
ATOM     62  C   UNL A   1      46.685  25.075  33.716  1.00  0.00     0.131 A 
ATOM     63  C   UNL A   1      49.139  25.754  32.640  1.00  0.00     0.055 A 
ATOM     64  C   UNL A   1      47.845  24.495  34.229  1.00  0.00     0.041 A 
ATOM     65  F   UNL A   1      45.513  24.695  34.249  1.00  0.00    -0.206 F 
ATOM     66  C   UNL A   1      49.081  24.826  33.683  1.00  0.00     0.022 A 
BRANCH  63  67
ATOM     67  S   UNL A   1      50.724  26.099  31.828  1.00  0.00     0.124 S 
ATOM     68  O   UNL A   1      51.340  24.776  31.789  1.00  0.00    -0.237 OA
ATOM     69  O   UNL A   1      50.305  26.645  30.541  1.00  0.00    -0.237 OA
ATOM     70  O   UNL A   1      51.370  27.057  32.725  1.00  0.00    -0.744 OA
ENDBRANCH  63  67
ENDBRANCH  37  60
ENDBRANCH  11  12
ENDBRANCH   4   6
ENDBRANCH   1   2
BRANCH   1  71
ATOM     71  C   UNL A   1      33.112  28.842  24.955  1.00  0.00     0.042 C 
BRANCH  71  72
ATOM     72  C   UNL A   1      31.619  29.112  25.115  1.00  0.00     0.118 C 
BRANCH  72  73
ATOM     73  N   UNL A   1      30.941  29.455  23.872  1.00  0.00    -0.352 N 
ATOM     74  C   UNL A   1      30.526  28.706  22.798  1.00  0.00     0.251 C 
ATOM     75  H   UNL A   1      30.742  30.416  23.784  1.00  0.00     0.163 HD
ATOM     76  O   UNL A   1      30.022  29.296  21.842  1.00  0.00    -0.269 OA
BRANCH  74  77
ATOM     77  C   UNL A   1      30.708  27.233  22.716  1.00  0.00     0.039 A 
ATOM     78  C   UNL A   1      31.750  26.758  21.912  1.00  0.00     0.014 A 
ATOM     79  C   UNL A   1      29.901  26.310  23.381  1.00  0.00     0.014 A 
ATOM     80  C   UNL A   1      32.088  25.402  21.916  1.00  0.00     0.006 A 
ATOM     81  C   UNL A   1      30.267  24.957  23.420  1.00  0.00     0.006 A 
ATOM     82  C   UNL A   1      31.430  24.507  22.773  1.00  0.00    -0.025 A 
BRANCH  82  83
ATOM     83  C   UNL A   1      32.067  23.179  23.203  1.00  0.00     0.114 C 
ATOM     84  N   UNL A   1      33.454  23.039  22.719  1.00  0.00    -0.378 N 
ATOM     85  C   UNL A   1      32.105  23.009  24.732  1.00  0.00     0.031 C 
ATOM     86  C   UNL A   1      34.557  23.232  23.555  1.00  0.00     0.038 A 
ATOM     87  H   UNL A   1      33.607  22.799  21.777  1.00  0.00     0.161 HD
ATOM     88  C   UNL A   1      33.014  24.108  25.305  1.00  0.00     0.049 C 
ATOM     89  C   UNL A   1      30.847  23.003  25.595  1.00  0.00     0.034 C 
ATOM     90  C   UNL A   1      35.836  22.880  23.114  1.00  0.00     0.027 A 
ATOM     91  C   UNL A   1      34.409  23.744  24.874  1.00  0.00    -0.016 A 
ATOM     92  C   UNL A   1      32.572  24.163  26.726  1.00  0.00    -0.023 C 
ATOM     93  C   UNL A   1      31.352  23.623  26.865  1.00  0.00    -0.030 C 
ATOM     94  C   UNL A   1      36.948  23.054  23.945  1.00  0.00     0.022 A 
ATOM     95  C   UNL A   1      35.528  23.950  25.688  1.00  0.00     0.027 A 
ATOM     96  C   UNL A   1      36.790  23.596  25.220  1.00  0.00     0.041 A 
ATOM     97  Cl  UNL A   1      38.170  23.830  26.222  1.00  0.00    -0.084 Cl
ENDBRANCH  82  83
ENDBRANCH  74  77
ENDBRANCH  72  73
ENDBRANCH  71  72
ENDBRANCH   1  71
TORSDOF 14
ENDMDL
