MODEL 1
REMARK VINA RESULT:     -13.8      0.000      0.000
REMARK SMILES O=C(NCCCNC(=O)[C@@H]1[C@H](C(=O)Nc2ccc(Cn3cncn3)cc2)[C@@H]2C=C[C@H]1CC2)c1ccc(-c2c3nc(c(-c4cc(S(=O)(=O)[O-])ccc4F)c4ccc([nH]4)c(-c4cc(S(=O)(=O)[O-])ccc4F)c4nc(c(-c5cc(S(=O)(=O)[O-])ccc5F)c5ccc2[nH]5)C=C4)C=C3)cc1
REMARK SMILES IDX 5 1 4 2 3 3 1 4 2 5 33 7 34 8 95 9 35 10 94 11 36 12 37 13
REMARK SMILES IDX 38 14 88 15 39 16 93 17 87 18 89 19 40 20 92 21 86 22 85 23
REMARK SMILES IDX 41 25 73 26 53 27 72 28 54 29 57 30 71 31 90 32 55 33 56 34
REMARK SMILES IDX 70 36 91 37 58 38 42 39 43 40 51 41 44 42 50 43 52 44 49 45
REMARK SMILES IDX 45 46 46 47 47 48 48 49 74 50 75 51 83 52 76 53 82 54 84 55
REMARK SMILES IDX 81 56 77 57 78 58 79 59 80 60 59 61 60 62 68 63 61 64 67 65
REMARK SMILES IDX 69 66 66 67 62 68 63 69 64 70 65 71 6 72 7 73 8 74 9 76
REMARK SMILES IDX 10 77 11 78 30 79 27 80 29 81 31 82 28 83 32 84 12 85 13 86
REMARK SMILES IDX 14 87 15 89 16 90 26 91 17 92 25 93 18 94 19 95 20 96 21 97
REMARK SMILES IDX 24 98 22 99 23 100
REMARK H PARENT 3 6 89 24 57 35 7 75 14 88
REMARK Flexibility Score: inf
ROOT
ATOM      1  C   UNL A   1      31.916  29.541  27.216  1.00  0.00     0.042 C 
ENDROOT
BRANCH   1   2
ATOM      2  C   UNL A   1      33.098  30.430  26.802  1.00  0.00     0.118 C 
BRANCH   2   3
ATOM      3  N   UNL A   1      33.687  31.190  27.896  1.00  0.00    -0.352 N 
ATOM      4  O   UNL A   1      34.930  33.051  27.670  1.00  0.00    -0.269 OA
ATOM      5  C   UNL A   1      34.901  31.825  27.793  1.00  0.00     0.251 C 
ATOM      6  H   UNL A   1      33.193  31.251  28.746  1.00  0.00     0.163 HD
BRANCH   5   7
ATOM      7  C   UNL A   1      36.129  31.049  28.093  1.00  0.00     0.039 A 
ATOM      8  C   UNL A   1      36.229  29.662  27.978  1.00  0.00     0.014 A 
ATOM      9  C   UNL A   1      37.206  31.772  28.617  1.00  0.00     0.014 A 
ATOM     10  C   UNL A   1      37.382  29.006  28.420  1.00  0.00     0.010 A 
ATOM     11  C   UNL A   1      38.321  31.116  29.128  1.00  0.00     0.010 A 
ATOM     12  C   UNL A   1      38.422  29.731  29.013  1.00  0.00    -0.014 A 
BRANCH  12  13
ATOM     13  C   UNL A   1      39.724  29.090  29.205  1.00  0.00     0.031 A 
ATOM     14  C   UNL A   1      40.095  28.931  30.638  1.00  0.00     0.074 A 
ATOM     15  C   UNL A   1      40.496  28.501  28.271  1.00  0.00     0.049 A 
ATOM     16  N   UNL A   1      40.998  29.577  31.302  1.00  0.00    -0.248 NA
ATOM     17  C   UNL A   1      39.269  28.041  31.468  1.00  0.00     0.031 C 
ATOM     18  C   UNL A   1      40.174  28.220  26.876  1.00  0.00     0.029 A 
ATOM     19  N   UNL A   1      41.728  27.927  28.433  1.00  0.00    -0.354 N 
ATOM     20  C   UNL A   1      40.983  29.037  32.585  1.00  0.00     0.074 A 
ATOM     21  C   UNL A   1      39.774  28.267  32.678  1.00  0.00     0.031 C 
ATOM     22  C   UNL A   1      41.095  27.361  26.374  1.00  0.00     0.029 A 
ATOM     23  C   UNL A   1      42.130  27.124  27.372  1.00  0.00     0.049 A 
ATOM     24  H   UNL A   1      42.283  28.072  29.233  1.00  0.00     0.167 HD
ATOM     25  C   UNL A   1      42.071  29.080  33.403  1.00  0.00     0.034 A 
ATOM     26  C   UNL A   1      43.196  26.277  27.346  1.00  0.00     0.034 A 
ATOM     27  C   UNL A   1      43.058  30.012  32.915  1.00  0.00     0.049 A 
ATOM     28  C   UNL A   1      44.151  26.722  28.391  1.00  0.00     0.074 A 
ATOM     29  C   UNL A   1      43.060  31.362  32.614  1.00  0.00     0.029 A 
ATOM     30  N   UNL A   1      44.192  29.503  32.321  1.00  0.00    -0.354 N 
ATOM     31  N   UNL A   1      44.808  27.847  28.340  1.00  0.00    -0.248 NA
ATOM     32  C   UNL A   1      44.072  26.116  29.712  1.00  0.00     0.031 C 
ATOM     33  C   UNL A   1      43.890  31.480  31.461  1.00  0.00     0.029 A 
ATOM     34  C   UNL A   1      44.388  30.211  31.162  1.00  0.00     0.049 A 
ATOM     35  H   UNL A   1      44.755  28.772  32.664  1.00  0.00     0.167 HD
ATOM     36  C   UNL A   1      44.847  28.301  29.648  1.00  0.00     0.074 A 
ATOM     37  C   UNL A   1      44.482  27.144  30.459  1.00  0.00     0.031 C 
ATOM     38  C   UNL A   1      44.898  29.637  29.932  1.00  0.00     0.034 A 
BRANCH  25  39
ATOM     39  C   UNL A   1      42.401  28.054  34.467  1.00  0.00     0.023 A 
ATOM     40  C   UNL A   1      43.152  26.932  34.068  1.00  0.00     0.031 A 
ATOM     41  C   UNL A   1      41.809  27.968  35.749  1.00  0.00     0.131 A 
ATOM     42  C   UNL A   1      43.211  25.777  34.866  1.00  0.00     0.055 A 
ATOM     43  C   UNL A   1      41.943  26.849  36.575  1.00  0.00     0.041 A 
ATOM     44  F   UNL A   1      40.989  28.907  36.234  1.00  0.00    -0.206 F 
ATOM     45  C   UNL A   1      42.619  25.730  36.123  1.00  0.00     0.022 A 
BRANCH  42  46
ATOM     46  S   UNL A   1      43.908  24.270  34.141  1.00  0.00     0.124 S 
ATOM     47  O   UNL A   1      42.820  23.319  34.341  1.00  0.00    -0.237 OA
ATOM     48  O   UNL A   1      44.156  24.687  32.764  1.00  0.00    -0.237 OA
ATOM     49  O   UNL A   1      45.103  24.030  34.946  1.00  0.00    -0.744 OA
ENDBRANCH  42  46
ENDBRANCH  25  39
BRANCH  26  50
ATOM     50  C   UNL A   1      43.303  24.960  26.658  1.00  0.00     0.023 A 
ATOM     51  C   UNL A   1      42.503  23.847  27.003  1.00  0.00     0.031 A 
ATOM     52  C   UNL A   1      44.047  24.855  25.463  1.00  0.00     0.131 A 
ATOM     53  C   UNL A   1      42.477  22.701  26.171  1.00  0.00     0.055 A 
ATOM     54  C   UNL A   1      44.026  23.720  24.651  1.00  0.00     0.041 A 
ATOM     55  F   UNL A   1      44.754  25.895  24.992  1.00  0.00    -0.206 F 
ATOM     56  C   UNL A   1      43.234  22.639  24.998  1.00  0.00     0.022 A 
BRANCH  53  57
ATOM     57  S   UNL A   1      41.370  21.303  26.551  1.00  0.00     0.124 S 
ATOM     58  O   UNL A   1      42.111  20.166  26.021  1.00  0.00    -0.237 OA
ATOM     59  O   UNL A   1      41.249  21.383  28.001  1.00  0.00    -0.237 OA
ATOM     60  O   UNL A   1      40.145  21.632  25.818  1.00  0.00    -0.744 OA
ENDBRANCH  53  57
ENDBRANCH  26  50
BRANCH  38  61
ATOM     61  C   UNL A   1      45.268  30.601  28.827  1.00  0.00     0.023 A 
ATOM     62  C   UNL A   1      46.587  31.002  28.517  1.00  0.00     0.031 A 
ATOM     63  C   UNL A   1      44.237  31.035  27.975  1.00  0.00     0.131 A 
ATOM     64  C   UNL A   1      46.830  31.819  27.396  1.00  0.00     0.055 A 
ATOM     65  C   UNL A   1      44.484  31.827  26.854  1.00  0.00     0.041 A 
ATOM     66  F   UNL A   1      42.965  30.662  28.198  1.00  0.00    -0.206 F 
ATOM     67  C   UNL A   1      45.782  32.227  26.564  1.00  0.00     0.022 A 
BRANCH  64  68
ATOM     68  S   UNL A   1      48.522  32.367  27.002  1.00  0.00     0.124 S 
ATOM     69  O   UNL A   1      48.977  32.992  28.238  1.00  0.00    -0.237 OA
ATOM     70  O   UNL A   1      49.183  31.115  26.637  1.00  0.00    -0.237 OA
ATOM     71  O   UNL A   1      48.328  33.294  25.886  1.00  0.00    -0.744 OA
ENDBRANCH  64  68
ENDBRANCH  38  61
ENDBRANCH  12  13
ENDBRANCH   5   7
ENDBRANCH   2   3
ENDBRANCH   1   2
BRANCH   1  72
ATOM     72  C   UNL A   1      32.269  28.062  27.309  1.00  0.00     0.117 C 
BRANCH  72  73
ATOM     73  N   UNL A   1      31.173  27.141  27.075  1.00  0.00    -0.356 N 
ATOM     74  C   UNL A   1      31.059  26.163  26.135  1.00  0.00     0.224 C 
ATOM     75  H   UNL A   1      30.403  27.237  27.681  1.00  0.00     0.163 HD
ATOM     76  O   UNL A   1      30.438  25.155  26.496  1.00  0.00    -0.275 OA
BRANCH  74  77
ATOM     77  C   UNL A   1      31.497  26.271  24.668  1.00  0.00     0.098 C 
ATOM     78  C   UNL A   1      32.813  25.522  24.272  1.00  0.00     0.098 C 
ATOM     79  C   UNL A   1      31.309  27.524  23.756  1.00  0.00     0.025 C 
ATOM     80  C   UNL A   1      33.408  26.162  22.980  1.00  0.00     0.025 C 
ATOM     81  C   UNL A   1      32.588  28.326  23.619  1.00  0.00    -0.027 C 
ATOM     82  C   UNL A   1      31.091  26.995  22.305  1.00  0.00     0.009 C 
ATOM     83  C   UNL A   1      33.663  27.629  23.210  1.00  0.00    -0.027 C 
ATOM     84  C   UNL A   1      32.309  26.124  21.877  1.00  0.00     0.009 C 
BRANCH  78  85
ATOM     85  C   UNL A   1      33.876  25.012  25.280  1.00  0.00     0.228 C 
ATOM     86  O   UNL A   1      34.582  25.862  25.852  1.00  0.00    -0.274 OA
ATOM     87  N   UNL A   1      34.016  23.747  25.773  1.00  0.00    -0.326 N 
ATOM     88  H   UNL A   1      34.498  23.724  26.631  1.00  0.00     0.169 HD
BRANCH  87  89
ATOM     89  C   UNL A   1      33.631  22.474  25.337  1.00  0.00     0.041 A 
ATOM     90  C   UNL A   1      32.288  22.115  25.288  1.00  0.00     0.026 A 
ATOM     91  C   UNL A   1      34.557  21.517  24.998  1.00  0.00     0.026 A 
ATOM     92  C   UNL A   1      31.903  20.873  24.745  1.00  0.00     0.008 A 
ATOM     93  C   UNL A   1      34.200  20.269  24.485  1.00  0.00     0.008 A 
ATOM     94  C   UNL A   1      32.860  19.943  24.310  1.00  0.00    -0.026 A 
BRANCH  94  95
ATOM     95  C   UNL A   1      32.507  18.658  23.598  1.00  0.00     0.181 C 
BRANCH  95  96
ATOM     96  N   UNL A   1      33.120  17.470  24.165  1.00  0.00    -0.249 N 
ATOM     97  C   UNL A   1      34.109  16.684  23.663  1.00  0.00     0.220 A 
ATOM     98  N   UNL A   1      32.836  17.106  25.426  1.00  0.00    -0.160 NA
ATOM     99  N   UNL A   1      34.436  15.759  24.536  1.00  0.00    -0.224 NA
ATOM    100  C   UNL A   1      33.628  16.048  25.593  1.00  0.00     0.246 A 
ENDBRANCH  95  96
ENDBRANCH  94  95
ENDBRANCH  87  89
ENDBRANCH  78  85
ENDBRANCH  74  77
ENDBRANCH  72  73
ENDBRANCH   1  72
TORSDOF 17
ENDMDL
MODEL 2
REMARK VINA RESULT:     -13.7      1.308      1.630
REMARK SMILES O=C(NCCCNC(=O)[C@@H]1[C@H](C(=O)Nc2ccc(Cn3cncn3)cc2)[C@@H]2C=C[C@H]1CC2)c1ccc(-c2c3nc(c(-c4cc(S(=O)(=O)[O-])ccc4F)c4ccc([nH]4)c(-c4cc(S(=O)(=O)[O-])ccc4F)c4nc(c(-c5cc(S(=O)(=O)[O-])ccc5F)c5ccc2[nH]5)C=C4)C=C3)cc1
REMARK SMILES IDX 5 1 4 2 3 3 1 4 2 5 33 7 34 8 95 9 35 10 94 11 36 12 37 13
REMARK SMILES IDX 38 14 88 15 39 16 93 17 87 18 89 19 40 20 92 21 86 22 85 23
REMARK SMILES IDX 41 25 73 26 53 27 72 28 54 29 57 30 71 31 90 32 55 33 56 34
REMARK SMILES IDX 70 36 91 37 58 38 42 39 43 40 51 41 44 42 50 43 52 44 49 45
REMARK SMILES IDX 45 46 46 47 47 48 48 49 74 50 75 51 83 52 76 53 82 54 84 55
REMARK SMILES IDX 81 56 77 57 78 58 79 59 80 60 59 61 60 62 68 63 61 64 67 65
REMARK SMILES IDX 69 66 66 67 62 68 63 69 64 70 65 71 6 72 7 73 8 74 9 76
REMARK SMILES IDX 10 77 11 78 30 79 27 80 29 81 31 82 28 83 32 84 12 85 13 86
REMARK SMILES IDX 14 87 15 89 16 90 26 91 17 92 25 93 18 94 19 95 20 96 21 97
REMARK SMILES IDX 24 98 22 99 23 100
REMARK H PARENT 3 6 89 24 57 35 7 75 14 88
REMARK Flexibility Score: inf
ROOT
ATOM      1  C   UNL A   1      31.920  29.711  27.119  1.00  0.00     0.042 C 
ENDROOT
BRANCH   1   2
ATOM      2  C   UNL A   1      33.204  30.479  26.772  1.00  0.00     0.118 C 
BRANCH   2   3
ATOM      3  N   UNL A   1      33.783  31.212  27.889  1.00  0.00    -0.352 N 
ATOM      4  O   UNL A   1      35.088  33.036  27.714  1.00  0.00    -0.269 OA
ATOM      5  C   UNL A   1      35.018  31.811  27.826  1.00  0.00     0.251 C 
ATOM      6  H   UNL A   1      33.267  31.281  28.725  1.00  0.00     0.163 HD
BRANCH   5   7
ATOM      7  C   UNL A   1      36.213  30.996  28.155  1.00  0.00     0.039 A 
ATOM      8  C   UNL A   1      36.257  29.602  28.084  1.00  0.00     0.014 A 
ATOM      9  C   UNL A   1      37.317  31.690  28.660  1.00  0.00     0.014 A 
ATOM     10  C   UNL A   1      37.381  28.915  28.550  1.00  0.00     0.010 A 
ATOM     11  C   UNL A   1      38.403  31.006  29.196  1.00  0.00     0.010 A 
ATOM     12  C   UNL A   1      38.448  29.615  29.124  1.00  0.00    -0.014 A 
BRANCH  12  13
ATOM     13  C   UNL A   1      39.723  28.928  29.341  1.00  0.00     0.031 A 
ATOM     14  C   UNL A   1      40.089  28.809  30.780  1.00  0.00     0.074 A 
ATOM     15  C   UNL A   1      40.469  28.273  28.431  1.00  0.00     0.049 A 
ATOM     16  N   UNL A   1      41.018  29.442  31.419  1.00  0.00    -0.248 NA
ATOM     17  C   UNL A   1      39.227  27.986  31.642  1.00  0.00     0.031 C 
ATOM     18  C   UNL A   1      40.134  27.952  27.047  1.00  0.00     0.029 A 
ATOM     19  N   UNL A   1      41.676  27.655  28.615  1.00  0.00    -0.354 N 
ATOM     20  C   UNL A   1      40.982  28.951  32.722  1.00  0.00     0.074 A 
ATOM     21  C   UNL A   1      39.742  28.237  32.844  1.00  0.00     0.031 C 
ATOM     22  C   UNL A   1      41.018  27.037  26.579  1.00  0.00     0.029 A 
ATOM     23  C   UNL A   1      42.043  26.795  27.586  1.00  0.00     0.049 A 
ATOM     24  H   UNL A   1      42.237  27.806  29.409  1.00  0.00     0.167 HD
ATOM     25  C   UNL A   1      42.072  28.980  33.538  1.00  0.00     0.034 A 
ATOM     26  C   UNL A   1      43.073  25.905  27.592  1.00  0.00     0.034 A 
ATOM     27  C   UNL A   1      43.097  29.851  33.016  1.00  0.00     0.049 A 
ATOM     28  C   UNL A   1      44.046  26.349  28.621  1.00  0.00     0.074 A 
ATOM     29  C   UNL A   1      43.154  31.188  32.663  1.00  0.00     0.029 A 
ATOM     30  N   UNL A   1      44.208  29.274  32.442  1.00  0.00    -0.354 N 
ATOM     31  N   UNL A   1      44.750  27.443  28.527  1.00  0.00    -0.248 NA
ATOM     32  C   UNL A   1      43.945  25.797  29.963  1.00  0.00     0.031 C 
ATOM     33  C   UNL A   1      43.987  31.228  31.507  1.00  0.00     0.029 A 
ATOM     34  C   UNL A   1      44.432  29.928  31.256  1.00  0.00     0.049 A 
ATOM     35  H   UNL A   1      44.740  28.533  32.812  1.00  0.00     0.167 HD
ATOM     36  C   UNL A   1      44.809  27.944  29.817  1.00  0.00     0.074 A 
ATOM     37  C   UNL A   1      44.398  26.836  30.671  1.00  0.00     0.031 C 
ATOM     38  C   UNL A   1      44.916  29.287  30.050  1.00  0.00     0.034 A 
BRANCH  25  39
ATOM     39  C   UNL A   1      42.360  27.983  34.640  1.00  0.00     0.023 A 
ATOM     40  C   UNL A   1      43.083  26.826  34.289  1.00  0.00     0.031 A 
ATOM     41  C   UNL A   1      41.753  27.959  35.917  1.00  0.00     0.131 A 
ATOM     42  C   UNL A   1      43.099  25.699  35.127  1.00  0.00     0.055 A 
ATOM     43  C   UNL A   1      41.844  26.866  36.783  1.00  0.00     0.041 A 
ATOM     44  F   UNL A   1      40.956  28.937  36.361  1.00  0.00    -0.206 F 
ATOM     45  C   UNL A   1      42.492  25.713  36.378  1.00  0.00     0.022 A 
BRANCH  42  46
ATOM     46  S   UNL A   1      43.759  24.148  34.462  1.00  0.00     0.124 S 
ATOM     47  O   UNL A   1      44.821  23.848  35.417  1.00  0.00    -0.237 OA
ATOM     48  O   UNL A   1      42.587  23.280  34.507  1.00  0.00    -0.237 OA
ATOM     49  O   UNL A   1      44.210  24.521  33.124  1.00  0.00    -0.744 OA
ENDBRANCH  42  46
ENDBRANCH  25  39
BRANCH  26  50
ATOM     50  C   UNL A   1      43.124  24.559  26.956  1.00  0.00     0.023 A 
ATOM     51  C   UNL A   1      44.060  24.218  25.955  1.00  0.00     0.031 A 
ATOM     52  C   UNL A   1      42.385  23.495  27.517  1.00  0.00     0.131 A 
ATOM     53  C   UNL A   1      44.219  22.868  25.556  1.00  0.00     0.055 A 
ATOM     54  C   UNL A   1      42.538  22.167  27.114  1.00  0.00     0.041 A 
ATOM     55  F   UNL A   1      41.548  23.697  28.547  1.00  0.00    -0.206 F 
ATOM     56  C   UNL A   1      43.463  21.846  26.135  1.00  0.00     0.022 A 
BRANCH  53  57
ATOM     57  S   UNL A   1      45.497  22.404  24.340  1.00  0.00     0.124 S 
ATOM     58  O   UNL A   1      46.390  21.567  25.132  1.00  0.00    -0.237 OA
ATOM     59  O   UNL A   1      44.719  21.730  23.308  1.00  0.00    -0.237 OA
ATOM     60  O   UNL A   1      46.063  23.692  23.933  1.00  0.00    -0.744 OA
ENDBRANCH  53  57
ENDBRANCH  26  50
BRANCH  38  61
ATOM     61  C   UNL A   1      45.325  30.192  28.909  1.00  0.00     0.023 A 
ATOM     62  C   UNL A   1      46.657  30.545  28.599  1.00  0.00     0.031 A 
ATOM     63  C   UNL A   1      44.316  30.615  28.025  1.00  0.00     0.131 A 
ATOM     64  C   UNL A   1      46.935  31.306  27.448  1.00  0.00     0.055 A 
ATOM     65  C   UNL A   1      44.597  31.350  26.875  1.00  0.00     0.041 A 
ATOM     66  F   UNL A   1      43.032  30.285  28.248  1.00  0.00    -0.206 F 
ATOM     67  C   UNL A   1      45.908  31.704  26.585  1.00  0.00     0.022 A 
BRANCH  64  68
ATOM     68  S   UNL A   1      48.645  31.792  27.053  1.00  0.00     0.124 S 
ATOM     69  O   UNL A   1      49.240  30.566  26.537  1.00  0.00    -0.237 OA
ATOM     70  O   UNL A   1      48.453  32.868  26.082  1.00  0.00    -0.237 OA
ATOM     71  O   UNL A   1      49.180  32.233  28.343  1.00  0.00    -0.744 OA
ENDBRANCH  64  68
ENDBRANCH  38  61
ENDBRANCH  12  13
ENDBRANCH   5   7
ENDBRANCH   2   3
ENDBRANCH   1   2
BRANCH   1  72
ATOM     72  C   UNL A   1      32.161  28.250  27.480  1.00  0.00     0.117 C 
BRANCH  72  73
ATOM     73  N   UNL A   1      31.041  27.357  27.257  1.00  0.00    -0.356 N 
ATOM     74  C   UNL A   1      30.871  26.420  26.284  1.00  0.00     0.224 C 
ATOM     75  H   UNL A   1      30.300  27.440  27.899  1.00  0.00     0.163 HD
ATOM     76  O   UNL A   1      30.249  25.407  26.631  1.00  0.00    -0.275 OA
BRANCH  74  77
ATOM     77  C   UNL A   1      31.248  26.580  24.805  1.00  0.00     0.098 C 
ATOM     78  C   UNL A   1      32.627  25.985  24.365  1.00  0.00     0.098 C 
ATOM     79  C   UNL A   1      30.891  27.805  23.907  1.00  0.00     0.025 C 
ATOM     80  C   UNL A   1      33.106  26.692  23.059  1.00  0.00     0.025 C 
ATOM     81  C   UNL A   1      32.066  28.748  23.736  1.00  0.00    -0.027 C 
ATOM     82  C   UNL A   1      30.689  27.259  22.460  1.00  0.00     0.009 C 
ATOM     83  C   UNL A   1      33.200  28.178  23.290  1.00  0.00    -0.027 C 
ATOM     84  C   UNL A   1      31.985  26.532  21.990  1.00  0.00     0.009 C 
BRANCH  78  85
ATOM     85  C   UNL A   1      33.772  25.597  25.337  1.00  0.00     0.228 C 
ATOM     86  O   UNL A   1      34.420  26.520  25.862  1.00  0.00    -0.274 OA
ATOM     87  N   UNL A   1      34.046  24.361  25.848  1.00  0.00    -0.326 N 
ATOM     88  H   UNL A   1      34.563  24.401  26.685  1.00  0.00     0.169 HD
BRANCH  87  89
ATOM     89  C   UNL A   1      33.762  23.049  25.453  1.00  0.00     0.041 A 
ATOM     90  C   UNL A   1      33.676  22.026  26.392  1.00  0.00     0.026 A 
ATOM     91  C   UNL A   1      33.616  22.710  24.130  1.00  0.00     0.026 A 
ATOM     92  C   UNL A   1      33.283  20.732  25.999  1.00  0.00     0.008 A 
ATOM     93  C   UNL A   1      33.254  21.427  23.714  1.00  0.00     0.008 A 
ATOM     94  C   UNL A   1      33.039  20.424  24.652  1.00  0.00    -0.026 A 
BRANCH  94  95
ATOM     95  C   UNL A   1      32.486  19.096  24.188  1.00  0.00     0.181 C 
BRANCH  95  96
ATOM     96  N   UNL A   1      33.213  17.939  24.677  1.00  0.00    -0.249 N 
ATOM     97  C   UNL A   1      32.769  16.888  25.417  1.00  0.00     0.220 A 
ATOM     98  N   UNL A   1      34.472  17.715  24.266  1.00  0.00    -0.160 NA
ATOM     99  N   UNL A   1      33.730  16.007  25.570  1.00  0.00    -0.224 NA
ATOM    100  C   UNL A   1      34.754  16.555  24.859  1.00  0.00     0.246 A 
ENDBRANCH  95  96
ENDBRANCH  94  95
ENDBRANCH  87  89
ENDBRANCH  78  85
ENDBRANCH  74  77
ENDBRANCH  72  73
ENDBRANCH   1  72
TORSDOF 17
ENDMDL
MODEL 3
REMARK VINA RESULT:     -13.7      1.885      4.472
REMARK SMILES O=C(NCCCNC(=O)[C@@H]1[C@H](C(=O)Nc2ccc(Cn3cncn3)cc2)[C@@H]2C=C[C@H]1CC2)c1ccc(-c2c3nc(c(-c4cc(S(=O)(=O)[O-])ccc4F)c4ccc([nH]4)c(-c4cc(S(=O)(=O)[O-])ccc4F)c4nc(c(-c5cc(S(=O)(=O)[O-])ccc5F)c5ccc2[nH]5)C=C4)C=C3)cc1
REMARK SMILES IDX 5 1 4 2 3 3 1 4 2 5 33 7 34 8 95 9 35 10 94 11 36 12 37 13
REMARK SMILES IDX 38 14 88 15 39 16 93 17 87 18 89 19 40 20 92 21 86 22 85 23
REMARK SMILES IDX 41 25 73 26 53 27 72 28 54 29 57 30 71 31 90 32 55 33 56 34
REMARK SMILES IDX 70 36 91 37 58 38 42 39 43 40 51 41 44 42 50 43 52 44 49 45
REMARK SMILES IDX 45 46 46 47 47 48 48 49 74 50 75 51 83 52 76 53 82 54 84 55
REMARK SMILES IDX 81 56 77 57 78 58 79 59 80 60 59 61 60 62 68 63 61 64 67 65
REMARK SMILES IDX 69 66 66 67 62 68 63 69 64 70 65 71 6 72 7 73 8 74 9 76
REMARK SMILES IDX 10 77 11 78 30 79 27 80 29 81 31 82 28 83 32 84 12 85 13 86
REMARK SMILES IDX 14 87 15 89 16 90 26 91 17 92 25 93 18 94 19 95 20 96 21 97
REMARK SMILES IDX 24 98 22 99 23 100
REMARK H PARENT 3 6 89 24 57 35 7 75 14 88
REMARK Flexibility Score: inf
ROOT
ATOM      1  C   UNL A   1      32.367  28.583  27.232  1.00  0.00     0.042 C 
ENDROOT
BRANCH   1   2
ATOM      2  C   UNL A   1      33.051  29.876  26.762  1.00  0.00     0.118 C 
BRANCH   2   3
ATOM      3  N   UNL A   1      33.594  30.691  27.839  1.00  0.00    -0.352 N 
ATOM      4  O   UNL A   1      34.701  32.631  27.573  1.00  0.00    -0.269 OA
ATOM      5  C   UNL A   1      34.759  31.409  27.714  1.00  0.00     0.251 C 
ATOM      6  H   UNL A   1      33.105  30.730  28.693  1.00  0.00     0.163 HD
BRANCH   5   7
ATOM      7  C   UNL A   1      36.042  30.725  28.014  1.00  0.00     0.039 A 
ATOM      8  C   UNL A   1      36.254  29.353  27.865  1.00  0.00     0.014 A 
ATOM      9  C   UNL A   1      37.050  31.517  28.573  1.00  0.00     0.014 A 
ATOM     10  C   UNL A   1      37.449  28.780  28.308  1.00  0.00     0.010 A 
ATOM     11  C   UNL A   1      38.207  30.939  29.084  1.00  0.00     0.010 A 
ATOM     12  C   UNL A   1      38.420  29.570  28.936  1.00  0.00    -0.014 A 
BRANCH  12  13
ATOM     13  C   UNL A   1      39.766  29.030  29.132  1.00  0.00     0.031 A 
ATOM     14  C   UNL A   1      40.145  28.901  30.566  1.00  0.00     0.074 A 
ATOM     15  C   UNL A   1      40.583  28.499  28.201  1.00  0.00     0.049 A 
ATOM     16  N   UNL A   1      40.994  29.615  31.231  1.00  0.00    -0.248 NA
ATOM     17  C   UNL A   1      39.387  27.952  31.395  1.00  0.00     0.031 C 
ATOM     18  C   UNL A   1      40.286  28.192  26.805  1.00  0.00     0.029 A 
ATOM     19  N   UNL A   1      41.855  28.021  28.366  1.00  0.00    -0.354 N 
ATOM     20  C   UNL A   1      41.017  29.077  32.515  1.00  0.00     0.074 A 
ATOM     21  C   UNL A   1      39.870  28.218  32.607  1.00  0.00     0.031 C 
ATOM     22  C   UNL A   1      41.271  27.405  26.307  1.00  0.00     0.029 A 
ATOM     23  C   UNL A   1      42.319  27.248  27.307  1.00  0.00     0.049 A 
ATOM     24  H   UNL A   1      42.395  28.208  29.167  1.00  0.00     0.167 HD
ATOM     25  C   UNL A   1      42.097  29.204  33.335  1.00  0.00     0.034 A 
ATOM     26  C   UNL A   1      43.446  26.485  27.285  1.00  0.00     0.034 A 
ATOM     27  C   UNL A   1      43.012  30.207  32.848  1.00  0.00     0.049 A 
ATOM     28  C   UNL A   1      44.362  27.002  28.332  1.00  0.00     0.074 A 
ATOM     29  C   UNL A   1      42.913  31.553  32.545  1.00  0.00     0.029 A 
ATOM     30  N   UNL A   1      44.183  29.785  32.257  1.00  0.00    -0.354 N 
ATOM     31  N   UNL A   1      44.932  28.174  28.281  1.00  0.00    -0.248 NA
ATOM     32  C   UNL A   1      44.327  26.394  29.653  1.00  0.00     0.031 C 
ATOM     33  C   UNL A   1      43.734  31.732  31.393  1.00  0.00     0.029 A 
ATOM     34  C   UNL A   1      44.327  30.504  31.097  1.00  0.00     0.049 A 
ATOM     35  H   UNL A   1      44.798  29.099  32.602  1.00  0.00     0.167 HD
ATOM     36  C   UNL A   1      44.933  28.632  29.588  1.00  0.00     0.074 A 
ATOM     37  C   UNL A   1      44.656  27.452  30.400  1.00  0.00     0.031 C 
ATOM     38  C   UNL A   1      44.882  29.968  29.870  1.00  0.00     0.034 A 
BRANCH  25  39
ATOM     39  C   UNL A   1      42.502  28.207  34.401  1.00  0.00     0.023 A 
ATOM     40  C   UNL A   1      43.215  27.068  33.980  1.00  0.00     0.031 A 
ATOM     41  C   UNL A   1      42.009  28.165  35.726  1.00  0.00     0.131 A 
ATOM     42  C   UNL A   1      43.328  25.937  34.807  1.00  0.00     0.055 A 
ATOM     43  C   UNL A   1      42.199  27.069  36.574  1.00  0.00     0.041 A 
ATOM     44  F   UNL A   1      41.233  29.123  36.244  1.00  0.00    -0.206 F 
ATOM     45  C   UNL A   1      42.832  25.933  36.105  1.00  0.00     0.022 A 
BRANCH  42  46
ATOM     46  S   UNL A   1      43.960  24.404  34.077  1.00  0.00     0.124 S 
ATOM     47  O   UNL A   1      44.095  24.782  32.674  1.00  0.00    -0.237 OA
ATOM     48  O   UNL A   1      45.203  24.210  34.816  1.00  0.00    -0.237 OA
ATOM     49  O   UNL A   1      42.905  23.435  34.363  1.00  0.00    -0.744 OA
ENDBRANCH  42  46
ENDBRANCH  25  39
BRANCH  26  50
ATOM     50  C   UNL A   1      43.654  25.178  26.600  1.00  0.00     0.023 A 
ATOM     51  C   UNL A   1      42.890  24.028  26.895  1.00  0.00     0.031 A 
ATOM     52  C   UNL A   1      44.468  25.117  25.448  1.00  0.00     0.131 A 
ATOM     53  C   UNL A   1      42.966  22.887  26.058  1.00  0.00     0.055 A 
ATOM     54  C   UNL A   1      44.548  23.987  24.632  1.00  0.00     0.041 A 
ATOM     55  F   UNL A   1      45.151  26.191  25.022  1.00  0.00    -0.206 F 
ATOM     56  C   UNL A   1      43.789  22.867  24.930  1.00  0.00     0.022 A 
BRANCH  53  57
ATOM     57  S   UNL A   1      41.906  21.436  26.370  1.00  0.00     0.124 S 
ATOM     58  O   UNL A   1      40.586  21.929  25.999  1.00  0.00    -0.237 OA
ATOM     59  O   UNL A   1      42.491  20.425  25.497  1.00  0.00    -0.237 OA
ATOM     60  O   UNL A   1      42.088  21.183  27.801  1.00  0.00    -0.744 OA
ENDBRANCH  53  57
ENDBRANCH  26  50
BRANCH  38  61
ATOM     61  C   UNL A   1      45.181  30.956  28.763  1.00  0.00     0.023 A 
ATOM     62  C   UNL A   1      46.471  31.430  28.434  1.00  0.00     0.031 A 
ATOM     63  C   UNL A   1      44.114  31.337  27.930  1.00  0.00     0.131 A 
ATOM     64  C   UNL A   1      46.650  32.264  27.314  1.00  0.00     0.055 A 
ATOM     65  C   UNL A   1      44.298  32.145  26.810  1.00  0.00     0.041 A 
ATOM     66  F   UNL A   1      42.868  30.894  28.173  1.00  0.00    -0.206 F 
ATOM     67  C   UNL A   1      45.567  32.618  26.501  1.00  0.00     0.022 A 
BRANCH  64  68
ATOM     68  S   UNL A   1      48.302  32.905  26.895  1.00  0.00     0.124 S 
ATOM     69  O   UNL A   1      48.740  33.554  28.124  1.00  0.00    -0.237 OA
ATOM     70  O   UNL A   1      49.027  31.692  26.519  1.00  0.00    -0.237 OA
ATOM     71  O   UNL A   1      48.040  33.820  25.783  1.00  0.00    -0.744 OA
ENDBRANCH  64  68
ENDBRANCH  38  61
ENDBRANCH  12  13
ENDBRANCH   5   7
ENDBRANCH   2   3
ENDBRANCH   1   2
BRANCH   1  72
ATOM     72  C   UNL A   1      32.870  27.333  26.522  1.00  0.00     0.117 C 
BRANCH  72  73
ATOM     73  N   UNL A   1      31.975  26.192  26.552  1.00  0.00    -0.356 N 
ATOM     74  C   UNL A   1      32.274  24.871  26.682  1.00  0.00     0.224 C 
ATOM     75  H   UNL A   1      31.018  26.404  26.466  1.00  0.00     0.163 HD
ATOM     76  O   UNL A   1      31.443  24.202  27.312  1.00  0.00    -0.275 OA
BRANCH  74  77
ATOM     77  C   UNL A   1      33.443  24.141  26.006  1.00  0.00     0.098 C 
ATOM     78  C   UNL A   1      33.116  23.361  24.690  1.00  0.00     0.098 C 
ATOM     79  C   UNL A   1      34.630  23.450  26.748  1.00  0.00     0.025 C 
ATOM     80  C   UNL A   1      34.197  22.261  24.454  1.00  0.00     0.025 C 
ATOM     81  C   UNL A   1      34.457  21.946  26.820  1.00  0.00    -0.027 C 
ATOM     82  C   UNL A   1      35.882  23.598  25.830  1.00  0.00     0.009 C 
ATOM     83  C   UNL A   1      34.246  21.334  25.641  1.00  0.00    -0.027 C 
ATOM     84  C   UNL A   1      35.592  22.955  24.442  1.00  0.00     0.009 C 
BRANCH  78  85
ATOM     85  C   UNL A   1      31.689  22.962  24.231  1.00  0.00     0.228 C 
ATOM     86  O   UNL A   1      31.358  21.769  24.351  1.00  0.00    -0.274 OA
ATOM     87  N   UNL A   1      30.665  23.794  23.881  1.00  0.00    -0.326 N 
ATOM     88  H   UNL A   1      29.782  23.368  23.970  1.00  0.00     0.169 HD
BRANCH  87  89
ATOM     89  C   UNL A   1      30.583  25.113  23.423  1.00  0.00     0.041 A 
ATOM     90  C   UNL A   1      29.603  25.974  23.908  1.00  0.00     0.026 A 
ATOM     91  C   UNL A   1      31.420  25.591  22.444  1.00  0.00     0.026 A 
ATOM     92  C   UNL A   1      29.596  27.330  23.524  1.00  0.00     0.008 A 
ATOM     93  C   UNL A   1      31.413  26.923  22.027  1.00  0.00     0.008 A 
ATOM     94  C   UNL A   1      30.523  27.827  22.596  1.00  0.00    -0.026 A 
BRANCH  94  95
ATOM     95  C   UNL A   1      30.651  29.293  22.250  1.00  0.00     0.181 C 
BRANCH  95  96
ATOM     96  N   UNL A   1      29.418  30.050  22.380  1.00  0.00    -0.249 N 
ATOM     97  C   UNL A   1      28.997  30.849  23.397  1.00  0.00     0.220 A 
ATOM     98  N   UNL A   1      28.581  30.153  21.334  1.00  0.00    -0.160 NA
ATOM     99  N   UNL A   1      27.860  31.422  23.078  1.00  0.00    -0.224 NA
ATOM    100  C   UNL A   1      27.638  30.963  21.815  1.00  0.00     0.246 A 
ENDBRANCH  95  96
ENDBRANCH  94  95
ENDBRANCH  87  89
ENDBRANCH  78  85
ENDBRANCH  74  77
ENDBRANCH  72  73
ENDBRANCH   1  72
TORSDOF 17
ENDMDL
