MODEL 1
REMARK VINA RESULT:     -12.6      0.000      0.000
REMARK SMILES C[C@H]1CC=C(C2=NN=C(C(=O)NCCCNC(=O)c3ccc(-c4c5nc(c(-c6cc(S(=O)(=O)[O-])ccc6F)c6ccc([nH]6)c(-c6cc(S(=O)(=O)[O-])ccc6F)c6nc(c(-c7cc(S(=O)(=O)[O-])ccc7F)c7ccc4[nH]7)C=C6)C=C5)cc3)C2)O1
REMARK SMILES IDX 15 1 14 2 13 3 12 4 10 5 11 6 9 8 6 9 7 10 82 11 8 12 5 13
REMARK SMILES IDX 1 14 2 15 3 16 83 17 4 18 16 19 17 20 18 22 19 23 20 24
REMARK SMILES IDX 81 25 21 26 80 27 22 28 23 29 24 30 74 31 25 32 79 33 73 34
REMARK SMILES IDX 75 35 26 36 78 37 72 38 71 39 27 41 59 42 39 43 58 44 40 45
REMARK SMILES IDX 43 46 57 47 76 48 41 49 42 50 56 52 77 53 44 54 28 55 29 56
REMARK SMILES IDX 37 57 30 58 36 59 38 60 35 61 31 62 32 63 33 64 34 65 60 66
REMARK SMILES IDX 61 67 69 68 62 69 68 70 70 71 67 72 63 73 64 74 65 75 66 76
REMARK SMILES IDX 45 77 46 78 54 79 47 80 53 81 55 82 52 83 48 84 49 85 50 86
REMARK SMILES IDX 51 87
REMARK H PARENT 12 7 16 21 75 40 43 51
REMARK Flexibility Score: inf
ROOT
ATOM      1  C   UNL A   1      35.011  28.991  27.333  1.00  0.00     0.118 C 
ENDROOT
BRANCH   1   2
ATOM      2  C   UNL A   1      33.535  28.792  27.009  1.00  0.00     0.042 C 
BRANCH   2   3
ATOM      3  C   UNL A   1      33.264  27.422  26.383  1.00  0.00     0.118 C 
BRANCH   3   4
ATOM      4  N   UNL A   1      31.939  27.328  25.784  1.00  0.00    -0.351 N 
ATOM      5  C   UNL A   1      31.120  26.240  25.611  1.00  0.00     0.267 C 
ATOM      6  O   UNL A   1      30.005  26.366  25.115  1.00  0.00    -0.268 OA
ATOM      7  H   UNL A   1      31.573  28.180  25.452  1.00  0.00     0.163 HD
BRANCH   5   8
ATOM      8  C   UNL A   1      31.523  24.863  26.054  1.00  0.00     0.134 C 
ATOM      9  C   UNL A   1      32.257  22.758  26.003  1.00  0.00     0.111 C 
ATOM     10  N   UNL A   1      31.763  22.988  27.183  1.00  0.00    -0.151 NA
ATOM     11  C   UNL A   1      32.210  23.946  25.101  1.00  0.00     0.126 C 
ATOM     12  N   UNL A   1      31.315  24.338  27.223  1.00  0.00    -0.149 NA
BRANCH   9  13
ATOM     13  C   UNL A   1      32.773  21.464  25.537  1.00  0.00     0.139 C 
ATOM     14  C   UNL A   1      32.419  18.510  23.793  1.00  0.00     0.053 C 
ATOM     15  C   UNL A   1      32.844  19.299  25.022  1.00  0.00     0.174 C 
ATOM     16  C   UNL A   1      34.262  19.868  24.882  1.00  0.00     0.076 C 
ATOM     17  O   UNL A   1      31.931  20.399  25.247  1.00  0.00    -0.489 OA
ATOM     18  C   UNL A   1      34.076  21.239  25.395  1.00  0.00     0.025 C 
ENDBRANCH   9  13
ENDBRANCH   5   8
ENDBRANCH   3   4
ENDBRANCH   2   3
ENDBRANCH   1   2
BRANCH   1  19
ATOM     19  N   UNL A   1      35.229  29.917  28.450  1.00  0.00    -0.352 N 
ATOM     20  C   UNL A   1      36.287  29.963  29.343  1.00  0.00     0.251 C 
ATOM     21  H   UNL A   1      34.529  30.596  28.583  1.00  0.00     0.163 HD
ATOM     22  O   UNL A   1      36.180  30.562  30.399  1.00  0.00    -0.269 OA
BRANCH  20  23
ATOM     23  C   UNL A   1      37.540  29.264  28.991  1.00  0.00     0.039 A 
ATOM     24  C   UNL A   1      38.262  29.594  27.840  1.00  0.00     0.014 A 
ATOM     25  C   UNL A   1      38.007  28.290  29.865  1.00  0.00     0.014 A 
ATOM     26  C   UNL A   1      39.508  29.000  27.635  1.00  0.00     0.010 A 
ATOM     27  C   UNL A   1      39.295  27.838  29.751  1.00  0.00     0.010 A 
ATOM     28  C   UNL A   1      40.031  28.139  28.611  1.00  0.00    -0.014 A 
BRANCH  28  29
ATOM     29  C   UNL A   1      41.404  27.640  28.533  1.00  0.00     0.031 A 
ATOM     30  C   UNL A   1      41.563  26.382  27.753  1.00  0.00     0.074 A 
ATOM     31  C   UNL A   1      42.470  28.389  28.896  1.00  0.00     0.049 A 
ATOM     32  N   UNL A   1      41.945  25.228  28.186  1.00  0.00    -0.248 NA
ATOM     33  C   UNL A   1      41.101  26.359  26.353  1.00  0.00     0.031 C 
ATOM     34  C   UNL A   1      42.476  29.773  29.385  1.00  0.00     0.029 A 
ATOM     35  N   UNL A   1      43.798  28.126  28.759  1.00  0.00    -0.354 N 
ATOM     36  C   UNL A   1      42.019  24.399  27.069  1.00  0.00     0.074 A 
ATOM     37  C   UNL A   1      41.284  25.075  26.034  1.00  0.00     0.031 C 
ATOM     38  C   UNL A   1      43.710  30.301  29.233  1.00  0.00     0.029 A 
ATOM     39  C   UNL A   1      44.616  29.253  28.798  1.00  0.00     0.049 A 
ATOM     40  H   UNL A   1      44.152  27.214  28.641  1.00  0.00     0.167 HD
ATOM     41  C   UNL A   1      42.892  23.352  27.025  1.00  0.00     0.034 A 
ATOM     42  C   UNL A   1      45.929  29.339  28.447  1.00  0.00     0.034 A 
ATOM     43  C   UNL A   1      43.397  23.049  28.348  1.00  0.00     0.049 A 
ATOM     44  C   UNL A   1      46.474  27.958  28.522  1.00  0.00     0.074 A 
ATOM     45  C   UNL A   1      42.801  22.747  29.559  1.00  0.00     0.029 A 
ATOM     46  N   UNL A   1      44.681  23.442  28.662  1.00  0.00    -0.354 N 
ATOM     47  N   UNL A   1      46.554  27.283  29.637  1.00  0.00    -0.248 NA
ATOM     48  C   UNL A   1      46.434  27.145  27.313  1.00  0.00     0.031 C 
ATOM     49  C   UNL A   1      43.548  23.490  30.522  1.00  0.00     0.029 A 
ATOM     50  C   UNL A   1      44.617  24.105  29.865  1.00  0.00     0.049 A 
ATOM     51  H   UNL A   1      45.492  23.277  28.127  1.00  0.00     0.167 HD
ATOM     52  C   UNL A   1      46.119  26.005  29.316  1.00  0.00     0.074 A 
ATOM     53  C   UNL A   1      46.153  25.954  27.853  1.00  0.00     0.031 C 
ATOM     54  C   UNL A   1      45.485  25.209  30.232  1.00  0.00     0.034 A 
BRANCH  41  55
ATOM     55  C   UNL A   1      43.580  22.838  25.777  1.00  0.00     0.023 A 
ATOM     56  C   UNL A   1      43.691  21.440  25.639  1.00  0.00     0.031 A 
ATOM     57  C   UNL A   1      44.374  23.602  24.892  1.00  0.00     0.131 A 
ATOM     58  C   UNL A   1      44.634  20.869  24.768  1.00  0.00     0.055 A 
ATOM     59  C   UNL A   1      45.257  23.028  23.972  1.00  0.00     0.041 A 
ATOM     60  F   UNL A   1      44.417  24.939  24.922  1.00  0.00    -0.206 F 
ATOM     61  C   UNL A   1      45.420  21.654  23.931  1.00  0.00     0.022 A 
BRANCH  58  62
ATOM     62  S   UNL A   1      44.954  19.091  24.900  1.00  0.00     0.124 S 
ATOM     63  O   UNL A   1      44.929  18.687  23.497  1.00  0.00    -0.237 OA
ATOM     64  O   UNL A   1      46.258  19.070  25.553  1.00  0.00    -0.237 OA
ATOM     65  O   UNL A   1      43.841  18.606  25.710  1.00  0.00    -0.744 OA
ENDBRANCH  58  62
ENDBRANCH  41  55
BRANCH  42  66
ATOM     66  C   UNL A   1      46.600  30.482  27.756  1.00  0.00     0.023 A 
ATOM     67  C   UNL A   1      45.905  31.454  27.001  1.00  0.00     0.031 A 
ATOM     68  C   UNL A   1      47.963  30.757  28.021  1.00  0.00     0.131 A 
ATOM     69  C   UNL A   1      46.573  32.622  26.544  1.00  0.00     0.055 A 
ATOM     70  C   UNL A   1      48.618  31.902  27.562  1.00  0.00     0.041 A 
ATOM     71  F   UNL A   1      48.694  29.956  28.814  1.00  0.00    -0.206 F 
ATOM     72  C   UNL A   1      47.923  32.844  26.826  1.00  0.00     0.022 A 
BRANCH  69  73
ATOM     73  S   UNL A   1      45.671  33.927  25.643  1.00  0.00     0.124 S 
ATOM     74  O   UNL A   1      46.744  34.625  24.946  1.00  0.00    -0.237 OA
ATOM     75  O   UNL A   1      44.750  33.157  24.814  1.00  0.00    -0.237 OA
ATOM     76  O   UNL A   1      45.029  34.698  26.709  1.00  0.00    -0.744 OA
ENDBRANCH  69  73
ENDBRANCH  42  66
BRANCH  54  77
ATOM     77  C   UNL A   1      45.495  25.608  31.698  1.00  0.00     0.023 A 
ATOM     78  C   UNL A   1      46.554  25.363  32.604  1.00  0.00     0.031 A 
ATOM     79  C   UNL A   1      44.427  26.403  32.154  1.00  0.00     0.131 A 
ATOM     80  C   UNL A   1      46.507  25.898  33.907  1.00  0.00     0.055 A 
ATOM     81  C   UNL A   1      44.397  26.953  33.435  1.00  0.00     0.041 A 
ATOM     82  F   UNL A   1      43.400  26.698  31.338  1.00  0.00    -0.206 F 
ATOM     83  C   UNL A   1      45.435  26.696  34.321  1.00  0.00     0.022 A 
BRANCH  80  84
ATOM     84  S   UNL A   1      47.830  25.548  35.113  1.00  0.00     0.124 S 
ATOM     85  O   UNL A   1      47.124  25.473  36.386  1.00  0.00    -0.237 OA
ATOM     86  O   UNL A   1      48.388  24.293  34.614  1.00  0.00    -0.237 OA
ATOM     87  O   UNL A   1      48.723  26.702  34.980  1.00  0.00    -0.744 OA
ENDBRANCH  80  84
ENDBRANCH  54  77
ENDBRANCH  28  29
ENDBRANCH  20  23
ENDBRANCH   1  19
TORSDOF 14
ENDMDL
MODEL 2
REMARK VINA RESULT:     -12.6      4.176      9.413
REMARK SMILES C[C@H]1CC=C(C2=NN=C(C(=O)NCCCNC(=O)c3ccc(-c4c5nc(c(-c6cc(S(=O)(=O)[O-])ccc6F)c6ccc([nH]6)c(-c6cc(S(=O)(=O)[O-])ccc6F)c6nc(c(-c7cc(S(=O)(=O)[O-])ccc7F)c7ccc4[nH]7)C=C6)C=C5)cc3)C2)O1
REMARK SMILES IDX 15 1 14 2 13 3 12 4 10 5 11 6 9 8 6 9 7 10 82 11 8 12 5 13
REMARK SMILES IDX 1 14 2 15 3 16 83 17 4 18 16 19 17 20 18 22 19 23 20 24
REMARK SMILES IDX 81 25 21 26 80 27 22 28 23 29 24 30 74 31 25 32 79 33 73 34
REMARK SMILES IDX 75 35 26 36 78 37 72 38 71 39 27 41 59 42 39 43 58 44 40 45
REMARK SMILES IDX 43 46 57 47 76 48 41 49 42 50 56 52 77 53 44 54 28 55 29 56
REMARK SMILES IDX 37 57 30 58 36 59 38 60 35 61 31 62 32 63 33 64 34 65 60 66
REMARK SMILES IDX 61 67 69 68 62 69 68 70 70 71 67 72 63 73 64 74 65 75 66 76
REMARK SMILES IDX 45 77 46 78 54 79 47 80 53 81 55 82 52 83 48 84 49 85 50 86
REMARK SMILES IDX 51 87
REMARK H PARENT 12 7 16 21 75 40 43 51
REMARK Flexibility Score: inf
ROOT
ATOM      1  C   UNL A   1      35.405  33.850  28.550  1.00  0.00     0.118 C 
ENDROOT
BRANCH   1   2
ATOM      2  C   UNL A   1      34.616  35.133  28.315  1.00  0.00     0.042 C 
BRANCH   2   3
ATOM      3  C   UNL A   1      33.216  35.069  28.930  1.00  0.00     0.118 C 
BRANCH   3   4
ATOM      4  N   UNL A   1      32.929  36.202  29.798  1.00  0.00    -0.351 N 
ATOM      5  C   UNL A   1      33.113  36.352  31.151  1.00  0.00     0.267 C 
ATOM      6  O   UNL A   1      32.844  37.412  31.708  1.00  0.00    -0.268 OA
ATOM      7  H   UNL A   1      32.542  36.986  29.343  1.00  0.00     0.163 HD
BRANCH   5   8
ATOM      8  C   UNL A   1      33.686  35.256  32.001  1.00  0.00     0.134 C 
ATOM      9  C   UNL A   1      35.149  33.868  32.954  1.00  0.00     0.111 C 
ATOM     10  N   UNL A   1      33.950  33.454  33.239  1.00  0.00    -0.151 NA
ATOM     11  C   UNL A   1      35.163  35.117  32.139  1.00  0.00     0.126 C 
ATOM     12  N   UNL A   1      33.017  34.352  32.650  1.00  0.00    -0.149 NA
BRANCH   9  13
ATOM     13  C   UNL A   1      36.394  33.183  33.327  1.00  0.00     0.139 C 
ATOM     14  C   UNL A   1      38.111  30.761  35.081  1.00  0.00     0.053 C 
ATOM     15  C   UNL A   1      37.943  32.186  34.579  1.00  0.00     0.174 C 
ATOM     16  C   UNL A   1      38.519  32.376  33.170  1.00  0.00     0.076 C 
ATOM     17  O   UNL A   1      36.539  32.541  34.550  1.00  0.00    -0.489 OA
ATOM     18  C   UNL A   1      37.454  33.168  32.526  1.00  0.00     0.025 C 
ENDBRANCH   9  13
ENDBRANCH   5   8
ENDBRANCH   3   4
ENDBRANCH   2   3
ENDBRANCH   1   2
BRANCH   1  19
ATOM     19  N   UNL A   1      34.583  32.643  28.409  1.00  0.00    -0.352 N 
ATOM     20  C   UNL A   1      34.986  31.348  28.124  1.00  0.00     0.251 C 
ATOM     21  H   UNL A   1      33.614  32.770  28.533  1.00  0.00     0.163 HD
ATOM     22  O   UNL A   1      34.183  30.525  27.720  1.00  0.00    -0.269 OA
BRANCH  20  23
ATOM     23  C   UNL A   1      36.407  30.994  28.311  1.00  0.00     0.039 A 
ATOM     24  C   UNL A   1      37.244  31.744  29.143  1.00  0.00     0.014 A 
ATOM     25  C   UNL A   1      36.884  29.861  27.663  1.00  0.00     0.014 A 
ATOM     26  C   UNL A   1      38.537  31.280  29.391  1.00  0.00     0.010 A 
ATOM     27  C   UNL A   1      38.085  29.320  28.038  1.00  0.00     0.010 A 
ATOM     28  C   UNL A   1      38.943  30.049  28.854  1.00  0.00    -0.014 A 
BRANCH  28  29
ATOM     29  C   UNL A   1      40.213  29.432  29.234  1.00  0.00     0.031 A 
ATOM     30  C   UNL A   1      40.422  29.296  30.702  1.00  0.00     0.074 A 
ATOM     31  C   UNL A   1      41.006  28.793  28.343  1.00  0.00     0.049 A 
ATOM     32  N   UNL A   1      41.323  29.869  31.428  1.00  0.00    -0.248 NA
ATOM     33  C   UNL A   1      39.422  28.552  31.489  1.00  0.00     0.031 C 
ATOM     34  C   UNL A   1      40.761  28.576  26.912  1.00  0.00     0.029 A 
ATOM     35  N   UNL A   1      42.133  28.063  28.558  1.00  0.00    -0.354 N 
ATOM     36  C   UNL A   1      41.165  29.361  32.715  1.00  0.00     0.074 A 
ATOM     37  C   UNL A   1      39.865  28.746  32.734  1.00  0.00     0.031 C 
ATOM     38  C   UNL A   1      41.536  27.563  26.469  1.00  0.00     0.029 A 
ATOM     39  C   UNL A   1      42.447  27.174  27.531  1.00  0.00     0.049 A 
ATOM     40  H   UNL A   1      42.682  28.154  29.370  1.00  0.00     0.167 HD
ATOM     41  C   UNL A   1      42.222  29.272  33.572  1.00  0.00     0.034 A 
ATOM     42  C   UNL A   1      43.348  26.153  27.564  1.00  0.00     0.034 A 
ATOM     43  C   UNL A   1      43.335  30.070  33.099  1.00  0.00     0.049 A 
ATOM     44  C   UNL A   1      44.300  26.470  28.661  1.00  0.00     0.074 A 
ATOM     45  C   UNL A   1      43.485  31.401  32.752  1.00  0.00     0.029 A 
ATOM     46  N   UNL A   1      44.406  29.421  32.522  1.00  0.00    -0.354 N 
ATOM     47  N   UNL A   1      45.093  27.507  28.639  1.00  0.00    -0.248 NA
ATOM     48  C   UNL A   1      44.002  25.952  29.990  1.00  0.00     0.031 C 
ATOM     49  C   UNL A   1      44.282  31.375  31.569  1.00  0.00     0.029 A 
ATOM     50  C   UNL A   1      44.665  30.053  31.330  1.00  0.00     0.049 A 
ATOM     51  H   UNL A   1      44.893  28.650  32.895  1.00  0.00     0.167 HD
ATOM     52  C   UNL A   1      45.021  28.041  29.918  1.00  0.00     0.074 A 
ATOM     53  C   UNL A   1      44.414  26.987  30.731  1.00  0.00     0.031 C 
ATOM     54  C   UNL A   1      45.175  29.382  30.147  1.00  0.00     0.034 A 
BRANCH  41  55
ATOM     55  C   UNL A   1      42.409  28.198  34.625  1.00  0.00     0.023 A 
ATOM     56  C   UNL A   1      43.170  27.070  34.258  1.00  0.00     0.031 A 
ATOM     57  C   UNL A   1      41.665  28.069  35.820  1.00  0.00     0.131 A 
ATOM     58  C   UNL A   1      43.073  25.866  34.975  1.00  0.00     0.055 A 
ATOM     59  C   UNL A   1      41.632  26.891  36.573  1.00  0.00     0.041 A 
ATOM     60  F   UNL A   1      40.858  29.031  36.282  1.00  0.00    -0.206 F 
ATOM     61  C   UNL A   1      42.308  25.767  36.132  1.00  0.00     0.022 A 
BRANCH  58  62
ATOM     62  S   UNL A   1      43.807  24.377  34.248  1.00  0.00     0.124 S 
ATOM     63  O   UNL A   1      42.727  23.410  34.415  1.00  0.00    -0.237 OA
ATOM     64  O   UNL A   1      44.077  24.814  32.883  1.00  0.00    -0.237 OA
ATOM     65  O   UNL A   1      44.988  24.144  35.074  1.00  0.00    -0.744 OA
ENDBRANCH  58  62
ENDBRANCH  41  55
BRANCH  42  66
ATOM     66  C   UNL A   1      43.208  24.811  26.920  1.00  0.00     0.023 A 
ATOM     67  C   UNL A   1      44.149  24.282  26.007  1.00  0.00     0.031 A 
ATOM     68  C   UNL A   1      42.214  23.915  27.381  1.00  0.00     0.131 A 
ATOM     69  C   UNL A   1      44.063  22.926  25.593  1.00  0.00     0.055 A 
ATOM     70  C   UNL A   1      42.128  22.585  26.963  1.00  0.00     0.041 A 
ATOM     71  F   UNL A   1      41.333  24.278  28.326  1.00  0.00    -0.206 F 
ATOM     72  C   UNL A   1      43.058  22.082  26.071  1.00  0.00     0.022 A 
BRANCH  69  73
ATOM     73  S   UNL A   1      45.318  22.203  24.483  1.00  0.00     0.124 S 
ATOM     74  O   UNL A   1      46.310  21.694  25.423  1.00  0.00    -0.237 OA
ATOM     75  O   UNL A   1      44.549  21.206  23.746  1.00  0.00    -0.237 OA
ATOM     76  O   UNL A   1      45.763  23.343  23.681  1.00  0.00    -0.744 OA
ENDBRANCH  69  73
ENDBRANCH  42  66
BRANCH  54  77
ATOM     77  C   UNL A   1      45.704  30.272  29.035  1.00  0.00     0.023 A 
ATOM     78  C   UNL A   1      44.914  31.114  28.218  1.00  0.00     0.031 A 
ATOM     79  C   UNL A   1      47.102  30.366  28.898  1.00  0.00     0.131 A 
ATOM     80  C   UNL A   1      45.531  31.995  27.306  1.00  0.00     0.055 A 
ATOM     81  C   UNL A   1      47.709  31.257  28.014  1.00  0.00     0.041 A 
ATOM     82  F   UNL A   1      47.913  29.613  29.660  1.00  0.00    -0.206 F 
ATOM     83  C   UNL A   1      46.924  32.071  27.208  1.00  0.00     0.022 A 
BRANCH  80  84
ATOM     84  S   UNL A   1      44.535  33.049  26.200  1.00  0.00     0.124 S 
ATOM     85  O   UNL A   1      43.813  33.923  27.116  1.00  0.00    -0.237 OA
ATOM     86  O   UNL A   1      45.553  33.689  25.371  1.00  0.00    -0.237 OA
ATOM     87  O   UNL A   1      43.690  32.087  25.487  1.00  0.00    -0.744 OA
ENDBRANCH  80  84
ENDBRANCH  54  77
ENDBRANCH  28  29
ENDBRANCH  20  23
ENDBRANCH   1  19
TORSDOF 14
ENDMDL
MODEL 3
REMARK VINA RESULT:     -12.4      2.542      3.929
REMARK SMILES C[C@H]1CC=C(C2=NN=C(C(=O)NCCCNC(=O)c3ccc(-c4c5nc(c(-c6cc(S(=O)(=O)[O-])ccc6F)c6ccc([nH]6)c(-c6cc(S(=O)(=O)[O-])ccc6F)c6nc(c(-c7cc(S(=O)(=O)[O-])ccc7F)c7ccc4[nH]7)C=C6)C=C5)cc3)C2)O1
REMARK SMILES IDX 15 1 14 2 13 3 12 4 10 5 11 6 9 8 6 9 7 10 82 11 8 12 5 13
REMARK SMILES IDX 1 14 2 15 3 16 83 17 4 18 16 19 17 20 18 22 19 23 20 24
REMARK SMILES IDX 81 25 21 26 80 27 22 28 23 29 24 30 74 31 25 32 79 33 73 34
REMARK SMILES IDX 75 35 26 36 78 37 72 38 71 39 27 41 59 42 39 43 58 44 40 45
REMARK SMILES IDX 43 46 57 47 76 48 41 49 42 50 56 52 77 53 44 54 28 55 29 56
REMARK SMILES IDX 37 57 30 58 36 59 38 60 35 61 31 62 32 63 33 64 34 65 60 66
REMARK SMILES IDX 61 67 69 68 62 69 68 70 70 71 67 72 63 73 64 74 65 75 66 76
REMARK SMILES IDX 45 77 46 78 54 79 47 80 53 81 55 82 52 83 48 84 49 85 50 86
REMARK SMILES IDX 51 87
REMARK H PARENT 12 7 16 21 75 40 43 51
REMARK Flexibility Score: inf
ROOT
ATOM      1  C   UNL A   1      35.088  29.319  27.382  1.00  0.00     0.118 C 
ENDROOT
BRANCH   1   2
ATOM      2  C   UNL A   1      33.668  29.413  26.835  1.00  0.00     0.042 C 
BRANCH   2   3
ATOM      3  C   UNL A   1      33.038  28.033  26.633  1.00  0.00     0.118 C 
BRANCH   3   4
ATOM      4  N   UNL A   1      33.618  27.307  25.511  1.00  0.00    -0.351 N 
ATOM      5  C   UNL A   1      33.103  27.039  24.267  1.00  0.00     0.267 C 
ATOM      6  O   UNL A   1      33.768  26.439  23.428  1.00  0.00    -0.268 OA
ATOM      7  H   UNL A   1      34.523  26.952  25.671  1.00  0.00     0.163 HD
BRANCH   5   8
ATOM      8  C   UNL A   1      31.735  27.501  23.857  1.00  0.00     0.134 C 
ATOM      9  C   UNL A   1      30.059  28.815  23.198  1.00  0.00     0.111 C 
ATOM     10  N   UNL A   1      29.562  27.664  23.539  1.00  0.00    -0.151 NA
ATOM     11  C   UNL A   1      31.545  28.876  23.317  1.00  0.00     0.126 C 
ATOM     12  N   UNL A   1      30.634  26.818  23.938  1.00  0.00    -0.149 NA
BRANCH   9  13
ATOM     13  C   UNL A   1      29.276  29.987  22.781  1.00  0.00     0.139 C 
ATOM     14  C   UNL A   1      28.026  32.086  20.348  1.00  0.00     0.053 C 
ATOM     15  C   UNL A   1      28.696  31.840  21.690  1.00  0.00     0.174 C 
ATOM     16  C   UNL A   1      27.676  31.610  22.813  1.00  0.00     0.076 C 
ATOM     17  O   UNL A   1      29.557  30.678  21.610  1.00  0.00    -0.489 OA
ATOM     18  C   UNL A   1      28.276  30.460  23.518  1.00  0.00     0.025 C 
ENDBRANCH   9  13
ENDBRANCH   5   8
ENDBRANCH   3   4
ENDBRANCH   2   3
ENDBRANCH   1   2
BRANCH   1  19
ATOM     19  N   UNL A   1      35.250  30.008  28.667  1.00  0.00    -0.352 N 
ATOM     20  C   UNL A   1      36.249  29.851  29.614  1.00  0.00     0.251 C 
ATOM     21  H   UNL A   1      34.555  30.670  28.886  1.00  0.00     0.163 HD
ATOM     22  O   UNL A   1      36.084  30.241  30.757  1.00  0.00    -0.269 OA
BRANCH  20  23
ATOM     23  C   UNL A   1      37.508  29.194  29.210  1.00  0.00     0.039 A 
ATOM     24  C   UNL A   1      38.169  29.544  28.028  1.00  0.00     0.014 A 
ATOM     25  C   UNL A   1      38.046  28.240  30.065  1.00  0.00     0.014 A 
ATOM     26  C   UNL A   1      39.424  28.992  27.771  1.00  0.00     0.010 A 
ATOM     27  C   UNL A   1      39.343  27.832  29.897  1.00  0.00     0.010 A 
ATOM     28  C   UNL A   1      40.019  28.154  28.726  1.00  0.00    -0.014 A 
BRANCH  28  29
ATOM     29  C   UNL A   1      41.403  27.702  28.590  1.00  0.00     0.031 A 
ATOM     30  C   UNL A   1      41.571  26.443  27.814  1.00  0.00     0.074 A 
ATOM     31  C   UNL A   1      42.458  28.492  28.898  1.00  0.00     0.049 A 
ATOM     32  N   UNL A   1      42.013  25.307  28.240  1.00  0.00    -0.248 NA
ATOM     33  C   UNL A   1      41.048  26.389  26.438  1.00  0.00     0.031 C 
ATOM     34  C   UNL A   1      42.437  29.880  29.375  1.00  0.00     0.029 A 
ATOM     35  N   UNL A   1      43.786  28.273  28.703  1.00  0.00    -0.354 N 
ATOM     36  C   UNL A   1      42.065  24.470  27.128  1.00  0.00     0.074 A 
ATOM     37  C   UNL A   1      41.262  25.109  26.122  1.00  0.00     0.031 C 
ATOM     38  C   UNL A   1      43.643  30.449  29.162  1.00  0.00     0.029 A 
ATOM     39  C   UNL A   1      44.565  29.429  28.696  1.00  0.00     0.049 A 
ATOM     40  H   UNL A   1      44.167  27.373  28.578  1.00  0.00     0.167 HD
ATOM     41  C   UNL A   1      42.972  23.453  27.053  1.00  0.00     0.034 A 
ATOM     42  C   UNL A   1      45.857  29.557  28.285  1.00  0.00     0.034 A 
ATOM     43  C   UNL A   1      43.547  23.182  28.355  1.00  0.00     0.049 A 
ATOM     44  C   UNL A   1      46.453  28.196  28.347  1.00  0.00     0.074 A 
ATOM     45  C   UNL A   1      43.016  22.871  29.594  1.00  0.00     0.029 A 
ATOM     46  N   UNL A   1      44.829  23.622  28.607  1.00  0.00    -0.354 N 
ATOM     47  N   UNL A   1      46.607  27.535  29.463  1.00  0.00    -0.248 NA
ATOM     48  C   UNL A   1      46.388  27.370  27.149  1.00  0.00     0.031 C 
ATOM     49  C   UNL A   1      43.779  23.649  30.515  1.00  0.00     0.029 A 
ATOM     50  C   UNL A   1      44.795  24.294  29.806  1.00  0.00     0.049 A 
ATOM     51  H   UNL A   1      45.619  23.480  28.037  1.00  0.00     0.167 HD
ATOM     52  C   UNL A   1      46.203  26.240  29.173  1.00  0.00     0.074 A 
ATOM     53  C   UNL A   1      46.174  26.175  27.711  1.00  0.00     0.031 C 
ATOM     54  C   UNL A   1      45.640  25.432  30.124  1.00  0.00     0.034 A 
BRANCH  41  55
ATOM     55  C   UNL A   1      43.621  22.950  25.780  1.00  0.00     0.023 A 
ATOM     56  C   UNL A   1      43.687  21.554  25.605  1.00  0.00     0.031 A 
ATOM     57  C   UNL A   1      44.421  23.713  24.899  1.00  0.00     0.131 A 
ATOM     58  C   UNL A   1      44.595  20.978  24.702  1.00  0.00     0.055 A 
ATOM     59  C   UNL A   1      45.269  23.136  23.948  1.00  0.00     0.041 A 
ATOM     60  F   UNL A   1      44.506  25.046  24.962  1.00  0.00    -0.206 F 
ATOM     61  C   UNL A   1      45.390  21.760  23.871  1.00  0.00     0.022 A 
BRANCH  58  62
ATOM     62  S   UNL A   1      44.863  19.188  24.783  1.00  0.00     0.124 S 
ATOM     63  O   UNL A   1      44.858  18.829  23.368  1.00  0.00    -0.237 OA
ATOM     64  O   UNL A   1      46.150  19.109  25.464  1.00  0.00    -0.237 OA
ATOM     65  O   UNL A   1      43.719  18.709  25.553  1.00  0.00    -0.744 OA
ENDBRANCH  58  62
ENDBRANCH  41  55
BRANCH  42  66
ATOM     66  C   UNL A   1      46.456  30.715  27.554  1.00  0.00     0.023 A 
ATOM     67  C   UNL A   1      45.689  31.725  26.930  1.00  0.00     0.031 A 
ATOM     68  C   UNL A   1      47.847  30.960  27.652  1.00  0.00     0.131 A 
ATOM     69  C   UNL A   1      46.315  32.899  26.433  1.00  0.00     0.055 A 
ATOM     70  C   UNL A   1      48.460  32.112  27.153  1.00  0.00     0.041 A 
ATOM     71  F   UNL A   1      48.657  30.120  28.316  1.00  0.00    -0.206 F 
ATOM     72  C   UNL A   1      47.694  33.091  26.546  1.00  0.00     0.022 A 
BRANCH  69  73
ATOM     73  S   UNL A   1      45.330  34.249  25.702  1.00  0.00     0.124 S 
ATOM     74  O   UNL A   1      44.895  33.670  24.437  1.00  0.00    -0.237 OA
ATOM     75  O   UNL A   1      44.296  34.465  26.708  1.00  0.00    -0.237 OA
ATOM     76  O   UNL A   1      46.292  35.345  25.573  1.00  0.00    -0.744 OA
ENDBRANCH  69  73
ENDBRANCH  42  66
BRANCH  54  77
ATOM     77  C   UNL A   1      45.702  25.846  31.584  1.00  0.00     0.023 A 
ATOM     78  C   UNL A   1      44.600  26.279  32.358  1.00  0.00     0.031 A 
ATOM     79  C   UNL A   1      46.925  25.653  32.254  1.00  0.00     0.131 A 
ATOM     80  C   UNL A   1      44.753  26.510  33.741  1.00  0.00     0.055 A 
ATOM     81  C   UNL A   1      47.066  25.857  33.627  1.00  0.00     0.041 A 
ATOM     82  F   UNL A   1      48.007  25.218  31.586  1.00  0.00    -0.206 F 
ATOM     83  C   UNL A   1      45.981  26.294  34.375  1.00  0.00     0.022 A 
BRANCH  80  84
ATOM     84  S   UNL A   1      43.363  27.126  34.749  1.00  0.00     0.124 S 
ATOM     85  O   UNL A   1      42.669  25.910  35.156  1.00  0.00    -0.237 OA
ATOM     86  O   UNL A   1      44.045  27.862  35.811  1.00  0.00    -0.237 OA
ATOM     87  O   UNL A   1      42.614  27.968  33.813  1.00  0.00    -0.744 OA
ENDBRANCH  80  84
ENDBRANCH  54  77
ENDBRANCH  28  29
ENDBRANCH  20  23
ENDBRANCH   1  19
TORSDOF 14
ENDMDL
