MODEL 1
REMARK VINA RESULT:     -12.1      0.000      0.000
REMARK SMILES [NH3+][C@@]1(C(=O)NCCCNC(=O)c2ccc(-c3c4nc(c(-c5cc(S(=O)(=O)[O-])ccc5F)c5ccc([nH]5)c(-c5cc(S(=O)(=O)[O-])ccc5F)c5nc(c(-c6cc(S(=O)(=O)[O-])ccc6F)c6ccc3[nH]6)C=C5)C=C4)cc2)CCC[C@@H](Oc2ccccc2[N+](=O)[O-])C1
REMARK SMILES IDX 7 1 6 2 5 3 3 4 4 5 2 7 75 8 89 9 76 10 78 11 77 12 1 13
REMARK SMILES IDX 79 17 80 18 81 19 85 20 82 21 84 22 83 23 86 24 87 25 88 26
REMARK SMILES IDX 8 27 9 28 10 29 11 31 12 32 13 33 74 34 14 35 73 36 15 37
REMARK SMILES IDX 16 38 17 39 67 40 18 41 72 42 66 43 68 44 19 45 71 46 65 47
REMARK SMILES IDX 64 48 20 50 52 51 32 52 51 53 33 54 36 55 50 56 69 57 34 58
REMARK SMILES IDX 35 59 49 61 70 62 37 63 21 64 22 65 30 66 23 67 29 68 31 69
REMARK SMILES IDX 28 70 24 71 25 72 26 73 27 74 53 75 54 76 62 77 55 78 61 79
REMARK SMILES IDX 63 80 60 81 56 82 57 83 58 84 59 85 38 86 39 87 47 88 40 89
REMARK SMILES IDX 46 90 48 91 45 92 41 93 42 94 43 95 44 96
REMARK H PARENT 5 6 1 14 1 15 1 16 9 30 68 49 36 60
REMARK Flexibility Score: inf
ROOT
ATOM      1  C   UNL A   1      31.587  31.867  26.519  1.00  0.00     0.042 C 
ENDROOT
BRANCH   1   2
ATOM      2  C   UNL A   1      31.801  30.399  26.142  1.00  0.00     0.118 C 
BRANCH   2   3
ATOM      3  N   UNL A   1      31.229  30.045  24.854  1.00  0.00    -0.351 N 
ATOM      4  C   UNL A   1      31.175  28.861  24.172  1.00  0.00     0.281 C 
ATOM      5  O   UNL A   1      30.527  28.877  23.118  1.00  0.00    -0.268 OA
ATOM      6  H   UNL A   1      30.802  30.797  24.385  1.00  0.00     0.163 HD
BRANCH   4   7
ATOM      7  C   UNL A   1      31.782  27.517  24.721  1.00  0.00     0.177 C 
ATOM      8  C   UNL A   1      33.193  27.801  25.284  1.00  0.00     0.079 C 
ATOM      9  C   UNL A   1      31.906  26.533  23.535  1.00  0.00     0.124 C 
ATOM     10  C   UNL A   1      33.932  26.536  25.720  1.00  0.00     0.011 C 
ATOM     11  C   UNL A   1      32.815  25.301  23.731  1.00  0.00     0.180 C 
ATOM     12  C   UNL A   1      34.072  25.525  24.588  1.00  0.00     0.046 C 
BRANCH   7  13
ATOM     13  N   UNL A   1      30.973  27.019  25.842  1.00  0.00    -0.345 N 
ATOM     14  H   UNL A   1      30.200  27.663  26.016  1.00  0.00     0.345 HD
ATOM     15  H   UNL A   1      31.553  26.953  26.678  1.00  0.00     0.345 HD
ATOM     16  H   UNL A   1      30.602  26.098  25.611  1.00  0.00     0.345 HD
ENDBRANCH   7  13
BRANCH  11  17
ATOM     17  O   UNL A   1      32.161  24.031  23.962  1.00  0.00    -0.483 OA
BRANCH  17  18
ATOM     18  C   UNL A   1      32.839  23.092  24.674  1.00  0.00     0.197 A 
ATOM     19  C   UNL A   1      33.879  22.401  24.050  1.00  0.00     0.054 A 
ATOM     20  C   UNL A   1      32.493  22.749  25.987  1.00  0.00     0.310 A 
ATOM     21  C   UNL A   1      34.663  21.502  24.778  1.00  0.00     0.004 A 
ATOM     22  C   UNL A   1      33.293  21.870  26.732  1.00  0.00     0.090 A 
ATOM     23  C   UNL A   1      34.394  21.266  26.126  1.00  0.00     0.007 A 
BRANCH  20  24
ATOM     24  N   UNL A   1      31.326  23.332  26.633  1.00  0.00     0.066 N 
ATOM     25  O   UNL A   1      31.499  24.397  27.244  1.00  0.00    -0.258 OA
ATOM     26  O   UNL A   1      30.246  22.734  26.548  1.00  0.00    -0.258 OA
ENDBRANCH  20  24
ENDBRANCH  17  18
ENDBRANCH  11  17
ENDBRANCH   4   7
ENDBRANCH   2   3
ENDBRANCH   1   2
BRANCH   1  27
ATOM     27  C   UNL A   1      32.717  32.461  27.349  1.00  0.00     0.118 C 
BRANCH  27  28
ATOM     28  N   UNL A   1      32.499  33.865  27.671  1.00  0.00    -0.352 N 
ATOM     29  C   UNL A   1      33.136  34.676  28.580  1.00  0.00     0.251 C 
ATOM     30  H   UNL A   1      31.782  34.302  27.158  1.00  0.00     0.163 HD
ATOM     31  O   UNL A   1      32.691  35.804  28.785  1.00  0.00    -0.269 OA
BRANCH  29  32
ATOM     32  C   UNL A   1      34.314  34.194  29.338  1.00  0.00     0.039 A 
ATOM     33  C   UNL A   1      34.106  33.479  30.522  1.00  0.00     0.014 A 
ATOM     34  C   UNL A   1      35.616  34.447  28.905  1.00  0.00     0.014 A 
ATOM     35  C   UNL A   1      35.196  32.961  31.227  1.00  0.00     0.010 A 
ATOM     36  C   UNL A   1      36.694  33.852  29.554  1.00  0.00     0.010 A 
ATOM     37  C   UNL A   1      36.499  33.107  30.726  1.00  0.00    -0.014 A 
BRANCH  37  38
ATOM     38  C   UNL A   1      37.675  32.516  31.419  1.00  0.00     0.031 A 
ATOM     39  C   UNL A   1      38.410  31.362  30.787  1.00  0.00     0.074 A 
ATOM     40  C   UNL A   1      38.032  32.963  32.639  1.00  0.00     0.049 A 
ATOM     41  N   UNL A   1      39.369  30.621  31.278  1.00  0.00    -0.248 NA
ATOM     42  C   UNL A   1      37.980  30.967  29.437  1.00  0.00     0.031 C 
ATOM     43  C   UNL A   1      37.373  34.049  33.368  1.00  0.00     0.029 A 
ATOM     44  N   UNL A   1      39.028  32.553  33.491  1.00  0.00    -0.354 N 
ATOM     45  C   UNL A   1      39.642  29.662  30.308  1.00  0.00     0.074 A 
ATOM     46  C   UNL A   1      38.697  29.874  29.233  1.00  0.00     0.031 C 
ATOM     47  C   UNL A   1      37.994  34.232  34.545  1.00  0.00     0.029 A 
ATOM     48  C   UNL A   1      39.061  33.246  34.682  1.00  0.00     0.049 A 
ATOM     49  H   UNL A   1      39.660  31.831  33.272  1.00  0.00     0.167 HD
ATOM     50  C   UNL A   1      40.609  28.711  30.300  1.00  0.00     0.034 A 
ATOM     51  C   UNL A   1      39.845  33.089  35.766  1.00  0.00     0.034 A 
ATOM     52  C   UNL A   1      41.554  28.529  31.374  1.00  0.00     0.049 A 
ATOM     53  C   UNL A   1      40.901  32.011  35.745  1.00  0.00     0.074 A 
ATOM     54  C   UNL A   1      42.602  27.629  31.457  1.00  0.00     0.029 A 
ATOM     55  N   UNL A   1      41.568  29.263  32.553  1.00  0.00    -0.354 N 
ATOM     56  N   UNL A   1      41.170  31.137  34.801  1.00  0.00    -0.248 NA
ATOM     57  C   UNL A   1      41.769  31.907  36.925  1.00  0.00     0.031 C 
ATOM     58  C   UNL A   1      43.205  27.773  32.711  1.00  0.00     0.029 A 
ATOM     59  C   UNL A   1      42.590  28.819  33.379  1.00  0.00     0.049 A 
ATOM     60  H   UNL A   1      40.943  29.991  32.772  1.00  0.00     0.167 HD
ATOM     61  C   UNL A   1      42.262  30.405  35.262  1.00  0.00     0.074 A 
ATOM     62  C   UNL A   1      42.608  30.950  36.558  1.00  0.00     0.031 C 
ATOM     63  C   UNL A   1      42.921  29.378  34.669  1.00  0.00     0.034 A 
BRANCH  50  64
ATOM     64  C   UNL A   1      40.675  27.793  29.103  1.00  0.00     0.023 A 
ATOM     65  C   UNL A   1      41.618  27.986  28.077  1.00  0.00     0.031 A 
ATOM     66  C   UNL A   1      39.770  26.725  28.968  1.00  0.00     0.131 A 
ATOM     67  C   UNL A   1      41.583  27.179  26.930  1.00  0.00     0.055 A 
ATOM     68  C   UNL A   1      39.797  25.871  27.863  1.00  0.00     0.041 A 
ATOM     69  F   UNL A   1      38.832  26.502  29.902  1.00  0.00    -0.206 F 
ATOM     70  C   UNL A   1      40.698  26.104  26.828  1.00  0.00     0.022 A 
BRANCH  67  71
ATOM     71  S   UNL A   1      42.612  27.648  25.512  1.00  0.00     0.124 S 
ATOM     72  O   UNL A   1      41.890  28.808  24.996  1.00  0.00    -0.237 OA
ATOM     73  O   UNL A   1      43.901  27.924  26.135  1.00  0.00    -0.237 OA
ATOM     74  O   UNL A   1      42.573  26.466  24.654  1.00  0.00    -0.744 OA
ENDBRANCH  67  71
ENDBRANCH  50  64
BRANCH  51  75
ATOM     75  C   UNL A   1      39.663  33.953  36.970  1.00  0.00     0.023 A 
ATOM     76  C   UNL A   1      39.082  33.448  38.144  1.00  0.00     0.031 A 
ATOM     77  C   UNL A   1      40.018  35.315  36.947  1.00  0.00     0.131 A 
ATOM     78  C   UNL A   1      38.819  34.308  39.223  1.00  0.00     0.055 A 
ATOM     79  C   UNL A   1      39.811  36.151  38.045  1.00  0.00     0.041 A 
ATOM     80  F   UNL A   1      40.581  35.852  35.853  1.00  0.00    -0.206 F 
ATOM     81  C   UNL A   1      39.193  35.652  39.186  1.00  0.00     0.022 A 
BRANCH  78  82
ATOM     82  S   UNL A   1      37.880  33.664  40.636  1.00  0.00     0.124 S 
ATOM     83  O   UNL A   1      37.618  34.881  41.396  1.00  0.00    -0.237 OA
ATOM     84  O   UNL A   1      36.728  33.055  39.981  1.00  0.00    -0.237 OA
ATOM     85  O   UNL A   1      38.810  32.724  41.260  1.00  0.00    -0.744 OA
ENDBRANCH  78  82
ENDBRANCH  51  75
BRANCH  63  86
ATOM     86  C   UNL A   1      44.123  28.822  35.391  1.00  0.00     0.023 A 
ATOM     87  C   UNL A   1      44.008  27.798  36.348  1.00  0.00     0.031 A 
ATOM     88  C   UNL A   1      45.406  29.329  35.116  1.00  0.00     0.131 A 
ATOM     89  C   UNL A   1      45.148  27.353  37.034  1.00  0.00     0.055 A 
ATOM     90  C   UNL A   1      46.545  28.838  35.756  1.00  0.00     0.041 A 
ATOM     91  F   UNL A   1      45.574  30.310  34.214  1.00  0.00    -0.206 F 
ATOM     92  C   UNL A   1      46.417  27.853  36.730  1.00  0.00     0.022 A 
BRANCH  89  93
ATOM     93  S   UNL A   1      44.939  26.177  38.398  1.00  0.00     0.124 S 
ATOM     94  O   UNL A   1      46.036  26.546  39.288  1.00  0.00    -0.237 OA
ATOM     95  O   UNL A   1      43.596  26.491  38.878  1.00  0.00    -0.237 OA
ATOM     96  O   UNL A   1      45.075  24.873  37.752  1.00  0.00    -0.744 OA
ENDBRANCH  89  93
ENDBRANCH  63  86
ENDBRANCH  37  38
ENDBRANCH  29  32
ENDBRANCH  27  28
ENDBRANCH   1  27
TORSDOF 17
ENDMDL
MODEL 2
REMARK VINA RESULT:     -12.1      5.806     11.737
REMARK SMILES [NH3+][C@@]1(C(=O)NCCCNC(=O)c2ccc(-c3c4nc(c(-c5cc(S(=O)(=O)[O-])ccc5F)c5ccc([nH]5)c(-c5cc(S(=O)(=O)[O-])ccc5F)c5nc(c(-c6cc(S(=O)(=O)[O-])ccc6F)c6ccc3[nH]6)C=C5)C=C4)cc2)CCC[C@@H](Oc2ccccc2[N+](=O)[O-])C1
REMARK SMILES IDX 7 1 6 2 5 3 3 4 4 5 2 7 75 8 89 9 76 10 78 11 77 12 1 13
REMARK SMILES IDX 79 17 80 18 81 19 85 20 82 21 84 22 83 23 86 24 87 25 88 26
REMARK SMILES IDX 8 27 9 28 10 29 11 31 12 32 13 33 74 34 14 35 73 36 15 37
REMARK SMILES IDX 16 38 17 39 67 40 18 41 72 42 66 43 68 44 19 45 71 46 65 47
REMARK SMILES IDX 64 48 20 50 52 51 32 52 51 53 33 54 36 55 50 56 69 57 34 58
REMARK SMILES IDX 35 59 49 61 70 62 37 63 21 64 22 65 30 66 23 67 29 68 31 69
REMARK SMILES IDX 28 70 24 71 25 72 26 73 27 74 53 75 54 76 62 77 55 78 61 79
REMARK SMILES IDX 63 80 60 81 56 82 57 83 58 84 59 85 38 86 39 87 47 88 40 89
REMARK SMILES IDX 46 90 48 91 45 92 41 93 42 94 43 95 44 96
REMARK H PARENT 5 6 1 14 1 15 1 16 9 30 68 49 36 60
REMARK Flexibility Score: inf
ROOT
ATOM      1  C   UNL A   1      37.991  20.066  24.982  1.00  0.00     0.042 C 
ENDROOT
BRANCH   1   2
ATOM      2  C   UNL A   1      36.769  20.976  25.126  1.00  0.00     0.118 C 
BRANCH   2   3
ATOM      3  N   UNL A   1      35.519  20.247  25.255  1.00  0.00    -0.351 N 
ATOM      4  C   UNL A   1      34.216  20.636  25.114  1.00  0.00     0.281 C 
ATOM      5  O   UNL A   1      33.373  19.734  25.206  1.00  0.00    -0.268 OA
ATOM      6  H   UNL A   1      35.631  19.298  25.487  1.00  0.00     0.163 HD
BRANCH   4   7
ATOM      7  C   UNL A   1      33.784  22.102  24.739  1.00  0.00     0.177 C 
ATOM      8  C   UNL A   1      34.103  23.034  25.930  1.00  0.00     0.079 C 
ATOM      9  C   UNL A   1      32.257  22.102  24.501  1.00  0.00     0.124 C 
ATOM     10  C   UNL A   1      33.599  24.463  25.726  1.00  0.00     0.011 C 
ATOM     11  C   UNL A   1      31.541  23.469  24.498  1.00  0.00     0.180 C 
ATOM     12  C   UNL A   1      32.096  24.519  25.476  1.00  0.00     0.046 C 
BRANCH   7  13
ATOM     13  N   UNL A   1      34.577  22.585  23.600  1.00  0.00    -0.345 N 
ATOM     14  H   UNL A   1      34.840  21.795  23.010  1.00  0.00     0.345 HD
ATOM     15  H   UNL A   1      35.419  23.048  23.943  1.00  0.00     0.345 HD
ATOM     16  H   UNL A   1      34.023  23.246  23.056  1.00  0.00     0.345 HD
ENDBRANCH   7  13
BRANCH  11  17
ATOM     17  O   UNL A   1      31.156  24.007  23.211  1.00  0.00    -0.483 OA
BRANCH  17  18
ATOM     18  C   UNL A   1      30.987  25.352  23.114  1.00  0.00     0.197 A 
ATOM     19  C   UNL A   1      29.833  25.923  23.654  1.00  0.00     0.054 A 
ATOM     20  C   UNL A   1      31.895  26.177  22.438  1.00  0.00     0.310 A 
ATOM     21  C   UNL A   1      29.673  27.311  23.663  1.00  0.00     0.004 A 
ATOM     22  C   UNL A   1      31.756  27.573  22.468  1.00  0.00     0.090 A 
ATOM     23  C   UNL A   1      30.651  28.136  23.105  1.00  0.00     0.007 A 
BRANCH  20  24
ATOM     24  N   UNL A   1      33.037  25.616  21.730  1.00  0.00     0.066 N 
ATOM     25  O   UNL A   1      34.006  25.267  22.421  1.00  0.00    -0.258 OA
ATOM     26  O   UNL A   1      32.982  25.532  20.497  1.00  0.00    -0.258 OA
ENDBRANCH  20  24
ENDBRANCH  17  18
ENDBRANCH  11  17
ENDBRANCH   4   7
ENDBRANCH   2   3
ENDBRANCH   1   2
BRANCH   1  27
ATOM     27  C   UNL A   1      39.158  20.454  25.879  1.00  0.00     0.118 C 
BRANCH  27  28
ATOM     28  N   UNL A   1      40.185  19.422  25.944  1.00  0.00    -0.352 N 
ATOM     29  C   UNL A   1      41.542  19.530  26.130  1.00  0.00     0.251 C 
ATOM     30  H   UNL A   1      39.854  18.501  25.836  1.00  0.00     0.163 HD
ATOM     31  O   UNL A   1      42.241  18.525  26.011  1.00  0.00    -0.269 OA
BRANCH  29  32
ATOM     32  C   UNL A   1      42.169  20.839  26.427  1.00  0.00     0.039 A 
ATOM     33  C   UNL A   1      42.445  21.709  25.366  1.00  0.00     0.014 A 
ATOM     34  C   UNL A   1      42.498  21.214  27.730  1.00  0.00     0.014 A 
ATOM     35  C   UNL A   1      42.981  22.974  25.622  1.00  0.00     0.010 A 
ATOM     36  C   UNL A   1      42.942  22.507  27.992  1.00  0.00     0.010 A 
ATOM     37  C   UNL A   1      43.195  23.402  26.941  1.00  0.00    -0.014 A 
BRANCH  37  38
ATOM     38  C   UNL A   1      43.707  24.763  27.250  1.00  0.00     0.031 A 
ATOM     39  C   UNL A   1      42.768  25.806  27.799  1.00  0.00     0.074 A 
ATOM     40  C   UNL A   1      44.987  25.081  26.970  1.00  0.00     0.049 A 
ATOM     41  N   UNL A   1      42.975  27.080  28.010  1.00  0.00    -0.248 NA
ATOM     42  C   UNL A   1      41.401  25.361  28.115  1.00  0.00     0.031 C 
ATOM     43  C   UNL A   1      45.980  24.167  26.402  1.00  0.00     0.029 A 
ATOM     44  N   UNL A   1      45.671  26.263  27.109  1.00  0.00    -0.354 N 
ATOM     45  C   UNL A   1      41.762  27.591  28.463  1.00  0.00     0.074 A 
ATOM     46  C   UNL A   1      40.809  26.503  28.425  1.00  0.00     0.031 C 
ATOM     47  C   UNL A   1      47.148  24.815  26.262  1.00  0.00     0.029 A 
ATOM     48  C   UNL A   1      46.978  26.203  26.678  1.00  0.00     0.049 A 
ATOM     49  H   UNL A   1      45.265  27.079  27.483  1.00  0.00     0.167 HD
ATOM     50  C   UNL A   1      41.476  28.844  28.897  1.00  0.00     0.034 A 
ATOM     51  C   UNL A   1      47.922  27.162  26.606  1.00  0.00     0.034 A 
ATOM     52  C   UNL A   1      42.446  29.909  28.945  1.00  0.00     0.049 A 
ATOM     53  C   UNL A   1      47.577  28.554  27.075  1.00  0.00     0.074 A 
ATOM     54  C   UNL A   1      42.283  31.204  29.405  1.00  0.00     0.029 A 
ATOM     55  N   UNL A   1      43.765  29.804  28.519  1.00  0.00    -0.354 N 
ATOM     56  N   UNL A   1      46.434  29.010  27.536  1.00  0.00    -0.248 NA
ATOM     57  C   UNL A   1      48.649  29.556  27.028  1.00  0.00     0.031 C 
ATOM     58  C   UNL A   1      43.479  31.899  29.195  1.00  0.00     0.029 A 
ATOM     59  C   UNL A   1      44.417  31.017  28.682  1.00  0.00     0.049 A 
ATOM     60  H   UNL A   1      44.176  28.988  28.153  1.00  0.00     0.167 HD
ATOM     61  C   UNL A   1      46.664  30.343  27.869  1.00  0.00     0.074 A 
ATOM     62  C   UNL A   1      48.055  30.611  27.568  1.00  0.00     0.031 C 
ATOM     63  C   UNL A   1      45.807  31.263  28.379  1.00  0.00     0.034 A 
BRANCH  50  64
ATOM     64  C   UNL A   1      40.059  29.123  29.336  1.00  0.00     0.023 A 
ATOM     65  C   UNL A   1      39.697  29.139  30.695  1.00  0.00     0.031 A 
ATOM     66  C   UNL A   1      39.047  29.352  28.385  1.00  0.00     0.131 A 
ATOM     67  C   UNL A   1      38.352  29.298  31.061  1.00  0.00     0.055 A 
ATOM     68  C   UNL A   1      37.724  29.597  28.762  1.00  0.00     0.041 A 
ATOM     69  F   UNL A   1      39.324  29.329  27.072  1.00  0.00    -0.206 F 
ATOM     70  C   UNL A   1      37.367  29.556  30.106  1.00  0.00     0.022 A 
BRANCH  67  71
ATOM     71  S   UNL A   1      37.889  29.016  32.792  1.00  0.00     0.124 S 
ATOM     72  O   UNL A   1      39.040  29.576  33.498  1.00  0.00    -0.237 OA
ATOM     73  O   UNL A   1      36.642  29.761  32.912  1.00  0.00    -0.237 OA
ATOM     74  O   UNL A   1      37.761  27.562  32.881  1.00  0.00    -0.744 OA
ENDBRANCH  67  71
ENDBRANCH  50  64
BRANCH  51  75
ATOM     75  C   UNL A   1      49.277  26.856  26.059  1.00  0.00     0.023 A 
ATOM     76  C   UNL A   1      49.668  27.314  24.790  1.00  0.00     0.031 A 
ATOM     77  C   UNL A   1      50.186  26.056  26.775  1.00  0.00     0.131 A 
ATOM     78  C   UNL A   1      50.903  26.920  24.251  1.00  0.00     0.055 A 
ATOM     79  C   UNL A   1      51.439  25.718  26.261  1.00  0.00     0.041 A 
ATOM     80  F   UNL A   1      49.869  25.593  27.995  1.00  0.00    -0.206 F 
ATOM     81  C   UNL A   1      51.797  26.138  24.984  1.00  0.00     0.022 A 
BRANCH  78  82
ATOM     82  S   UNL A   1      51.278  27.358  22.531  1.00  0.00     0.124 S 
ATOM     83  O   UNL A   1      51.260  28.815  22.586  1.00  0.00    -0.237 OA
ATOM     84  O   UNL A   1      52.584  26.739  22.340  1.00  0.00    -0.237 OA
ATOM     85  O   UNL A   1      50.183  26.746  21.779  1.00  0.00    -0.744 OA
ENDBRANCH  78  82
ENDBRANCH  51  75
BRANCH  63  86
ATOM     86  C   UNL A   1      46.370  32.625  28.701  1.00  0.00     0.023 A 
ATOM     87  C   UNL A   1      46.340  33.681  27.774  1.00  0.00     0.031 A 
ATOM     88  C   UNL A   1      46.947  32.867  29.961  1.00  0.00     0.131 A 
ATOM     89  C   UNL A   1      46.926  34.913  28.100  1.00  0.00     0.055 A 
ATOM     90  C   UNL A   1      47.471  34.114  30.303  1.00  0.00     0.041 A 
ATOM     91  F   UNL A   1      47.005  31.893  30.884  1.00  0.00    -0.206 F 
ATOM     92  C   UNL A   1      47.474  35.142  29.365  1.00  0.00     0.022 A 
BRANCH  89  93
ATOM     93  S   UNL A   1      47.049  36.186  26.815  1.00  0.00     0.124 S 
ATOM     94  O   UNL A   1      46.664  35.446  25.617  1.00  0.00    -0.237 OA
ATOM     95  O   UNL A   1      46.096  37.190  27.277  1.00  0.00    -0.237 OA
ATOM     96  O   UNL A   1      48.452  36.594  26.868  1.00  0.00    -0.744 OA
ENDBRANCH  89  93
ENDBRANCH  63  86
ENDBRANCH  37  38
ENDBRANCH  29  32
ENDBRANCH  27  28
ENDBRANCH   1  27
TORSDOF 17
ENDMDL
MODEL 3
REMARK VINA RESULT:     -11.9      6.088     11.375
REMARK SMILES [NH3+][C@@]1(C(=O)NCCCNC(=O)c2ccc(-c3c4nc(c(-c5cc(S(=O)(=O)[O-])ccc5F)c5ccc([nH]5)c(-c5cc(S(=O)(=O)[O-])ccc5F)c5nc(c(-c6cc(S(=O)(=O)[O-])ccc6F)c6ccc3[nH]6)C=C5)C=C4)cc2)CCC[C@@H](Oc2ccccc2[N+](=O)[O-])C1
REMARK SMILES IDX 7 1 6 2 5 3 3 4 4 5 2 7 75 8 89 9 76 10 78 11 77 12 1 13
REMARK SMILES IDX 79 17 80 18 81 19 85 20 82 21 84 22 83 23 86 24 87 25 88 26
REMARK SMILES IDX 8 27 9 28 10 29 11 31 12 32 13 33 74 34 14 35 73 36 15 37
REMARK SMILES IDX 16 38 17 39 67 40 18 41 72 42 66 43 68 44 19 45 71 46 65 47
REMARK SMILES IDX 64 48 20 50 52 51 32 52 51 53 33 54 36 55 50 56 69 57 34 58
REMARK SMILES IDX 35 59 49 61 70 62 37 63 21 64 22 65 30 66 23 67 29 68 31 69
REMARK SMILES IDX 28 70 24 71 25 72 26 73 27 74 53 75 54 76 62 77 55 78 61 79
REMARK SMILES IDX 63 80 60 81 56 82 57 83 58 84 59 85 38 86 39 87 47 88 40 89
REMARK SMILES IDX 46 90 48 91 45 92 41 93 42 94 43 95 44 96
REMARK H PARENT 5 6 1 14 1 15 1 16 9 30 68 49 36 60
REMARK Flexibility Score: inf
ROOT
ATOM      1  C   UNL A   1      37.556  20.114  24.905  1.00  0.00     0.042 C 
ENDROOT
BRANCH   1   2
ATOM      2  C   UNL A   1      36.371  21.082  24.921  1.00  0.00     0.118 C 
BRANCH   2   3
ATOM      3  N   UNL A   1      35.696  21.145  26.206  1.00  0.00    -0.351 N 
ATOM      4  C   UNL A   1      34.444  21.565  26.562  1.00  0.00     0.281 C 
ATOM      5  O   UNL A   1      34.139  21.404  27.750  1.00  0.00    -0.268 OA
ATOM      6  H   UNL A   1      36.240  20.825  26.961  1.00  0.00     0.163 HD
BRANCH   4   7
ATOM      7  C   UNL A   1      33.388  22.112  25.530  1.00  0.00     0.177 C 
ATOM      8  C   UNL A   1      33.371  21.181  24.296  1.00  0.00     0.079 C 
ATOM      9  C   UNL A   1      33.843  23.521  25.086  1.00  0.00     0.124 C 
ATOM     10  C   UNL A   1      32.477  21.695  23.168  1.00  0.00     0.011 C 
ATOM     11  C   UNL A   1      33.198  24.103  23.811  1.00  0.00     0.180 C 
ATOM     12  C   UNL A   1      32.876  23.090  22.699  1.00  0.00     0.046 C 
BRANCH   7  13
ATOM     13  N   UNL A   1      32.041  22.064  26.114  1.00  0.00    -0.345 N 
ATOM     14  H   UNL A   1      32.021  22.620  26.969  1.00  0.00     0.345 HD
ATOM     15  H   UNL A   1      31.799  21.098  26.333  1.00  0.00     0.345 HD
ATOM     16  H   UNL A   1      31.368  22.442  25.448  1.00  0.00     0.345 HD
ENDBRANCH   7  13
BRANCH  11  17
ATOM     17  O   UNL A   1      32.186  25.122  23.992  1.00  0.00    -0.483 OA
BRANCH  17  18
ATOM     18  C   UNL A   1      32.419  26.086  24.921  1.00  0.00     0.197 A 
ATOM     19  C   UNL A   1      33.544  26.899  24.775  1.00  0.00     0.054 A 
ATOM     20  C   UNL A   1      31.608  26.251  26.051  1.00  0.00     0.310 A 
ATOM     21  C   UNL A   1      33.760  27.964  25.653  1.00  0.00     0.004 A 
ATOM     22  C   UNL A   1      31.802  27.335  26.921  1.00  0.00     0.090 A 
ATOM     23  C   UNL A   1      32.870  28.205  26.701  1.00  0.00     0.007 A 
BRANCH  20  24
ATOM     24  N   UNL A   1      30.510  25.336  26.329  1.00  0.00     0.066 N 
ATOM     25  O   UNL A   1      29.420  25.594  25.798  1.00  0.00    -0.258 OA
ATOM     26  O   UNL A   1      30.721  24.375  27.079  1.00  0.00    -0.258 OA
ENDBRANCH  20  24
ENDBRANCH  17  18
ENDBRANCH  11  17
ENDBRANCH   4   7
ENDBRANCH   2   3
ENDBRANCH   1   2
BRANCH   1  27
ATOM     27  C   UNL A   1      38.724  20.554  25.777  1.00  0.00     0.118 C 
BRANCH  27  28
ATOM     28  N   UNL A   1      39.756  19.533  25.892  1.00  0.00    -0.352 N 
ATOM     29  C   UNL A   1      41.102  19.655  26.142  1.00  0.00     0.251 C 
ATOM     30  H   UNL A   1      39.440  18.608  25.771  1.00  0.00     0.163 HD
ATOM     31  O   UNL A   1      41.815  18.657  26.057  1.00  0.00    -0.269 OA
BRANCH  29  32
ATOM     32  C   UNL A   1      41.701  20.971  26.465  1.00  0.00     0.039 A 
ATOM     33  C   UNL A   1      41.969  21.863  25.421  1.00  0.00     0.014 A 
ATOM     34  C   UNL A   1      42.013  21.330  27.777  1.00  0.00     0.014 A 
ATOM     35  C   UNL A   1      42.478  23.134  25.702  1.00  0.00     0.010 A 
ATOM     36  C   UNL A   1      42.430  22.626  28.064  1.00  0.00     0.010 A 
ATOM     37  C   UNL A   1      42.674  23.543  27.030  1.00  0.00    -0.014 A 
BRANCH  37  38
ATOM     38  C   UNL A   1      43.158  24.908  27.366  1.00  0.00     0.031 A 
ATOM     39  C   UNL A   1      42.228  25.883  28.042  1.00  0.00     0.074 A 
ATOM     40  C   UNL A   1      44.396  25.294  26.999  1.00  0.00     0.049 A 
ATOM     41  N   UNL A   1      42.402  27.153  28.300  1.00  0.00    -0.248 NA
ATOM     42  C   UNL A   1      40.911  25.366  28.444  1.00  0.00     0.031 C 
ATOM     43  C   UNL A   1      45.373  24.451  26.305  1.00  0.00     0.029 A 
ATOM     44  N   UNL A   1      45.043  26.496  27.142  1.00  0.00    -0.354 N 
ATOM     45  C   UNL A   1      41.213  27.590  28.876  1.00  0.00     0.074 A 
ATOM     46  C   UNL A   1      40.303  26.465  28.860  1.00  0.00     0.031 C 
ATOM     47  C   UNL A   1      46.499  25.154  26.105  1.00  0.00     0.029 A 
ATOM     48  C   UNL A   1      46.311  26.512  26.604  1.00  0.00     0.049 A 
ATOM     49  H   UNL A   1      44.640  27.275  27.589  1.00  0.00     0.167 HD
ATOM     50  C   UNL A   1      40.917  28.807  29.395  1.00  0.00     0.034 A 
ATOM     51  C   UNL A   1      47.209  27.513  26.504  1.00  0.00     0.034 A 
ATOM     52  C   UNL A   1      41.846  29.910  29.419  1.00  0.00     0.049 A 
ATOM     53  C   UNL A   1      46.851  28.865  27.070  1.00  0.00     0.074 A 
ATOM     54  C   UNL A   1      41.672  31.173  29.956  1.00  0.00     0.029 A 
ATOM     55  N   UNL A   1      43.127  29.881  28.882  1.00  0.00    -0.354 N 
ATOM     56  N   UNL A   1      45.734  29.249  27.646  1.00  0.00    -0.248 NA
ATOM     57  C   UNL A   1      47.876  29.912  26.988  1.00  0.00     0.031 C 
ATOM     58  C   UNL A   1      42.818  31.927  29.686  1.00  0.00     0.029 A 
ATOM     59  C   UNL A   1      43.743  31.111  29.053  1.00  0.00     0.049 A 
ATOM     60  H   UNL A   1      43.537  29.102  28.442  1.00  0.00     0.167 HD
ATOM     61  C   UNL A   1      45.940  30.573  28.026  1.00  0.00     0.074 A 
ATOM     62  C   UNL A   1      47.289  30.914  27.627  1.00  0.00     0.031 C 
ATOM     63  C   UNL A   1      45.093  31.431  28.651  1.00  0.00     0.034 A 
BRANCH  50  64
ATOM     64  C   UNL A   1      39.531  29.005  29.962  1.00  0.00     0.023 A 
ATOM     65  C   UNL A   1      38.533  29.693  29.248  1.00  0.00     0.031 A 
ATOM     66  C   UNL A   1      39.206  28.523  31.242  1.00  0.00     0.131 A 
ATOM     67  C   UNL A   1      37.291  29.949  29.847  1.00  0.00     0.055 A 
ATOM     68  C   UNL A   1      37.937  28.705  31.798  1.00  0.00     0.041 A 
ATOM     69  F   UNL A   1      40.120  27.877  31.983  1.00  0.00    -0.206 F 
ATOM     70  C   UNL A   1      36.975  29.435  31.106  1.00  0.00     0.022 A 
BRANCH  67  71
ATOM     71  S   UNL A   1      36.150  31.087  29.016  1.00  0.00     0.124 S 
ATOM     72  O   UNL A   1      35.491  30.198  28.061  1.00  0.00    -0.237 OA
ATOM     73  O   UNL A   1      35.323  31.565  30.117  1.00  0.00    -0.237 OA
ATOM     74  O   UNL A   1      37.034  32.085  28.419  1.00  0.00    -0.744 OA
ENDBRANCH  67  71
ENDBRANCH  50  64
BRANCH  51  75
ATOM     75  C   UNL A   1      48.525  27.291  25.834  1.00  0.00     0.023 A 
ATOM     76  C   UNL A   1      48.680  27.503  24.455  1.00  0.00     0.031 A 
ATOM     77  C   UNL A   1      49.635  26.813  26.553  1.00  0.00     0.131 A 
ATOM     78  C   UNL A   1      49.895  27.181  23.828  1.00  0.00     0.055 A 
ATOM     79  C   UNL A   1      50.860  26.553  25.936  1.00  0.00     0.041 A 
ATOM     80  F   UNL A   1      49.546  26.596  27.875  1.00  0.00    -0.206 F 
ATOM     81  C   UNL A   1      50.990  26.722  24.562  1.00  0.00     0.022 A 
BRANCH  78  82
ATOM     82  S   UNL A   1      49.988  27.270  22.018  1.00  0.00     0.124 S 
ATOM     83  O   UNL A   1      49.706  28.681  21.776  1.00  0.00    -0.237 OA
ATOM     84  O   UNL A   1      51.357  26.836  21.764  1.00  0.00    -0.237 OA
ATOM     85  O   UNL A   1      48.949  26.340  21.579  1.00  0.00    -0.744 OA
ENDBRANCH  78  82
ENDBRANCH  51  75
BRANCH  63  86
ATOM     86  C   UNL A   1      45.628  32.798  28.996  1.00  0.00     0.023 A 
ATOM     87  C   UNL A   1      45.595  33.863  28.079  1.00  0.00     0.031 A 
ATOM     88  C   UNL A   1      46.182  33.036  30.267  1.00  0.00     0.131 A 
ATOM     89  C   UNL A   1      46.155  35.102  28.427  1.00  0.00     0.055 A 
ATOM     90  C   UNL A   1      46.680  34.288  30.629  1.00  0.00     0.041 A 
ATOM     91  F   UNL A   1      46.243  32.054  31.181  1.00  0.00    -0.206 F 
ATOM     92  C   UNL A   1      46.680  35.326  29.702  1.00  0.00     0.022 A 
BRANCH  89  93
ATOM     93  S   UNL A   1      46.276  36.389  27.157  1.00  0.00     0.124 S 
ATOM     94  O   UNL A   1      47.680  36.778  27.250  1.00  0.00    -0.237 OA
ATOM     95  O   UNL A   1      45.893  35.671  25.945  1.00  0.00    -0.237 OA
ATOM     96  O   UNL A   1      45.321  37.402  27.603  1.00  0.00    -0.744 OA
ENDBRANCH  89  93
ENDBRANCH  63  86
ENDBRANCH  37  38
ENDBRANCH  29  32
ENDBRANCH  27  28
ENDBRANCH   1  27
TORSDOF 17
ENDMDL
