MODEL 1
REMARK VINA RESULT:     -13.2      0.000      0.000
REMARK SMILES O=C(NCCCNC(=O)c1ccccc1/N=C/c1coc2ccccc2c1=O)c1ccc(-c2c3nc(c(-c4cc(S(=O)(=O)[O-])ccc4F)c4ccc([nH]4)c(-c4cc(S(=O)(=O)[O-])ccc4F)c4nc(c(-c5cc(S(=O)(=O)[O-])ccc5F)c5ccc2[nH]5)C=C4)C=C3)cc1
REMARK SMILES IDX 4 1 3 2 1 3 2 4 29 6 30 7 91 8 31 9 90 10 32 11 33 12 34 13
REMARK SMILES IDX 84 14 35 15 89 16 83 17 85 18 36 19 88 20 82 21 81 22 37 24
REMARK SMILES IDX 69 25 49 26 68 27 50 28 53 29 67 30 86 31 51 32 52 33 66 35
REMARK SMILES IDX 87 36 54 37 38 38 39 39 47 40 40 41 46 42 48 43 45 44 41 45
REMARK SMILES IDX 42 46 43 47 44 48 70 49 71 50 79 51 72 52 78 53 80 54 77 55
REMARK SMILES IDX 73 56 74 57 75 58 76 59 55 60 56 61 64 62 57 63 63 64 65 65
REMARK SMILES IDX 62 66 58 67 59 68 60 69 61 70 5 71 6 72 7 73 8 74 9 76 10 77
REMARK SMILES IDX 11 78 15 79 12 80 14 81 13 82 16 83 17 84 18 85 19 86 27 87
REMARK SMILES IDX 20 88 26 89 28 90 21 91 25 92 22 93 24 94 23 95
REMARK H PARENT 3 5 85 23 53 34 7 75
REMARK Flexibility Score: inf
ROOT
ATOM      1  C   UNL A   1      32.739  30.767  26.449  1.00  0.00     0.118 C 
ENDROOT
BRANCH   1   2
ATOM      2  N   UNL A   1      32.621  32.042  27.141  1.00  0.00    -0.352 N 
ATOM      3  O   UNL A   1      33.322  33.756  28.452  1.00  0.00    -0.269 OA
ATOM      4  C   UNL A   1      33.574  32.680  27.916  1.00  0.00     0.251 C 
ATOM      5  H   UNL A   1      31.758  32.506  27.048  1.00  0.00     0.163 HD
BRANCH   4   6
ATOM      6  C   UNL A   1      34.895  32.040  28.167  1.00  0.00     0.039 A 
ATOM      7  C   UNL A   1      35.011  30.696  28.525  1.00  0.00     0.014 A 
ATOM      8  C   UNL A   1      36.048  32.829  28.077  1.00  0.00     0.014 A 
ATOM      9  C   UNL A   1      36.233  30.201  28.981  1.00  0.00     0.010 A 
ATOM     10  C   UNL A   1      37.290  32.311  28.469  1.00  0.00     0.010 A 
ATOM     11  C   UNL A   1      37.379  31.014  28.995  1.00  0.00    -0.014 A 
BRANCH  11  12
ATOM     12  C   UNL A   1      38.617  30.514  29.655  1.00  0.00     0.031 A 
ATOM     13  C   UNL A   1      38.893  30.840  31.102  1.00  0.00     0.074 A 
ATOM     14  C   UNL A   1      39.448  29.689  28.992  1.00  0.00     0.049 A 
ATOM     15  N   UNL A   1      39.876  30.438  31.869  1.00  0.00    -0.248 NA
ATOM     16  C   UNL A   1      37.950  31.749  31.771  1.00  0.00     0.031 C 
ATOM     17  C   UNL A   1      39.315  29.299  27.587  1.00  0.00     0.029 A 
ATOM     18  N   UNL A   1      40.544  28.989  29.431  1.00  0.00    -0.354 N 
ATOM     19  C   UNL A   1      39.701  31.083  33.089  1.00  0.00     0.074 A 
ATOM     20  C   UNL A   1      38.512  31.900  32.961  1.00  0.00     0.031 C 
ATOM     21  C   UNL A   1      40.246  28.374  27.300  1.00  0.00     0.029 A 
ATOM     22  C   UNL A   1      41.048  28.120  28.493  1.00  0.00     0.049 A 
ATOM     23  H   UNL A   1      40.932  29.100  30.329  1.00  0.00     0.167 HD
ATOM     24  C   UNL A   1      40.459  31.012  34.212  1.00  0.00     0.034 A 
ATOM     25  C   UNL A   1      42.025  27.200  28.592  1.00  0.00     0.034 A 
ATOM     26  C   UNL A   1      41.618  30.167  34.360  1.00  0.00     0.049 A 
ATOM     27  C   UNL A   1      42.755  27.023  29.890  1.00  0.00     0.074 A 
ATOM     28  C   UNL A   1      42.481  30.054  35.438  1.00  0.00     0.029 A 
ATOM     29  N   UNL A   1      42.059  29.264  33.404  1.00  0.00    -0.354 N 
ATOM     30  N   UNL A   1      42.622  27.696  31.007  1.00  0.00    -0.248 NA
ATOM     31  C   UNL A   1      43.766  25.957  29.939  1.00  0.00     0.031 C 
ATOM     32  C   UNL A   1      43.449  29.088  35.130  1.00  0.00     0.029 A 
ATOM     33  C   UNL A   1      43.168  28.580  33.873  1.00  0.00     0.049 A 
ATOM     34  H   UNL A   1      41.644  29.129  32.522  1.00  0.00     0.167 HD
ATOM     35  C   UNL A   1      43.551  27.152  31.886  1.00  0.00     0.074 A 
ATOM     36  C   UNL A   1      44.216  26.074  31.181  1.00  0.00     0.031 C 
ATOM     37  C   UNL A   1      43.838  27.525  33.157  1.00  0.00     0.034 A 
BRANCH  24  38
ATOM     38  C   UNL A   1      40.084  31.932  35.342  1.00  0.00     0.023 A 
ATOM     39  C   UNL A   1      39.186  31.539  36.349  1.00  0.00     0.031 A 
ATOM     40  C   UNL A   1      40.591  33.242  35.375  1.00  0.00     0.131 A 
ATOM     41  C   UNL A   1      38.776  32.470  37.315  1.00  0.00     0.055 A 
ATOM     42  C   UNL A   1      40.224  34.146  36.372  1.00  0.00     0.041 A 
ATOM     43  F   UNL A   1      41.434  33.671  34.422  1.00  0.00    -0.206 F 
ATOM     44  C   UNL A   1      39.302  33.765  37.343  1.00  0.00     0.022 A 
BRANCH  41  45
ATOM     45  S   UNL A   1      37.459  32.003  38.472  1.00  0.00     0.124 S 
ATOM     46  O   UNL A   1      36.406  32.954  38.121  1.00  0.00    -0.237 OA
ATOM     47  O   UNL A   1      37.206  30.611  38.118  1.00  0.00    -0.237 OA
ATOM     48  O   UNL A   1      38.066  32.212  39.785  1.00  0.00    -0.744 OA
ENDBRANCH  41  45
ENDBRANCH  24  38
BRANCH  25  49
ATOM     49  C   UNL A   1      42.358  26.355  27.421  1.00  0.00     0.023 A 
ATOM     50  C   UNL A   1      41.998  25.001  27.391  1.00  0.00     0.031 A 
ATOM     51  C   UNL A   1      43.036  26.899  26.320  1.00  0.00     0.131 A 
ATOM     52  C   UNL A   1      42.333  24.221  26.274  1.00  0.00     0.055 A 
ATOM     53  C   UNL A   1      43.358  26.122  25.207  1.00  0.00     0.041 A 
ATOM     54  F   UNL A   1      43.383  28.195  26.311  1.00  0.00    -0.206 F 
ATOM     55  C   UNL A   1      43.008  24.774  25.181  1.00  0.00     0.022 A 
BRANCH  52  56
ATOM     56  S   UNL A   1      41.875  22.467  26.270  1.00  0.00     0.124 S 
ATOM     57  O   UNL A   1      42.431  22.007  27.538  1.00  0.00    -0.237 OA
ATOM     58  O   UNL A   1      40.419  22.535  26.197  1.00  0.00    -0.237 OA
ATOM     59  O   UNL A   1      42.533  21.945  25.075  1.00  0.00    -0.744 OA
ENDBRANCH  52  56
ENDBRANCH  25  49
BRANCH  37  60
ATOM     60  C   UNL A   1      44.928  26.764  33.852  1.00  0.00     0.023 A 
ATOM     61  C   UNL A   1      44.648  25.574  34.545  1.00  0.00     0.031 A 
ATOM     62  C   UNL A   1      46.249  27.237  33.835  1.00  0.00     0.131 A 
ATOM     63  C   UNL A   1      45.678  24.905  35.220  1.00  0.00     0.055 A 
ATOM     64  C   UNL A   1      47.274  26.558  34.494  1.00  0.00     0.041 A 
ATOM     65  F   UNL A   1      46.558  28.373  33.189  1.00  0.00    -0.206 F 
ATOM     66  C   UNL A   1      46.989  25.390  35.199  1.00  0.00     0.022 A 
BRANCH  63  67
ATOM     67  S   UNL A   1      45.273  23.421  36.181  1.00  0.00     0.124 S 
ATOM     68  O   UNL A   1      44.027  22.980  35.561  1.00  0.00    -0.237 OA
ATOM     69  O   UNL A   1      46.438  22.574  35.947  1.00  0.00    -0.237 OA
ATOM     70  O   UNL A   1      45.137  23.923  37.547  1.00  0.00    -0.744 OA
ENDBRANCH  63  67
ENDBRANCH  37  60
ENDBRANCH  11  12
ENDBRANCH   4   6
ENDBRANCH   1   2
BRANCH   1  71
ATOM     71  C   UNL A   1      31.778  29.667  26.889  1.00  0.00     0.042 C 
BRANCH  71  72
ATOM     72  C   UNL A   1      31.878  28.328  26.173  1.00  0.00     0.118 C 
BRANCH  72  73
ATOM     73  N   UNL A   1      32.521  28.379  24.871  1.00  0.00    -0.352 N 
ATOM     74  C   UNL A   1      31.933  28.496  23.638  1.00  0.00     0.253 C 
ATOM     75  H   UNL A   1      33.504  28.324  24.875  1.00  0.00     0.163 HD
ATOM     76  O   UNL A   1      32.619  28.618  22.626  1.00  0.00    -0.269 OA
BRANCH  74  77
ATOM     77  C   UNL A   1      30.468  28.452  23.492  1.00  0.00     0.065 A 
ATOM     78  C   UNL A   1      29.835  29.663  23.170  1.00  0.00     0.016 A 
ATOM     79  C   UNL A   1      29.714  27.287  23.692  1.00  0.00     0.076 A 
ATOM     80  C   UNL A   1      28.451  29.710  22.997  1.00  0.00     0.001 A 
ATOM     81  C   UNL A   1      28.325  27.359  23.507  1.00  0.00     0.029 A 
ATOM     82  C   UNL A   1      27.694  28.555  23.163  1.00  0.00     0.002 A 
BRANCH  79  83
ATOM     83  N   UNL A   1      30.218  26.001  23.901  1.00  0.00    -0.255 NA
ATOM     84  C   UNL A   1      30.227  25.427  25.060  1.00  0.00     0.127 C 
BRANCH  84  85
ATOM     85  C   UNL A   1      30.806  24.072  25.095  1.00  0.00     0.076 A 
ATOM     86  C   UNL A   1      31.026  23.541  23.881  1.00  0.00     0.209 A 
ATOM     87  C   UNL A   1      31.777  23.718  26.154  1.00  0.00     0.201 A 
ATOM     88  O   UNL A   1      32.105  22.728  23.576  1.00  0.00    -0.463 OA
ATOM     89  C   UNL A   1      33.129  23.451  25.642  1.00  0.00     0.065 A 
ATOM     90  O   UNL A   1      31.505  23.761  27.346  1.00  0.00    -0.288 OA
ATOM     91  C   UNL A   1      33.234  22.989  24.327  1.00  0.00     0.137 A 
ATOM     92  C   UNL A   1      34.262  23.796  26.377  1.00  0.00     0.016 A 
ATOM     93  C   UNL A   1      34.483  22.864  23.731  1.00  0.00     0.048 A 
ATOM     94  C   UNL A   1      35.513  23.702  25.767  1.00  0.00     0.001 A 
ATOM     95  C   UNL A   1      35.622  23.240  24.450  1.00  0.00     0.004 A 
ENDBRANCH  84  85
ENDBRANCH  79  83
ENDBRANCH  74  77
ENDBRANCH  72  73
ENDBRANCH  71  72
ENDBRANCH   1  71
TORSDOF 15
ENDMDL
MODEL 2
REMARK VINA RESULT:     -13.2      1.463      1.727
REMARK SMILES O=C(NCCCNC(=O)c1ccccc1/N=C/c1coc2ccccc2c1=O)c1ccc(-c2c3nc(c(-c4cc(S(=O)(=O)[O-])ccc4F)c4ccc([nH]4)c(-c4cc(S(=O)(=O)[O-])ccc4F)c4nc(c(-c5cc(S(=O)(=O)[O-])ccc5F)c5ccc2[nH]5)C=C4)C=C3)cc1
REMARK SMILES IDX 4 1 3 2 1 3 2 4 29 6 30 7 91 8 31 9 90 10 32 11 33 12 34 13
REMARK SMILES IDX 84 14 35 15 89 16 83 17 85 18 36 19 88 20 82 21 81 22 37 24
REMARK SMILES IDX 69 25 49 26 68 27 50 28 53 29 67 30 86 31 51 32 52 33 66 35
REMARK SMILES IDX 87 36 54 37 38 38 39 39 47 40 40 41 46 42 48 43 45 44 41 45
REMARK SMILES IDX 42 46 43 47 44 48 70 49 71 50 79 51 72 52 78 53 80 54 77 55
REMARK SMILES IDX 73 56 74 57 75 58 76 59 55 60 56 61 64 62 57 63 63 64 65 65
REMARK SMILES IDX 62 66 58 67 59 68 60 69 61 70 5 71 6 72 7 73 8 74 9 76 10 77
REMARK SMILES IDX 11 78 15 79 12 80 14 81 13 82 16 83 17 84 18 85 19 86 27 87
REMARK SMILES IDX 20 88 26 89 28 90 21 91 25 92 22 93 24 94 23 95
REMARK H PARENT 3 5 85 23 53 34 7 75
REMARK Flexibility Score: inf
ROOT
ATOM      1  C   UNL A   1      32.357  29.893  26.660  1.00  0.00     0.118 C 
ENDROOT
BRANCH   1   2
ATOM      2  N   UNL A   1      32.228  31.304  26.992  1.00  0.00    -0.352 N 
ATOM      3  O   UNL A   1      32.932  33.324  27.750  1.00  0.00    -0.269 OA
ATOM      4  C   UNL A   1      33.196  32.149  27.505  1.00  0.00     0.251 C 
ATOM      5  H   UNL A   1      31.343  31.706  26.833  1.00  0.00     0.163 HD
BRANCH   4   6
ATOM      6  C   UNL A   1      34.553  31.631  27.833  1.00  0.00     0.039 A 
ATOM      7  C   UNL A   1      34.774  30.293  28.165  1.00  0.00     0.014 A 
ATOM      8  C   UNL A   1      35.627  32.529  27.846  1.00  0.00     0.014 A 
ATOM      9  C   UNL A   1      36.005  29.903  28.695  1.00  0.00     0.010 A 
ATOM     10  C   UNL A   1      36.883  32.120  28.312  1.00  0.00     0.010 A 
ATOM     11  C   UNL A   1      37.063  30.822  28.811  1.00  0.00    -0.014 A 
BRANCH  11  12
ATOM     12  C   UNL A   1      38.295  30.421  29.544  1.00  0.00     0.031 A 
ATOM     13  C   UNL A   1      38.469  30.787  30.998  1.00  0.00     0.074 A 
ATOM     14  C   UNL A   1      39.217  29.648  28.941  1.00  0.00     0.049 A 
ATOM     15  N   UNL A   1      39.436  30.469  31.823  1.00  0.00    -0.248 NA
ATOM     16  C   UNL A   1      37.429  31.636  31.598  1.00  0.00     0.031 C 
ATOM     17  C   UNL A   1      39.189  29.229  27.539  1.00  0.00     0.029 A 
ATOM     18  N   UNL A   1      40.335  29.035  29.451  1.00  0.00    -0.354 N 
ATOM     19  C   UNL A   1      39.149  31.117  33.020  1.00  0.00     0.074 A 
ATOM     20  C   UNL A   1      37.914  31.845  32.814  1.00  0.00     0.031 C 
ATOM     21  C   UNL A   1      40.197  28.368  27.319  1.00  0.00     0.029 A 
ATOM     22  C   UNL A   1      40.949  28.191  28.557  1.00  0.00     0.049 A 
ATOM     23  H   UNL A   1      40.665  29.187  30.365  1.00  0.00     0.167 HD
ATOM     24  C   UNL A   1      39.849  31.117  34.182  1.00  0.00     0.034 A 
ATOM     25  C   UNL A   1      41.982  27.344  28.725  1.00  0.00     0.034 A 
ATOM     26  C   UNL A   1      41.055  30.360  34.407  1.00  0.00     0.049 A 
ATOM     27  C   UNL A   1      42.652  27.239  30.063  1.00  0.00     0.074 A 
ATOM     28  C   UNL A   1      41.864  30.325  35.531  1.00  0.00     0.029 A 
ATOM     29  N   UNL A   1      41.609  29.477  33.493  1.00  0.00    -0.354 N 
ATOM     30  N   UNL A   1      42.411  27.918  31.159  1.00  0.00    -0.248 NA
ATOM     31  C   UNL A   1      43.732  26.250  30.185  1.00  0.00     0.031 C 
ATOM     32  C   UNL A   1      42.913  29.426  35.292  1.00  0.00     0.029 A 
ATOM     33  C   UNL A   1      42.738  28.880  34.032  1.00  0.00     0.049 A 
ATOM     34  H   UNL A   1      41.253  29.299  32.592  1.00  0.00     0.167 HD
ATOM     35  C   UNL A   1      43.328  27.455  32.095  1.00  0.00     0.074 A 
ATOM     36  C   UNL A   1      44.105  26.417  31.447  1.00  0.00     0.031 C 
ATOM     37  C   UNL A   1      43.518  27.866  33.372  1.00  0.00     0.034 A 
BRANCH  24  38
ATOM     38  C   UNL A   1      39.349  32.024  35.273  1.00  0.00     0.023 A 
ATOM     39  C   UNL A   1      39.803  33.347  35.402  1.00  0.00     0.031 A 
ATOM     40  C   UNL A   1      38.447  31.533  36.233  1.00  0.00     0.131 A 
ATOM     41  C   UNL A   1      39.398  34.117  36.503  1.00  0.00     0.055 A 
ATOM     42  C   UNL A   1      38.003  32.322  37.294  1.00  0.00     0.041 A 
ATOM     43  F   UNL A   1      38.002  30.268  36.165  1.00  0.00    -0.206 F 
ATOM     44  C   UNL A   1      38.488  33.618  37.441  1.00  0.00     0.022 A 
BRANCH  41  45
ATOM     45  S   UNL A   1      40.163  35.741  36.760  1.00  0.00     0.124 S 
ATOM     46  O   UNL A   1      39.609  36.509  35.647  1.00  0.00    -0.237 OA
ATOM     47  O   UNL A   1      39.687  36.109  38.089  1.00  0.00    -0.237 OA
ATOM     48  O   UNL A   1      41.595  35.464  36.666  1.00  0.00    -0.744 OA
ENDBRANCH  41  45
ENDBRANCH  24  38
BRANCH  25  49
ATOM     49  C   UNL A   1      42.437  26.508  27.589  1.00  0.00     0.023 A 
ATOM     50  C   UNL A   1      42.037  25.169  27.481  1.00  0.00     0.031 A 
ATOM     51  C   UNL A   1      43.273  27.046  26.598  1.00  0.00     0.131 A 
ATOM     52  C   UNL A   1      42.488  24.397  26.401  1.00  0.00     0.055 A 
ATOM     53  C   UNL A   1      43.711  26.276  25.520  1.00  0.00     0.041 A 
ATOM     54  F   UNL A   1      43.662  28.328  26.664  1.00  0.00    -0.206 F 
ATOM     55  C   UNL A   1      43.321  24.943  25.418  1.00  0.00     0.022 A 
BRANCH  52  56
ATOM     56  S   UNL A   1      41.974  22.662  26.298  1.00  0.00     0.124 S 
ATOM     57  O   UNL A   1      42.599  22.235  25.051  1.00  0.00    -0.237 OA
ATOM     58  O   UNL A   1      42.540  22.105  27.522  1.00  0.00    -0.237 OA
ATOM     59  O   UNL A   1      40.515  22.739  26.269  1.00  0.00    -0.744 OA
ENDBRANCH  52  56
ENDBRANCH  25  49
BRANCH  37  60
ATOM     60  C   UNL A   1      44.620  27.195  34.138  1.00  0.00     0.023 A 
ATOM     61  C   UNL A   1      44.420  25.944  34.744  1.00  0.00     0.031 A 
ATOM     62  C   UNL A   1      45.871  27.817  34.276  1.00  0.00     0.131 A 
ATOM     63  C   UNL A   1      45.453  25.359  35.488  1.00  0.00     0.055 A 
ATOM     64  C   UNL A   1      46.902  27.222  35.004  1.00  0.00     0.041 A 
ATOM     65  F   UNL A   1      46.102  29.016  33.718  1.00  0.00    -0.206 F 
ATOM     66  C   UNL A   1      46.693  25.990  35.621  1.00  0.00     0.022 A 
BRANCH  63  67
ATOM     67  S   UNL A   1      45.139  23.785  36.334  1.00  0.00     0.124 S 
ATOM     68  O   UNL A   1      43.835  23.401  35.800  1.00  0.00    -0.237 OA
ATOM     69  O   UNL A   1      46.270  22.971  35.902  1.00  0.00    -0.237 OA
ATOM     70  O   UNL A   1      45.142  24.150  37.749  1.00  0.00    -0.744 OA
ENDBRANCH  63  67
ENDBRANCH  37  60
ENDBRANCH  11  12
ENDBRANCH   4   6
ENDBRANCH   1   2
BRANCH   1  71
ATOM     71  C   UNL A   1      33.000  29.571  25.315  1.00  0.00     0.042 C 
BRANCH  71  72
ATOM     72  C   UNL A   1      33.636  28.198  25.159  1.00  0.00     0.118 C 
BRANCH  72  73
ATOM     73  N   UNL A   1      33.942  27.819  23.790  1.00  0.00    -0.352 N 
ATOM     74  C   UNL A   1      33.069  27.516  22.777  1.00  0.00     0.253 C 
ATOM     75  H   UNL A   1      34.899  27.775  23.560  1.00  0.00     0.163 HD
ATOM     76  O   UNL A   1      33.479  27.302  21.639  1.00  0.00    -0.269 OA
BRANCH  74  77
ATOM     77  C   UNL A   1      31.621  27.417  23.033  1.00  0.00     0.065 A 
ATOM     78  C   UNL A   1      30.832  28.487  22.583  1.00  0.00     0.016 A 
ATOM     79  C   UNL A   1      31.038  26.341  23.716  1.00  0.00     0.076 A 
ATOM     80  C   UNL A   1      29.449  28.469  22.768  1.00  0.00     0.001 A 
ATOM     81  C   UNL A   1      29.645  26.343  23.886  1.00  0.00     0.029 A 
ATOM     82  C   UNL A   1      28.854  27.393  23.419  1.00  0.00     0.002 A 
BRANCH  79  83
ATOM     83  N   UNL A   1      31.681  25.167  24.114  1.00  0.00    -0.255 NA
ATOM     84  C   UNL A   1      31.048  24.072  24.383  1.00  0.00     0.127 C 
BRANCH  84  85
ATOM     85  C   UNL A   1      31.889  22.934  24.797  1.00  0.00     0.076 A 
ATOM     86  C   UNL A   1      32.338  22.188  23.775  1.00  0.00     0.209 A 
ATOM     87  C   UNL A   1      32.798  23.080  25.956  1.00  0.00     0.201 A 
ATOM     88  O   UNL A   1      33.588  21.592  23.743  1.00  0.00    -0.463 OA
ATOM     89  C   UNL A   1      34.221  23.011  25.594  1.00  0.00     0.065 A 
ATOM     90  O   UNL A   1      32.401  23.349  27.082  1.00  0.00    -0.288 OA
ATOM     91  C   UNL A   1      34.554  22.279  24.451  1.00  0.00     0.137 A 
ATOM     92  C   UNL A   1      35.176  23.772  26.265  1.00  0.00     0.016 A 
ATOM     93  C   UNL A   1      35.857  22.299  23.968  1.00  0.00     0.048 A 
ATOM     94  C   UNL A   1      36.475  23.820  25.760  1.00  0.00     0.001 A 
ATOM     95  C   UNL A   1      36.813  23.088  24.615  1.00  0.00     0.004 A 
ENDBRANCH  84  85
ENDBRANCH  79  83
ENDBRANCH  74  77
ENDBRANCH  72  73
ENDBRANCH  71  72
ENDBRANCH   1  71
TORSDOF 15
ENDMDL
MODEL 3
REMARK VINA RESULT:     -13.1      1.717      2.361
REMARK SMILES O=C(NCCCNC(=O)c1ccccc1/N=C/c1coc2ccccc2c1=O)c1ccc(-c2c3nc(c(-c4cc(S(=O)(=O)[O-])ccc4F)c4ccc([nH]4)c(-c4cc(S(=O)(=O)[O-])ccc4F)c4nc(c(-c5cc(S(=O)(=O)[O-])ccc5F)c5ccc2[nH]5)C=C4)C=C3)cc1
REMARK SMILES IDX 4 1 3 2 1 3 2 4 29 6 30 7 91 8 31 9 90 10 32 11 33 12 34 13
REMARK SMILES IDX 84 14 35 15 89 16 83 17 85 18 36 19 88 20 82 21 81 22 37 24
REMARK SMILES IDX 69 25 49 26 68 27 50 28 53 29 67 30 86 31 51 32 52 33 66 35
REMARK SMILES IDX 87 36 54 37 38 38 39 39 47 40 40 41 46 42 48 43 45 44 41 45
REMARK SMILES IDX 42 46 43 47 44 48 70 49 71 50 79 51 72 52 78 53 80 54 77 55
REMARK SMILES IDX 73 56 74 57 75 58 76 59 55 60 56 61 64 62 57 63 63 64 65 65
REMARK SMILES IDX 62 66 58 67 59 68 60 69 61 70 5 71 6 72 7 73 8 74 9 76 10 77
REMARK SMILES IDX 11 78 15 79 12 80 14 81 13 82 16 83 17 84 18 85 19 86 27 87
REMARK SMILES IDX 20 88 26 89 28 90 21 91 25 92 22 93 24 94 23 95
REMARK H PARENT 3 5 85 23 53 34 7 75
REMARK Flexibility Score: inf
ROOT
ATOM      1  C   UNL A   1      32.538  30.078  26.419  1.00  0.00     0.118 C 
ENDROOT
BRANCH   1   2
ATOM      2  N   UNL A   1      32.347  31.446  26.878  1.00  0.00    -0.352 N 
ATOM      3  O   UNL A   1      32.951  33.404  27.852  1.00  0.00    -0.269 OA
ATOM      4  C   UNL A   1      33.265  32.267  27.508  1.00  0.00     0.251 C 
ATOM      5  H   UNL A   1      31.456  31.833  26.721  1.00  0.00     0.163 HD
BRANCH   4   6
ATOM      6  C   UNL A   1      34.626  31.761  27.842  1.00  0.00     0.039 A 
ATOM      7  C   UNL A   1      34.867  30.415  28.122  1.00  0.00     0.014 A 
ATOM      8  C   UNL A   1      35.681  32.679  27.914  1.00  0.00     0.014 A 
ATOM      9  C   UNL A   1      36.096  30.027  28.659  1.00  0.00     0.010 A 
ATOM     10  C   UNL A   1      36.936  32.275  28.387  1.00  0.00     0.010 A 
ATOM     11  C   UNL A   1      37.132  30.960  28.835  1.00  0.00    -0.014 A 
BRANCH  11  12
ATOM     12  C   UNL A   1      38.358  30.553  29.575  1.00  0.00     0.031 A 
ATOM     13  C   UNL A   1      38.521  30.912  31.032  1.00  0.00     0.074 A 
ATOM     14  C   UNL A   1      39.283  29.780  28.975  1.00  0.00     0.049 A 
ATOM     15  N   UNL A   1      39.481  30.586  31.863  1.00  0.00    -0.248 NA
ATOM     16  C   UNL A   1      37.479  31.760  31.629  1.00  0.00     0.031 C 
ATOM     17  C   UNL A   1      39.263  29.368  27.570  1.00  0.00     0.029 A 
ATOM     18  N   UNL A   1      40.395  29.163  29.490  1.00  0.00    -0.354 N 
ATOM     19  C   UNL A   1      39.187  31.229  33.061  1.00  0.00     0.074 A 
ATOM     20  C   UNL A   1      37.955  31.961  32.849  1.00  0.00     0.031 C 
ATOM     21  C   UNL A   1      40.271  28.506  27.354  1.00  0.00     0.029 A 
ATOM     22  C   UNL A   1      41.013  28.321  28.597  1.00  0.00     0.049 A 
ATOM     23  H   UNL A   1      40.718  29.309  30.408  1.00  0.00     0.167 HD
ATOM     24  C   UNL A   1      39.878  31.222  34.228  1.00  0.00     0.034 A 
ATOM     25  C   UNL A   1      42.043  27.471  28.768  1.00  0.00     0.034 A 
ATOM     26  C   UNL A   1      41.080  30.461  34.458  1.00  0.00     0.049 A 
ATOM     27  C   UNL A   1      42.703  27.358  30.110  1.00  0.00     0.074 A 
ATOM     28  C   UNL A   1      41.881  30.418  35.588  1.00  0.00     0.029 A 
ATOM     29  N   UNL A   1      41.640  29.581  33.544  1.00  0.00    -0.354 N 
ATOM     30  N   UNL A   1      42.456  28.031  31.208  1.00  0.00    -0.248 NA
ATOM     31  C   UNL A   1      43.779  26.365  30.236  1.00  0.00     0.031 C 
ATOM     32  C   UNL A   1      42.930  29.518  35.353  1.00  0.00     0.029 A 
ATOM     33  C   UNL A   1      42.763  28.979  34.089  1.00  0.00     0.049 A 
ATOM     34  H   UNL A   1      41.290  29.408  32.640  1.00  0.00     0.167 HD
ATOM     35  C   UNL A   1      43.364  27.562  32.149  1.00  0.00     0.074 A 
ATOM     36  C   UNL A   1      44.143  26.525  31.501  1.00  0.00     0.031 C 
ATOM     37  C   UNL A   1      43.546  27.966  33.430  1.00  0.00     0.034 A 
BRANCH  24  38
ATOM     38  C   UNL A   1      39.372  32.125  35.320  1.00  0.00     0.023 A 
ATOM     39  C   UNL A   1      39.819  33.450  35.451  1.00  0.00     0.031 A 
ATOM     40  C   UNL A   1      38.472  31.627  36.278  1.00  0.00     0.131 A 
ATOM     41  C   UNL A   1      39.408  34.215  36.553  1.00  0.00     0.055 A 
ATOM     42  C   UNL A   1      38.022  32.412  37.340  1.00  0.00     0.041 A 
ATOM     43  F   UNL A   1      38.034  30.360  36.208  1.00  0.00    -0.206 F 
ATOM     44  C   UNL A   1      38.500  33.711  37.489  1.00  0.00     0.022 A 
BRANCH  41  45
ATOM     45  S   UNL A   1      40.164  35.844  36.813  1.00  0.00     0.124 S 
ATOM     46  O   UNL A   1      39.704  36.575  35.635  1.00  0.00    -0.237 OA
ATOM     47  O   UNL A   1      39.590  36.260  38.087  1.00  0.00    -0.237 OA
ATOM     48  O   UNL A   1      41.597  35.556  36.839  1.00  0.00    -0.744 OA
ENDBRANCH  41  45
ENDBRANCH  24  38
BRANCH  25  49
ATOM     49  C   UNL A   1      42.505  26.640  27.631  1.00  0.00     0.023 A 
ATOM     50  C   UNL A   1      42.102  25.303  27.514  1.00  0.00     0.031 A 
ATOM     51  C   UNL A   1      43.350  27.180  26.650  1.00  0.00     0.131 A 
ATOM     52  C   UNL A   1      42.560  24.535  26.433  1.00  0.00     0.055 A 
ATOM     53  C   UNL A   1      43.794  26.415  25.571  1.00  0.00     0.041 A 
ATOM     54  F   UNL A   1      43.742  28.461  26.725  1.00  0.00    -0.206 F 
ATOM     55  C   UNL A   1      43.401  25.083  25.460  1.00  0.00     0.022 A 
BRANCH  52  56
ATOM     56  S   UNL A   1      42.041  22.801  26.317  1.00  0.00     0.124 S 
ATOM     57  O   UNL A   1      42.631  22.395  25.046  1.00  0.00    -0.237 OA
ATOM     58  O   UNL A   1      42.642  22.225  27.516  1.00  0.00    -0.237 OA
ATOM     59  O   UNL A   1      40.582  22.880  26.331  1.00  0.00    -0.744 OA
ENDBRANCH  52  56
ENDBRANCH  25  49
BRANCH  37  60
ATOM     60  C   UNL A   1      44.640  27.289  34.200  1.00  0.00     0.023 A 
ATOM     61  C   UNL A   1      44.359  26.213  35.058  1.00  0.00     0.031 A 
ATOM     62  C   UNL A   1      45.968  27.731  34.088  1.00  0.00     0.131 A 
ATOM     63  C   UNL A   1      45.394  25.625  35.798  1.00  0.00     0.055 A 
ATOM     64  C   UNL A   1      46.998  27.131  34.814  1.00  0.00     0.041 A 
ATOM     65  F   UNL A   1      46.278  28.760  33.284  1.00  0.00    -0.206 F 
ATOM     66  C   UNL A   1      46.712  26.078  35.680  1.00  0.00     0.022 A 
BRANCH  63  67
ATOM     67  S   UNL A   1      44.990  24.296  36.965  1.00  0.00     0.124 S 
ATOM     68  O   UNL A   1      44.611  23.205  36.073  1.00  0.00    -0.237 OA
ATOM     69  O   UNL A   1      46.247  24.126  37.685  1.00  0.00    -0.237 OA
ATOM     70  O   UNL A   1      43.895  24.856  37.754  1.00  0.00    -0.744 OA
ENDBRANCH  63  67
ENDBRANCH  37  60
ENDBRANCH  11  12
ENDBRANCH   4   6
ENDBRANCH   1   2
BRANCH   1  71
ATOM     71  C   UNL A   1      31.782  28.996  27.184  1.00  0.00     0.042 C 
BRANCH  71  72
ATOM     72  C   UNL A   1      32.233  27.557  26.982  1.00  0.00     0.118 C 
BRANCH  72  73
ATOM     73  N   UNL A   1      31.165  26.572  27.017  1.00  0.00    -0.352 N 
ATOM     74  C   UNL A   1      30.387  26.127  25.980  1.00  0.00     0.253 C 
ATOM     75  H   UNL A   1      30.977  26.174  27.898  1.00  0.00     0.163 HD
ATOM     76  O   UNL A   1      29.578  25.217  26.149  1.00  0.00    -0.269 OA
BRANCH  74  77
ATOM     77  C   UNL A   1      30.482  26.743  24.645  1.00  0.00     0.065 A 
ATOM     78  C   UNL A   1      29.599  27.802  24.380  1.00  0.00     0.016 A 
ATOM     79  C   UNL A   1      31.370  26.294  23.658  1.00  0.00     0.076 A 
ATOM     80  C   UNL A   1      29.632  28.454  23.147  1.00  0.00     0.001 A 
ATOM     81  C   UNL A   1      31.387  26.968  22.428  1.00  0.00     0.029 A 
ATOM     82  C   UNL A   1      30.530  28.038  22.169  1.00  0.00     0.002 A 
BRANCH  79  83
ATOM     83  N   UNL A   1      32.373  25.335  23.821  1.00  0.00    -0.255 NA
ATOM     84  C   UNL A   1      33.609  25.638  24.052  1.00  0.00     0.127 C 
BRANCH  84  85
ATOM     85  C   UNL A   1      34.530  24.497  24.186  1.00  0.00     0.076 A 
ATOM     86  C   UNL A   1      34.988  24.308  25.435  1.00  0.00     0.209 A 
ATOM     87  C   UNL A   1      34.309  23.278  23.376  1.00  0.00     0.201 A 
ATOM     88  O   UNL A   1      35.225  23.063  25.993  1.00  0.00    -0.463 OA
ATOM     89  C   UNL A   1      33.953  22.099  24.178  1.00  0.00     0.065 A 
ATOM     90  O   UNL A   1      34.308  23.285  22.152  1.00  0.00    -0.288 OA
ATOM     91  C   UNL A   1      34.411  22.064  25.498  1.00  0.00     0.137 A 
ATOM     92  C   UNL A   1      33.065  21.138  23.698  1.00  0.00     0.016 A 
ATOM     93  C   UNL A   1      33.984  21.056  26.356  1.00  0.00     0.048 A 
ATOM     94  C   UNL A   1      32.611  20.148  24.568  1.00  0.00     0.001 A 
ATOM     95  C   UNL A   1      33.067  20.108  25.891  1.00  0.00     0.004 A 
ENDBRANCH  84  85
ENDBRANCH  79  83
ENDBRANCH  74  77
ENDBRANCH  72  73
ENDBRANCH  71  72
ENDBRANCH   1  71
TORSDOF 15
ENDMDL
