MODEL 1
REMARK VINA RESULT:     -12.6      0.000      0.000
REMARK SMILES Cc1ccccc1OCCN1C(=O)CC[C@H](C(=O)NCCCNC(=O)c2ccc(-c3c4nc(c(-c5cc(S(=O)(=O)[O-])ccc5F)c5ccc([nH]5)c(-c5cc(S(=O)(=O)[O-])ccc5F)c5nc(c(-c6cc(S(=O)(=O)[O-])ccc6F)c6ccc3[nH]6)C=C5)C=C4)cc2)[C@@H]1c1ccco1
REMARK SMILES IDX 20 1 19 2 17 3 18 4 16 6 11 7 12 8 89 9 13 10 14 11 15 12
REMARK SMILES IDX 10 13 9 14 8 15 7 16 1 17 2 18 3 19 4 20 6 21 5 22 90 23
REMARK SMILES IDX 91 24 94 25 92 26 93 27 21 28 22 29 23 30 24 31 25 33 26 34
REMARK SMILES IDX 27 35 88 36 28 37 87 38 29 39 30 40 31 41 81 42 32 43 86 44
REMARK SMILES IDX 80 45 82 46 33 47 85 48 79 49 78 50 34 52 66 53 46 54 65 55
REMARK SMILES IDX 47 56 50 57 64 58 83 59 48 60 49 61 63 63 84 64 51 65 35 66
REMARK SMILES IDX 36 67 44 68 37 69 43 70 45 71 42 72 38 73 39 74 40 75 41 76
REMARK SMILES IDX 67 77 68 78 76 79 69 80 75 81 77 82 74 83 70 84 71 85 72 86
REMARK SMILES IDX 73 87 52 88 53 89 61 90 54 91 60 92 62 93 59 94 55 95 56 96
REMARK SMILES IDX 57 97 58 98
REMARK H PARENT 19 5 23 32 82 51 50 62
REMARK Flexibility Score: inf
ROOT
ATOM      1  C   UNL A   1      32.964  29.284  25.405  1.00  0.00     0.117 C 
ENDROOT
BRANCH   1   2
ATOM      2  N   UNL A   1      31.865  28.966  26.307  1.00  0.00    -0.356 N 
ATOM      3  C   UNL A   1      31.481  27.734  26.766  1.00  0.00     0.225 C 
ATOM      4  O   UNL A   1      30.758  27.671  27.764  1.00  0.00    -0.275 OA
ATOM      5  H   UNL A   1      31.334  29.731  26.626  1.00  0.00     0.163 HD
BRANCH   3   6
ATOM      6  C   UNL A   1      31.830  26.444  26.020  1.00  0.00     0.109 C 
ATOM      7  N   UNL A   1      31.658  25.017  23.960  1.00  0.00    -0.328 N 
ATOM      8  C   UNL A   1      31.083  23.944  24.625  1.00  0.00     0.223 C 
ATOM      9  C   UNL A   1      31.573  26.392  24.500  1.00  0.00     0.164 C 
ATOM     10  O   UNL A   1      30.825  22.868  24.080  1.00  0.00    -0.275 OA
ATOM     11  C   UNL A   1      30.694  24.143  26.070  1.00  0.00     0.101 C 
ATOM     12  C   UNL A   1      31.449  25.206  26.831  1.00  0.00     0.026 C 
BRANCH   7  13
ATOM     13  C   UNL A   1      31.951  24.847  22.530  1.00  0.00     0.162 C 
BRANCH  13  14
ATOM     14  C   UNL A   1      33.346  24.308  22.189  1.00  0.00     0.251 C 
BRANCH  14  15
ATOM     15  O   UNL A   1      33.641  22.965  22.590  1.00  0.00    -0.491 OA
BRANCH  15  16
ATOM     16  C   UNL A   1      34.468  22.769  23.661  1.00  0.00     0.122 A 
ATOM     17  C   UNL A   1      33.484  20.543  24.465  1.00  0.00     0.048 C 
ATOM     18  C   UNL A   1      34.468  21.672  24.532  1.00  0.00    -0.009 A 
ATOM     19  C   UNL A   1      35.455  21.611  25.536  1.00  0.00     0.007 A 
ATOM     20  C   UNL A   1      36.377  22.643  25.715  1.00  0.00     0.001 A 
ATOM     21  C   UNL A   1      35.359  23.830  23.888  1.00  0.00     0.047 A 
ATOM     22  C   UNL A   1      36.316  23.766  24.901  1.00  0.00     0.004 A 
ENDBRANCH  15  16
ENDBRANCH  14  15
ENDBRANCH  13  14
ENDBRANCH   7  13
BRANCH   9  23
ATOM     23  C   UNL A   1      30.299  27.002  23.990  1.00  0.00     0.127 A 
ATOM     24  C   UNL A   1      28.979  26.598  23.995  1.00  0.00     0.048 A 
ATOM     25  O   UNL A   1      30.393  28.232  23.384  1.00  0.00    -0.467 OA
ATOM     26  C   UNL A   1      28.243  27.618  23.337  1.00  0.00     0.042 A 
ATOM     27  C   UNL A   1      29.148  28.585  22.984  1.00  0.00     0.195 A 
ENDBRANCH   9  23
ENDBRANCH   3   6
ENDBRANCH   1   2
BRANCH   1  28
ATOM     28  C   UNL A   1      34.380  28.924  25.845  1.00  0.00     0.042 C 
BRANCH  28  29
ATOM     29  C   UNL A   1      34.717  29.107  27.325  1.00  0.00     0.118 C 
BRANCH  29  30
ATOM     30  N   UNL A   1      35.090  30.474  27.713  1.00  0.00    -0.352 N 
ATOM     31  C   UNL A   1      36.083  30.915  28.586  1.00  0.00     0.251 C 
ATOM     32  H   UNL A   1      34.558  31.187  27.293  1.00  0.00     0.163 HD
ATOM     33  O   UNL A   1      36.020  32.015  29.102  1.00  0.00    -0.269 OA
BRANCH  31  34
ATOM     34  C   UNL A   1      37.198  29.998  28.904  1.00  0.00     0.039 A 
ATOM     35  C   UNL A   1      37.213  29.144  30.016  1.00  0.00     0.014 A 
ATOM     36  C   UNL A   1      38.257  29.995  28.018  1.00  0.00     0.014 A 
ATOM     37  C   UNL A   1      38.287  28.257  30.177  1.00  0.00     0.010 A 
ATOM     38  C   UNL A   1      39.114  28.944  28.000  1.00  0.00     0.010 A 
ATOM     39  C   UNL A   1      39.230  28.168  29.148  1.00  0.00    -0.014 A 
BRANCH  39  40
ATOM     40  C   UNL A   1      40.525  27.512  29.197  1.00  0.00     0.031 A 
ATOM     41  C   UNL A   1      40.748  26.156  28.690  1.00  0.00     0.074 A 
ATOM     42  C   UNL A   1      41.563  28.331  29.499  1.00  0.00     0.049 A 
ATOM     43  N   UNL A   1      41.645  25.359  29.158  1.00  0.00    -0.248 NA
ATOM     44  C   UNL A   1      39.986  25.598  27.575  1.00  0.00     0.031 C 
ATOM     45  C   UNL A   1      42.986  28.127  29.285  1.00  0.00     0.029 A 
ATOM     46  N   UNL A   1      41.519  29.590  30.108  1.00  0.00    -0.354 N 
ATOM     47  C   UNL A   1      41.813  24.367  28.218  1.00  0.00     0.074 A 
ATOM     48  C   UNL A   1      40.675  24.475  27.330  1.00  0.00     0.031 C 
ATOM     49  C   UNL A   1      43.656  29.040  30.018  1.00  0.00     0.029 A 
ATOM     50  C   UNL A   1      42.678  29.717  30.861  1.00  0.00     0.049 A 
ATOM     51  H   UNL A   1      40.802  30.259  30.021  1.00  0.00     0.167 HD
ATOM     52  C   UNL A   1      43.000  23.702  28.134  1.00  0.00     0.034 A 
ATOM     53  C   UNL A   1      42.646  29.708  32.229  1.00  0.00     0.034 A 
ATOM     54  C   UNL A   1      44.004  24.305  29.010  1.00  0.00     0.049 A 
ATOM     55  C   UNL A   1      43.416  28.541  32.796  1.00  0.00     0.074 A 
ATOM     56  C   UNL A   1      45.033  25.196  28.748  1.00  0.00     0.029 A 
ATOM     57  N   UNL A   1      43.840  24.291  30.388  1.00  0.00    -0.354 N 
ATOM     58  N   UNL A   1      43.728  27.479  32.108  1.00  0.00    -0.248 NA
ATOM     59  C   UNL A   1      43.877  28.472  34.175  1.00  0.00     0.031 C 
ATOM     60  C   UNL A   1      45.452  25.757  29.980  1.00  0.00     0.029 A 
ATOM     61  C   UNL A   1      44.703  25.185  30.995  1.00  0.00     0.049 A 
ATOM     62  H   UNL A   1      43.196  23.722  30.869  1.00  0.00     0.167 HD
ATOM     63  C   UNL A   1      44.376  26.582  32.907  1.00  0.00     0.074 A 
ATOM     64  C   UNL A   1      44.486  27.274  34.182  1.00  0.00     0.031 C 
ATOM     65  C   UNL A   1      44.720  25.341  32.446  1.00  0.00     0.034 A 
BRANCH  52  66
ATOM     66  C   UNL A   1      43.349  22.760  27.008  1.00  0.00     0.023 A 
ATOM     67  C   UNL A   1      42.859  21.439  27.025  1.00  0.00     0.031 A 
ATOM     68  C   UNL A   1      44.137  23.103  25.892  1.00  0.00     0.131 A 
ATOM     69  C   UNL A   1      43.219  20.506  26.039  1.00  0.00     0.055 A 
ATOM     70  C   UNL A   1      44.534  22.165  24.929  1.00  0.00     0.041 A 
ATOM     71  F   UNL A   1      44.524  24.371  25.678  1.00  0.00    -0.206 F 
ATOM     72  C   UNL A   1      44.085  20.852  25.005  1.00  0.00     0.022 A 
BRANCH  69  73
ATOM     73  S   UNL A   1      42.513  18.838  26.115  1.00  0.00     0.124 S 
ATOM     74  O   UNL A   1      41.128  19.071  25.718  1.00  0.00    -0.237 OA
ATOM     75  O   UNL A   1      43.342  18.105  25.165  1.00  0.00    -0.237 OA
ATOM     76  O   UNL A   1      42.697  18.455  27.515  1.00  0.00    -0.744 OA
ENDBRANCH  69  73
ENDBRANCH  52  66
BRANCH  53  77
ATOM     77  C   UNL A   1      41.370  30.231  32.814  1.00  0.00     0.023 A 
ATOM     78  C   UNL A   1      41.117  31.608  32.672  1.00  0.00     0.031 A 
ATOM     79  C   UNL A   1      40.275  29.381  33.055  1.00  0.00     0.131 A 
ATOM     80  C   UNL A   1      39.796  32.067  32.575  1.00  0.00     0.055 A 
ATOM     81  C   UNL A   1      38.959  29.862  33.026  1.00  0.00     0.041 A 
ATOM     82  F   UNL A   1      40.451  28.058  33.179  1.00  0.00    -0.206 F 
ATOM     83  C   UNL A   1      38.712  31.204  32.744  1.00  0.00     0.022 A 
BRANCH  80  84
ATOM     84  S   UNL A   1      39.521  33.751  31.972  1.00  0.00     0.124 S 
ATOM     85  O   UNL A   1      38.740  34.364  33.041  1.00  0.00    -0.237 OA
ATOM     86  O   UNL A   1      40.893  34.233  31.831  1.00  0.00    -0.237 OA
ATOM     87  O   UNL A   1      38.800  33.556  30.718  1.00  0.00    -0.744 OA
ENDBRANCH  80  84
ENDBRANCH  53  77
BRANCH  65  88
ATOM     88  C   UNL A   1      45.163  24.183  33.310  1.00  0.00     0.023 A 
ATOM     89  C   UNL A   1      46.417  24.132  33.926  1.00  0.00     0.031 A 
ATOM     90  C   UNL A   1      44.297  23.103  33.606  1.00  0.00     0.131 A 
ATOM     91  C   UNL A   1      46.818  23.022  34.684  1.00  0.00     0.055 A 
ATOM     92  C   UNL A   1      44.657  22.047  34.450  1.00  0.00     0.041 A 
ATOM     93  F   UNL A   1      43.057  23.024  33.101  1.00  0.00    -0.206 F 
ATOM     94  C   UNL A   1      45.937  21.988  34.974  1.00  0.00     0.022 A 
BRANCH  91  95
ATOM     95  S   UNL A   1      48.554  22.932  35.183  1.00  0.00     0.124 S 
ATOM     96  O   UNL A   1      48.701  21.514  35.498  1.00  0.00    -0.237 OA
ATOM     97  O   UNL A   1      49.249  23.387  33.983  1.00  0.00    -0.237 OA
ATOM     98  O   UNL A   1      48.630  23.835  36.329  1.00  0.00    -0.744 OA
ENDBRANCH  91  95
ENDBRANCH  65  88
ENDBRANCH  39  40
ENDBRANCH  31  34
ENDBRANCH  29  30
ENDBRANCH  28  29
ENDBRANCH   1  28
TORSDOF 18
ENDMDL
MODEL 2
REMARK VINA RESULT:     -12.5      1.168      2.404
REMARK SMILES Cc1ccccc1OCCN1C(=O)CC[C@H](C(=O)NCCCNC(=O)c2ccc(-c3c4nc(c(-c5cc(S(=O)(=O)[O-])ccc5F)c5ccc([nH]5)c(-c5cc(S(=O)(=O)[O-])ccc5F)c5nc(c(-c6cc(S(=O)(=O)[O-])ccc6F)c6ccc3[nH]6)C=C5)C=C4)cc2)[C@@H]1c1ccco1
REMARK SMILES IDX 20 1 19 2 17 3 18 4 16 6 11 7 12 8 89 9 13 10 14 11 15 12
REMARK SMILES IDX 10 13 9 14 8 15 7 16 1 17 2 18 3 19 4 20 6 21 5 22 90 23
REMARK SMILES IDX 91 24 94 25 92 26 93 27 21 28 22 29 23 30 24 31 25 33 26 34
REMARK SMILES IDX 27 35 88 36 28 37 87 38 29 39 30 40 31 41 81 42 32 43 86 44
REMARK SMILES IDX 80 45 82 46 33 47 85 48 79 49 78 50 34 52 66 53 46 54 65 55
REMARK SMILES IDX 47 56 50 57 64 58 83 59 48 60 49 61 63 63 84 64 51 65 35 66
REMARK SMILES IDX 36 67 44 68 37 69 43 70 45 71 42 72 38 73 39 74 40 75 41 76
REMARK SMILES IDX 67 77 68 78 76 79 69 80 75 81 77 82 74 83 70 84 71 85 72 86
REMARK SMILES IDX 73 87 52 88 53 89 61 90 54 91 60 92 62 93 59 94 55 95 56 96
REMARK SMILES IDX 57 97 58 98
REMARK H PARENT 19 5 23 32 82 51 50 62
REMARK Flexibility Score: inf
ROOT
ATOM      1  C   UNL A   1      32.838  27.370  26.381  1.00  0.00     0.117 C 
ENDROOT
BRANCH   1   2
ATOM      2  N   UNL A   1      31.553  26.773  26.720  1.00  0.00    -0.356 N 
ATOM      3  C   UNL A   1      30.850  25.831  26.017  1.00  0.00     0.225 C 
ATOM      4  O   UNL A   1      29.961  25.200  26.596  1.00  0.00    -0.275 OA
ATOM      5  H   UNL A   1      31.140  27.085  27.557  1.00  0.00     0.163 HD
BRANCH   3   6
ATOM      6  C   UNL A   1      31.057  25.613  24.517  1.00  0.00     0.109 C 
ATOM      7  N   UNL A   1      32.368  24.584  22.637  1.00  0.00    -0.328 N 
ATOM      8  C   UNL A   1      32.670  25.801  22.044  1.00  0.00     0.223 C 
ATOM      9  C   UNL A   1      32.021  24.493  24.073  1.00  0.00     0.164 C 
ATOM     10  O   UNL A   1      33.283  25.901  20.978  1.00  0.00    -0.275 OA
ATOM     11  C   UNL A   1      32.287  27.057  22.788  1.00  0.00     0.101 C 
ATOM     12  C   UNL A   1      31.140  26.940  23.763  1.00  0.00     0.026 C 
BRANCH   7  13
ATOM     13  C   UNL A   1      32.824  23.367  21.952  1.00  0.00     0.162 C 
BRANCH  13  14
ATOM     14  C   UNL A   1      33.104  22.155  22.849  1.00  0.00     0.251 C 
BRANCH  14  15
ATOM     15  O   UNL A   1      32.166  21.074  22.795  1.00  0.00    -0.491 OA
BRANCH  15  16
ATOM     16  C   UNL A   1      32.382  19.980  23.586  1.00  0.00     0.122 A 
ATOM     17  C   UNL A   1      32.124  18.180  21.779  1.00  0.00     0.048 C 
ATOM     18  C   UNL A   1      32.408  18.640  23.177  1.00  0.00    -0.009 A 
ATOM     19  C   UNL A   1      32.727  17.654  24.132  1.00  0.00     0.007 A 
ATOM     20  C   UNL A   1      32.947  17.979  25.470  1.00  0.00     0.001 A 
ATOM     21  C   UNL A   1      32.545  20.290  24.946  1.00  0.00     0.047 A 
ATOM     22  C   UNL A   1      32.836  19.299  25.883  1.00  0.00     0.004 A 
ENDBRANCH  15  16
ENDBRANCH  14  15
ENDBRANCH  13  14
ENDBRANCH   7  13
BRANCH   9  23
ATOM     23  C   UNL A   1      33.302  24.334  24.840  1.00  0.00     0.127 A 
ATOM     24  C   UNL A   1      34.587  24.805  24.660  1.00  0.00     0.048 A 
ATOM     25  O   UNL A   1      33.255  23.576  25.985  1.00  0.00    -0.467 OA
ATOM     26  C   UNL A   1      35.360  24.286  25.730  1.00  0.00     0.042 A 
ATOM     27  C   UNL A   1      34.505  23.545  26.504  1.00  0.00     0.195 A 
ENDBRANCH   9  23
ENDBRANCH   3   6
ENDBRANCH   1   2
BRANCH   1  28
ATOM     28  C   UNL A   1      33.315  28.561  27.207  1.00  0.00     0.042 C 
BRANCH  28  29
ATOM     29  C   UNL A   1      34.738  29.059  26.955  1.00  0.00     0.118 C 
BRANCH  29  30
ATOM     30  N   UNL A   1      35.026  30.406  27.466  1.00  0.00    -0.352 N 
ATOM     31  C   UNL A   1      35.932  30.816  28.442  1.00  0.00     0.251 C 
ATOM     32  H   UNL A   1      34.498  31.129  27.057  1.00  0.00     0.163 HD
ATOM     33  O   UNL A   1      35.787  31.872  29.027  1.00  0.00    -0.269 OA
BRANCH  31  34
ATOM     34  C   UNL A   1      37.057  29.918  28.778  1.00  0.00     0.039 A 
ATOM     35  C   UNL A   1      37.083  29.091  29.911  1.00  0.00     0.014 A 
ATOM     36  C   UNL A   1      38.114  29.905  27.891  1.00  0.00     0.014 A 
ATOM     37  C   UNL A   1      38.166  28.218  30.090  1.00  0.00     0.010 A 
ATOM     38  C   UNL A   1      38.982  28.862  27.895  1.00  0.00     0.010 A 
ATOM     39  C   UNL A   1      39.107  28.114  29.062  1.00  0.00    -0.014 A 
BRANCH  39  40
ATOM     40  C   UNL A   1      40.409  27.472  29.123  1.00  0.00     0.031 A 
ATOM     41  C   UNL A   1      40.651  26.119  28.618  1.00  0.00     0.074 A 
ATOM     42  C   UNL A   1      41.435  28.302  29.436  1.00  0.00     0.049 A 
ATOM     43  N   UNL A   1      41.553  25.332  29.094  1.00  0.00    -0.248 NA
ATOM     44  C   UNL A   1      39.908  25.554  27.494  1.00  0.00     0.031 C 
ATOM     45  C   UNL A   1      42.862  28.114  29.237  1.00  0.00     0.029 A 
ATOM     46  N   UNL A   1      41.371  29.560  30.046  1.00  0.00    -0.354 N 
ATOM     47  C   UNL A   1      41.741  24.342  28.156  1.00  0.00     0.074 A 
ATOM     48  C   UNL A   1      40.611  24.439  27.256  1.00  0.00     0.031 C 
ATOM     49  C   UNL A   1      43.514  29.033  29.978  1.00  0.00     0.029 A 
ATOM     50  C   UNL A   1      42.521  29.699  30.810  1.00  0.00     0.049 A 
ATOM     51  H   UNL A   1      40.648  30.221  29.952  1.00  0.00     0.167 HD
ATOM     52  C   UNL A   1      42.936  23.690  28.083  1.00  0.00     0.034 A 
ATOM     53  C   UNL A   1      42.475  29.689  32.179  1.00  0.00     0.034 A 
ATOM     54  C   UNL A   1      43.924  24.303  28.969  1.00  0.00     0.049 A 
ATOM     55  C   UNL A   1      43.252  28.530  32.753  1.00  0.00     0.074 A 
ATOM     56  C   UNL A   1      44.946  25.205  28.718  1.00  0.00     0.029 A 
ATOM     57  N   UNL A   1      43.747  24.287  30.346  1.00  0.00    -0.354 N 
ATOM     58  N   UNL A   1      43.583  27.472  32.066  1.00  0.00    -0.248 NA
ATOM     59  C   UNL A   1      43.700  28.464  34.136  1.00  0.00     0.031 C 
ATOM     60  C   UNL A   1      45.346  25.770  29.955  1.00  0.00     0.029 A 
ATOM     61  C   UNL A   1      44.594  25.190  30.962  1.00  0.00     0.049 A 
ATOM     62  H   UNL A   1      43.104  23.710  30.820  1.00  0.00     0.167 HD
ATOM     63  C   UNL A   1      44.232  26.581  32.872  1.00  0.00     0.074 A 
ATOM     64  C   UNL A   1      44.322  27.273  34.149  1.00  0.00     0.031 C 
ATOM     65  C   UNL A   1      44.594  25.344  32.413  1.00  0.00     0.034 A 
BRANCH  52  66
ATOM     66  C   UNL A   1      43.307  22.753  26.960  1.00  0.00     0.023 A 
ATOM     67  C   UNL A   1      42.853  21.419  26.985  1.00  0.00     0.031 A 
ATOM     68  C   UNL A   1      44.080  23.113  25.839  1.00  0.00     0.131 A 
ATOM     69  C   UNL A   1      43.236  20.492  26.001  1.00  0.00     0.055 A 
ATOM     70  C   UNL A   1      44.500  22.181  24.879  1.00  0.00     0.041 A 
ATOM     71  F   UNL A   1      44.431  24.389  25.618  1.00  0.00    -0.206 F 
ATOM     72  C   UNL A   1      44.088  20.857  24.963  1.00  0.00     0.022 A 
BRANCH  69  73
ATOM     73  S   UNL A   1      42.577  18.805  26.089  1.00  0.00     0.124 S 
ATOM     74  O   UNL A   1      42.834  18.445  27.480  1.00  0.00    -0.237 OA
ATOM     75  O   UNL A   1      41.178  18.998  25.721  1.00  0.00    -0.237 OA
ATOM     76  O   UNL A   1      43.377  18.076  25.105  1.00  0.00    -0.744 OA
ENDBRANCH  69  73
ENDBRANCH  52  66
BRANCH  53  77
ATOM     77  C   UNL A   1      41.188  30.197  32.751  1.00  0.00     0.023 A 
ATOM     78  C   UNL A   1      40.873  31.550  32.518  1.00  0.00     0.031 A 
ATOM     79  C   UNL A   1      40.135  29.321  33.072  1.00  0.00     0.131 A 
ATOM     80  C   UNL A   1      39.531  31.944  32.416  1.00  0.00     0.055 A 
ATOM     81  C   UNL A   1      38.799  29.743  33.035  1.00  0.00     0.041 A 
ATOM     82  F   UNL A   1      40.370  28.019  33.284  1.00  0.00    -0.206 F 
ATOM     83  C   UNL A   1      38.489  31.050  32.666  1.00  0.00     0.022 A 
BRANCH  80  84
ATOM     84  S   UNL A   1      39.174  33.569  31.703  1.00  0.00     0.124 S 
ATOM     85  O   UNL A   1      39.906  34.482  32.573  1.00  0.00    -0.237 OA
ATOM     86  O   UNL A   1      39.709  33.413  30.351  1.00  0.00    -0.237 OA
ATOM     87  O   UNL A   1      37.720  33.671  31.787  1.00  0.00    -0.744 OA
ENDBRANCH  80  84
ENDBRANCH  53  77
BRANCH  65  88
ATOM     88  C   UNL A   1      45.040  24.190  33.282  1.00  0.00     0.023 A 
ATOM     89  C   UNL A   1      46.328  24.100  33.820  1.00  0.00     0.031 A 
ATOM     90  C   UNL A   1      44.149  23.158  33.661  1.00  0.00     0.131 A 
ATOM     91  C   UNL A   1      46.728  22.993  34.582  1.00  0.00     0.055 A 
ATOM     92  C   UNL A   1      44.516  22.109  34.510  1.00  0.00     0.041 A 
ATOM     93  F   UNL A   1      42.878  23.121  33.236  1.00  0.00    -0.206 F 
ATOM     94  C   UNL A   1      45.824  22.007  34.956  1.00  0.00     0.022 A 
BRANCH  91  95
ATOM     95  S   UNL A   1      48.486  22.839  34.975  1.00  0.00     0.124 S 
ATOM     96  O   UNL A   1      48.536  23.366  36.337  1.00  0.00    -0.237 OA
ATOM     97  O   UNL A   1      48.712  21.403  34.847  1.00  0.00    -0.237 OA
ATOM     98  O   UNL A   1      49.139  23.667  33.964  1.00  0.00    -0.744 OA
ENDBRANCH  91  95
ENDBRANCH  65  88
ENDBRANCH  39  40
ENDBRANCH  31  34
ENDBRANCH  29  30
ENDBRANCH  28  29
ENDBRANCH   1  28
TORSDOF 18
ENDMDL
MODEL 3
REMARK VINA RESULT:     -12.2      3.838      9.386
REMARK SMILES Cc1ccccc1OCCN1C(=O)CC[C@H](C(=O)NCCCNC(=O)c2ccc(-c3c4nc(c(-c5cc(S(=O)(=O)[O-])ccc5F)c5ccc([nH]5)c(-c5cc(S(=O)(=O)[O-])ccc5F)c5nc(c(-c6cc(S(=O)(=O)[O-])ccc6F)c6ccc3[nH]6)C=C5)C=C4)cc2)[C@@H]1c1ccco1
REMARK SMILES IDX 20 1 19 2 17 3 18 4 16 6 11 7 12 8 89 9 13 10 14 11 15 12
REMARK SMILES IDX 10 13 9 14 8 15 7 16 1 17 2 18 3 19 4 20 6 21 5 22 90 23
REMARK SMILES IDX 91 24 94 25 92 26 93 27 21 28 22 29 23 30 24 31 25 33 26 34
REMARK SMILES IDX 27 35 88 36 28 37 87 38 29 39 30 40 31 41 81 42 32 43 86 44
REMARK SMILES IDX 80 45 82 46 33 47 85 48 79 49 78 50 34 52 66 53 46 54 65 55
REMARK SMILES IDX 47 56 50 57 64 58 83 59 48 60 49 61 63 63 84 64 51 65 35 66
REMARK SMILES IDX 36 67 44 68 37 69 43 70 45 71 42 72 38 73 39 74 40 75 41 76
REMARK SMILES IDX 67 77 68 78 76 79 69 80 75 81 77 82 74 83 70 84 71 85 72 86
REMARK SMILES IDX 73 87 52 88 53 89 61 90 54 91 60 92 62 93 59 94 55 95 56 96
REMARK SMILES IDX 57 97 58 98
REMARK H PARENT 19 5 23 32 82 51 50 62
REMARK Flexibility Score: inf
ROOT
ATOM      1  C   UNL A   1      37.848  21.766  25.388  1.00  0.00     0.117 C 
ENDROOT
BRANCH   1   2
ATOM      2  N   UNL A   1      36.765  22.070  26.314  1.00  0.00    -0.356 N 
ATOM      3  C   UNL A   1      35.428  21.817  26.158  1.00  0.00     0.225 C 
ATOM      4  O   UNL A   1      34.700  21.832  27.155  1.00  0.00    -0.275 OA
ATOM      5  H   UNL A   1      37.026  22.512  27.154  1.00  0.00     0.163 HD
BRANCH   3   6
ATOM      6  C   UNL A   1      34.792  21.623  24.780  1.00  0.00     0.109 C 
ATOM      7  N   UNL A   1      33.313  22.475  22.936  1.00  0.00    -0.328 N 
ATOM      8  C   UNL A   1      32.449  21.390  22.989  1.00  0.00     0.223 C 
ATOM      9  C   UNL A   1      34.148  22.849  24.099  1.00  0.00     0.164 C 
ATOM     10  O   UNL A   1      31.506  21.237  22.208  1.00  0.00    -0.275 OA
ATOM     11  C   UNL A   1      32.643  20.393  24.105  1.00  0.00     0.101 C 
ATOM     12  C   UNL A   1      34.030  20.301  24.694  1.00  0.00     0.026 C 
BRANCH   7  13
ATOM     13  C   UNL A   1      33.062  23.487  21.902  1.00  0.00     0.162 C 
BRANCH  13  14
ATOM     14  C   UNL A   1      33.623  24.887  22.183  1.00  0.00     0.251 C 
BRANCH  14  15
ATOM     15  O   UNL A   1      32.896  25.999  21.647  1.00  0.00    -0.491 OA
BRANCH  15  16
ATOM     16  C   UNL A   1      32.275  26.854  22.515  1.00  0.00     0.122 A 
ATOM     17  C   UNL A   1      34.177  28.557  22.755  1.00  0.00     0.048 C 
ATOM     18  C   UNL A   1      32.793  28.050  23.029  1.00  0.00    -0.009 A 
ATOM     19  C   UNL A   1      31.967  28.840  23.853  1.00  0.00     0.007 A 
ATOM     20  C   UNL A   1      30.685  28.423  24.213  1.00  0.00     0.001 A 
ATOM     21  C   UNL A   1      31.010  26.415  22.933  1.00  0.00     0.047 A 
ATOM     22  C   UNL A   1      30.212  27.196  23.768  1.00  0.00     0.004 A 
ENDBRANCH  15  16
ENDBRANCH  14  15
ENDBRANCH  13  14
ENDBRANCH   7  13
BRANCH   9  23
ATOM     23  C   UNL A   1      33.338  23.776  24.959  1.00  0.00     0.127 A 
ATOM     24  C   UNL A   1      32.060  23.723  25.480  1.00  0.00     0.048 A 
ATOM     25  O   UNL A   1      33.941  24.944  25.360  1.00  0.00    -0.467 OA
ATOM     26  C   UNL A   1      31.871  24.927  26.206  1.00  0.00     0.042 A 
ATOM     27  C   UNL A   1      33.041  25.634  26.100  1.00  0.00     0.195 A 
ENDBRANCH   9  23
ENDBRANCH   3   6
ENDBRANCH   1   2
BRANCH   1  28
ATOM     28  C   UNL A   1      39.282  21.944  25.880  1.00  0.00     0.042 C 
BRANCH  28  29
ATOM     29  C   UNL A   1      39.967  20.720  26.488  1.00  0.00     0.118 C 
BRANCH  29  30
ATOM     30  N   UNL A   1      41.338  20.478  26.019  1.00  0.00    -0.352 N 
ATOM     31  C   UNL A   1      42.442  21.327  26.012  1.00  0.00     0.251 C 
ATOM     32  H   UNL A   1      41.501  19.578  25.654  1.00  0.00     0.163 HD
ATOM     33  O   UNL A   1      43.375  21.136  25.255  1.00  0.00    -0.269 OA
BRANCH  31  34
ATOM     34  C   UNL A   1      42.438  22.494  26.920  1.00  0.00     0.039 A 
ATOM     35  C   UNL A   1      42.476  22.394  28.319  1.00  0.00     0.014 A 
ATOM     36  C   UNL A   1      42.416  23.736  26.318  1.00  0.00     0.014 A 
ATOM     37  C   UNL A   1      42.549  23.568  29.082  1.00  0.00     0.010 A 
ATOM     38  C   UNL A   1      42.799  24.830  27.023  1.00  0.00     0.010 A 
ATOM     39  C   UNL A   1      42.717  24.783  28.410  1.00  0.00    -0.014 A 
BRANCH  39  40
ATOM     40  C   UNL A   1      42.580  26.119  28.964  1.00  0.00     0.031 A 
ATOM     41  C   UNL A   1      41.356  26.912  28.831  1.00  0.00     0.074 A 
ATOM     42  C   UNL A   1      43.560  26.474  29.832  1.00  0.00     0.049 A 
ATOM     43  N   UNL A   1      41.341  28.200  28.805  1.00  0.00    -0.248 NA
ATOM     44  C   UNL A   1      40.029  26.305  28.752  1.00  0.00     0.031 C 
ATOM     45  C   UNL A   1      43.567  27.534  30.825  1.00  0.00     0.029 A 
ATOM     46  N   UNL A   1      44.829  25.904  29.980  1.00  0.00    -0.354 N 
ATOM     47  C   UNL A   1      40.041  28.579  29.054  1.00  0.00     0.074 A 
ATOM     48  C   UNL A   1      39.245  27.384  28.875  1.00  0.00     0.031 C 
ATOM     49  C   UNL A   1      44.840  27.726  31.227  1.00  0.00     0.029 A 
ATOM     50  C   UNL A   1      45.691  26.924  30.358  1.00  0.00     0.049 A 
ATOM     51  H   UNL A   1      45.067  24.959  29.842  1.00  0.00     0.167 HD
ATOM     52  C   UNL A   1      39.782  29.796  29.612  1.00  0.00     0.034 A 
ATOM     53  C   UNL A   1      46.653  27.398  29.507  1.00  0.00     0.034 A 
ATOM     54  C   UNL A   1      41.018  30.463  30.017  1.00  0.00     0.049 A 
ATOM     55  C   UNL A   1      46.434  28.853  29.174  1.00  0.00     0.074 A 
ATOM     56  C   UNL A   1      41.642  30.566  31.251  1.00  0.00     0.029 A 
ATOM     57  N   UNL A   1      41.956  30.850  29.070  1.00  0.00    -0.354 N 
ATOM     58  N   UNL A   1      45.296  29.468  29.339  1.00  0.00    -0.248 NA
ATOM     59  C   UNL A   1      47.465  29.720  28.622  1.00  0.00     0.031 C 
ATOM     60  C   UNL A   1      42.983  30.970  31.031  1.00  0.00     0.029 A 
ATOM     61  C   UNL A   1      43.167  31.145  29.670  1.00  0.00     0.049 A 
ATOM     62  H   UNL A   1      41.783  30.906  28.103  1.00  0.00     0.167 HD
ATOM     63  C   UNL A   1      45.398  30.758  28.902  1.00  0.00     0.074 A 
ATOM     64  C   UNL A   1      46.793  30.878  28.507  1.00  0.00     0.031 C 
ATOM     65  C   UNL A   1      44.308  31.584  28.874  1.00  0.00     0.034 A 
BRANCH  52  66
ATOM     66  C   UNL A   1      38.420  30.207  30.117  1.00  0.00     0.023 A 
ATOM     67  C   UNL A   1      37.686  31.189  29.423  1.00  0.00     0.031 A 
ATOM     68  C   UNL A   1      37.790  29.664  31.253  1.00  0.00     0.131 A 
ATOM     69  C   UNL A   1      36.449  31.657  29.898  1.00  0.00     0.055 A 
ATOM     70  C   UNL A   1      36.577  30.158  31.755  1.00  0.00     0.041 A 
ATOM     71  F   UNL A   1      38.313  28.610  31.901  1.00  0.00    -0.206 F 
ATOM     72  C   UNL A   1      35.904  31.171  31.083  1.00  0.00     0.022 A 
BRANCH  69  73
ATOM     73  S   UNL A   1      35.552  32.895  28.923  1.00  0.00     0.124 S 
ATOM     74  O   UNL A   1      34.221  32.853  29.521  1.00  0.00    -0.237 OA
ATOM     75  O   UNL A   1      36.330  34.105  29.166  1.00  0.00    -0.237 OA
ATOM     76  O   UNL A   1      35.632  32.375  27.558  1.00  0.00    -0.744 OA
ENDBRANCH  69  73
ENDBRANCH  52  66
BRANCH  53  77
ATOM     77  C   UNL A   1      47.155  26.384  28.526  1.00  0.00     0.023 A 
ATOM     78  C   UNL A   1      46.854  26.601  27.168  1.00  0.00     0.031 A 
ATOM     79  C   UNL A   1      48.245  25.548  28.833  1.00  0.00     0.131 A 
ATOM     80  C   UNL A   1      47.741  26.156  26.178  1.00  0.00     0.055 A 
ATOM     81  C   UNL A   1      49.086  25.050  27.830  1.00  0.00     0.041 A 
ATOM     82  F   UNL A   1      48.593  25.320  30.107  1.00  0.00    -0.206 F 
ATOM     83  C   UNL A   1      48.861  25.386  26.497  1.00  0.00     0.022 A 
BRANCH  80  84
ATOM     84  S   UNL A   1      47.548  26.814  24.503  1.00  0.00     0.124 S 
ATOM     85  O   UNL A   1      46.125  27.127  24.431  1.00  0.00    -0.237 OA
ATOM     86  O   UNL A   1      48.449  27.964  24.540  1.00  0.00    -0.237 OA
ATOM     87  O   UNL A   1      47.980  25.714  23.647  1.00  0.00    -0.744 OA
ENDBRANCH  80  84
ENDBRANCH  53  77
BRANCH  65  88
ATOM     88  C   UNL A   1      44.239  32.908  28.146  1.00  0.00     0.023 A 
ATOM     89  C   UNL A   1      44.130  34.133  28.811  1.00  0.00     0.031 A 
ATOM     90  C   UNL A   1      44.351  32.989  26.738  1.00  0.00     0.131 A 
ATOM     91  C   UNL A   1      44.019  35.342  28.108  1.00  0.00     0.055 A 
ATOM     92  C   UNL A   1      44.350  34.202  26.042  1.00  0.00     0.041 A 
ATOM     93  F   UNL A   1      44.479  31.898  25.969  1.00  0.00    -0.206 F 
ATOM     94  C   UNL A   1      44.156  35.391  26.727  1.00  0.00     0.022 A 
BRANCH  91  95
ATOM     95  S   UNL A   1      43.589  36.823  29.053  1.00  0.00     0.124 S 
ATOM     96  O   UNL A   1      42.274  37.152  28.509  1.00  0.00    -0.237 OA
ATOM     97  O   UNL A   1      43.598  36.332  30.427  1.00  0.00    -0.237 OA
ATOM     98  O   UNL A   1      44.654  37.766  28.719  1.00  0.00    -0.744 OA
ENDBRANCH  91  95
ENDBRANCH  65  88
ENDBRANCH  39  40
ENDBRANCH  31  34
ENDBRANCH  29  30
ENDBRANCH  28  29
ENDBRANCH   1  28
TORSDOF 18
ENDMDL
