MODEL 1
REMARK VINA RESULT:     -12.9      0.000      0.000
REMARK SMILES C[C@@H]1Cc2ccccc2N1C(=O)CSc1ncc(C(=O)NCCCNC(=O)c2ccc(-c3c4nc(c(-c5cc(S(=O)(=O)[O-])ccc5F)c5ccc([nH]5)c(-c5cc(S(=O)(=O)[O-])ccc5F)c5nc(c(-c6cc(S(=O)(=O)[O-])ccc6F)c6ccc3[nH]6)C=C5)C=C4)cc2)n1-c1ccc(F)cc1
REMARK SMILES IDX 22 1 21 2 19 3 20 4 18 6 15 7 16 8 91 9 17 10 14 11 13 12
REMARK SMILES IDX 11 13 12 14 10 15 1 16 2 17 3 18 4 19 9 20 5 21 8 22 6 23
REMARK SMILES IDX 7 24 92 25 93 26 98 27 94 28 97 29 95 30 96 31 23 32 24 33
REMARK SMILES IDX 25 34 26 35 27 37 28 38 29 39 90 40 30 41 89 42 31 43 32 44
REMARK SMILES IDX 33 45 83 46 34 47 88 48 82 49 84 50 35 51 87 52 81 53 80 54
REMARK SMILES IDX 36 56 68 57 48 58 67 59 49 60 52 61 66 62 85 63 50 64 51 65
REMARK SMILES IDX 65 67 86 68 53 69 37 70 38 71 46 72 39 73 45 74 47 75 44 76
REMARK SMILES IDX 40 77 41 78 42 79 43 80 69 81 70 82 78 83 71 84 77 85 79 86
REMARK SMILES IDX 76 87 72 88 73 89 74 90 75 91 54 92 55 93 63 94 56 95 62 96
REMARK SMILES IDX 64 97 61 98 57 99 58 100 59 101 60 102
REMARK H PARENT 21 5 25 36 84 55 52 66
REMARK Flexibility Score: inf
ROOT
ATOM      1  C   UNL A   1      33.752  30.187  27.272  1.00  0.00     0.118 C 
ENDROOT
BRANCH   1   2
ATOM      2  N   UNL A   1      32.701  29.292  27.723  1.00  0.00    -0.351 N 
ATOM      3  C   UNL A   1      31.783  28.466  27.126  1.00  0.00     0.269 C 
ATOM      4  O   UNL A   1      31.110  27.826  27.923  1.00  0.00    -0.268 OA
ATOM      5  H   UNL A   1      32.631  29.271  28.705  1.00  0.00     0.163 HD
BRANCH   3   6
ATOM      6  C   UNL A   1      31.646  28.333  25.691  1.00  0.00     0.132 A 
ATOM      7  C   UNL A   1      31.760  27.450  23.635  1.00  0.00     0.173 A 
ATOM      8  N   UNL A   1      31.454  28.705  23.437  1.00  0.00    -0.230 NA
ATOM      9  N   UNL A   1      31.863  27.140  24.984  1.00  0.00    -0.283 N 
ATOM     10  C   UNL A   1      31.332  29.238  24.691  1.00  0.00     0.146 A 
BRANCH   7  11
ATOM     11  S   UNL A   1      31.592  26.256  22.386  1.00  0.00    -0.078 SA
BRANCH  11  12
ATOM     12  C   UNL A   1      33.252  25.566  22.226  1.00  0.00     0.178 C 
BRANCH  12  13
ATOM     13  C   UNL A   1      33.333  24.134  21.751  1.00  0.00     0.237 C 
ATOM     14  O   UNL A   1      33.317  23.954  20.523  1.00  0.00    -0.274 OA
BRANCH  13  15
ATOM     15  N   UNL A   1      33.506  23.076  22.620  1.00  0.00    -0.308 N 
ATOM     16  C   UNL A   1      31.091  22.752  23.334  1.00  0.00     0.032 C 
ATOM     17  C   UNL A   1      32.395  22.111  22.849  1.00  0.00     0.092 C 
ATOM     18  C   UNL A   1      32.890  21.086  23.888  1.00  0.00     0.063 C 
ATOM     19  C   UNL A   1      34.273  21.568  24.177  1.00  0.00    -0.022 A 
ATOM     20  C   UNL A   1      34.620  22.663  23.385  1.00  0.00     0.047 A 
ATOM     21  C   UNL A   1      35.151  21.018  25.105  1.00  0.00     0.006 A 
ATOM     22  C   UNL A   1      35.917  23.146  23.448  1.00  0.00     0.026 A 
ATOM     23  C   UNL A   1      36.425  21.565  25.223  1.00  0.00     0.000 A 
ATOM     24  C   UNL A   1      36.813  22.611  24.383  1.00  0.00     0.002 A 
ENDBRANCH  13  15
ENDBRANCH  12  13
ENDBRANCH  11  12
ENDBRANCH   7  11
BRANCH   9  25
ATOM     25  C   UNL A   1      32.025  25.822  25.497  1.00  0.00     0.049 A 
ATOM     26  C   UNL A   1      30.893  25.093  25.890  1.00  0.00     0.030 A 
ATOM     27  C   UNL A   1      33.311  25.332  25.756  1.00  0.00     0.030 A 
ATOM     28  C   UNL A   1      31.050  23.895  26.586  1.00  0.00     0.041 A 
ATOM     29  C   UNL A   1      33.458  24.127  26.447  1.00  0.00     0.041 A 
ATOM     30  C   UNL A   1      32.329  23.429  26.868  1.00  0.00     0.123 A 
ATOM     31  F   UNL A   1      32.475  22.296  27.566  1.00  0.00    -0.207 F 
ENDBRANCH   9  25
ENDBRANCH   3   6
ENDBRANCH   1   2
BRANCH   1  32
ATOM     32  C   UNL A   1      33.325  31.654  27.359  1.00  0.00     0.042 C 
BRANCH  32  33
ATOM     33  C   UNL A   1      34.395  32.570  27.964  1.00  0.00     0.118 C 
BRANCH  33  34
ATOM     34  N   UNL A   1      34.445  32.541  29.413  1.00  0.00    -0.352 N 
ATOM     35  C   UNL A   1      35.320  32.067  30.350  1.00  0.00     0.251 C 
ATOM     36  H   UNL A   1      33.656  32.966  29.822  1.00  0.00     0.163 HD
ATOM     37  O   UNL A   1      35.005  32.287  31.523  1.00  0.00    -0.269 OA
BRANCH  35  38
ATOM     38  C   UNL A   1      36.559  31.291  30.068  1.00  0.00     0.039 A 
ATOM     39  C   UNL A   1      36.618  29.932  29.757  1.00  0.00     0.014 A 
ATOM     40  C   UNL A   1      37.769  32.005  30.163  1.00  0.00     0.014 A 
ATOM     41  C   UNL A   1      37.845  29.286  29.638  1.00  0.00     0.010 A 
ATOM     42  C   UNL A   1      38.999  31.370  30.021  1.00  0.00     0.010 A 
ATOM     43  C   UNL A   1      39.038  29.995  29.809  1.00  0.00    -0.014 A 
BRANCH  43  44
ATOM     44  C   UNL A   1      40.295  29.253  29.713  1.00  0.00     0.031 A 
ATOM     45  C   UNL A   1      40.996  28.972  31.001  1.00  0.00     0.074 A 
ATOM     46  C   UNL A   1      40.764  28.737  28.561  1.00  0.00     0.049 A 
ATOM     47  N   UNL A   1      42.173  29.353  31.384  1.00  0.00    -0.248 NA
ATOM     48  C   UNL A   1      40.243  28.235  32.025  1.00  0.00     0.031 C 
ATOM     49  C   UNL A   1      40.072  28.620  27.274  1.00  0.00     0.029 A 
ATOM     50  N   UNL A   1      41.947  28.099  28.335  1.00  0.00    -0.354 N 
ATOM     51  C   UNL A   1      42.385  28.766  32.636  1.00  0.00     0.074 A 
ATOM     52  C   UNL A   1      41.119  28.199  33.029  1.00  0.00     0.031 C 
ATOM     53  C   UNL A   1      40.745  27.750  26.487  1.00  0.00     0.029 A 
ATOM     54  C   UNL A   1      41.985  27.382  27.150  1.00  0.00     0.049 A 
ATOM     55  H   UNL A   1      42.707  28.145  28.959  1.00  0.00     0.167 HD
ATOM     56  C   UNL A   1      43.624  28.646  33.197  1.00  0.00     0.034 A 
ATOM     57  C   UNL A   1      42.924  26.481  26.777  1.00  0.00     0.034 A 
ATOM     58  C   UNL A   1      44.586  29.492  32.549  1.00  0.00     0.049 A 
ATOM     59  C   UNL A   1      44.141  26.703  27.592  1.00  0.00     0.074 A 
ATOM     60  C   UNL A   1      44.748  30.854  32.404  1.00  0.00     0.029 A 
ATOM     61  N   UNL A   1      45.443  28.917  31.645  1.00  0.00    -0.354 N 
ATOM     62  N   UNL A   1      44.923  27.740  27.485  1.00  0.00    -0.248 NA
ATOM     63  C   UNL A   1      44.274  25.945  28.827  1.00  0.00     0.031 C 
ATOM     64  C   UNL A   1      45.318  31.021  31.111  1.00  0.00     0.029 A 
ATOM     65  C   UNL A   1      45.503  29.751  30.559  1.00  0.00     0.049 A 
ATOM     66  H   UNL A   1      45.925  28.065  31.754  1.00  0.00     0.167 HD
ATOM     67  C   UNL A   1      45.307  28.023  28.787  1.00  0.00     0.074 A 
ATOM     68  C   UNL A   1      44.978  26.820  29.548  1.00  0.00     0.031 C 
ATOM     69  C   UNL A   1      45.597  29.298  29.186  1.00  0.00     0.034 A 
BRANCH  56  70
ATOM     70  C   UNL A   1      44.033  27.550  34.156  1.00  0.00     0.023 A 
ATOM     71  C   UNL A   1      44.098  26.196  33.781  1.00  0.00     0.031 A 
ATOM     72  C   UNL A   1      44.587  27.861  35.418  1.00  0.00     0.131 A 
ATOM     73  C   UNL A   1      44.663  25.225  34.618  1.00  0.00     0.055 A 
ATOM     74  C   UNL A   1      45.214  26.902  36.225  1.00  0.00     0.041 A 
ATOM     75  F   UNL A   1      44.592  29.121  35.881  1.00  0.00    -0.206 F 
ATOM     76  C   UNL A   1      45.254  25.573  35.828  1.00  0.00     0.022 A 
BRANCH  73  77
ATOM     77  S   UNL A   1      44.640  23.477  34.133  1.00  0.00     0.124 S 
ATOM     78  O   UNL A   1      43.568  22.950  34.970  1.00  0.00    -0.237 OA
ATOM     79  O   UNL A   1      44.343  23.569  32.706  1.00  0.00    -0.237 OA
ATOM     80  O   UNL A   1      45.988  23.018  34.454  1.00  0.00    -0.744 OA
ENDBRANCH  73  77
ENDBRANCH  56  70
BRANCH  57  81
ATOM     81  C   UNL A   1      42.654  25.183  26.119  1.00  0.00     0.023 A 
ATOM     82  C   UNL A   1      41.567  24.400  26.552  1.00  0.00     0.031 A 
ATOM     83  C   UNL A   1      43.609  24.569  25.294  1.00  0.00     0.131 A 
ATOM     84  C   UNL A   1      41.480  23.048  26.202  1.00  0.00     0.055 A 
ATOM     85  C   UNL A   1      43.512  23.219  24.933  1.00  0.00     0.041 A 
ATOM     86  F   UNL A   1      44.688  25.250  24.878  1.00  0.00    -0.206 F 
ATOM     87  C   UNL A   1      42.450  22.448  25.399  1.00  0.00     0.022 A 
BRANCH  84  88
ATOM     88  S   UNL A   1      40.135  22.021  26.855  1.00  0.00     0.124 S 
ATOM     89  O   UNL A   1      39.094  23.010  27.124  1.00  0.00    -0.237 OA
ATOM     90  O   UNL A   1      39.875  21.124  25.736  1.00  0.00    -0.237 OA
ATOM     91  O   UNL A   1      40.720  21.405  28.042  1.00  0.00    -0.744 OA
ENDBRANCH  84  88
ENDBRANCH  57  81
BRANCH  69  92
ATOM     92  C   UNL A   1      45.743  30.383  28.141  1.00  0.00     0.023 A 
ATOM     93  C   UNL A   1      47.046  30.821  27.837  1.00  0.00     0.031 A 
ATOM     94  C   UNL A   1      44.671  31.142  27.633  1.00  0.00     0.131 A 
ATOM     95  C   UNL A   1      47.246  31.992  27.096  1.00  0.00     0.055 A 
ATOM     96  C   UNL A   1      44.875  32.269  26.830  1.00  0.00     0.041 A 
ATOM     97  F   UNL A   1      43.402  30.876  27.969  1.00  0.00    -0.206 F 
ATOM     98  C   UNL A   1      46.168  32.710  26.572  1.00  0.00     0.022 A 
BRANCH  95  99
ATOM     99  S   UNL A   1      48.904  32.703  26.934  1.00  0.00     0.124 S 
ATOM    100  O   UNL A   1      49.658  31.600  26.346  1.00  0.00    -0.237 OA
ATOM    101  O   UNL A   1      48.667  33.842  26.048  1.00  0.00    -0.237 OA
ATOM    102  O   UNL A   1      49.274  33.055  28.301  1.00  0.00    -0.744 OA
ENDBRANCH  95  99
ENDBRANCH  69  92
ENDBRANCH  43  44
ENDBRANCH  35  38
ENDBRANCH  33  34
ENDBRANCH  32  33
ENDBRANCH   1  32
TORSDOF 18
ENDMDL
MODEL 2
REMARK VINA RESULT:     -12.8      1.459      1.694
REMARK SMILES C[C@@H]1Cc2ccccc2N1C(=O)CSc1ncc(C(=O)NCCCNC(=O)c2ccc(-c3c4nc(c(-c5cc(S(=O)(=O)[O-])ccc5F)c5ccc([nH]5)c(-c5cc(S(=O)(=O)[O-])ccc5F)c5nc(c(-c6cc(S(=O)(=O)[O-])ccc6F)c6ccc3[nH]6)C=C5)C=C4)cc2)n1-c1ccc(F)cc1
REMARK SMILES IDX 22 1 21 2 19 3 20 4 18 6 15 7 16 8 91 9 17 10 14 11 13 12
REMARK SMILES IDX 11 13 12 14 10 15 1 16 2 17 3 18 4 19 9 20 5 21 8 22 6 23
REMARK SMILES IDX 7 24 92 25 93 26 98 27 94 28 97 29 95 30 96 31 23 32 24 33
REMARK SMILES IDX 25 34 26 35 27 37 28 38 29 39 90 40 30 41 89 42 31 43 32 44
REMARK SMILES IDX 33 45 83 46 34 47 88 48 82 49 84 50 35 51 87 52 81 53 80 54
REMARK SMILES IDX 36 56 68 57 48 58 67 59 49 60 52 61 66 62 85 63 50 64 51 65
REMARK SMILES IDX 65 67 86 68 53 69 37 70 38 71 46 72 39 73 45 74 47 75 44 76
REMARK SMILES IDX 40 77 41 78 42 79 43 80 69 81 70 82 78 83 71 84 77 85 79 86
REMARK SMILES IDX 76 87 72 88 73 89 74 90 75 91 54 92 55 93 63 94 56 95 62 96
REMARK SMILES IDX 64 97 61 98 57 99 58 100 59 101 60 102
REMARK H PARENT 21 5 25 36 84 55 52 66
REMARK Flexibility Score: inf
ROOT
ATOM      1  C   UNL A   1      33.902  30.206  27.251  1.00  0.00     0.118 C 
ENDROOT
BRANCH   1   2
ATOM      2  N   UNL A   1      32.843  29.334  27.728  1.00  0.00    -0.351 N 
ATOM      3  C   UNL A   1      31.894  28.527  27.154  1.00  0.00     0.269 C 
ATOM      4  O   UNL A   1      31.226  27.903  27.967  1.00  0.00    -0.268 OA
ATOM      5  H   UNL A   1      32.795  29.316  28.711  1.00  0.00     0.163 HD
BRANCH   3   6
ATOM      6  C   UNL A   1      31.722  28.394  25.722  1.00  0.00     0.132 A 
ATOM      7  C   UNL A   1      31.780  27.510  23.664  1.00  0.00     0.173 A 
ATOM      8  N   UNL A   1      31.478  28.767  23.474  1.00  0.00    -0.230 NA
ATOM      9  N   UNL A   1      31.914  27.200  25.011  1.00  0.00    -0.283 N 
ATOM     10  C   UNL A   1      31.389  29.301  24.730  1.00  0.00     0.146 A 
BRANCH   7  11
ATOM     11  S   UNL A   1      31.574  26.318  22.420  1.00  0.00    -0.078 SA
BRANCH  11  12
ATOM     12  C   UNL A   1      33.230  25.633  22.204  1.00  0.00     0.178 C 
BRANCH  12  13
ATOM     13  C   UNL A   1      33.299  24.197  21.739  1.00  0.00     0.237 C 
ATOM     14  O   UNL A   1      33.279  24.007  20.513  1.00  0.00    -0.274 OA
BRANCH  13  15
ATOM     15  N   UNL A   1      33.466  23.145  22.617  1.00  0.00    -0.308 N 
ATOM     16  C   UNL A   1      31.041  22.796  23.283  1.00  0.00     0.032 C 
ATOM     17  C   UNL A   1      32.361  22.168  22.827  1.00  0.00     0.092 C 
ATOM     18  C   UNL A   1      32.847  21.153  23.880  1.00  0.00     0.063 C 
ATOM     19  C   UNL A   1      34.218  21.651  24.195  1.00  0.00    -0.022 A 
ATOM     20  C   UNL A   1      34.570  22.747  23.405  1.00  0.00     0.047 A 
ATOM     21  C   UNL A   1      35.083  21.115  25.143  1.00  0.00     0.006 A 
ATOM     22  C   UNL A   1      35.860  23.244  23.492  1.00  0.00     0.026 A 
ATOM     23  C   UNL A   1      36.349  21.676  25.283  1.00  0.00     0.000 A 
ATOM     24  C   UNL A   1      36.742  22.723  24.447  1.00  0.00     0.002 A 
ENDBRANCH  13  15
ENDBRANCH  12  13
ENDBRANCH  11  12
ENDBRANCH   7  11
BRANCH   9  25
ATOM     25  C   UNL A   1      32.080  25.881  25.519  1.00  0.00     0.049 A 
ATOM     26  C   UNL A   1      30.949  25.146  25.908  1.00  0.00     0.030 A 
ATOM     27  C   UNL A   1      33.367  25.395  25.781  1.00  0.00     0.030 A 
ATOM     28  C   UNL A   1      31.108  23.946  26.600  1.00  0.00     0.041 A 
ATOM     29  C   UNL A   1      33.516  24.189  26.469  1.00  0.00     0.041 A 
ATOM     30  C   UNL A   1      32.388  23.485  26.884  1.00  0.00     0.123 A 
ATOM     31  F   UNL A   1      32.537  22.350  27.579  1.00  0.00    -0.207 F 
ENDBRANCH   9  25
ENDBRANCH   3   6
ENDBRANCH   1   2
BRANCH   1  32
ATOM     32  C   UNL A   1      33.502  31.681  27.330  1.00  0.00     0.042 C 
BRANCH  32  33
ATOM     33  C   UNL A   1      34.666  32.615  27.680  1.00  0.00     0.118 C 
BRANCH  33  34
ATOM     34  N   UNL A   1      34.780  32.910  29.095  1.00  0.00    -0.352 N 
ATOM     35  C   UNL A   1      35.663  32.592  30.090  1.00  0.00     0.251 C 
ATOM     36  H   UNL A   1      34.042  33.475  29.420  1.00  0.00     0.163 HD
ATOM     37  O   UNL A   1      35.418  33.094  31.191  1.00  0.00    -0.269 OA
BRANCH  35  38
ATOM     38  C   UNL A   1      36.832  31.679  29.956  1.00  0.00     0.039 A 
ATOM     39  C   UNL A   1      36.771  30.305  29.721  1.00  0.00     0.014 A 
ATOM     40  C   UNL A   1      38.099  32.271  30.120  1.00  0.00     0.014 A 
ATOM     41  C   UNL A   1      37.929  29.532  29.741  1.00  0.00     0.010 A 
ATOM     42  C   UNL A   1      39.262  31.507  30.118  1.00  0.00     0.010 A 
ATOM     43  C   UNL A   1      39.172  30.126  29.979  1.00  0.00    -0.014 A 
BRANCH  43  44
ATOM     44  C   UNL A   1      40.346  29.256  30.031  1.00  0.00     0.031 A 
ATOM     45  C   UNL A   1      40.745  28.761  31.383  1.00  0.00     0.074 A 
ATOM     46  C   UNL A   1      40.988  28.811  28.933  1.00  0.00     0.049 A 
ATOM     47  N   UNL A   1      41.851  28.960  32.026  1.00  0.00    -0.248 NA
ATOM     48  C   UNL A   1      39.735  28.016  32.145  1.00  0.00     0.031 C 
ATOM     49  C   UNL A   1      40.560  28.910  27.534  1.00  0.00     0.029 A 
ATOM     50  N   UNL A   1      42.126  28.066  28.856  1.00  0.00    -0.354 N 
ATOM     51  C   UNL A   1      41.750  28.226  33.211  1.00  0.00     0.074 A 
ATOM     52  C   UNL A   1      40.383  27.773  33.285  1.00  0.00     0.031 C 
ATOM     53  C   UNL A   1      41.293  28.054  26.786  1.00  0.00     0.029 A 
ATOM     54  C   UNL A   1      42.333  27.477  27.620  1.00  0.00     0.049 A 
ATOM     55  H   UNL A   1      42.746  27.958  29.613  1.00  0.00     0.167 HD
ATOM     56  C   UNL A   1      42.834  27.904  33.977  1.00  0.00     0.034 A 
ATOM     57  C   UNL A   1      43.240  26.516  27.321  1.00  0.00     0.034 A 
ATOM     58  C   UNL A   1      43.982  28.694  33.633  1.00  0.00     0.049 A 
ATOM     59  C   UNL A   1      44.283  26.508  28.373  1.00  0.00     0.074 A 
ATOM     60  C   UNL A   1      44.298  30.035  33.693  1.00  0.00     0.029 A 
ATOM     61  N   UNL A   1      44.946  28.120  32.843  1.00  0.00    -0.354 N 
ATOM     62  N   UNL A   1      45.165  27.452  28.545  1.00  0.00    -0.248 NA
ATOM     63  C   UNL A   1      44.093  25.615  29.505  1.00  0.00     0.031 C 
ATOM     64  C   UNL A   1      45.130  30.269  32.562  1.00  0.00     0.029 A 
ATOM     65  C   UNL A   1      45.302  29.050  31.901  1.00  0.00     0.049 A 
ATOM     66  H   UNL A   1      45.313  27.212  32.934  1.00  0.00     0.167 HD
ATOM     67  C   UNL A   1      45.304  27.551  29.922  1.00  0.00     0.074 A 
ATOM     68  C   UNL A   1      44.716  26.322  30.450  1.00  0.00     0.031 C 
ATOM     69  C   UNL A   1      45.626  28.734  30.525  1.00  0.00     0.034 A 
BRANCH  56  70
ATOM     70  C   UNL A   1      42.937  26.674  34.851  1.00  0.00     0.023 A 
ATOM     71  C   UNL A   1      43.725  25.561  34.510  1.00  0.00     0.031 A 
ATOM     72  C   UNL A   1      42.420  26.675  36.167  1.00  0.00     0.131 A 
ATOM     73  C   UNL A   1      43.964  24.518  35.416  1.00  0.00     0.055 A 
ATOM     74  C   UNL A   1      42.715  25.667  37.095  1.00  0.00     0.041 A 
ATOM     75  F   UNL A   1      41.660  27.688  36.612  1.00  0.00    -0.206 F 
ATOM     76  C   UNL A   1      43.490  24.579  36.721  1.00  0.00     0.022 A 
BRANCH  73  77
ATOM     77  S   UNL A   1      44.908  23.059  34.900  1.00  0.00     0.124 S 
ATOM     78  O   UNL A   1      46.025  23.665  34.182  1.00  0.00    -0.237 OA
ATOM     79  O   UNL A   1      45.238  22.448  36.185  1.00  0.00    -0.237 OA
ATOM     80  O   UNL A   1      43.956  22.309  34.086  1.00  0.00    -0.744 OA
ENDBRANCH  73  77
ENDBRANCH  56  70
BRANCH  57  81
ATOM     81  C   UNL A   1      42.986  25.334  26.467  1.00  0.00     0.023 A 
ATOM     82  C   UNL A   1      42.066  24.357  26.892  1.00  0.00     0.031 A 
ATOM     83  C   UNL A   1      43.843  25.001  25.406  1.00  0.00     0.131 A 
ATOM     84  C   UNL A   1      42.049  23.089  26.299  1.00  0.00     0.055 A 
ATOM     85  C   UNL A   1      43.814  23.737  24.804  1.00  0.00     0.041 A 
ATOM     86  F   UNL A   1      44.767  25.875  24.978  1.00  0.00    -0.206 F 
ATOM     87  C   UNL A   1      42.923  22.769  25.259  1.00  0.00     0.022 A 
BRANCH  84  88
ATOM     88  S   UNL A   1      40.935  21.802  26.926  1.00  0.00     0.124 S 
ATOM     89  O   UNL A   1      39.631  22.271  26.465  1.00  0.00    -0.237 OA
ATOM     90  O   UNL A   1      41.449  20.613  26.257  1.00  0.00    -0.237 OA
ATOM     91  O   UNL A   1      41.132  21.855  28.372  1.00  0.00    -0.744 OA
ENDBRANCH  84  88
ENDBRANCH  57  81
BRANCH  69  92
ATOM     92  C   UNL A   1      46.081  29.898  29.670  1.00  0.00     0.023 A 
ATOM     93  C   UNL A   1      45.131  30.484  28.812  1.00  0.00     0.031 A 
ATOM     94  C   UNL A   1      47.426  30.275  29.499  1.00  0.00     0.131 A 
ATOM     95  C   UNL A   1      45.535  31.370  27.806  1.00  0.00     0.055 A 
ATOM     96  C   UNL A   1      47.816  31.218  28.542  1.00  0.00     0.041 A 
ATOM     97  F   UNL A   1      48.414  29.683  30.183  1.00  0.00    -0.206 F 
ATOM     98  C   UNL A   1      46.871  31.758  27.677  1.00  0.00     0.022 A 
BRANCH  95  99
ATOM     99  S   UNL A   1      44.364  31.914  26.536  1.00  0.00     0.124 S 
ATOM    100  O   UNL A   1      45.229  32.101  25.376  1.00  0.00    -0.237 OA
ATOM    101  O   UNL A   1      43.446  30.779  26.455  1.00  0.00    -0.237 OA
ATOM    102  O   UNL A   1      43.784  33.135  27.088  1.00  0.00    -0.744 OA
ENDBRANCH  95  99
ENDBRANCH  69  92
ENDBRANCH  43  44
ENDBRANCH  35  38
ENDBRANCH  33  34
ENDBRANCH  32  33
ENDBRANCH   1  32
TORSDOF 18
ENDMDL
MODEL 3
REMARK VINA RESULT:     -12.7      3.394      8.836
REMARK SMILES C[C@@H]1Cc2ccccc2N1C(=O)CSc1ncc(C(=O)NCCCNC(=O)c2ccc(-c3c4nc(c(-c5cc(S(=O)(=O)[O-])ccc5F)c5ccc([nH]5)c(-c5cc(S(=O)(=O)[O-])ccc5F)c5nc(c(-c6cc(S(=O)(=O)[O-])ccc6F)c6ccc3[nH]6)C=C5)C=C4)cc2)n1-c1ccc(F)cc1
REMARK SMILES IDX 22 1 21 2 19 3 20 4 18 6 15 7 16 8 91 9 17 10 14 11 13 12
REMARK SMILES IDX 11 13 12 14 10 15 1 16 2 17 3 18 4 19 9 20 5 21 8 22 6 23
REMARK SMILES IDX 7 24 92 25 93 26 98 27 94 28 97 29 95 30 96 31 23 32 24 33
REMARK SMILES IDX 25 34 26 35 27 37 28 38 29 39 90 40 30 41 89 42 31 43 32 44
REMARK SMILES IDX 33 45 83 46 34 47 88 48 82 49 84 50 35 51 87 52 81 53 80 54
REMARK SMILES IDX 36 56 68 57 48 58 67 59 49 60 52 61 66 62 85 63 50 64 51 65
REMARK SMILES IDX 65 67 86 68 53 69 37 70 38 71 46 72 39 73 45 74 47 75 44 76
REMARK SMILES IDX 40 77 41 78 42 79 43 80 69 81 70 82 78 83 71 84 77 85 79 86
REMARK SMILES IDX 76 87 72 88 73 89 74 90 75 91 54 92 55 93 63 94 56 95 62 96
REMARK SMILES IDX 64 97 61 98 57 99 58 100 59 101 60 102
REMARK H PARENT 21 5 25 36 84 55 52 66
REMARK Flexibility Score: inf
ROOT
ATOM      1  C   UNL A   1      37.857  21.300  25.364  1.00  0.00     0.118 C 
ENDROOT
BRANCH   1   2
ATOM      2  N   UNL A   1      37.512  21.940  24.107  1.00  0.00    -0.351 N 
ATOM      3  C   UNL A   1      36.575  22.849  23.685  1.00  0.00     0.269 C 
ATOM      4  O   UNL A   1      36.694  23.164  22.509  1.00  0.00    -0.268 OA
ATOM      5  H   UNL A   1      38.099  21.650  23.372  1.00  0.00     0.163 HD
BRANCH   3   6
ATOM      6  C   UNL A   1      35.565  23.414  24.556  1.00  0.00     0.132 A 
ATOM      7  C   UNL A   1      33.580  23.758  25.536  1.00  0.00     0.173 A 
ATOM      8  N   UNL A   1      34.309  24.777  25.904  1.00  0.00    -0.230 NA
ATOM      9  N   UNL A   1      34.285  22.868  24.738  1.00  0.00    -0.283 N 
ATOM     10  C   UNL A   1      35.539  24.547  25.351  1.00  0.00     0.146 A 
BRANCH   7  11
ATOM     11  S   UNL A   1      32.088  23.362  26.331  1.00  0.00    -0.078 SA
BRANCH  11  12
ATOM     12  C   UNL A   1      30.825  24.061  25.247  1.00  0.00     0.178 C 
BRANCH  12  13
ATOM     13  C   UNL A   1      30.198  25.356  25.708  1.00  0.00     0.237 C 
ATOM     14  O   UNL A   1      29.448  25.291  26.694  1.00  0.00    -0.274 OA
BRANCH  13  15
ATOM     15  N   UNL A   1      30.502  26.571  25.128  1.00  0.00    -0.308 N 
ATOM     16  C   UNL A   1      32.149  27.434  26.857  1.00  0.00     0.032 C 
ATOM     17  C   UNL A   1      31.827  27.204  25.377  1.00  0.00     0.092 C 
ATOM     18  C   UNL A   1      31.834  28.550  24.627  1.00  0.00     0.063 C 
ATOM     19  C   UNL A   1      30.479  28.576  24.003  1.00  0.00    -0.022 A 
ATOM     20  C   UNL A   1      29.769  27.400  24.248  1.00  0.00     0.047 A 
ATOM     21  C   UNL A   1      29.947  29.618  23.250  1.00  0.00     0.006 A 
ATOM     22  C   UNL A   1      28.543  27.221  23.630  1.00  0.00     0.026 A 
ATOM     23  C   UNL A   1      28.677  29.464  22.703  1.00  0.00     0.000 A 
ATOM     24  C   UNL A   1      27.987  28.262  22.876  1.00  0.00     0.002 A 
ENDBRANCH  13  15
ENDBRANCH  12  13
ENDBRANCH  11  12
ENDBRANCH   7  11
BRANCH   9  25
ATOM     25  C   UNL A   1      33.796  21.596  24.326  1.00  0.00     0.049 A 
ATOM     26  C   UNL A   1      32.816  21.526  23.325  1.00  0.00     0.030 A 
ATOM     27  C   UNL A   1      34.173  20.446  25.032  1.00  0.00     0.030 A 
ATOM     28  C   UNL A   1      32.179  20.314  23.063  1.00  0.00     0.041 A 
ATOM     29  C   UNL A   1      33.534  19.235  24.758  1.00  0.00     0.041 A 
ATOM     30  C   UNL A   1      32.535  19.183  23.789  1.00  0.00     0.123 A 
ATOM     31  F   UNL A   1      31.897  18.029  23.559  1.00  0.00    -0.207 F 
ENDBRANCH   9  25
ENDBRANCH   3   6
ENDBRANCH   1   2
BRANCH   1  32
ATOM     32  C   UNL A   1      38.878  22.118  26.157  1.00  0.00     0.042 C 
BRANCH  32  33
ATOM     33  C   UNL A   1      40.154  21.342  26.499  1.00  0.00     0.118 C 
BRANCH  33  34
ATOM     34  N   UNL A   1      41.330  21.795  25.781  1.00  0.00    -0.352 N 
ATOM     35  C   UNL A   1      42.074  22.941  25.753  1.00  0.00     0.251 C 
ATOM     36  H   UNL A   1      41.677  21.111  25.163  1.00  0.00     0.163 HD
ATOM     37  O   UNL A   1      43.059  22.911  25.009  1.00  0.00    -0.269 OA
BRANCH  35  38
ATOM     38  C   UNL A   1      41.766  24.196  26.492  1.00  0.00     0.039 A 
ATOM     39  C   UNL A   1      40.886  25.195  26.074  1.00  0.00     0.014 A 
ATOM     40  C   UNL A   1      42.463  24.386  27.701  1.00  0.00     0.014 A 
ATOM     41  C   UNL A   1      40.774  26.385  26.789  1.00  0.00     0.010 A 
ATOM     42  C   UNL A   1      42.338  25.564  28.433  1.00  0.00     0.010 A 
ATOM     43  C   UNL A   1      41.529  26.587  27.948  1.00  0.00    -0.014 A 
BRANCH  43  44
ATOM     44  C   UNL A   1      41.401  27.873  28.632  1.00  0.00     0.031 A 
ATOM     45  C   UNL A   1      42.336  28.952  28.195  1.00  0.00     0.074 A 
ATOM     46  C   UNL A   1      40.430  28.142  29.527  1.00  0.00     0.049 A 
ATOM     47  N   UNL A   1      43.236  29.575  28.886  1.00  0.00    -0.248 NA
ATOM     48  C   UNL A   1      42.315  29.318  26.772  1.00  0.00     0.031 C 
ATOM     49  C   UNL A   1      39.240  27.345  29.838  1.00  0.00     0.029 A 
ATOM     50  N   UNL A   1      40.255  29.265  30.278  1.00  0.00    -0.354 N 
ATOM     51  C   UNL A   1      43.787  30.537  28.034  1.00  0.00     0.074 A 
ATOM     52  C   UNL A   1      43.272  30.245  26.719  1.00  0.00     0.031 C 
ATOM     53  C   UNL A   1      38.360  28.111  30.522  1.00  0.00     0.029 A 
ATOM     54  C   UNL A   1      38.989  29.384  30.830  1.00  0.00     0.049 A 
ATOM     55  H   UNL A   1      40.965  29.933  30.417  1.00  0.00     0.167 HD
ATOM     56  C   UNL A   1      44.506  31.605  28.489  1.00  0.00     0.034 A 
ATOM     57  C   UNL A   1      38.462  30.482  31.421  1.00  0.00     0.034 A 
ATOM     58  C   UNL A   1      44.926  31.424  29.849  1.00  0.00     0.049 A 
ATOM     59  C   UNL A   1      39.569  31.386  31.810  1.00  0.00     0.074 A 
ATOM     60  C   UNL A   1      45.760  30.542  30.504  1.00  0.00     0.029 A 
ATOM     61  N   UNL A   1      44.217  32.066  30.833  1.00  0.00    -0.354 N 
ATOM     62  N   UNL A   1      40.424  31.140  32.761  1.00  0.00    -0.248 NA
ATOM     63  C   UNL A   1      39.972  32.409  30.857  1.00  0.00     0.031 C 
ATOM     64  C   UNL A   1      45.168  30.358  31.786  1.00  0.00     0.029 A 
ATOM     65  C   UNL A   1      44.029  31.165  31.849  1.00  0.00     0.049 A 
ATOM     66  H   UNL A   1      43.901  32.998  30.814  1.00  0.00     0.167 HD
ATOM     67  C   UNL A   1      41.630  31.630  32.283  1.00  0.00     0.074 A 
ATOM     68  C   UNL A   1      41.266  32.502  31.168  1.00  0.00     0.031 C 
ATOM     69  C   UNL A   1      42.824  31.074  32.647  1.00  0.00     0.034 A 
BRANCH  56  70
ATOM     70  C   UNL A   1      44.593  32.944  27.792  1.00  0.00     0.023 A 
ATOM     71  C   UNL A   1      43.678  33.986  28.029  1.00  0.00     0.031 A 
ATOM     72  C   UNL A   1      45.732  33.294  27.033  1.00  0.00     0.131 A 
ATOM     73  C   UNL A   1      43.885  35.279  27.527  1.00  0.00     0.055 A 
ATOM     74  C   UNL A   1      45.973  34.602  26.590  1.00  0.00     0.041 A 
ATOM     75  F   UNL A   1      46.680  32.387  26.749  1.00  0.00    -0.206 F 
ATOM     76  C   UNL A   1      45.045  35.604  26.835  1.00  0.00     0.022 A 
BRANCH  73  77
ATOM     77  S   UNL A   1      42.632  36.565  27.779  1.00  0.00     0.124 S 
ATOM     78  O   UNL A   1      43.004  37.546  26.764  1.00  0.00    -0.237 OA
ATOM     79  O   UNL A   1      41.395  35.830  27.526  1.00  0.00    -0.237 OA
ATOM     80  O   UNL A   1      42.835  36.971  29.166  1.00  0.00    -0.744 OA
ENDBRANCH  73  77
ENDBRANCH  56  70
BRANCH  57  81
ATOM     81  C   UNL A   1      37.081  30.980  31.228  1.00  0.00     0.023 A 
ATOM     82  C   UNL A   1      36.605  31.216  29.925  1.00  0.00     0.031 A 
ATOM     83  C   UNL A   1      36.339  31.508  32.296  1.00  0.00     0.131 A 
ATOM     84  C   UNL A   1      35.459  31.991  29.715  1.00  0.00     0.055 A 
ATOM     85  C   UNL A   1      35.183  32.270  32.085  1.00  0.00     0.041 A 
ATOM     86  F   UNL A   1      36.759  31.349  33.561  1.00  0.00    -0.206 F 
ATOM     87  C   UNL A   1      34.745  32.526  30.788  1.00  0.00     0.022 A 
BRANCH  84  88
ATOM     88  S   UNL A   1      34.916  32.381  28.029  1.00  0.00     0.124 S 
ATOM     89  O   UNL A   1      34.934  31.069  27.387  1.00  0.00    -0.237 OA
ATOM     90  O   UNL A   1      33.594  32.947  28.265  1.00  0.00    -0.237 OA
ATOM     91  O   UNL A   1      35.933  33.314  27.550  1.00  0.00    -0.744 OA
ENDBRANCH  84  88
ENDBRANCH  57  81
BRANCH  69  92
ATOM     92  C   UNL A   1      42.855  30.069  33.779  1.00  0.00     0.023 A 
ATOM     93  C   UNL A   1      43.290  30.524  35.038  1.00  0.00     0.031 A 
ATOM     94  C   UNL A   1      42.711  28.680  33.607  1.00  0.00     0.131 A 
ATOM     95  C   UNL A   1      43.604  29.611  36.052  1.00  0.00     0.055 A 
ATOM     96  C   UNL A   1      42.954  27.775  34.646  1.00  0.00     0.041 A 
ATOM     97  F   UNL A   1      42.422  28.146  32.413  1.00  0.00    -0.206 F 
ATOM     98  C   UNL A   1      43.420  28.237  35.871  1.00  0.00     0.022 A 
BRANCH  95  99
ATOM     99  S   UNL A   1      44.416  30.169  37.572  1.00  0.00     0.124 S 
ATOM    100  O   UNL A   1      45.576  30.891  37.056  1.00  0.00    -0.237 OA
ATOM    101  O   UNL A   1      43.384  31.002  38.187  1.00  0.00    -0.237 OA
ATOM    102  O   UNL A   1      44.717  28.934  38.288  1.00  0.00    -0.744 OA
ENDBRANCH  95  99
ENDBRANCH  69  92
ENDBRANCH  43  44
ENDBRANCH  35  38
ENDBRANCH  33  34
ENDBRANCH  32  33
ENDBRANCH   1  32
TORSDOF 18
ENDMDL
