MODEL 1
REMARK VINA RESULT:     -12.1      0.000      0.000
REMARK SMILES COc1ccccc1CCNC(=O)[C@@H]1[C@@H](C(=O)NCCCNC(=O)c2ccc(-c3c4nc(c(-c5cc(S(=O)(=O)[O-])ccc5F)c5ccc([nH]5)c(-c5cc(S(=O)(=O)[O-])ccc5F)c5nc(c(-c6cc(S(=O)(=O)[O-])ccc6F)c6ccc3[nH]6)C=C5)C=C4)cc2)[C@H]2C=C[C@@H]1CC2
REMARK SMILES IDX 19 1 18 2 16 3 17 4 15 6 14 7 91 8 88 9 90 10 92 11 89 12
REMARK SMILES IDX 93 13 12 14 11 15 13 17 10 18 9 19 8 20 3 21 4 22 5 23 7 24
REMARK SMILES IDX 6 25 2 26 1 27 20 28 21 29 22 30 23 31 24 33 25 34 26 35
REMARK SMILES IDX 87 36 27 37 86 38 28 39 29 40 30 41 80 42 31 43 85 44 79 45
REMARK SMILES IDX 81 46 32 47 84 48 78 49 77 50 33 52 65 53 45 54 64 55 46 56
REMARK SMILES IDX 49 57 63 58 82 59 47 60 48 61 62 63 83 64 50 65 34 66 35 67
REMARK SMILES IDX 43 68 36 69 42 70 44 71 41 72 37 73 38 74 39 75 40 76 66 77
REMARK SMILES IDX 67 78 75 79 68 80 74 81 76 82 73 83 69 84 70 85 71 86 72 87
REMARK SMILES IDX 51 88 52 89 60 90 53 91 59 92 61 93 58 94 54 95 55 96 56 97
REMARK SMILES IDX 57 98
REMARK H PARENT 18 5 11 16 22 32 81 51 49 62
REMARK Flexibility Score: inf
ROOT
ATOM      1  C   UNL A   1      31.176  26.814  26.245  1.00  0.00     0.117 C 
ENDROOT
BRANCH   1   2
ATOM      2  N   UNL A   1      31.078  25.467  26.785  1.00  0.00    -0.356 N 
ATOM      3  C   UNL A   1      31.820  24.339  26.670  1.00  0.00     0.224 C 
ATOM      4  O   UNL A   1      31.540  23.467  27.507  1.00  0.00    -0.275 OA
ATOM      5  H   UNL A   1      30.293  25.347  27.367  1.00  0.00     0.163 HD
BRANCH   3   6
ATOM      6  C   UNL A   1      32.880  24.004  25.595  1.00  0.00     0.098 C 
ATOM      7  C   UNL A   1      32.575  22.582  24.995  1.00  0.00     0.098 C 
ATOM      8  C   UNL A   1      33.908  21.751  25.010  1.00  0.00     0.025 C 
ATOM      9  C   UNL A   1      34.385  24.100  25.980  1.00  0.00     0.025 C 
ATOM     10  C   UNL A   1      34.456  21.729  26.414  1.00  0.00    -0.027 C 
ATOM     11  C   UNL A   1      34.970  22.485  24.141  1.00  0.00     0.009 C 
ATOM     12  C   UNL A   1      34.764  22.941  26.890  1.00  0.00    -0.027 C 
ATOM     13  C   UNL A   1      35.210  23.906  24.691  1.00  0.00     0.009 C 
BRANCH   7  14
ATOM     14  C   UNL A   1      31.970  22.377  23.589  1.00  0.00     0.224 C 
ATOM     15  N   UNL A   1      31.125  23.192  22.932  1.00  0.00    -0.355 N 
ATOM     16  H   UNL A   1      30.605  22.718  22.243  1.00  0.00     0.163 HD
ATOM     17  O   UNL A   1      32.166  21.305  22.994  1.00  0.00    -0.275 OA
BRANCH  15  18
ATOM     18  C   UNL A   1      30.800  24.605  22.996  1.00  0.00     0.120 C 
BRANCH  18  19
ATOM     19  C   UNL A   1      31.731  25.414  22.086  1.00  0.00     0.060 C 
BRANCH  19  20
ATOM     20  C   UNL A   1      32.168  26.741  22.679  1.00  0.00    -0.004 A 
ATOM     21  C   UNL A   1      31.416  27.928  22.670  1.00  0.00     0.122 A 
ATOM     22  C   UNL A   1      31.959  29.106  23.211  1.00  0.00     0.047 A 
ATOM     23  C   UNL A   1      33.244  29.130  23.755  1.00  0.00     0.004 A 
ATOM     24  C   UNL A   1      33.472  26.793  23.224  1.00  0.00     0.007 A 
ATOM     25  C   UNL A   1      34.006  27.972  23.749  1.00  0.00     0.001 A 
BRANCH  21  26
ATOM     26  O   UNL A   1      30.209  28.135  22.059  1.00  0.00    -0.496 OA
ATOM     27  C   UNL A   1      29.690  29.456  22.066  1.00  0.00     0.278 C 
ENDBRANCH  21  26
ENDBRANCH  19  20
ENDBRANCH  18  19
ENDBRANCH  15  18
ENDBRANCH   7  14
ENDBRANCH   3   6
ENDBRANCH   1   2
BRANCH   1  28
ATOM     28  C   UNL A   1      31.339  27.893  27.301  1.00  0.00     0.042 C 
BRANCH  28  29
ATOM     29  C   UNL A   1      32.657  28.644  27.221  1.00  0.00     0.118 C 
BRANCH  29  30
ATOM     30  N   UNL A   1      32.479  30.076  26.998  1.00  0.00    -0.352 N 
ATOM     31  C   UNL A   1      33.269  31.155  27.327  1.00  0.00     0.251 C 
ATOM     32  H   UNL A   1      31.646  30.312  26.529  1.00  0.00     0.163 HD
ATOM     33  O   UNL A   1      32.802  32.284  27.223  1.00  0.00    -0.269 OA
BRANCH  31  34
ATOM     34  C   UNL A   1      34.650  30.964  27.829  1.00  0.00     0.039 A 
ATOM     35  C   UNL A   1      35.505  32.067  27.904  1.00  0.00     0.014 A 
ATOM     36  C   UNL A   1      35.112  29.706  28.214  1.00  0.00     0.014 A 
ATOM     37  C   UNL A   1      36.783  31.921  28.455  1.00  0.00     0.010 A 
ATOM     38  C   UNL A   1      36.334  29.583  28.868  1.00  0.00     0.010 A 
ATOM     39  C   UNL A   1      37.185  30.689  28.996  1.00  0.00    -0.014 A 
BRANCH  39  40
ATOM     40  C   UNL A   1      38.482  30.536  29.710  1.00  0.00     0.031 A 
ATOM     41  C   UNL A   1      39.588  29.713  29.103  1.00  0.00     0.074 A 
ATOM     42  C   UNL A   1      38.631  31.073  30.938  1.00  0.00     0.049 A 
ATOM     43  N   UNL A   1      40.748  29.385  29.610  1.00  0.00    -0.248 NA
ATOM     44  C   UNL A   1      39.341  29.157  27.763  1.00  0.00     0.031 C 
ATOM     45  C   UNL A   1      37.613  31.851  31.649  1.00  0.00     0.029 A 
ATOM     46  N   UNL A   1      39.689  31.043  31.811  1.00  0.00    -0.354 N 
ATOM     47  C   UNL A   1      41.362  28.574  28.660  1.00  0.00     0.074 A 
ATOM     48  C   UNL A   1      40.414  28.404  27.580  1.00  0.00     0.031 C 
ATOM     49  C   UNL A   1      38.109  32.253  32.829  1.00  0.00     0.029 A 
ATOM     50  C   UNL A   1      39.455  31.714  32.989  1.00  0.00     0.049 A 
ATOM     51  H   UNL A   1      40.538  30.584  31.612  1.00  0.00     0.167 HD
ATOM     52  C   UNL A   1      42.611  28.045  28.676  1.00  0.00     0.034 A 
ATOM     53  C   UNL A   1      40.228  31.865  34.084  1.00  0.00     0.034 A 
ATOM     54  C   UNL A   1      43.546  28.236  29.757  1.00  0.00     0.049 A 
ATOM     55  C   UNL A   1      41.598  31.233  34.093  1.00  0.00     0.074 A 
ATOM     56  C   UNL A   1      44.854  27.798  29.851  1.00  0.00     0.029 A 
ATOM     57  N   UNL A   1      43.269  28.912  30.939  1.00  0.00    -0.354 N 
ATOM     58  N   UNL A   1      42.186  30.520  33.159  1.00  0.00    -0.248 NA
ATOM     59  C   UNL A   1      42.411  31.433  35.299  1.00  0.00     0.031 C 
ATOM     60  C   UNL A   1      45.340  28.136  31.119  1.00  0.00     0.029 A 
ATOM     61  C   UNL A   1      44.368  28.865  31.784  1.00  0.00     0.049 A 
ATOM     62  H   UNL A   1      42.417  29.359  31.147  1.00  0.00     0.167 HD
ATOM     63  C   UNL A   1      43.447  30.209  33.658  1.00  0.00     0.074 A 
ATOM     64  C   UNL A   1      43.542  30.833  34.962  1.00  0.00     0.031 C 
ATOM     65  C   UNL A   1      44.439  29.476  33.091  1.00  0.00     0.034 A 
BRANCH  52  66
ATOM     66  C   UNL A   1      43.022  27.192  27.497  1.00  0.00     0.023 A 
ATOM     67  C   UNL A   1      42.793  25.805  27.473  1.00  0.00     0.031 A 
ATOM     68  C   UNL A   1      43.670  27.769  26.390  1.00  0.00     0.131 A 
ATOM     69  C   UNL A   1      43.276  25.032  26.406  1.00  0.00     0.055 A 
ATOM     70  C   UNL A   1      44.070  27.007  25.290  1.00  0.00     0.041 A 
ATOM     71  F   UNL A   1      43.938  29.084  26.364  1.00  0.00    -0.206 F 
ATOM     72  C   UNL A   1      43.888  25.627  25.301  1.00  0.00     0.022 A 
BRANCH  69  73
ATOM     73  S   UNL A   1      43.230  23.225  26.556  1.00  0.00     0.124 S 
ATOM     74  O   UNL A   1      43.409  23.046  27.996  1.00  0.00    -0.237 OA
ATOM     75  O   UNL A   1      41.910  22.898  26.031  1.00  0.00    -0.237 OA
ATOM     76  O   UNL A   1      44.357  22.784  25.737  1.00  0.00    -0.744 OA
ENDBRANCH  69  73
ENDBRANCH  52  66
BRANCH  53  77
ATOM     77  C   UNL A   1      39.730  32.625  35.267  1.00  0.00     0.023 A 
ATOM     78  C   UNL A   1      39.014  31.983  36.289  1.00  0.00     0.031 A 
ATOM     79  C   UNL A   1      39.923  34.015  35.372  1.00  0.00     0.131 A 
ATOM     80  C   UNL A   1      38.474  32.734  37.345  1.00  0.00     0.055 A 
ATOM     81  C   UNL A   1      39.437  34.748  36.456  1.00  0.00     0.041 A 
ATOM     82  F   UNL A   1      40.602  34.680  34.425  1.00  0.00    -0.206 F 
ATOM     83  C   UNL A   1      38.694  34.110  37.444  1.00  0.00     0.022 A 
BRANCH  80  84
ATOM     84  S   UNL A   1      37.393  31.901  38.539  1.00  0.00     0.124 S 
ATOM     85  O   UNL A   1      38.174  32.004  39.767  1.00  0.00    -0.237 OA
ATOM     86  O   UNL A   1      36.186  32.719  38.477  1.00  0.00    -0.237 OA
ATOM     87  O   UNL A   1      37.259  30.553  37.994  1.00  0.00    -0.744 OA
ENDBRANCH  80  84
ENDBRANCH  53  77
BRANCH  65  88
ATOM     88  C   UNL A   1      45.724  29.340  33.874  1.00  0.00     0.023 A 
ATOM     89  C   UNL A   1      45.933  28.275  34.768  1.00  0.00     0.031 A 
ATOM     90  C   UNL A   1      46.746  30.295  33.732  1.00  0.00     0.131 A 
ATOM     91  C   UNL A   1      47.108  28.225  35.532  1.00  0.00     0.055 A 
ATOM     92  C   UNL A   1      47.943  30.200  34.442  1.00  0.00     0.041 A 
ATOM     93  F   UNL A   1      46.600  31.335  32.896  1.00  0.00    -0.206 F 
ATOM     94  C   UNL A   1      48.123  29.170  35.360  1.00  0.00     0.022 A 
BRANCH  91  95
ATOM     95  S   UNL A   1      47.248  26.967  36.830  1.00  0.00     0.124 S 
ATOM     96  O   UNL A   1      46.450  25.876  36.279  1.00  0.00    -0.237 OA
ATOM     97  O   UNL A   1      48.687  26.737  36.891  1.00  0.00    -0.237 OA
ATOM     98  O   UNL A   1      46.675  27.621  38.005  1.00  0.00    -0.744 OA
ENDBRANCH  91  95
ENDBRANCH  65  88
ENDBRANCH  39  40
ENDBRANCH  31  34
ENDBRANCH  29  30
ENDBRANCH  28  29
ENDBRANCH   1  28
TORSDOF 18
ENDMDL
MODEL 2
REMARK VINA RESULT:     -11.9      2.296      4.033
REMARK SMILES COc1ccccc1CCNC(=O)[C@@H]1[C@@H](C(=O)NCCCNC(=O)c2ccc(-c3c4nc(c(-c5cc(S(=O)(=O)[O-])ccc5F)c5ccc([nH]5)c(-c5cc(S(=O)(=O)[O-])ccc5F)c5nc(c(-c6cc(S(=O)(=O)[O-])ccc6F)c6ccc3[nH]6)C=C5)C=C4)cc2)[C@H]2C=C[C@@H]1CC2
REMARK SMILES IDX 19 1 18 2 16 3 17 4 15 6 14 7 91 8 88 9 90 10 92 11 89 12
REMARK SMILES IDX 93 13 12 14 11 15 13 17 10 18 9 19 8 20 3 21 4 22 5 23 7 24
REMARK SMILES IDX 6 25 2 26 1 27 20 28 21 29 22 30 23 31 24 33 25 34 26 35
REMARK SMILES IDX 87 36 27 37 86 38 28 39 29 40 30 41 80 42 31 43 85 44 79 45
REMARK SMILES IDX 81 46 32 47 84 48 78 49 77 50 33 52 65 53 45 54 64 55 46 56
REMARK SMILES IDX 49 57 63 58 82 59 47 60 48 61 62 63 83 64 50 65 34 66 35 67
REMARK SMILES IDX 43 68 36 69 42 70 44 71 41 72 37 73 38 74 39 75 40 76 66 77
REMARK SMILES IDX 67 78 75 79 68 80 74 81 76 82 73 83 69 84 70 85 71 86 72 87
REMARK SMILES IDX 51 88 52 89 60 90 53 91 59 92 61 93 58 94 54 95 55 96 56 97
REMARK SMILES IDX 57 98
REMARK H PARENT 18 5 11 16 22 32 81 51 49 62
REMARK Flexibility Score: inf
ROOT
ATOM      1  C   UNL A   1      31.839  30.459  25.900  1.00  0.00     0.117 C 
ENDROOT
BRANCH   1   2
ATOM      2  N   UNL A   1      32.328  29.236  26.517  1.00  0.00    -0.356 N 
ATOM      3  C   UNL A   1      32.208  27.916  26.237  1.00  0.00     0.224 C 
ATOM      4  O   UNL A   1      33.002  27.197  26.865  1.00  0.00    -0.275 OA
ATOM      5  H   UNL A   1      32.869  29.407  27.321  1.00  0.00     0.163 HD
BRANCH   3   6
ATOM      6  C   UNL A   1      31.171  27.229  25.319  1.00  0.00     0.098 C 
ATOM      7  C   UNL A   1      31.348  25.668  25.418  1.00  0.00     0.098 C 
ATOM      8  C   UNL A   1      31.408  25.091  23.958  1.00  0.00     0.025 C 
ATOM      9  C   UNL A   1      31.104  27.656  23.824  1.00  0.00     0.025 C 
ATOM     10  C   UNL A   1      32.503  25.795  23.198  1.00  0.00    -0.027 C 
ATOM     11  C   UNL A   1      30.080  25.437  23.224  1.00  0.00     0.009 C 
ATOM     12  C   UNL A   1      32.311  27.113  23.073  1.00  0.00    -0.027 C 
ATOM     13  C   UNL A   1      29.875  26.966  23.196  1.00  0.00     0.009 C 
BRANCH   7  14
ATOM     14  C   UNL A   1      30.363  24.760  26.187  1.00  0.00     0.224 C 
ATOM     15  N   UNL A   1      30.338  23.416  26.216  1.00  0.00    -0.355 N 
ATOM     16  H   UNL A   1      29.452  23.062  26.457  1.00  0.00     0.163 HD
ATOM     17  O   UNL A   1      29.399  25.274  26.776  1.00  0.00    -0.275 OA
BRANCH  15  18
ATOM     18  C   UNL A   1      31.308  22.363  25.978  1.00  0.00     0.120 C 
BRANCH  18  19
ATOM     19  C   UNL A   1      32.587  22.616  26.784  1.00  0.00     0.060 C 
BRANCH  19  20
ATOM     20  C   UNL A   1      33.841  22.705  25.934  1.00  0.00    -0.004 A 
ATOM     21  C   UNL A   1      34.466  21.627  25.283  1.00  0.00     0.122 A 
ATOM     22  C   UNL A   1      35.656  21.837  24.565  1.00  0.00     0.047 A 
ATOM     23  C   UNL A   1      36.245  23.099  24.490  1.00  0.00     0.004 A 
ATOM     24  C   UNL A   1      34.464  23.971  25.854  1.00  0.00     0.007 A 
ATOM     25  C   UNL A   1      35.653  24.167  25.147  1.00  0.00     0.001 A 
BRANCH  21  26
ATOM     26  O   UNL A   1      34.122  20.305  25.361  1.00  0.00    -0.496 OA
ATOM     27  C   UNL A   1      33.357  19.764  24.294  1.00  0.00     0.278 C 
ENDBRANCH  21  26
ENDBRANCH  19  20
ENDBRANCH  18  19
ENDBRANCH  15  18
ENDBRANCH   7  14
ENDBRANCH   3   6
ENDBRANCH   1   2
BRANCH   1  28
ATOM     28  C   UNL A   1      31.629  31.604  26.876  1.00  0.00     0.042 C 
BRANCH  28  29
ATOM     29  C   UNL A   1      32.904  32.336  27.258  1.00  0.00     0.118 C 
BRANCH  29  30
ATOM     30  N   UNL A   1      32.675  33.745  27.565  1.00  0.00    -0.352 N 
ATOM     31  C   UNL A   1      33.204  34.562  28.539  1.00  0.00     0.251 C 
ATOM     32  H   UNL A   1      32.028  34.189  26.970  1.00  0.00     0.163 HD
ATOM     33  O   UNL A   1      32.694  35.661  28.731  1.00  0.00    -0.269 OA
BRANCH  31  34
ATOM     34  C   UNL A   1      34.350  34.119  29.367  1.00  0.00     0.039 A 
ATOM     35  C   UNL A   1      34.119  33.255  30.442  1.00  0.00     0.014 A 
ATOM     36  C   UNL A   1      35.646  34.558  29.102  1.00  0.00     0.014 A 
ATOM     37  C   UNL A   1      35.199  32.761  31.181  1.00  0.00     0.010 A 
ATOM     38  C   UNL A   1      36.726  33.977  29.758  1.00  0.00     0.010 A 
ATOM     39  C   UNL A   1      36.516  33.070  30.807  1.00  0.00    -0.014 A 
BRANCH  39  40
ATOM     40  C   UNL A   1      37.687  32.453  31.486  1.00  0.00     0.031 A 
ATOM     41  C   UNL A   1      38.424  31.311  30.838  1.00  0.00     0.074 A 
ATOM     42  C   UNL A   1      38.033  32.871  32.721  1.00  0.00     0.049 A 
ATOM     43  N   UNL A   1      39.403  30.583  31.311  1.00  0.00    -0.248 NA
ATOM     44  C   UNL A   1      37.977  30.912  29.494  1.00  0.00     0.031 C 
ATOM     45  C   UNL A   1      37.365  33.937  33.471  1.00  0.00     0.029 A 
ATOM     46  N   UNL A   1      39.027  32.448  33.568  1.00  0.00    -0.354 N 
ATOM     47  C   UNL A   1      39.679  29.634  30.331  1.00  0.00     0.074 A 
ATOM     48  C   UNL A   1      38.715  29.836  29.271  1.00  0.00     0.031 C 
ATOM     49  C   UNL A   1      37.988  34.108  34.647  1.00  0.00     0.029 A 
ATOM     50  C   UNL A   1      39.061  33.127  34.764  1.00  0.00     0.049 A 
ATOM     51  H   UNL A   1      39.658  31.727  33.341  1.00  0.00     0.167 HD
ATOM     52  C   UNL A   1      40.662  28.700  30.307  1.00  0.00     0.034 A 
ATOM     53  C   UNL A   1      39.855  32.969  35.843  1.00  0.00     0.034 A 
ATOM     54  C   UNL A   1      41.621  28.523  31.370  1.00  0.00     0.049 A 
ATOM     55  C   UNL A   1      40.915  31.897  35.808  1.00  0.00     0.074 A 
ATOM     56  C   UNL A   1      42.694  27.652  31.425  1.00  0.00     0.029 A 
ATOM     57  N   UNL A   1      41.617  29.221  32.571  1.00  0.00    -0.354 N 
ATOM     58  N   UNL A   1      41.201  31.048  34.846  1.00  0.00    -0.248 NA
ATOM     59  C   UNL A   1      41.765  31.767  36.999  1.00  0.00     0.031 C 
ATOM     60  C   UNL A   1      43.286  27.764  32.687  1.00  0.00     0.029 A 
ATOM     61  C   UNL A   1      42.642  28.769  33.389  1.00  0.00     0.049 A 
ATOM     62  H   UNL A   1      40.979  29.933  32.808  1.00  0.00     0.167 HD
ATOM     63  C   UNL A   1      42.281  30.301  35.310  1.00  0.00     0.074 A 
ATOM     64  C   UNL A   1      42.608  30.817  36.623  1.00  0.00     0.031 C 
ATOM     65  C   UNL A   1      42.943  29.282  34.706  1.00  0.00     0.034 A 
BRANCH  52  66
ATOM     66  C   UNL A   1      40.729  27.789  29.103  1.00  0.00     0.023 A 
ATOM     67  C   UNL A   1      41.678  27.979  28.083  1.00  0.00     0.031 A 
ATOM     68  C   UNL A   1      39.819  26.726  28.961  1.00  0.00     0.131 A 
ATOM     69  C   UNL A   1      41.647  27.174  26.935  1.00  0.00     0.055 A 
ATOM     70  C   UNL A   1      39.849  25.872  27.856  1.00  0.00     0.041 A 
ATOM     71  F   UNL A   1      38.874  26.507  29.889  1.00  0.00    -0.206 F 
ATOM     72  C   UNL A   1      40.757  26.103  26.827  1.00  0.00     0.022 A 
BRANCH  69  73
ATOM     73  S   UNL A   1      42.682  27.642  25.521  1.00  0.00     0.124 S 
ATOM     74  O   UNL A   1      41.970  28.813  25.012  1.00  0.00    -0.237 OA
ATOM     75  O   UNL A   1      43.972  27.900  26.146  1.00  0.00    -0.237 OA
ATOM     76  O   UNL A   1      42.630  26.466  24.654  1.00  0.00    -0.744 OA
ENDBRANCH  69  73
ENDBRANCH  52  66
BRANCH  53  77
ATOM     77  C   UNL A   1      39.673  33.824  37.052  1.00  0.00     0.023 A 
ATOM     78  C   UNL A   1      39.112  33.303  38.228  1.00  0.00     0.031 A 
ATOM     79  C   UNL A   1      40.017  35.188  37.036  1.00  0.00     0.131 A 
ATOM     80  C   UNL A   1      38.864  34.148  39.321  1.00  0.00     0.055 A 
ATOM     81  C   UNL A   1      39.826  36.011  38.147  1.00  0.00     0.041 A 
ATOM     82  F   UNL A   1      40.559  35.739  35.939  1.00  0.00    -0.206 F 
ATOM     83  C   UNL A   1      39.232  35.495  39.295  1.00  0.00     0.022 A 
BRANCH  80  84
ATOM     84  S   UNL A   1      37.961  33.483  40.747  1.00  0.00     0.124 S 
ATOM     85  O   UNL A   1      38.702  32.256  41.019  1.00  0.00    -0.237 OA
ATOM     86  O   UNL A   1      38.112  34.554  41.727  1.00  0.00    -0.237 OA
ATOM     87  O   UNL A   1      36.606  33.295  40.234  1.00  0.00    -0.744 OA
ENDBRANCH  80  84
ENDBRANCH  53  77
BRANCH  65  88
ATOM     88  C   UNL A   1      44.110  28.683  35.455  1.00  0.00     0.023 A 
ATOM     89  C   UNL A   1      43.941  27.606  36.343  1.00  0.00     0.031 A 
ATOM     90  C   UNL A   1      45.404  29.206  35.289  1.00  0.00     0.131 A 
ATOM     91  C   UNL A   1      45.036  27.127  37.076  1.00  0.00     0.055 A 
ATOM     92  C   UNL A   1      46.502  28.678  35.968  1.00  0.00     0.041 A 
ATOM     93  F   UNL A   1      45.624  30.237  34.457  1.00  0.00    -0.206 F 
ATOM     94  C   UNL A   1      46.320  27.643  36.879  1.00  0.00     0.022 A 
BRANCH  91  95
ATOM     95  S   UNL A   1      44.742  25.890  38.369  1.00  0.00     0.124 S 
ATOM     96  O   UNL A   1      44.182  24.781  37.604  1.00  0.00    -0.237 OA
ATOM     97  O   UNL A   1      46.080  25.678  38.911  1.00  0.00    -0.237 OA
ATOM     98  O   UNL A   1      43.806  26.555  39.274  1.00  0.00    -0.744 OA
ENDBRANCH  91  95
ENDBRANCH  65  88
ENDBRANCH  39  40
ENDBRANCH  31  34
ENDBRANCH  29  30
ENDBRANCH  28  29
ENDBRANCH   1  28
TORSDOF 18
ENDMDL
MODEL 3
REMARK VINA RESULT:     -11.7      2.686      4.545
REMARK SMILES COc1ccccc1CCNC(=O)[C@@H]1[C@@H](C(=O)NCCCNC(=O)c2ccc(-c3c4nc(c(-c5cc(S(=O)(=O)[O-])ccc5F)c5ccc([nH]5)c(-c5cc(S(=O)(=O)[O-])ccc5F)c5nc(c(-c6cc(S(=O)(=O)[O-])ccc6F)c6ccc3[nH]6)C=C5)C=C4)cc2)[C@H]2C=C[C@@H]1CC2
REMARK SMILES IDX 19 1 18 2 16 3 17 4 15 6 14 7 91 8 88 9 90 10 92 11 89 12
REMARK SMILES IDX 93 13 12 14 11 15 13 17 10 18 9 19 8 20 3 21 4 22 5 23 7 24
REMARK SMILES IDX 6 25 2 26 1 27 20 28 21 29 22 30 23 31 24 33 25 34 26 35
REMARK SMILES IDX 87 36 27 37 86 38 28 39 29 40 30 41 80 42 31 43 85 44 79 45
REMARK SMILES IDX 81 46 32 47 84 48 78 49 77 50 33 52 65 53 45 54 64 55 46 56
REMARK SMILES IDX 49 57 63 58 82 59 47 60 48 61 62 63 83 64 50 65 34 66 35 67
REMARK SMILES IDX 43 68 36 69 42 70 44 71 41 72 37 73 38 74 39 75 40 76 66 77
REMARK SMILES IDX 67 78 75 79 68 80 74 81 76 82 73 83 69 84 70 85 71 86 72 87
REMARK SMILES IDX 51 88 52 89 60 90 53 91 59 92 61 93 58 94 54 95 55 96 56 97
REMARK SMILES IDX 57 98
REMARK H PARENT 18 5 11 16 22 32 81 51 49 62
REMARK Flexibility Score: inf
ROOT
ATOM      1  C   UNL A   1      32.193  30.059  26.471  1.00  0.00     0.117 C 
ENDROOT
BRANCH   1   2
ATOM      2  N   UNL A   1      33.048  29.871  25.310  1.00  0.00    -0.356 N 
ATOM      3  C   UNL A   1      33.074  28.993  24.279  1.00  0.00     0.224 C 
ATOM      4  O   UNL A   1      33.817  29.337  23.346  1.00  0.00    -0.275 OA
ATOM      5  H   UNL A   1      33.774  30.534  25.263  1.00  0.00     0.163 HD
BRANCH   3   6
ATOM      6  C   UNL A   1      32.369  27.620  24.182  1.00  0.00     0.098 C 
ATOM      7  C   UNL A   1      32.317  27.173  22.673  1.00  0.00     0.098 C 
ATOM      8  C   UNL A   1      30.845  26.732  22.347  1.00  0.00     0.025 C 
ATOM      9  C   UNL A   1      30.962  27.460  24.826  1.00  0.00     0.025 C 
ATOM     10  C   UNL A   1      29.907  27.860  22.695  1.00  0.00    -0.027 C 
ATOM     11  C   UNL A   1      30.457  25.544  23.275  1.00  0.00     0.009 C 
ATOM     12  C   UNL A   1      29.921  28.192  23.991  1.00  0.00    -0.027 C 
ATOM     13  C   UNL A   1      30.582  25.967  24.753  1.00  0.00     0.009 C 
BRANCH   7  14
ATOM     14  C   UNL A   1      33.223  26.065  22.095  1.00  0.00     0.224 C 
ATOM     15  N   UNL A   1      34.014  25.215  22.773  1.00  0.00    -0.355 N 
ATOM     16  H   UNL A   1      34.744  24.857  22.218  1.00  0.00     0.163 HD
ATOM     17  O   UNL A   1      33.359  25.973  20.864  1.00  0.00    -0.275 OA
BRANCH  15  18
ATOM     18  C   UNL A   1      34.046  24.698  24.129  1.00  0.00     0.120 C 
BRANCH  18  19
ATOM     19  C   UNL A   1      33.611  23.228  24.155  1.00  0.00     0.060 C 
BRANCH  19  20
ATOM     20  C   UNL A   1      34.754  22.253  24.375  1.00  0.00    -0.004 A 
ATOM     21  C   UNL A   1      34.625  20.936  24.848  1.00  0.00     0.122 A 
ATOM     22  C   UNL A   1      35.773  20.151  25.055  1.00  0.00     0.047 A 
ATOM     23  C   UNL A   1      37.050  20.655  24.811  1.00  0.00     0.004 A 
ATOM     24  C   UNL A   1      36.059  22.745  24.148  1.00  0.00     0.007 A 
ATOM     25  C   UNL A   1      37.194  21.961  24.368  1.00  0.00     0.001 A 
BRANCH  21  26
ATOM     26  O   UNL A   1      33.480  20.321  25.276  1.00  0.00    -0.496 OA
ATOM     27  C   UNL A   1      32.700  19.641  24.303  1.00  0.00     0.278 C 
ENDBRANCH  21  26
ENDBRANCH  19  20
ENDBRANCH  18  19
ENDBRANCH  15  18
ENDBRANCH   7  14
ENDBRANCH   3   6
ENDBRANCH   1   2
BRANCH   1  28
ATOM     28  C   UNL A   1      31.921  31.514  26.811  1.00  0.00     0.042 C 
BRANCH  28  29
ATOM     29  C   UNL A   1      33.154  32.293  27.235  1.00  0.00     0.118 C 
BRANCH  29  30
ATOM     30  N   UNL A   1      32.845  33.658  27.649  1.00  0.00    -0.352 N 
ATOM     31  C   UNL A   1      33.318  34.423  28.692  1.00  0.00     0.251 C 
ATOM     32  H   UNL A   1      32.180  34.113  27.082  1.00  0.00     0.163 HD
ATOM     33  O   UNL A   1      32.746  35.474  28.963  1.00  0.00    -0.269 OA
BRANCH  31  34
ATOM     34  C   UNL A   1      34.478  33.979  29.499  1.00  0.00     0.039 A 
ATOM     35  C   UNL A   1      34.258  33.175  30.622  1.00  0.00     0.014 A 
ATOM     36  C   UNL A   1      35.778  34.357  29.166  1.00  0.00     0.014 A 
ATOM     37  C   UNL A   1      35.348  32.678  31.345  1.00  0.00     0.010 A 
ATOM     38  C   UNL A   1      36.861  33.768  29.811  1.00  0.00     0.010 A 
ATOM     39  C   UNL A   1      36.660  32.921  30.909  1.00  0.00    -0.014 A 
BRANCH  39  40
ATOM     40  C   UNL A   1      37.834  32.295  31.575  1.00  0.00     0.031 A 
ATOM     41  C   UNL A   1      38.586  31.182  30.894  1.00  0.00     0.074 A 
ATOM     42  C   UNL A   1      38.169  32.676  32.824  1.00  0.00     0.049 A 
ATOM     43  N   UNL A   1      39.570  30.450  31.350  1.00  0.00    -0.248 NA
ATOM     44  C   UNL A   1      38.151  30.822  29.536  1.00  0.00     0.031 C 
ATOM     45  C   UNL A   1      37.484  33.710  33.604  1.00  0.00     0.029 A 
ATOM     46  N   UNL A   1      39.162  32.237  33.663  1.00  0.00    -0.354 N 
ATOM     47  C   UNL A   1      39.862  29.536  30.342  1.00  0.00     0.074 A 
ATOM     48  C   UNL A   1      38.902  29.762  29.283  1.00  0.00     0.031 C 
ATOM     49  C   UNL A   1      38.099  33.850  34.789  1.00  0.00     0.029 A 
ATOM     50  C   UNL A   1      39.182  32.877  34.881  1.00  0.00     0.049 A 
ATOM     51  H   UNL A   1      39.802  31.530  33.417  1.00  0.00     0.167 HD
ATOM     52  C   UNL A   1      40.855  28.614  30.293  1.00  0.00     0.034 A 
ATOM     53  C   UNL A   1      39.971  32.692  35.959  1.00  0.00     0.034 A 
ATOM     54  C   UNL A   1      41.810  28.412  31.356  1.00  0.00     0.049 A 
ATOM     55  C   UNL A   1      41.043  31.634  35.895  1.00  0.00     0.074 A 
ATOM     56  C   UNL A   1      42.892  27.551  31.389  1.00  0.00     0.029 A 
ATOM     57  N   UNL A   1      41.792  29.071  32.579  1.00  0.00    -0.354 N 
ATOM     58  N   UNL A   1      41.344  30.819  34.909  1.00  0.00    -0.248 NA
ATOM     59  C   UNL A   1      41.888  31.474  37.086  1.00  0.00     0.031 C 
ATOM     60  C   UNL A   1      43.476  27.629  32.657  1.00  0.00     0.029 A 
ATOM     61  C   UNL A   1      42.817  28.604  33.387  1.00  0.00     0.049 A 
ATOM     62  H   UNL A   1      41.145  29.768  32.834  1.00  0.00     0.167 HD
ATOM     63  C   UNL A   1      42.429  30.069  35.355  1.00  0.00     0.074 A 
ATOM     64  C   UNL A   1      42.743  30.546  36.686  1.00  0.00     0.031 C 
ATOM     65  C   UNL A   1      43.106  29.077  34.722  1.00  0.00     0.034 A 
BRANCH  52  66
ATOM     66  C   UNL A   1      40.939  27.742  29.061  1.00  0.00     0.023 A 
ATOM     67  C   UNL A   1      41.908  27.960  28.066  1.00  0.00     0.031 A 
ATOM     68  C   UNL A   1      40.025  26.691  28.867  1.00  0.00     0.131 A 
ATOM     69  C   UNL A   1      41.893  27.193  26.891  1.00  0.00     0.055 A 
ATOM     70  C   UNL A   1      40.070  25.874  27.735  1.00  0.00     0.041 A 
ATOM     71  F   UNL A   1      39.061  26.448  29.769  1.00  0.00    -0.206 F 
ATOM     72  C   UNL A   1      40.998  26.133  26.731  1.00  0.00     0.022 A 
BRANCH  69  73
ATOM     73  S   UNL A   1      42.957  27.700  25.512  1.00  0.00     0.124 S 
ATOM     74  O   UNL A   1      44.014  28.429  26.211  1.00  0.00    -0.237 OA
ATOM     75  O   UNL A   1      43.342  26.423  24.925  1.00  0.00    -0.237 OA
ATOM     76  O   UNL A   1      42.079  28.529  24.689  1.00  0.00    -0.744 OA
ENDBRANCH  69  73
ENDBRANCH  52  66
BRANCH  53  77
ATOM     77  C   UNL A   1      39.774  33.506  37.194  1.00  0.00     0.023 A 
ATOM     78  C   UNL A   1      40.612  34.594  37.483  1.00  0.00     0.031 A 
ATOM     79  C   UNL A   1      38.771  33.181  38.127  1.00  0.00     0.131 A 
ATOM     80  C   UNL A   1      40.467  35.287  38.696  1.00  0.00     0.055 A 
ATOM     81  C   UNL A   1      38.592  33.912  39.302  1.00  0.00     0.041 A 
ATOM     82  F   UNL A   1      37.941  32.152  37.900  1.00  0.00    -0.206 F 
ATOM     83  C   UNL A   1      39.453  34.964  39.600  1.00  0.00     0.022 A 
BRANCH  80  84
ATOM     84  S   UNL A   1      41.689  36.558  39.121  1.00  0.00     0.124 S 
ATOM     85  O   UNL A   1      40.901  37.780  38.995  1.00  0.00    -0.237 OA
ATOM     86  O   UNL A   1      42.065  36.174  40.478  1.00  0.00    -0.237 OA
ATOM     87  O   UNL A   1      42.731  36.379  38.113  1.00  0.00    -0.744 OA
ENDBRANCH  80  84
ENDBRANCH  53  77
BRANCH  65  88
ATOM     88  C   UNL A   1      44.274  28.467  35.459  1.00  0.00     0.023 A 
ATOM     89  C   UNL A   1      44.092  27.470  36.433  1.00  0.00     0.031 A 
ATOM     90  C   UNL A   1      45.586  28.897  35.191  1.00  0.00     0.131 A 
ATOM     91  C   UNL A   1      45.196  26.982  37.148  1.00  0.00     0.055 A 
ATOM     92  C   UNL A   1      46.687  28.357  35.855  1.00  0.00     0.041 A 
ATOM     93  F   UNL A   1      45.819  29.849  34.272  1.00  0.00    -0.206 F 
ATOM     94  C   UNL A   1      46.494  27.405  36.851  1.00  0.00     0.022 A 
BRANCH  91  95
ATOM     95  S   UNL A   1      44.901  25.864  38.545  1.00  0.00     0.124 S 
ATOM     96  O   UNL A   1      43.740  26.478  39.182  1.00  0.00    -0.237 OA
ATOM     97  O   UNL A   1      44.662  24.588  37.880  1.00  0.00    -0.237 OA
ATOM     98  O   UNL A   1      46.142  25.939  39.313  1.00  0.00    -0.744 OA
ENDBRANCH  91  95
ENDBRANCH  65  88
ENDBRANCH  39  40
ENDBRANCH  31  34
ENDBRANCH  29  30
ENDBRANCH  28  29
ENDBRANCH   1  28
TORSDOF 18
ENDMDL
