MODEL 1
REMARK VINA RESULT:     -12.0      0.000      0.000
REMARK SMILES CC(C)[C@H]1CC[C@@H](C)C/C1=C(\F)C(=O)NCCCNC(=O)c1ccc(-c2c3nc(c(-c4cc(S(=O)(=O)[O-])ccc4F)c4ccc([nH]4)c(-c4cc(S(=O)(=O)[O-])ccc4F)c4nc(c(-c5cc(S(=O)(=O)[O-])ccc5F)c5ccc2[nH]5)C=C4)C=C3)cc1
REMARK SMILES IDX 18 1 17 2 16 3 15 4 13 5 14 6 11 8 4 9 5 10 10 11 6 12 9 13
REMARK SMILES IDX 7 14 12 15 8 16 2 17 1 18 3 19 19 20 20 21 21 23 22 24 23 25
REMARK SMILES IDX 84 26 24 27 83 28 25 29 26 30 27 31 77 32 28 33 82 34 76 35
REMARK SMILES IDX 78 36 29 37 81 38 75 39 74 40 30 42 62 43 42 44 61 45 43 46
REMARK SMILES IDX 46 47 60 48 79 49 44 50 45 51 59 53 80 54 47 55 31 56 32 57
REMARK SMILES IDX 40 58 33 59 39 60 41 61 38 62 34 63 35 64 36 65 37 66 63 67
REMARK SMILES IDX 64 68 72 69 65 70 71 71 73 72 70 73 66 74 67 75 68 76 69 77
REMARK SMILES IDX 48 78 49 79 57 80 50 81 56 82 58 83 55 84 51 85 52 86 53 87
REMARK SMILES IDX 54 88
REMARK H PARENT 15 7 19 22 78 41 46 52
REMARK Flexibility Score: inf
ROOT
ATOM      1  C   UNL A   1      36.568  21.940  24.888  1.00  0.00     0.118 C 
ENDROOT
BRANCH   1   2
ATOM      2  C   UNL A   1      35.192  21.865  25.549  1.00  0.00     0.042 C 
BRANCH   2   3
ATOM      3  C   UNL A   1      34.752  23.192  26.165  1.00  0.00     0.118 C 
BRANCH   3   4
ATOM      4  N   UNL A   1      33.567  22.977  26.972  1.00  0.00    -0.350 N 
ATOM      5  C   UNL A   1      32.299  23.412  26.729  1.00  0.00     0.279 C 
ATOM      6  O   UNL A   1      31.573  23.697  27.677  1.00  0.00    -0.267 OA
ATOM      7  H   UNL A   1      33.693  22.454  27.796  1.00  0.00     0.163 HD
BRANCH   5   8
ATOM      8  C   UNL A   1      31.830  23.471  25.323  1.00  0.00     0.187 C 
ATOM      9  C   UNL A   1      32.441  25.955  24.729  1.00  0.00     0.021 C 
ATOM     10  C   UNL A   1      33.767  26.028  23.930  1.00  0.00     0.009 C 
ATOM     11  C   UNL A   1      31.909  24.530  24.492  1.00  0.00    -0.025 C 
ATOM     12  C   UNL A   1      33.570  25.713  22.438  1.00  0.00     0.004 C 
ATOM     13  C   UNL A   1      31.548  24.318  23.029  1.00  0.00     0.038 C 
ATOM     14  C   UNL A   1      32.816  24.401  22.165  1.00  0.00    -0.010 C 
ATOM     15  F   UNL A   1      31.362  22.294  24.851  1.00  0.00    -0.201 F 
ATOM     16  C   UNL A   1      33.720  23.179  22.371  1.00  0.00     0.008 C 
BRANCH   9  17
ATOM     17  C   UNL A   1      32.587  26.526  26.175  1.00  0.00    -0.010 C 
ATOM     18  C   UNL A   1      33.773  27.495  26.325  1.00  0.00     0.008 C 
ATOM     19  C   UNL A   1      31.334  27.274  26.654  1.00  0.00     0.008 C 
ENDBRANCH   9  17
ENDBRANCH   5   8
ENDBRANCH   3   4
ENDBRANCH   2   3
ENDBRANCH   1   2
BRANCH   1  20
ATOM     20  N   UNL A   1      37.406  20.803  25.240  1.00  0.00    -0.352 N 
ATOM     21  C   UNL A   1      38.686  20.793  25.738  1.00  0.00     0.251 C 
ATOM     22  H   UNL A   1      36.998  19.917  25.102  1.00  0.00     0.163 HD
ATOM     23  O   UNL A   1      39.319  19.745  25.762  1.00  0.00    -0.269 OA
BRANCH  21  24
ATOM     24  C   UNL A   1      39.292  22.053  26.219  1.00  0.00     0.039 A 
ATOM     25  C   UNL A   1      40.421  21.990  27.037  1.00  0.00     0.014 A 
ATOM     26  C   UNL A   1      38.752  23.291  25.857  1.00  0.00     0.014 A 
ATOM     27  C   UNL A   1      41.045  23.171  27.443  1.00  0.00     0.010 A 
ATOM     28  C   UNL A   1      39.422  24.463  26.197  1.00  0.00     0.010 A 
ATOM     29  C   UNL A   1      40.573  24.417  26.996  1.00  0.00    -0.014 A 
BRANCH  29  30
ATOM     30  C   UNL A   1      41.273  25.679  27.356  1.00  0.00     0.031 A 
ATOM     31  C   UNL A   1      40.570  26.724  28.178  1.00  0.00     0.074 A 
ATOM     32  C   UNL A   1      42.520  25.904  26.896  1.00  0.00     0.049 A 
ATOM     33  N   UNL A   1      40.985  27.912  28.537  1.00  0.00    -0.248 NA
ATOM     34  C   UNL A   1      39.210  26.401  28.632  1.00  0.00     0.031 C 
ATOM     35  C   UNL A   1      43.290  24.982  26.057  1.00  0.00     0.029 A 
ATOM     36  N   UNL A   1      43.358  26.979  27.059  1.00  0.00    -0.354 N 
ATOM     37  C   UNL A   1      39.935  28.481  29.250  1.00  0.00     0.074 A 
ATOM     38  C   UNL A   1      38.842  27.533  29.211  1.00  0.00     0.031 C 
ATOM     39  C   UNL A   1      44.494  25.518  25.804  1.00  0.00     0.029 A 
ATOM     40  C   UNL A   1      44.565  26.843  26.412  1.00  0.00     0.049 A 
ATOM     41  H   UNL A   1      43.118  27.773  27.589  1.00  0.00     0.167 HD
ATOM     42  C   UNL A   1      39.895  29.673  29.896  1.00  0.00     0.034 A 
ATOM     43  C   UNL A   1      45.605  27.694  26.306  1.00  0.00     0.034 A 
ATOM     44  C   UNL A   1      40.996  30.606  29.925  1.00  0.00     0.049 A 
ATOM     45  C   UNL A   1      45.523  29.032  26.999  1.00  0.00     0.074 A 
ATOM     46  C   UNL A   1      41.082  31.817  30.587  1.00  0.00     0.029 A 
ATOM     47  N   UNL A   1      42.200  30.438  29.250  1.00  0.00    -0.354 N 
ATOM     48  N   UNL A   1      44.542  29.533  27.714  1.00  0.00    -0.248 NA
ATOM     49  C   UNL A   1      46.691  29.913  26.879  1.00  0.00     0.031 C 
ATOM     50  C   UNL A   1      42.300  32.417  30.251  1.00  0.00     0.029 A 
ATOM     51  C   UNL A   1      43.018  31.540  29.453  1.00  0.00     0.049 A 
ATOM     52  H   UNL A   1      42.438  29.651  28.709  1.00  0.00     0.167 HD
ATOM     53  C   UNL A   1      44.991  30.775  28.156  1.00  0.00     0.074 A 
ATOM     54  C   UNL A   1      46.335  30.936  27.640  1.00  0.00     0.031 C 
ATOM     55  C   UNL A   1      44.354  31.696  28.923  1.00  0.00     0.034 A 
BRANCH  42  56
ATOM     56  C   UNL A   1      38.607  30.041  30.599  1.00  0.00     0.023 A 
ATOM     57  C   UNL A   1      37.591  30.764  29.948  1.00  0.00     0.031 A 
ATOM     58  C   UNL A   1      38.403  29.690  31.945  1.00  0.00     0.131 A 
ATOM     59  C   UNL A   1      36.459  31.182  30.664  1.00  0.00     0.055 A 
ATOM     60  C   UNL A   1      37.233  30.032  32.627  1.00  0.00     0.041 A 
ATOM     61  F   UNL A   1      39.344  29.020  32.628  1.00  0.00    -0.206 F 
ATOM     62  C   UNL A   1      36.260  30.797  31.991  1.00  0.00     0.022 A 
BRANCH  59  63
ATOM     63  S   UNL A   1      35.331  32.368  29.883  1.00  0.00     0.124 S 
ATOM     64  O   UNL A   1      36.241  33.458  29.538  1.00  0.00    -0.237 OA
ATOM     65  O   UNL A   1      34.796  31.604  28.762  1.00  0.00    -0.237 OA
ATOM     66  O   UNL A   1      34.372  32.679  30.941  1.00  0.00    -0.744 OA
ENDBRANCH  59  63
ENDBRANCH  42  56
BRANCH  43  67
ATOM     67  C   UNL A   1      46.806  27.324  25.502  1.00  0.00     0.023 A 
ATOM     68  C   UNL A   1      46.977  27.797  24.191  1.00  0.00     0.031 A 
ATOM     69  C   UNL A   1      47.783  26.453  26.019  1.00  0.00     0.131 A 
ATOM     70  C   UNL A   1      48.068  27.358  23.425  1.00  0.00     0.055 A 
ATOM     71  C   UNL A   1      48.898  26.066  25.273  1.00  0.00     0.041 A 
ATOM     72  F   UNL A   1      47.671  25.972  27.267  1.00  0.00    -0.206 F 
ATOM     73  C   UNL A   1      49.037  26.509  23.962  1.00  0.00     0.022 A 
BRANCH  70  74
ATOM     74  S   UNL A   1      48.152  27.838  21.677  1.00  0.00     0.124 S 
ATOM     75  O   UNL A   1      46.853  28.471  21.481  1.00  0.00    -0.237 OA
ATOM     76  O   UNL A   1      49.309  28.726  21.662  1.00  0.00    -0.237 OA
ATOM     77  O   UNL A   1      48.337  26.565  20.984  1.00  0.00    -0.744 OA
ENDBRANCH  70  74
ENDBRANCH  43  67
BRANCH  55  78
ATOM     78  C   UNL A   1      45.126  32.941  29.290  1.00  0.00     0.023 A 
ATOM     79  C   UNL A   1      45.077  34.106  28.505  1.00  0.00     0.031 A 
ATOM     80  C   UNL A   1      45.935  32.955  30.441  1.00  0.00     0.131 A 
ATOM     81  C   UNL A   1      45.866  35.215  28.849  1.00  0.00     0.055 A 
ATOM     82  C   UNL A   1      46.665  34.085  30.815  1.00  0.00     0.041 A 
ATOM     83  F   UNL A   1      46.026  31.869  31.227  1.00  0.00    -0.206 F 
ATOM     84  C   UNL A   1      46.643  35.218  30.009  1.00  0.00     0.022 A 
BRANCH  81  85
ATOM     85  S   UNL A   1      45.943  36.618  27.701  1.00  0.00     0.124 S 
ATOM     86  O   UNL A   1      46.484  37.674  28.550  1.00  0.00    -0.237 OA
ATOM     87  O   UNL A   1      46.831  36.119  26.657  1.00  0.00    -0.237 OA
ATOM     88  O   UNL A   1      44.551  36.803  27.292  1.00  0.00    -0.744 OA
ENDBRANCH  81  85
ENDBRANCH  55  78
ENDBRANCH  29  30
ENDBRANCH  21  24
ENDBRANCH   1  20
TORSDOF 14
ENDMDL
MODEL 2
REMARK VINA RESULT:     -11.9      4.714      7.360
REMARK SMILES CC(C)[C@H]1CC[C@@H](C)C/C1=C(\F)C(=O)NCCCNC(=O)c1ccc(-c2c3nc(c(-c4cc(S(=O)(=O)[O-])ccc4F)c4ccc([nH]4)c(-c4cc(S(=O)(=O)[O-])ccc4F)c4nc(c(-c5cc(S(=O)(=O)[O-])ccc5F)c5ccc2[nH]5)C=C4)C=C3)cc1
REMARK SMILES IDX 18 1 17 2 16 3 15 4 13 5 14 6 11 8 4 9 5 10 10 11 6 12 9 13
REMARK SMILES IDX 7 14 12 15 8 16 2 17 1 18 3 19 19 20 20 21 21 23 22 24 23 25
REMARK SMILES IDX 84 26 24 27 83 28 25 29 26 30 27 31 77 32 28 33 82 34 76 35
REMARK SMILES IDX 78 36 29 37 81 38 75 39 74 40 30 42 62 43 42 44 61 45 43 46
REMARK SMILES IDX 46 47 60 48 79 49 44 50 45 51 59 53 80 54 47 55 31 56 32 57
REMARK SMILES IDX 40 58 33 59 39 60 41 61 38 62 34 63 35 64 36 65 37 66 63 67
REMARK SMILES IDX 64 68 72 69 65 70 71 71 73 72 70 73 66 74 67 75 68 76 69 77
REMARK SMILES IDX 48 78 49 79 57 80 50 81 56 82 58 83 55 84 51 85 52 86 53 87
REMARK SMILES IDX 54 88
REMARK H PARENT 15 7 19 22 78 41 46 52
REMARK Flexibility Score: inf
ROOT
ATOM      1  C   UNL A   1      33.700  28.120  26.894  1.00  0.00     0.118 C 
ENDROOT
BRANCH   1   2
ATOM      2  C   UNL A   1      33.671  27.513  25.491  1.00  0.00     0.042 C 
BRANCH   2   3
ATOM      3  C   UNL A   1      33.939  26.009  25.485  1.00  0.00     0.118 C 
BRANCH   3   4
ATOM      4  N   UNL A   1      32.867  25.327  26.184  1.00  0.00    -0.350 N 
ATOM      5  C   UNL A   1      32.681  23.985  26.326  1.00  0.00     0.279 C 
ATOM      6  O   UNL A   1      31.537  23.542  26.378  1.00  0.00    -0.267 OA
ATOM      7  H   UNL A   1      32.191  25.904  26.607  1.00  0.00     0.163 HD
BRANCH   5   8
ATOM      8  C   UNL A   1      33.876  23.118  26.468  1.00  0.00     0.187 C 
ATOM      9  C   UNL A   1      34.212  22.372  23.972  1.00  0.00     0.021 C 
ATOM     10  C   UNL A   1      35.323  23.206  23.285  1.00  0.00     0.009 C 
ATOM     11  C   UNL A   1      34.518  22.463  25.479  1.00  0.00    -0.025 C 
ATOM     12  C   UNL A   1      36.733  22.703  23.631  1.00  0.00     0.004 C 
ATOM     13  C   UNL A   1      35.839  21.786  25.810  1.00  0.00     0.038 C 
ATOM     14  C   UNL A   1      36.994  22.547  25.138  1.00  0.00    -0.010 C 
ATOM     15  F   UNL A   1      34.383  23.082  27.721  1.00  0.00    -0.201 F 
ATOM     16  C   UNL A   1      37.242  23.904  25.810  1.00  0.00     0.008 C 
BRANCH   9  17
ATOM     17  C   UNL A   1      32.790  22.706  23.421  1.00  0.00    -0.010 C 
ATOM     18  C   UNL A   1      32.777  23.927  22.485  1.00  0.00     0.008 C 
ATOM     19  C   UNL A   1      32.158  21.541  22.645  1.00  0.00     0.008 C 
ENDBRANCH   9  17
ENDBRANCH   5   8
ENDBRANCH   3   4
ENDBRANCH   2   3
ENDBRANCH   1   2
BRANCH   1  20
ATOM     20  N   UNL A   1      33.579  29.570  26.866  1.00  0.00    -0.352 N 
ATOM     21  C   UNL A   1      34.377  30.516  27.460  1.00  0.00     0.251 C 
ATOM     22  H   UNL A   1      32.820  29.921  26.347  1.00  0.00     0.163 HD
ATOM     23  O   UNL A   1      33.997  31.679  27.520  1.00  0.00    -0.269 OA
BRANCH  21  24
ATOM     24  C   UNL A   1      35.676  30.115  28.043  1.00  0.00     0.039 A 
ATOM     25  C   UNL A   1      35.713  29.658  29.361  1.00  0.00     0.014 A 
ATOM     26  C   UNL A   1      36.851  30.183  27.288  1.00  0.00     0.014 A 
ATOM     27  C   UNL A   1      36.919  29.212  29.903  1.00  0.00     0.010 A 
ATOM     28  C   UNL A   1      38.035  29.664  27.803  1.00  0.00     0.010 A 
ATOM     29  C   UNL A   1      38.084  29.176  29.117  1.00  0.00    -0.014 A 
BRANCH  29  30
ATOM     30  C   UNL A   1      39.358  28.631  29.655  1.00  0.00     0.031 A 
ATOM     31  C   UNL A   1      39.990  29.250  30.872  1.00  0.00     0.074 A 
ATOM     32  C   UNL A   1      39.972  27.615  29.015  1.00  0.00     0.049 A 
ATOM     33  N   UNL A   1      41.128  28.962  31.452  1.00  0.00    -0.248 NA
ATOM     34  C   UNL A   1      39.258  30.358  31.503  1.00  0.00     0.031 C 
ATOM     35  C   UNL A   1      39.476  26.958  27.803  1.00  0.00     0.029 A 
ATOM     36  N   UNL A   1      41.149  26.962  29.287  1.00  0.00    -0.354 N 
ATOM     37  C   UNL A   1      41.253  29.858  32.508  1.00  0.00     0.074 A 
ATOM     38  C   UNL A   1      40.107  30.741  32.444  1.00  0.00     0.031 C 
ATOM     39  C   UNL A   1      40.327  25.980  27.454  1.00  0.00     0.029 A 
ATOM     40  C   UNL A   1      41.455  25.973  28.380  1.00  0.00     0.049 A 
ATOM     41  H   UNL A   1      41.719  27.180  30.058  1.00  0.00     0.167 HD
ATOM     42  C   UNL A   1      42.220  29.923  33.456  1.00  0.00     0.034 A 
ATOM     43  C   UNL A   1      42.529  25.163  28.292  1.00  0.00     0.034 A 
ATOM     44  C   UNL A   1      43.355  29.032  33.504  1.00  0.00     0.049 A 
ATOM     45  C   UNL A   1      43.614  25.280  29.335  1.00  0.00     0.074 A 
ATOM     46  C   UNL A   1      44.368  28.977  34.446  1.00  0.00     0.029 A 
ATOM     47  N   UNL A   1      43.637  28.049  32.563  1.00  0.00    -0.354 N 
ATOM     48  N   UNL A   1      43.690  26.098  30.359  1.00  0.00    -0.248 NA
ATOM     49  C   UNL A   1      44.749  24.358  29.215  1.00  0.00     0.031 C 
ATOM     50  C   UNL A   1      45.299  28.019  34.034  1.00  0.00     0.029 A 
ATOM     51  C   UNL A   1      44.825  27.408  32.883  1.00  0.00     0.049 A 
ATOM     52  H   UNL A   1      43.075  27.837  31.783  1.00  0.00     0.167 HD
ATOM     53  C   UNL A   1      44.867  25.765  31.024  1.00  0.00     0.074 A 
ATOM     54  C   UNL A   1      45.457  24.662  30.292  1.00  0.00     0.031 C 
ATOM     55  C   UNL A   1      45.411  26.316  32.139  1.00  0.00     0.034 A 
BRANCH  42  56
ATOM     56  C   UNL A   1      42.101  31.012  34.499  1.00  0.00     0.023 A 
ATOM     57  C   UNL A   1      42.707  32.270  34.326  1.00  0.00     0.031 A 
ATOM     58  C   UNL A   1      41.397  30.783  35.694  1.00  0.00     0.131 A 
ATOM     59  C   UNL A   1      42.668  33.215  35.362  1.00  0.00     0.055 A 
ATOM     60  C   UNL A   1      41.286  31.761  36.685  1.00  0.00     0.041 A 
ATOM     61  F   UNL A   1      40.816  29.596  35.928  1.00  0.00    -0.206 F 
ATOM     62  C   UNL A   1      41.938  32.981  36.528  1.00  0.00     0.022 A 
BRANCH  59  63
ATOM     63  S   UNL A   1      43.716  34.690  35.227  1.00  0.00     0.124 S 
ATOM     64  O   UNL A   1      43.715  35.178  36.604  1.00  0.00    -0.237 OA
ATOM     65  O   UNL A   1      44.978  34.138  34.747  1.00  0.00    -0.237 OA
ATOM     66  O   UNL A   1      43.000  35.534  34.274  1.00  0.00    -0.744 OA
ENDBRANCH  59  63
ENDBRANCH  42  56
BRANCH  43  67
ATOM     67  C   UNL A   1      42.648  24.183  27.174  1.00  0.00     0.023 A 
ATOM     68  C   UNL A   1      42.026  22.926  27.240  1.00  0.00     0.031 A 
ATOM     69  C   UNL A   1      43.426  24.473  26.037  1.00  0.00     0.131 A 
ATOM     70  C   UNL A   1      42.232  21.988  26.216  1.00  0.00     0.055 A 
ATOM     71  C   UNL A   1      43.579  23.558  24.994  1.00  0.00     0.041 A 
ATOM     72  F   UNL A   1      44.041  25.660  25.921  1.00  0.00    -0.206 F 
ATOM     73  C   UNL A   1      42.990  22.301  25.087  1.00  0.00     0.022 A 
BRANCH  70  74
ATOM     74  S   UNL A   1      41.570  20.312  26.428  1.00  0.00     0.124 S 
ATOM     75  O   UNL A   1      42.014  19.987  27.778  1.00  0.00    -0.237 OA
ATOM     76  O   UNL A   1      40.138  20.528  26.257  1.00  0.00    -0.237 OA
ATOM     77  O   UNL A   1      42.216  19.554  25.358  1.00  0.00    -0.744 OA
ENDBRANCH  70  74
ENDBRANCH  43  67
BRANCH  55  78
ATOM     78  C   UNL A   1      46.685  25.698  32.664  1.00  0.00     0.023 A 
ATOM     79  C   UNL A   1      47.945  26.032  32.139  1.00  0.00     0.031 A 
ATOM     80  C   UNL A   1      46.633  24.747  33.700  1.00  0.00     0.131 A 
ATOM     81  C   UNL A   1      49.095  25.380  32.612  1.00  0.00     0.055 A 
ATOM     82  C   UNL A   1      47.787  24.152  34.212  1.00  0.00     0.041 A 
ATOM     83  F   UNL A   1      45.456  24.384  34.236  1.00  0.00    -0.206 F 
ATOM     84  C   UNL A   1      49.025  24.458  33.658  1.00  0.00     0.022 A 
BRANCH  81  85
ATOM     85  S   UNL A   1      50.673  25.678  31.769  1.00  0.00     0.124 S 
ATOM     86  O   UNL A   1      50.640  27.123  31.565  1.00  0.00    -0.237 OA
ATOM     87  O   UNL A   1      51.645  25.193  32.744  1.00  0.00    -0.237 OA
ATOM     88  O   UNL A   1      50.568  24.878  30.550  1.00  0.00    -0.744 OA
ENDBRANCH  81  85
ENDBRANCH  55  78
ENDBRANCH  29  30
ENDBRANCH  21  24
ENDBRANCH   1  20
TORSDOF 14
ENDMDL
MODEL 3
REMARK VINA RESULT:     -11.8      5.089      7.622
REMARK SMILES CC(C)[C@H]1CC[C@@H](C)C/C1=C(\F)C(=O)NCCCNC(=O)c1ccc(-c2c3nc(c(-c4cc(S(=O)(=O)[O-])ccc4F)c4ccc([nH]4)c(-c4cc(S(=O)(=O)[O-])ccc4F)c4nc(c(-c5cc(S(=O)(=O)[O-])ccc5F)c5ccc2[nH]5)C=C4)C=C3)cc1
REMARK SMILES IDX 18 1 17 2 16 3 15 4 13 5 14 6 11 8 4 9 5 10 10 11 6 12 9 13
REMARK SMILES IDX 7 14 12 15 8 16 2 17 1 18 3 19 19 20 20 21 21 23 22 24 23 25
REMARK SMILES IDX 84 26 24 27 83 28 25 29 26 30 27 31 77 32 28 33 82 34 76 35
REMARK SMILES IDX 78 36 29 37 81 38 75 39 74 40 30 42 62 43 42 44 61 45 43 46
REMARK SMILES IDX 46 47 60 48 79 49 44 50 45 51 59 53 80 54 47 55 31 56 32 57
REMARK SMILES IDX 40 58 33 59 39 60 41 61 38 62 34 63 35 64 36 65 37 66 63 67
REMARK SMILES IDX 64 68 72 69 65 70 71 71 73 72 70 73 66 74 67 75 68 76 69 77
REMARK SMILES IDX 48 78 49 79 57 80 50 81 56 82 58 83 55 84 51 85 52 86 53 87
REMARK SMILES IDX 54 88
REMARK H PARENT 15 7 19 22 78 41 46 52
REMARK Flexibility Score: inf
ROOT
ATOM      1  C   UNL A   1      34.118  28.586  25.819  1.00  0.00     0.118 C 
ENDROOT
BRANCH   1   2
ATOM      2  C   UNL A   1      33.210  27.485  26.367  1.00  0.00     0.042 C 
BRANCH   2   3
ATOM      3  C   UNL A   1      33.324  26.174  25.590  1.00  0.00     0.118 C 
BRANCH   3   4
ATOM      4  N   UNL A   1      33.431  26.464  24.174  1.00  0.00    -0.350 N 
ATOM      5  C   UNL A   1      33.487  25.578  23.140  1.00  0.00     0.279 C 
ATOM      6  O   UNL A   1      34.145  25.864  22.143  1.00  0.00    -0.267 OA
ATOM      7  H   UNL A   1      33.467  27.417  23.928  1.00  0.00     0.163 HD
BRANCH   5   8
ATOM      8  C   UNL A   1      32.702  24.323  23.242  1.00  0.00     0.187 C 
ATOM      9  C   UNL A   1      34.448  22.776  24.448  1.00  0.00     0.021 C 
ATOM     10  C   UNL A   1      34.154  22.679  25.966  1.00  0.00     0.009 C 
ATOM     11  C   UNL A   1      33.104  23.166  23.803  1.00  0.00    -0.025 C 
ATOM     12  C   UNL A   1      33.034  21.675  26.283  1.00  0.00     0.004 C 
ATOM     13  C   UNL A   1      32.075  22.060  23.978  1.00  0.00     0.038 C 
ATOM     14  C   UNL A   1      31.747  21.888  25.470  1.00  0.00    -0.010 C 
ATOM     15  F   UNL A   1      31.434  24.431  22.786  1.00  0.00    -0.201 F 
ATOM     16  C   UNL A   1      30.929  23.069  26.009  1.00  0.00     0.008 C 
BRANCH   9  17
ATOM     17  C   UNL A   1      35.748  23.586  24.144  1.00  0.00    -0.010 C 
ATOM     18  C   UNL A   1      36.616  23.825  25.392  1.00  0.00     0.008 C 
ATOM     19  C   UNL A   1      36.646  22.910  23.097  1.00  0.00     0.008 C 
ENDBRANCH   9  17
ENDBRANCH   5   8
ENDBRANCH   3   4
ENDBRANCH   2   3
ENDBRANCH   1   2
BRANCH   1  20
ATOM     20  N   UNL A   1      33.721  29.906  26.285  1.00  0.00    -0.352 N 
ATOM     21  C   UNL A   1      34.253  30.661  27.301  1.00  0.00     0.251 C 
ATOM     22  H   UNL A   1      32.966  30.315  25.803  1.00  0.00     0.163 HD
ATOM     23  O   UNL A   1      33.650  31.649  27.703  1.00  0.00    -0.269 OA
BRANCH  21  24
ATOM     24  C   UNL A   1      35.536  30.259  27.915  1.00  0.00     0.039 A 
ATOM     25  C   UNL A   1      35.524  29.659  29.175  1.00  0.00     0.014 A 
ATOM     26  C   UNL A   1      36.746  30.466  27.245  1.00  0.00     0.014 A 
ATOM     27  C   UNL A   1      36.720  29.212  29.738  1.00  0.00     0.010 A 
ATOM     28  C   UNL A   1      37.926  29.949  27.773  1.00  0.00     0.010 A 
ATOM     29  C   UNL A   1      37.928  29.319  29.026  1.00  0.00    -0.014 A 
BRANCH  29  30
ATOM     30  C   UNL A   1      39.197  28.777  29.579  1.00  0.00     0.031 A 
ATOM     31  C   UNL A   1      39.852  29.444  30.758  1.00  0.00     0.074 A 
ATOM     32  C   UNL A   1      39.786  27.720  28.984  1.00  0.00     0.049 A 
ATOM     33  N   UNL A   1      40.990  29.164  31.341  1.00  0.00    -0.248 NA
ATOM     34  C   UNL A   1      39.146  30.594  31.341  1.00  0.00     0.031 C 
ATOM     35  C   UNL A   1      39.267  27.014  27.811  1.00  0.00     0.029 A 
ATOM     36  N   UNL A   1      40.953  27.060  29.277  1.00  0.00    -0.354 N 
ATOM     37  C   UNL A   1      41.141  30.107  32.351  1.00  0.00     0.074 A 
ATOM     38  C   UNL A   1      40.011  31.007  32.255  1.00  0.00     0.031 C 
ATOM     39  C   UNL A   1      40.096  26.005  27.502  1.00  0.00     0.029 A 
ATOM     40  C   UNL A   1      41.233  26.022  28.417  1.00  0.00     0.049 A 
ATOM     41  H   UNL A   1      41.535  27.305  30.032  1.00  0.00     0.167 HD
ATOM     42  C   UNL A   1      42.119  30.201  33.286  1.00  0.00     0.034 A 
ATOM     43  C   UNL A   1      42.291  25.190  28.359  1.00  0.00     0.034 A 
ATOM     44  C   UNL A   1      43.238  29.293  33.368  1.00  0.00     0.049 A 
ATOM     45  C   UNL A   1      43.388  25.338  29.385  1.00  0.00     0.074 A 
ATOM     46  C   UNL A   1      44.259  29.265  34.302  1.00  0.00     0.029 A 
ATOM     47  N   UNL A   1      43.493  28.260  32.473  1.00  0.00    -0.354 N 
ATOM     48  N   UNL A   1      43.489  26.203  30.368  1.00  0.00    -0.248 NA
ATOM     49  C   UNL A   1      44.506  24.390  29.300  1.00  0.00     0.031 C 
ATOM     50  C   UNL A   1      45.169  28.271  33.929  1.00  0.00     0.029 A 
ATOM     51  C   UNL A   1      44.673  27.614  32.814  1.00  0.00     0.049 A 
ATOM     52  H   UNL A   1      42.920  28.021  31.710  1.00  0.00     0.167 HD
ATOM     53  C   UNL A   1      44.667  25.881  31.037  1.00  0.00     0.074 A 
ATOM     54  C   UNL A   1      45.229  24.733  30.355  1.00  0.00     0.031 C 
ATOM     55  C   UNL A   1      45.231  26.476  32.119  1.00  0.00     0.034 A 
BRANCH  42  56
ATOM     56  C   UNL A   1      42.030  31.342  34.275  1.00  0.00     0.023 A 
ATOM     57  C   UNL A   1      41.080  31.348  35.312  1.00  0.00     0.031 A 
ATOM     58  C   UNL A   1      42.886  32.451  34.165  1.00  0.00     0.131 A 
ATOM     59  C   UNL A   1      40.953  32.473  36.141  1.00  0.00     0.055 A 
ATOM     60  C   UNL A   1      42.816  33.530  35.050  1.00  0.00     0.041 A 
ATOM     61  F   UNL A   1      43.800  32.515  33.184  1.00  0.00    -0.206 F 
ATOM     62  C   UNL A   1      41.834  33.552  36.036  1.00  0.00     0.022 A 
BRANCH  59  63
ATOM     63  S   UNL A   1      39.524  32.573  37.253  1.00  0.00     0.124 S 
ATOM     64  O   UNL A   1      40.172  32.646  38.561  1.00  0.00    -0.237 OA
ATOM     65  O   UNL A   1      38.857  33.789  36.802  1.00  0.00    -0.237 OA
ATOM     66  O   UNL A   1      38.799  31.331  36.994  1.00  0.00    -0.744 OA
ENDBRANCH  59  63
ENDBRANCH  42  56
BRANCH  43  67
ATOM     67  C   UNL A   1      42.382  24.154  27.289  1.00  0.00     0.023 A 
ATOM     68  C   UNL A   1      41.664  22.951  27.381  1.00  0.00     0.031 A 
ATOM     69  C   UNL A   1      43.225  24.334  26.177  1.00  0.00     0.131 A 
ATOM     70  C   UNL A   1      41.840  21.955  26.407  1.00  0.00     0.055 A 
ATOM     71  C   UNL A   1      43.351  23.365  25.181  1.00  0.00     0.041 A 
ATOM     72  F   UNL A   1      43.933  25.466  26.039  1.00  0.00    -0.206 F 
ATOM     73  C   UNL A   1      42.666  22.160  25.300  1.00  0.00     0.022 A 
BRANCH  70  74
ATOM     74  S   UNL A   1      41.045  20.344  26.659  1.00  0.00     0.124 S 
ATOM     75  O   UNL A   1      42.031  19.434  26.086  1.00  0.00    -0.237 OA
ATOM     76  O   UNL A   1      40.899  20.302  28.110  1.00  0.00    -0.237 OA
ATOM     77  O   UNL A   1      39.795  20.461  25.912  1.00  0.00    -0.744 OA
ENDBRANCH  70  74
ENDBRANCH  43  67
BRANCH  55  78
ATOM     78  C   UNL A   1      46.499  25.861  32.662  1.00  0.00     0.023 A 
ATOM     79  C   UNL A   1      46.476  24.809  33.595  1.00  0.00     0.031 A 
ATOM     80  C   UNL A   1      47.753  26.346  32.245  1.00  0.00     0.131 A 
ATOM     81  C   UNL A   1      47.680  24.317  34.123  1.00  0.00     0.055 A 
ATOM     82  C   UNL A   1      48.947  25.805  32.723  1.00  0.00     0.041 A 
ATOM     83  F   UNL A   1      47.836  27.353  31.360  1.00  0.00    -0.206 F 
ATOM     84  C   UNL A   1      48.914  24.794  33.678  1.00  0.00     0.022 A 
BRANCH  81  85
ATOM     85  S   UNL A   1      47.608  23.112  35.477  1.00  0.00     0.124 S 
ATOM     86  O   UNL A   1      46.193  23.137  35.830  1.00  0.00    -0.237 OA
ATOM     87  O   UNL A   1      48.085  21.891  34.835  1.00  0.00    -0.237 OA
ATOM     88  O   UNL A   1      48.508  23.674  36.484  1.00  0.00    -0.744 OA
ENDBRANCH  81  85
ENDBRANCH  55  78
ENDBRANCH  29  30
ENDBRANCH  21  24
ENDBRANCH   1  20
TORSDOF 14
ENDMDL
