MODEL 1
REMARK VINA RESULT:     -14.1      0.000      0.000
REMARK SMILES Cc1ccc([C@H]2NC(=O)N(C)C3=C2C(=O)N(c2cccc(C(=O)NCCCNC(=O)c4ccc(-c5c6nc(c(-c7cc(S(=O)(=O)[O-])ccc7F)c7ccc([nH]7)c(-c7cc(S(=O)(=O)[O-])ccc7F)c7nc(c(-c8cc(S(=O)(=O)[O-])ccc8F)c8ccc5[nH]8)C=C7)C=C6)cc4)c2)C3)cc1
REMARK SMILES IDX 26 1 25 2 24 3 22 4 23 5 21 7 17 8 18 9 94 10 19 11 20 12
REMARK SMILES IDX 16 13 6 14 7 15 13 16 8 17 12 19 14 20 9 21 10 22 95 23
REMARK SMILES IDX 15 24 11 25 5 26 1 27 2 28 3 29 97 30 4 31 96 32 27 33 28 34
REMARK SMILES IDX 29 35 30 37 31 38 32 39 93 40 33 41 92 42 34 43 35 44 36 45
REMARK SMILES IDX 86 46 37 47 91 48 85 49 87 50 38 51 90 52 84 53 83 54 39 56
REMARK SMILES IDX 71 57 51 58 70 59 52 60 55 61 69 62 88 63 53 64 54 65 68 67
REMARK SMILES IDX 89 68 56 69 40 70 41 71 49 72 42 73 48 74 50 75 47 76 43 77
REMARK SMILES IDX 44 78 45 79 46 80 72 81 73 82 81 83 74 84 80 85 82 86 79 87
REMARK SMILES IDX 75 88 76 89 77 90 78 91 57 92 58 93 66 94 59 95 65 96 67 97
REMARK SMILES IDX 64 98 60 99 61 100 62 101 63 102
REMARK H PARENT 24 6 7 18 28 36 87 55 55 66
REMARK Flexibility Score: inf
ROOT
ATOM      1  C   UNL A   1      35.339  33.424  28.972  1.00  0.00     0.042 C 
ENDROOT
BRANCH   1   2
ATOM      2  C   UNL A   1      35.053  32.578  27.735  1.00  0.00     0.118 C 
BRANCH   2   3
ATOM      3  N   UNL A   1      35.797  31.329  27.772  1.00  0.00    -0.352 N 
ATOM      4  C   UNL A   1      35.456  30.027  27.525  1.00  0.00     0.251 C 
ATOM      5  O   UNL A   1      36.333  29.170  27.665  1.00  0.00    -0.269 OA
ATOM      6  H   UNL A   1      36.740  31.444  28.028  1.00  0.00     0.163 HD
BRANCH   4   7
ATOM      7  C   UNL A   1      34.103  29.580  27.060  1.00  0.00     0.041 A 
ATOM      8  C   UNL A   1      32.805  27.712  26.167  1.00  0.00     0.045 A 
ATOM      9  C   UNL A   1      31.740  28.572  25.906  1.00  0.00     0.026 A 
ATOM     10  C   UNL A   1      33.974  28.213  26.751  1.00  0.00     0.040 A 
ATOM     11  C   UNL A   1      31.815  29.902  26.294  1.00  0.00     0.003 A 
ATOM     12  C   UNL A   1      32.986  30.395  26.873  1.00  0.00     0.014 A 
BRANCH   8  13
ATOM     13  N   UNL A   1      32.712  26.358  25.815  1.00  0.00    -0.303 N 
ATOM     14  C   UNL A   1      33.792  23.261  24.136  1.00  0.00     0.152 C 
ATOM     15  N   UNL A   1      32.960  22.066  24.235  1.00  0.00    -0.327 N 
ATOM     16  C   UNL A   1      33.087  24.349  24.823  1.00  0.00     0.066 C 
ATOM     17  C   UNL A   1      31.941  21.852  25.125  1.00  0.00     0.322 C 
ATOM     18  H   UNL A   1      33.151  21.340  23.600  1.00  0.00     0.166 HD
ATOM     19  C   UNL A   1      32.125  24.181  25.726  1.00  0.00     0.053 C 
ATOM     20  C   UNL A   1      33.411  25.773  24.763  1.00  0.00     0.258 C 
ATOM     21  O   UNL A   1      31.405  20.746  25.159  1.00  0.00    -0.248 OA
ATOM     22  N   UNL A   1      31.556  22.940  25.911  1.00  0.00    -0.299 N 
ATOM     23  C   UNL A   1      31.842  25.426  26.494  1.00  0.00     0.180 C 
ATOM     24  O   UNL A   1      34.173  26.256  23.958  1.00  0.00    -0.269 OA
ATOM     25  C   UNL A   1      30.473  22.775  26.866  1.00  0.00     0.155 C 
BRANCH  14  26
ATOM     26  C   UNL A   1      35.192  22.975  24.685  1.00  0.00    -0.021 A 
ATOM     27  C   UNL A   1      39.184  22.077  26.127  1.00  0.00     0.044 C 
ATOM     28  C   UNL A   1      37.801  22.387  25.637  1.00  0.00    -0.051 A 
ATOM     29  C   UNL A   1      36.951  21.364  25.206  1.00  0.00     0.004 A 
ATOM     30  C   UNL A   1      37.341  23.702  25.607  1.00  0.00     0.004 A 
ATOM     31  C   UNL A   1      35.665  21.653  24.730  1.00  0.00     0.006 A 
ATOM     32  C   UNL A   1      36.054  23.989  25.147  1.00  0.00     0.006 A 
ENDBRANCH  14  26
ENDBRANCH   8  13
ENDBRANCH   4   7
ENDBRANCH   2   3
ENDBRANCH   1   2
BRANCH   1  33
ATOM     33  C   UNL A   1      34.822  32.770  30.239  1.00  0.00     0.118 C 
BRANCH  33  34
ATOM     34  N   UNL A   1      33.927  33.621  31.017  1.00  0.00    -0.352 N 
ATOM     35  C   UNL A   1      34.032  34.055  32.328  1.00  0.00     0.251 C 
ATOM     36  H   UNL A   1      33.127  33.934  30.536  1.00  0.00     0.163 HD
ATOM     37  O   UNL A   1      33.089  34.598  32.899  1.00  0.00    -0.269 OA
BRANCH  35  38
ATOM     38  C   UNL A   1      35.369  34.075  32.972  1.00  0.00     0.039 A 
ATOM     39  C   UNL A   1      36.354  34.807  32.289  1.00  0.00     0.014 A 
ATOM     40  C   UNL A   1      35.724  33.078  33.867  1.00  0.00     0.014 A 
ATOM     41  C   UNL A   1      37.645  34.309  32.237  1.00  0.00     0.010 A 
ATOM     42  C   UNL A   1      36.938  32.477  33.676  1.00  0.00     0.010 A 
ATOM     43  C   UNL A   1      37.865  33.068  32.816  1.00  0.00    -0.014 A 
BRANCH  43  44
ATOM     44  C   UNL A   1      39.076  32.300  32.662  1.00  0.00     0.031 A 
ATOM     45  C   UNL A   1      38.945  31.042  31.918  1.00  0.00     0.074 A 
ATOM     46  C   UNL A   1      40.239  32.864  33.051  1.00  0.00     0.049 A 
ATOM     47  N   UNL A   1      39.707  30.024  32.061  1.00  0.00    -0.248 NA
ATOM     48  C   UNL A   1      37.842  30.800  30.986  1.00  0.00     0.031 C 
ATOM     49  C   UNL A   1      41.601  32.461  32.732  1.00  0.00     0.029 A 
ATOM     50  N   UNL A   1      40.393  33.853  34.021  1.00  0.00    -0.354 N 
ATOM     51  C   UNL A   1      39.438  29.176  31.008  1.00  0.00     0.074 A 
ATOM     52  C   UNL A   1      38.178  29.615  30.474  1.00  0.00     0.031 C 
ATOM     53  C   UNL A   1      42.433  32.972  33.659  1.00  0.00     0.029 A 
ATOM     54  C   UNL A   1      41.608  33.596  34.683  1.00  0.00     0.049 A 
ATOM     55  H   UNL A   1      39.769  34.592  34.209  1.00  0.00     0.167 HD
ATOM     56  C   UNL A   1      40.426  28.340  30.589  1.00  0.00     0.034 A 
ATOM     57  C   UNL A   1      41.589  33.234  36.003  1.00  0.00     0.034 A 
ATOM     58  C   UNL A   1      41.603  28.518  31.438  1.00  0.00     0.049 A 
ATOM     59  C   UNL A   1      42.038  31.802  36.186  1.00  0.00     0.074 A 
ATOM     60  C   UNL A   1      42.744  29.289  31.280  1.00  0.00     0.029 A 
ATOM     61  N   UNL A   1      41.530  28.180  32.781  1.00  0.00    -0.354 N 
ATOM     62  N   UNL A   1      41.946  30.884  35.260  1.00  0.00    -0.248 NA
ATOM     63  C   UNL A   1      42.697  31.319  37.394  1.00  0.00     0.031 C 
ATOM     64  C   UNL A   1      43.308  29.487  32.567  1.00  0.00     0.029 A 
ATOM     65  C   UNL A   1      42.528  28.813  33.492  1.00  0.00     0.049 A 
ATOM     66  H   UNL A   1      40.859  27.574  33.171  1.00  0.00     0.167 HD
ATOM     67  C   UNL A   1      42.546  29.732  35.699  1.00  0.00     0.074 A 
ATOM     68  C   UNL A   1      42.998  30.057  37.041  1.00  0.00     0.031 C 
ATOM     69  C   UNL A   1      42.647  28.609  34.924  1.00  0.00     0.034 A 
BRANCH  56  70
ATOM     70  C   UNL A   1      40.492  27.625  29.262  1.00  0.00     0.023 A 
ATOM     71  C   UNL A   1      41.440  28.086  28.326  1.00  0.00     0.031 A 
ATOM     72  C   UNL A   1      39.686  26.559  28.822  1.00  0.00     0.131 A 
ATOM     73  C   UNL A   1      41.517  27.565  27.026  1.00  0.00     0.055 A 
ATOM     74  C   UNL A   1      39.744  26.050  27.515  1.00  0.00     0.041 A 
ATOM     75  F   UNL A   1      38.832  25.925  29.633  1.00  0.00    -0.206 F 
ATOM     76  C   UNL A   1      40.660  26.557  26.606  1.00  0.00     0.022 A 
BRANCH  73  77
ATOM     77  S   UNL A   1      42.764  28.242  25.901  1.00  0.00     0.124 S 
ATOM     78  O   UNL A   1      43.983  27.592  26.369  1.00  0.00    -0.237 OA
ATOM     79  O   UNL A   1      42.265  27.819  24.596  1.00  0.00    -0.237 OA
ATOM     80  O   UNL A   1      42.695  29.681  26.150  1.00  0.00    -0.744 OA
ENDBRANCH  73  77
ENDBRANCH  56  70
BRANCH  57  81
ATOM     81  C   UNL A   1      40.499  33.936  36.756  1.00  0.00     0.023 A 
ATOM     82  C   UNL A   1      39.304  33.201  36.941  1.00  0.00     0.031 A 
ATOM     83  C   UNL A   1      40.778  34.964  37.667  1.00  0.00     0.131 A 
ATOM     84  C   UNL A   1      38.576  33.328  38.135  1.00  0.00     0.055 A 
ATOM     85  C   UNL A   1      39.990  35.149  38.812  1.00  0.00     0.041 A 
ATOM     86  F   UNL A   1      41.894  35.699  37.551  1.00  0.00    -0.206 F 
ATOM     87  C   UNL A   1      38.927  34.285  39.086  1.00  0.00     0.022 A 
BRANCH  84  88
ATOM     88  S   UNL A   1      37.397  32.010  38.562  1.00  0.00     0.124 S 
ATOM     89  O   UNL A   1      36.116  32.705  38.502  1.00  0.00    -0.237 OA
ATOM     90  O   UNL A   1      37.635  31.022  37.512  1.00  0.00    -0.237 OA
ATOM     91  O   UNL A   1      37.818  31.572  39.894  1.00  0.00    -0.744 OA
ENDBRANCH  84  88
ENDBRANCH  57  81
BRANCH  69  92
ATOM     92  C   UNL A   1      42.970  27.225  35.435  1.00  0.00     0.023 A 
ATOM     93  C   UNL A   1      44.086  26.510  34.994  1.00  0.00     0.031 A 
ATOM     94  C   UNL A   1      42.214  26.605  36.462  1.00  0.00     0.131 A 
ATOM     95  C   UNL A   1      44.339  25.207  35.447  1.00  0.00     0.055 A 
ATOM     96  C   UNL A   1      42.538  25.358  37.000  1.00  0.00     0.041 A 
ATOM     97  F   UNL A   1      41.131  27.183  37.001  1.00  0.00    -0.206 F 
ATOM     98  C   UNL A   1      43.593  24.634  36.470  1.00  0.00     0.022 A 
BRANCH  95  99
ATOM     99  S   UNL A   1      45.594  24.253  34.564  1.00  0.00     0.124 S 
ATOM    100  O   UNL A   1      45.175  22.881  34.847  1.00  0.00    -0.237 OA
ATOM    101  O   UNL A   1      45.416  24.694  33.185  1.00  0.00    -0.237 OA
ATOM    102  O   UNL A   1      46.845  24.662  35.196  1.00  0.00    -0.744 OA
ENDBRANCH  95  99
ENDBRANCH  69  92
ENDBRANCH  43  44
ENDBRANCH  35  38
ENDBRANCH  33  34
ENDBRANCH   1  33
TORSDOF 15
ENDMDL
MODEL 2
REMARK VINA RESULT:     -13.7      4.372      9.844
REMARK SMILES Cc1ccc([C@H]2NC(=O)N(C)C3=C2C(=O)N(c2cccc(C(=O)NCCCNC(=O)c4ccc(-c5c6nc(c(-c7cc(S(=O)(=O)[O-])ccc7F)c7ccc([nH]7)c(-c7cc(S(=O)(=O)[O-])ccc7F)c7nc(c(-c8cc(S(=O)(=O)[O-])ccc8F)c8ccc5[nH]8)C=C7)C=C6)cc4)c2)C3)cc1
REMARK SMILES IDX 26 1 25 2 24 3 22 4 23 5 21 7 17 8 18 9 94 10 19 11 20 12
REMARK SMILES IDX 16 13 6 14 7 15 13 16 8 17 12 19 14 20 9 21 10 22 95 23
REMARK SMILES IDX 15 24 11 25 5 26 1 27 2 28 3 29 97 30 4 31 96 32 27 33 28 34
REMARK SMILES IDX 29 35 30 37 31 38 32 39 93 40 33 41 92 42 34 43 35 44 36 45
REMARK SMILES IDX 86 46 37 47 91 48 85 49 87 50 38 51 90 52 84 53 83 54 39 56
REMARK SMILES IDX 71 57 51 58 70 59 52 60 55 61 69 62 88 63 53 64 54 65 68 67
REMARK SMILES IDX 89 68 56 69 40 70 41 71 49 72 42 73 48 74 50 75 47 76 43 77
REMARK SMILES IDX 44 78 45 79 46 80 72 81 73 82 81 83 74 84 80 85 82 86 79 87
REMARK SMILES IDX 75 88 76 89 77 90 78 91 57 92 58 93 66 94 59 95 65 96 67 97
REMARK SMILES IDX 64 98 60 99 61 100 62 101 63 102
REMARK H PARENT 24 6 7 18 28 36 87 55 55 66
REMARK Flexibility Score: inf
ROOT
ATOM      1  C   UNL A   1      37.700  23.925  26.751  1.00  0.00     0.042 C 
ENDROOT
BRANCH   1   2
ATOM      2  C   UNL A   1      36.608  23.161  26.010  1.00  0.00     0.118 C 
BRANCH   2   3
ATOM      3  N   UNL A   1      37.053  21.820  25.661  1.00  0.00    -0.352 N 
ATOM      4  C   UNL A   1      36.407  20.714  25.181  1.00  0.00     0.251 C 
ATOM      5  O   UNL A   1      37.076  19.693  25.001  1.00  0.00    -0.269 OA
ATOM      6  H   UNL A   1      38.017  21.680  25.800  1.00  0.00     0.163 HD
BRANCH   4   7
ATOM      7  C   UNL A   1      34.951  20.670  24.826  1.00  0.00     0.041 A 
ATOM      8  C   UNL A   1      32.977  22.006  24.287  1.00  0.00     0.045 A 
ATOM      9  C   UNL A   1      32.174  20.872  24.398  1.00  0.00     0.026 A 
ATOM     10  C   UNL A   1      34.357  21.901  24.489  1.00  0.00     0.040 A 
ATOM     11  C   UNL A   1      32.756  19.634  24.634  1.00  0.00     0.003 A 
ATOM     12  C   UNL A   1      34.134  19.539  24.838  1.00  0.00     0.014 A 
BRANCH   8  13
ATOM     13  N   UNL A   1      32.393  23.249  24.004  1.00  0.00    -0.303 N 
ATOM     14  C   UNL A   1      30.819  26.470  24.854  1.00  0.00     0.152 C 
ATOM     15  N   UNL A   1      30.357  27.345  23.781  1.00  0.00    -0.327 N 
ATOM     16  C   UNL A   1      31.323  25.239  24.235  1.00  0.00     0.066 C 
ATOM     17  C   UNL A   1      30.689  27.257  22.455  1.00  0.00     0.322 C 
ATOM     18  H   UNL A   1      29.746  28.073  24.036  1.00  0.00     0.166 HD
ATOM     19  C   UNL A   1      31.698  25.127  22.963  1.00  0.00     0.053 C 
ATOM     20  C   UNL A   1      31.647  23.989  24.918  1.00  0.00     0.258 C 
ATOM     21  O   UNL A   1      30.307  28.139  21.688  1.00  0.00    -0.248 OA
ATOM     22  N   UNL A   1      31.415  26.131  22.064  1.00  0.00    -0.299 N 
ATOM     23  C   UNL A   1      32.478  23.882  22.708  1.00  0.00     0.180 C 
ATOM     24  O   UNL A   1      31.329  23.744  26.057  1.00  0.00    -0.269 OA
ATOM     25  C   UNL A   1      31.787  25.979  20.667  1.00  0.00     0.155 C 
BRANCH  14  26
ATOM     26  C   UNL A   1      31.845  27.201  25.724  1.00  0.00    -0.021 A 
ATOM     27  C   UNL A   1      34.800  29.343  28.071  1.00  0.00     0.044 C 
ATOM     28  C   UNL A   1      33.780  28.595  27.264  1.00  0.00    -0.051 A 
ATOM     29  C   UNL A   1      34.130  28.000  26.048  1.00  0.00     0.004 A 
ATOM     30  C   UNL A   1      32.468  28.478  27.718  1.00  0.00     0.004 A 
ATOM     31  C   UNL A   1      33.174  27.316  25.284  1.00  0.00     0.006 A 
ATOM     32  C   UNL A   1      31.519  27.785  26.963  1.00  0.00     0.006 A 
ENDBRANCH  14  26
ENDBRANCH   8  13
ENDBRANCH   4   7
ENDBRANCH   2   3
ENDBRANCH   1   2
BRANCH   1  33
ATOM     33  C   UNL A   1      39.074  23.671  26.159  1.00  0.00     0.118 C 
BRANCH  33  34
ATOM     34  N   UNL A   1      40.146  23.656  27.150  1.00  0.00    -0.352 N 
ATOM     35  C   UNL A   1      40.711  24.701  27.862  1.00  0.00     0.251 C 
ATOM     36  H   UNL A   1      40.525  22.768  27.341  1.00  0.00     0.163 HD
ATOM     37  O   UNL A   1      41.746  24.550  28.505  1.00  0.00    -0.269 OA
BRANCH  35  38
ATOM     38  C   UNL A   1      39.933  25.953  28.037  1.00  0.00     0.039 A 
ATOM     39  C   UNL A   1      40.230  26.977  27.122  1.00  0.00     0.014 A 
ATOM     40  C   UNL A   1      39.354  26.246  29.261  1.00  0.00     0.014 A 
ATOM     41  C   UNL A   1      40.275  28.286  27.571  1.00  0.00     0.010 A 
ATOM     42  C   UNL A   1      39.570  27.499  29.765  1.00  0.00     0.010 A 
ATOM     43  C   UNL A   1      40.086  28.492  28.930  1.00  0.00    -0.014 A 
BRANCH  43  44
ATOM     44  C   UNL A   1      40.319  29.745  29.604  1.00  0.00     0.031 A 
ATOM     45  C   UNL A   1      39.203  30.698  29.587  1.00  0.00     0.074 A 
ATOM     46  C   UNL A   1      41.451  29.877  30.327  1.00  0.00     0.049 A 
ATOM     47  N   UNL A   1      39.323  31.968  29.679  1.00  0.00    -0.248 NA
ATOM     48  C   UNL A   1      37.819  30.271  29.366  1.00  0.00     0.031 C 
ATOM     49  C   UNL A   1      41.783  30.877  31.331  1.00  0.00     0.029 A 
ATOM     50  N   UNL A   1      42.646  29.187  30.122  1.00  0.00    -0.354 N 
ATOM     51  C   UNL A   1      38.059  32.471  29.906  1.00  0.00     0.074 A 
ATOM     52  C   UNL A   1      37.155  31.415  29.540  1.00  0.00     0.031 C 
ATOM     53  C   UNL A   1      43.122  30.935  31.460  1.00  0.00     0.029 A 
ATOM     54  C   UNL A   1      43.692  30.076  30.433  1.00  0.00     0.049 A 
ATOM     55  H   UNL A   1      42.740  28.256  29.818  1.00  0.00     0.167 HD
ATOM     56  C   UNL A   1      37.948  33.648  30.578  1.00  0.00     0.034 A 
ATOM     57  C   UNL A   1      44.534  30.495  29.438  1.00  0.00     0.034 A 
ATOM     58  C   UNL A   1      39.283  34.159  30.883  1.00  0.00     0.049 A 
ATOM     59  C   UNL A   1      44.356  31.969  29.154  1.00  0.00     0.074 A 
ATOM     60  C   UNL A   1      40.073  34.052  32.017  1.00  0.00     0.029 A 
ATOM     61  N   UNL A   1      40.122  34.532  29.844  1.00  0.00    -0.354 N 
ATOM     62  N   UNL A   1      43.255  32.632  29.395  1.00  0.00    -0.248 NA
ATOM     63  C   UNL A   1      45.428  32.822  28.655  1.00  0.00     0.031 C 
ATOM     64  C   UNL A   1      41.417  34.278  31.625  1.00  0.00     0.029 A 
ATOM     65  C   UNL A   1      41.435  34.550  30.268  1.00  0.00     0.049 A 
ATOM     66  H   UNL A   1      39.822  34.753  28.933  1.00  0.00     0.167 HD
ATOM     67  C   UNL A   1      43.459  33.963  29.138  1.00  0.00     0.074 A 
ATOM     68  C   UNL A   1      44.835  34.028  28.675  1.00  0.00     0.031 C 
ATOM     69  C   UNL A   1      42.495  34.912  29.344  1.00  0.00     0.034 A 
BRANCH  56  70
ATOM     70  C   UNL A   1      36.709  34.179  31.256  1.00  0.00     0.023 A 
ATOM     71  C   UNL A   1      35.652  34.607  30.427  1.00  0.00     0.031 A 
ATOM     72  C   UNL A   1      36.488  34.334  32.637  1.00  0.00     0.131 A 
ATOM     73  C   UNL A   1      34.498  35.213  30.946  1.00  0.00     0.055 A 
ATOM     74  C   UNL A   1      35.344  34.960  33.158  1.00  0.00     0.041 A 
ATOM     75  F   UNL A   1      37.335  33.858  33.556  1.00  0.00    -0.206 F 
ATOM     76  C   UNL A   1      34.343  35.409  32.311  1.00  0.00     0.022 A 
BRANCH  73  77
ATOM     77  S   UNL A   1      33.208  35.739  29.788  1.00  0.00     0.124 S 
ATOM     78  O   UNL A   1      32.522  34.483  29.505  1.00  0.00    -0.237 OA
ATOM     79  O   UNL A   1      32.468  36.719  30.574  1.00  0.00    -0.237 OA
ATOM     80  O   UNL A   1      33.968  36.294  28.668  1.00  0.00    -0.744 OA
ENDBRANCH  73  77
ENDBRANCH  56  70
BRANCH  57  81
ATOM     81  C   UNL A   1      44.790  29.412  28.434  1.00  0.00     0.023 A 
ATOM     82  C   UNL A   1      45.593  28.335  28.878  1.00  0.00     0.031 A 
ATOM     83  C   UNL A   1      43.909  29.170  27.371  1.00  0.00     0.131 A 
ATOM     84  C   UNL A   1      45.322  27.027  28.446  1.00  0.00     0.055 A 
ATOM     85  C   UNL A   1      43.710  27.873  26.877  1.00  0.00     0.041 A 
ATOM     86  F   UNL A   1      43.117  30.146  26.901  1.00  0.00    -0.206 F 
ATOM     87  C   UNL A   1      44.365  26.786  27.461  1.00  0.00     0.022 A 
BRANCH  84  88
ATOM     88  S   UNL A   1      45.986  25.647  29.427  1.00  0.00     0.124 S 
ATOM     89  O   UNL A   1      45.116  24.543  29.042  1.00  0.00    -0.237 OA
ATOM     90  O   UNL A   1      47.368  25.563  28.956  1.00  0.00    -0.237 OA
ATOM     91  O   UNL A   1      45.860  26.100  30.813  1.00  0.00    -0.744 OA
ENDBRANCH  84  88
ENDBRANCH  57  81
BRANCH  69  92
ATOM     92  C   UNL A   1      42.516  36.311  28.776  1.00  0.00     0.023 A 
ATOM     93  C   UNL A   1      43.078  37.388  29.466  1.00  0.00     0.031 A 
ATOM     94  C   UNL A   1      42.049  36.600  27.468  1.00  0.00     0.131 A 
ATOM     95  C   UNL A   1      43.041  38.687  28.939  1.00  0.00     0.055 A 
ATOM     96  C   UNL A   1      42.125  37.872  26.896  1.00  0.00     0.041 A 
ATOM     97  F   UNL A   1      41.507  35.661  26.679  1.00  0.00    -0.206 F 
ATOM     98  C   UNL A   1      42.597  38.936  27.646  1.00  0.00     0.022 A 
BRANCH  95  99
ATOM     99  S   UNL A   1      43.478  40.043  30.049  1.00  0.00     0.124 S 
ATOM    100  O   UNL A   1      43.771  39.328  31.290  1.00  0.00    -0.237 OA
ATOM    101  O   UNL A   1      44.628  40.642  29.380  1.00  0.00    -0.237 OA
ATOM    102  O   UNL A   1      42.272  40.867  30.077  1.00  0.00    -0.744 OA
ENDBRANCH  95  99
ENDBRANCH  69  92
ENDBRANCH  43  44
ENDBRANCH  35  38
ENDBRANCH  33  34
ENDBRANCH   1  33
TORSDOF 15
ENDMDL
MODEL 3
REMARK VINA RESULT:     -13.7      5.334     11.096
REMARK SMILES Cc1ccc([C@H]2NC(=O)N(C)C3=C2C(=O)N(c2cccc(C(=O)NCCCNC(=O)c4ccc(-c5c6nc(c(-c7cc(S(=O)(=O)[O-])ccc7F)c7ccc([nH]7)c(-c7cc(S(=O)(=O)[O-])ccc7F)c7nc(c(-c8cc(S(=O)(=O)[O-])ccc8F)c8ccc5[nH]8)C=C7)C=C6)cc4)c2)C3)cc1
REMARK SMILES IDX 26 1 25 2 24 3 22 4 23 5 21 7 17 8 18 9 94 10 19 11 20 12
REMARK SMILES IDX 16 13 6 14 7 15 13 16 8 17 12 19 14 20 9 21 10 22 95 23
REMARK SMILES IDX 15 24 11 25 5 26 1 27 2 28 3 29 97 30 4 31 96 32 27 33 28 34
REMARK SMILES IDX 29 35 30 37 31 38 32 39 93 40 33 41 92 42 34 43 35 44 36 45
REMARK SMILES IDX 86 46 37 47 91 48 85 49 87 50 38 51 90 52 84 53 83 54 39 56
REMARK SMILES IDX 71 57 51 58 70 59 52 60 55 61 69 62 88 63 53 64 54 65 68 67
REMARK SMILES IDX 89 68 56 69 40 70 41 71 49 72 42 73 48 74 50 75 47 76 43 77
REMARK SMILES IDX 44 78 45 79 46 80 72 81 73 82 81 83 74 84 80 85 82 86 79 87
REMARK SMILES IDX 75 88 76 89 77 90 78 91 57 92 58 93 66 94 59 95 65 96 67 97
REMARK SMILES IDX 64 98 60 99 61 100 62 101 63 102
REMARK H PARENT 24 6 7 18 28 36 87 55 55 66
REMARK Flexibility Score: inf
ROOT
ATOM      1  C   UNL A   1      41.396  20.864  27.119  1.00  0.00     0.042 C 
ENDROOT
BRANCH   1   2
ATOM      2  C   UNL A   1      40.067  21.176  26.438  1.00  0.00     0.118 C 
BRANCH   2   3
ATOM      3  N   UNL A   1      39.677  22.560  26.660  1.00  0.00    -0.352 N 
ATOM      4  C   UNL A   1      38.562  23.283  26.337  1.00  0.00     0.251 C 
ATOM      5  O   UNL A   1      38.540  24.475  26.655  1.00  0.00    -0.269 OA
ATOM      6  H   UNL A   1      40.357  23.084  27.142  1.00  0.00     0.163 HD
BRANCH   4   7
ATOM      7  C   UNL A   1      37.353  22.716  25.655  1.00  0.00     0.041 A 
ATOM      8  C   UNL A   1      35.128  23.212  24.776  1.00  0.00     0.045 A 
ATOM      9  C   UNL A   1      34.882  21.849  24.619  1.00  0.00     0.026 A 
ATOM     10  C   UNL A   1      36.360  23.640  25.280  1.00  0.00     0.040 A 
ATOM     11  C   UNL A   1      35.885  20.930  24.892  1.00  0.00     0.003 A 
ATOM     12  C   UNL A   1      37.111  21.365  25.398  1.00  0.00     0.014 A 
BRANCH   8  13
ATOM     13  N   UNL A   1      34.129  24.143  24.457  1.00  0.00    -0.303 N 
ATOM     14  C   UNL A   1      31.614  26.731  25.203  1.00  0.00     0.152 C 
ATOM     15  N   UNL A   1      30.791  27.260  24.121  1.00  0.00    -0.327 N 
ATOM     16  C   UNL A   1      32.460  25.672  24.639  1.00  0.00     0.066 C 
ATOM     17  C   UNL A   1      31.021  27.124  22.778  1.00  0.00     0.322 C 
ATOM     18  H   UNL A   1      29.990  27.767  24.383  1.00  0.00     0.166 HD
ATOM     19  C   UNL A   1      32.743  25.534  23.346  1.00  0.00     0.053 C 
ATOM     20  C   UNL A   1      33.252  24.697  25.385  1.00  0.00     0.258 C 
ATOM     21  O   UNL A   1      30.295  27.725  21.987  1.00  0.00    -0.248 OA
ATOM     22  N   UNL A   1      32.056  26.266  22.403  1.00  0.00    -0.299 N 
ATOM     23  C   UNL A   1      33.880  24.601  23.110  1.00  0.00     0.180 C 
ATOM     24  O   UNL A   1      33.135  24.504  26.572  1.00  0.00    -0.269 OA
ATOM     25  C   UNL A   1      32.340  26.074  20.990  1.00  0.00     0.155 C 
BRANCH  14  26
ATOM     26  C   UNL A   1      32.394  27.865  25.875  1.00  0.00    -0.021 A 
ATOM     27  C   UNL A   1      34.519  31.062  27.896  1.00  0.00     0.044 C 
ATOM     28  C   UNL A   1      33.785  29.962  27.190  1.00  0.00    -0.051 A 
ATOM     29  C   UNL A   1      32.387  29.921  27.192  1.00  0.00     0.004 A 
ATOM     30  C   UNL A   1      34.486  28.963  26.516  1.00  0.00     0.004 A 
ATOM     31  C   UNL A   1      31.699  28.883  26.548  1.00  0.00     0.006 A 
ATOM     32  C   UNL A   1      33.801  27.937  25.862  1.00  0.00     0.006 A 
ENDBRANCH  14  26
ENDBRANCH   8  13
ENDBRANCH   4   7
ENDBRANCH   2   3
ENDBRANCH   1   2
BRANCH   1  33
ATOM     33  C   UNL A   1      42.524  21.724  26.583  1.00  0.00     0.118 C 
BRANCH  33  34
ATOM     34  N   UNL A   1      43.193  21.154  25.417  1.00  0.00    -0.352 N 
ATOM     35  C   UNL A   1      44.224  21.667  24.647  1.00  0.00     0.251 C 
ATOM     36  H   UNL A   1      42.861  20.272  25.135  1.00  0.00     0.163 HD
ATOM     37  O   UNL A   1      44.535  21.156  23.574  1.00  0.00    -0.269 OA
BRANCH  35  38
ATOM     38  C   UNL A   1      45.112  22.701  25.233  1.00  0.00     0.039 A 
ATOM     39  C   UNL A   1      45.413  22.531  26.595  1.00  0.00     0.014 A 
ATOM     40  C   UNL A   1      45.217  23.947  24.638  1.00  0.00     0.014 A 
ATOM     41  C   UNL A   1      45.467  23.647  27.414  1.00  0.00     0.010 A 
ATOM     42  C   UNL A   1      45.085  25.037  25.453  1.00  0.00     0.010 A 
ATOM     43  C   UNL A   1      45.152  24.868  26.837  1.00  0.00    -0.014 A 
BRANCH  43  44
ATOM     44  C   UNL A   1      44.938  26.087  27.576  1.00  0.00     0.031 A 
ATOM     45  C   UNL A   1      43.589  26.658  27.491  1.00  0.00     0.074 A 
ATOM     46  C   UNL A   1      45.915  26.507  28.407  1.00  0.00     0.049 A 
ATOM     47  N   UNL A   1      43.308  27.898  27.641  1.00  0.00    -0.248 NA
ATOM     48  C   UNL A   1      42.423  25.850  27.125  1.00  0.00     0.031 C 
ATOM     49  C   UNL A   1      45.847  27.493  29.475  1.00  0.00     0.029 A 
ATOM     50  N   UNL A   1      47.276  26.223  28.289  1.00  0.00    -0.354 N 
ATOM     51  C   UNL A   1      41.937  27.981  27.767  1.00  0.00     0.074 A 
ATOM     52  C   UNL A   1      41.430  26.728  27.278  1.00  0.00     0.031 C 
ATOM     53  C   UNL A   1      47.090  27.943  29.730  1.00  0.00     0.029 A 
ATOM     54  C   UNL A   1      47.973  27.364  28.730  1.00  0.00     0.049 A 
ATOM     55  H   UNL A   1      47.674  25.385  27.960  1.00  0.00     0.167 HD
ATOM     56  C   UNL A   1      41.420  29.024  28.469  1.00  0.00     0.034 A 
ATOM     57  C   UNL A   1      48.721  28.080  27.835  1.00  0.00     0.034 A 
ATOM     58  C   UNL A   1      42.507  29.893  28.918  1.00  0.00     0.049 A 
ATOM     59  C   UNL A   1      48.125  29.447  27.591  1.00  0.00     0.074 A 
ATOM     60  C   UNL A   1      43.200  29.955  30.116  1.00  0.00     0.029 A 
ATOM     61  N   UNL A   1      43.270  30.567  27.977  1.00  0.00    -0.354 N 
ATOM     62  N   UNL A   1      46.858  29.730  27.752  1.00  0.00    -0.248 NA
ATOM     63  C   UNL A   1      48.920  30.613  27.227  1.00  0.00     0.031 C 
ATOM     64  C   UNL A   1      44.438  30.600  29.860  1.00  0.00     0.029 A 
ATOM     65  C   UNL A   1      44.477  30.952  28.522  1.00  0.00     0.049 A 
ATOM     66  H   UNL A   1      42.989  30.746  27.050  1.00  0.00     0.167 HD
ATOM     67  C   UNL A   1      46.665  31.075  27.566  1.00  0.00     0.074 A 
ATOM     68  C   UNL A   1      47.987  31.581  27.237  1.00  0.00     0.031 C 
ATOM     69  C   UNL A   1      45.445  31.675  27.716  1.00  0.00     0.034 A 
BRANCH  56  70
ATOM     70  C   UNL A   1      40.029  29.113  29.047  1.00  0.00     0.023 A 
ATOM     71  C   UNL A   1      39.906  29.051  30.450  1.00  0.00     0.031 A 
ATOM     72  C   UNL A   1      38.814  29.217  28.345  1.00  0.00     0.131 A 
ATOM     73  C   UNL A   1      38.658  29.019  31.088  1.00  0.00     0.055 A 
ATOM     74  C   UNL A   1      37.562  29.163  28.978  1.00  0.00     0.041 A 
ATOM     75  F   UNL A   1      38.766  29.417  27.023  1.00  0.00    -0.206 F 
ATOM     76  C   UNL A   1      37.478  29.057  30.358  1.00  0.00     0.022 A 
BRANCH  73  77
ATOM     77  S   UNL A   1      38.618  28.922  32.896  1.00  0.00     0.124 S 
ATOM     78  O   UNL A   1      37.353  28.236  33.137  1.00  0.00    -0.237 OA
ATOM     79  O   UNL A   1      39.831  28.168  33.193  1.00  0.00    -0.237 OA
ATOM     80  O   UNL A   1      38.648  30.325  33.308  1.00  0.00    -0.744 OA
ENDBRANCH  73  77
ENDBRANCH  56  70
BRANCH  57  81
ATOM     81  C   UNL A   1      49.373  27.191  26.819  1.00  0.00     0.023 A 
ATOM     82  C   UNL A   1      48.714  27.092  25.571  1.00  0.00     0.031 A 
ATOM     83  C   UNL A   1      50.748  26.921  26.851  1.00  0.00     0.131 A 
ATOM     84  C   UNL A   1      49.459  26.989  24.386  1.00  0.00     0.055 A 
ATOM     85  C   UNL A   1      51.474  26.724  25.667  1.00  0.00     0.041 A 
ATOM     86  F   UNL A   1      51.435  26.998  28.000  1.00  0.00    -0.206 F 
ATOM     87  C   UNL A   1      50.844  26.827  24.426  1.00  0.00     0.022 A 
BRANCH  84  88
ATOM     88  S   UNL A   1      48.637  27.410  22.819  1.00  0.00     0.124 S 
ATOM     89  O   UNL A   1      47.339  27.898  23.267  1.00  0.00    -0.237 OA
ATOM     90  O   UNL A   1      49.535  28.415  22.253  1.00  0.00    -0.237 OA
ATOM     91  O   UNL A   1      48.618  26.149  22.075  1.00  0.00    -0.744 OA
ENDBRANCH  84  88
ENDBRANCH  57  81
BRANCH  69  92
ATOM     92  C   UNL A   1      45.081  33.049  27.205  1.00  0.00     0.023 A 
ATOM     93  C   UNL A   1      45.551  34.217  27.810  1.00  0.00     0.031 A 
ATOM     94  C   UNL A   1      44.317  33.236  26.026  1.00  0.00     0.131 A 
ATOM     95  C   UNL A   1      45.160  35.482  27.347  1.00  0.00     0.055 A 
ATOM     96  C   UNL A   1      44.030  34.496  25.495  1.00  0.00     0.041 A 
ATOM     97  F   UNL A   1      43.820  32.206  25.324  1.00  0.00    -0.206 F 
ATOM     98  C   UNL A   1      44.428  35.634  26.175  1.00  0.00     0.022 A 
BRANCH  95  99
ATOM     99  S   UNL A   1      45.538  36.902  28.398  1.00  0.00     0.124 S 
ATOM    100  O   UNL A   1      45.268  36.364  29.730  1.00  0.00    -0.237 OA
ATOM    101  O   UNL A   1      46.942  37.155  28.094  1.00  0.00    -0.237 OA
ATOM    102  O   UNL A   1      44.604  37.927  27.941  1.00  0.00    -0.744 OA
ENDBRANCH  95  99
ENDBRANCH  69  92
ENDBRANCH  43  44
ENDBRANCH  35  38
ENDBRANCH  33  34
ENDBRANCH   1  33
TORSDOF 15
ENDMDL
