MODEL 1
REMARK VINA RESULT:     -11.5      0.000      0.000
REMARK SMILES O=C(Cc1cccn(C(F)F)c1=O)NCCCNC(=O)c1ccc(-c2c3nc(c(-c4cc(S(=O)(=O)[O-])ccc4F)c4ccc([nH]4)c(-c4cc(S(=O)(=O)[O-])ccc4F)c4nc(c(-c5cc(S(=O)(=O)[O-])ccc5F)c5ccc2[nH]5)C=C4)C=C3)cc1
REMARK SMILES IDX 16 1 15 2 14 3 1 4 2 5 3 7 4 8 5 9 12 10 6 11 8 12 13 13
REMARK SMILES IDX 7 14 9 15 10 16 11 17 17 18 18 19 19 20 20 22 21 23 22 24
REMARK SMILES IDX 83 25 23 26 82 27 24 28 25 29 26 30 76 31 27 32 81 33 75 34
REMARK SMILES IDX 77 35 28 36 80 37 74 38 73 39 29 41 61 42 41 43 60 44 42 45
REMARK SMILES IDX 45 46 59 47 78 48 43 49 44 50 58 52 79 53 46 54 30 55 31 56
REMARK SMILES IDX 39 57 32 58 38 59 40 60 37 61 33 62 34 63 35 64 36 65 62 66
REMARK SMILES IDX 63 67 71 68 64 69 70 70 72 71 69 72 65 73 66 74 67 75 68 76
REMARK SMILES IDX 47 77 48 78 56 79 49 80 55 81 57 82 54 83 50 84 51 85 52 86
REMARK SMILES IDX 53 87
REMARK H PARENT 14 6 18 21 77 40 45 51
REMARK Flexibility Score: inf
ROOT
ATOM      1  C   UNL A   1      31.828  28.967  26.985  1.00  0.00     0.042 C 
ENDROOT
BRANCH   1   2
ATOM      2  C   UNL A   1      32.209  27.522  26.715  1.00  0.00     0.117 C 
BRANCH   2   3
ATOM      3  N   UNL A   1      31.709  27.022  25.449  1.00  0.00    -0.356 N 
ATOM      4  O   UNL A   1      30.000  25.804  26.386  1.00  0.00    -0.275 OA
ATOM      5  C   UNL A   1      30.576  26.234  25.392  1.00  0.00     0.224 C 
ATOM      6  H   UNL A   1      32.186  27.248  24.618  1.00  0.00     0.163 HD
BRANCH   5   7
ATOM      7  C   UNL A   1      30.035  26.033  23.984  1.00  0.00     0.141 C 
BRANCH   7   8
ATOM      8  C   UNL A   1      29.045  27.108  23.613  1.00  0.00     0.027 A 
ATOM      9  C   UNL A   1      27.727  27.096  23.893  1.00  0.00     0.011 A 
ATOM     10  C   UNL A   1      29.598  28.279  22.848  1.00  0.00     0.258 A 
ATOM     11  C   UNL A   1      26.853  28.162  23.480  1.00  0.00     0.019 A 
ATOM     12  N   UNL A   1      28.686  29.248  22.462  1.00  0.00    -0.258 N 
ATOM     13  O   UNL A   1      30.800  28.343  22.603  1.00  0.00    -0.269 OA
ATOM     14  C   UNL A   1      27.344  29.187  22.780  1.00  0.00     0.095 A 
BRANCH  12  15
ATOM     15  C   UNL A   1      29.179  30.360  21.693  1.00  0.00     0.451 C 
ATOM     16  F   UNL A   1      28.248  30.717  20.765  1.00  0.00    -0.185 F 
ATOM     17  F   UNL A   1      29.333  31.443  22.503  1.00  0.00    -0.185 F 
ENDBRANCH  12  15
ENDBRANCH   7   8
ENDBRANCH   5   7
ENDBRANCH   2   3
ENDBRANCH   1   2
BRANCH   1  18
ATOM     18  C   UNL A   1      32.610  30.006  26.191  1.00  0.00     0.118 C 
BRANCH  18  19
ATOM     19  N   UNL A   1      32.357  31.383  26.593  1.00  0.00    -0.352 N 
ATOM     20  C   UNL A   1      33.152  32.224  27.344  1.00  0.00     0.251 C 
ATOM     21  H   UNL A   1      31.503  31.765  26.287  1.00  0.00     0.163 HD
ATOM     22  O   UNL A   1      32.737  33.338  27.652  1.00  0.00    -0.269 OA
BRANCH  20  23
ATOM     23  C   UNL A   1      34.478  31.761  27.816  1.00  0.00     0.039 A 
ATOM     24  C   UNL A   1      34.674  30.438  28.215  1.00  0.00     0.014 A 
ATOM     25  C   UNL A   1      35.527  32.681  27.913  1.00  0.00     0.014 A 
ATOM     26  C   UNL A   1      35.838  30.088  28.889  1.00  0.00     0.010 A 
ATOM     27  C   UNL A   1      36.736  32.300  28.508  1.00  0.00     0.010 A 
ATOM     28  C   UNL A   1      36.880  31.018  29.060  1.00  0.00    -0.014 A 
BRANCH  28  29
ATOM     29  C   UNL A   1      38.096  30.617  29.823  1.00  0.00     0.031 A 
ATOM     30  C   UNL A   1      38.321  31.095  31.234  1.00  0.00     0.074 A 
ATOM     31  C   UNL A   1      38.966  29.755  29.262  1.00  0.00     0.049 A 
ATOM     32  N   UNL A   1      39.277  30.772  32.068  1.00  0.00    -0.248 NA
ATOM     33  C   UNL A   1      37.355  32.060  31.784  1.00  0.00     0.031 C 
ATOM     34  C   UNL A   1      38.856  29.229  27.901  1.00  0.00     0.029 A 
ATOM     35  N   UNL A   1      40.088  29.144  29.765  1.00  0.00    -0.354 N 
ATOM     36  C   UNL A   1      39.037  31.499  33.229  1.00  0.00     0.074 A 
ATOM     37  C   UNL A   1      37.867  32.310  32.981  1.00  0.00     0.031 C 
ATOM     38  C   UNL A   1      39.825  28.328  27.700  1.00  0.00     0.029 A 
ATOM     39  C   UNL A   1      40.671  28.256  28.889  1.00  0.00     0.049 A 
ATOM     40  H   UNL A   1      40.442  29.324  30.665  1.00  0.00     0.167 HD
ATOM     41  C   UNL A   1      39.720  31.477  34.400  1.00  0.00     0.034 A 
ATOM     42  C   UNL A   1      41.759  27.471  29.021  1.00  0.00     0.034 A 
ATOM     43  C   UNL A   1      40.875  30.649  34.644  1.00  0.00     0.049 A 
ATOM     44  C   UNL A   1      42.508  27.474  30.328  1.00  0.00     0.074 A 
ATOM     45  C   UNL A   1      41.615  30.540  35.808  1.00  0.00     0.029 A 
ATOM     46  N   UNL A   1      41.452  29.788  33.722  1.00  0.00    -0.354 N 
ATOM     47  N   UNL A   1      42.234  28.129  31.432  1.00  0.00    -0.248 NA
ATOM     48  C   UNL A   1      43.710  26.633  30.415  1.00  0.00     0.031 C 
ATOM     49  C   UNL A   1      42.671  29.658  35.574  1.00  0.00     0.029 A 
ATOM     50  C   UNL A   1      42.553  29.162  34.286  1.00  0.00     0.049 A 
ATOM     51  H   UNL A   1      41.129  29.643  32.804  1.00  0.00     0.167 HD
ATOM     52  C   UNL A   1      43.219  27.769  32.347  1.00  0.00     0.074 A 
ATOM     53  C   UNL A   1      44.077  26.814  31.678  1.00  0.00     0.031 C 
ATOM     54  C   UNL A   1      43.397  28.199  33.621  1.00  0.00     0.034 A 
BRANCH  41  55
ATOM     55  C   UNL A   1      39.245  32.356  35.532  1.00  0.00     0.023 A 
ATOM     56  C   UNL A   1      39.725  33.673  35.653  1.00  0.00     0.031 A 
ATOM     57  C   UNL A   1      38.428  31.849  36.558  1.00  0.00     0.131 A 
ATOM     58  C   UNL A   1      39.411  34.427  36.791  1.00  0.00     0.055 A 
ATOM     59  C   UNL A   1      38.087  32.618  37.672  1.00  0.00     0.041 A 
ATOM     60  F   UNL A   1      37.944  30.597  36.488  1.00  0.00    -0.206 F 
ATOM     61  C   UNL A   1      38.589  33.909  37.798  1.00  0.00     0.022 A 
BRANCH  58  62
ATOM     62  S   UNL A   1      40.105  36.085  37.042  1.00  0.00     0.124 S 
ATOM     63  O   UNL A   1      39.832  36.720  35.754  1.00  0.00    -0.237 OA
ATOM     64  O   UNL A   1      39.311  36.581  38.163  1.00  0.00    -0.237 OA
ATOM     65  O   UNL A   1      41.513  35.837  37.327  1.00  0.00    -0.744 OA
ENDBRANCH  58  62
ENDBRANCH  41  55
BRANCH  42  66
ATOM     66  C   UNL A   1      42.151  26.581  27.889  1.00  0.00     0.023 A 
ATOM     67  C   UNL A   1      41.765  25.228  27.867  1.00  0.00     0.031 A 
ATOM     68  C   UNL A   1      43.015  27.038  26.880  1.00  0.00     0.131 A 
ATOM     69  C   UNL A   1      42.308  24.364  26.908  1.00  0.00     0.055 A 
ATOM     70  C   UNL A   1      43.492  26.190  25.879  1.00  0.00     0.041 A 
ATOM     71  F   UNL A   1      43.421  28.316  26.865  1.00  0.00    -0.206 F 
ATOM     72  C   UNL A   1      43.156  24.839  25.903  1.00  0.00     0.022 A 
BRANCH  69  73
ATOM     73  S   UNL A   1      42.058  22.571  27.031  1.00  0.00     0.124 S 
ATOM     74  O   UNL A   1      43.333  22.053  26.545  1.00  0.00    -0.237 OA
ATOM     75  O   UNL A   1      41.811  22.400  28.461  1.00  0.00    -0.237 OA
ATOM     76  O   UNL A   1      40.905  22.324  26.171  1.00  0.00    -0.744 OA
ENDBRANCH  69  73
ENDBRANCH  42  66
BRANCH  54  77
ATOM     77  C   UNL A   1      44.565  27.656  34.411  1.00  0.00     0.023 A 
ATOM     78  C   UNL A   1      44.409  26.490  35.187  1.00  0.00     0.031 A 
ATOM     79  C   UNL A   1      45.770  28.370  34.518  1.00  0.00     0.131 A 
ATOM     80  C   UNL A   1      45.427  26.097  36.064  1.00  0.00     0.055 A 
ATOM     81  C   UNL A   1      46.799  27.949  35.360  1.00  0.00     0.041 A 
ATOM     82  F   UNL A   1      45.961  29.494  33.806  1.00  0.00    -0.206 F 
ATOM     83  C   UNL A   1      46.624  26.816  36.150  1.00  0.00     0.022 A 
BRANCH  80  84
ATOM     84  S   UNL A   1      45.202  24.693  37.191  1.00  0.00     0.124 S 
ATOM     85  O   UNL A   1      44.265  25.240  38.169  1.00  0.00    -0.237 OA
ATOM     86  O   UNL A   1      44.652  23.670  36.304  1.00  0.00    -0.237 OA
ATOM     87  O   UNL A   1      46.545  24.428  37.697  1.00  0.00    -0.744 OA
ENDBRANCH  80  84
ENDBRANCH  54  77
ENDBRANCH  28  29
ENDBRANCH  20  23
ENDBRANCH  18  19
ENDBRANCH   1  18
TORSDOF 15
ENDMDL
MODEL 2
REMARK VINA RESULT:     -11.3      5.434     10.358
REMARK SMILES O=C(Cc1cccn(C(F)F)c1=O)NCCCNC(=O)c1ccc(-c2c3nc(c(-c4cc(S(=O)(=O)[O-])ccc4F)c4ccc([nH]4)c(-c4cc(S(=O)(=O)[O-])ccc4F)c4nc(c(-c5cc(S(=O)(=O)[O-])ccc5F)c5ccc2[nH]5)C=C4)C=C3)cc1
REMARK SMILES IDX 16 1 15 2 14 3 1 4 2 5 3 7 4 8 5 9 12 10 6 11 8 12 13 13
REMARK SMILES IDX 7 14 9 15 10 16 11 17 17 18 18 19 19 20 20 22 21 23 22 24
REMARK SMILES IDX 83 25 23 26 82 27 24 28 25 29 26 30 76 31 27 32 81 33 75 34
REMARK SMILES IDX 77 35 28 36 80 37 74 38 73 39 29 41 61 42 41 43 60 44 42 45
REMARK SMILES IDX 45 46 59 47 78 48 43 49 44 50 58 52 79 53 46 54 30 55 31 56
REMARK SMILES IDX 39 57 32 58 38 59 40 60 37 61 33 62 34 63 35 64 36 65 62 66
REMARK SMILES IDX 63 67 71 68 64 69 70 70 72 71 69 72 65 73 66 74 67 75 68 76
REMARK SMILES IDX 47 77 48 78 56 79 49 80 55 81 57 82 54 83 50 84 51 85 52 86
REMARK SMILES IDX 53 87
REMARK H PARENT 14 6 18 21 77 40 45 51
REMARK Flexibility Score: inf
ROOT
ATOM      1  C   UNL A   1      36.019  21.222  25.760  1.00  0.00     0.042 C 
ENDROOT
BRANCH   1   2
ATOM      2  C   UNL A   1      35.064  20.876  24.630  1.00  0.00     0.117 C 
BRANCH   2   3
ATOM      3  N   UNL A   1      34.114  21.931  24.337  1.00  0.00    -0.356 N 
ATOM      4  O   UNL A   1      35.462  22.978  22.796  1.00  0.00    -0.275 OA
ATOM      5  C   UNL A   1      34.381  22.881  23.369  1.00  0.00     0.224 C 
ATOM      6  H   UNL A   1      33.266  21.970  24.834  1.00  0.00     0.163 HD
BRANCH   5   7
ATOM      7  C   UNL A   1      33.179  23.734  22.995  1.00  0.00     0.141 C 
BRANCH   7   8
ATOM      8  C   UNL A   1      33.182  25.048  23.736  1.00  0.00     0.027 A 
ATOM      9  C   UNL A   1      32.923  25.214  25.047  1.00  0.00     0.011 A 
ATOM     10  C   UNL A   1      33.486  26.270  22.912  1.00  0.00     0.258 A 
ATOM     11  C   UNL A   1      32.929  26.513  25.664  1.00  0.00     0.019 A 
ATOM     12  N   UNL A   1      33.443  27.485  23.575  1.00  0.00    -0.258 N 
ATOM     13  O   UNL A   1      33.760  26.157  21.720  1.00  0.00    -0.269 OA
ATOM     14  C   UNL A   1      33.176  27.597  24.925  1.00  0.00     0.095 A 
BRANCH  12  15
ATOM     15  C   UNL A   1      33.689  28.676  22.804  1.00  0.00     0.451 C 
ATOM     16  F   UNL A   1      33.311  29.768  23.524  1.00  0.00    -0.185 F 
ATOM     17  F   UNL A   1      35.026  28.814  22.590  1.00  0.00    -0.185 F 
ENDBRANCH  12  15
ENDBRANCH   7   8
ENDBRANCH   5   7
ENDBRANCH   2   3
ENDBRANCH   1   2
BRANCH   1  18
ATOM     18  C   UNL A   1      37.405  21.682  25.324  1.00  0.00     0.118 C 
BRANCH  18  19
ATOM     19  N   UNL A   1      38.460  20.705  25.548  1.00  0.00    -0.352 N 
ATOM     20  C   UNL A   1      39.675  20.873  26.181  1.00  0.00     0.251 C 
ATOM     21  H   UNL A   1      38.284  19.801  25.200  1.00  0.00     0.163 HD
ATOM     22  O   UNL A   1      40.480  19.946  26.207  1.00  0.00    -0.269 OA
BRANCH  20  23
ATOM     23  C   UNL A   1      40.020  22.184  26.780  1.00  0.00     0.039 A 
ATOM     24  C   UNL A   1      39.513  23.370  26.246  1.00  0.00     0.014 A 
ATOM     25  C   UNL A   1      40.909  22.229  27.857  1.00  0.00     0.014 A 
ATOM     26  C   UNL A   1      40.044  24.589  26.652  1.00  0.00     0.010 A 
ATOM     27  C   UNL A   1      41.372  23.464  28.329  1.00  0.00     0.010 A 
ATOM     28  C   UNL A   1      40.993  24.653  27.689  1.00  0.00    -0.014 A 
BRANCH  28  29
ATOM     29  C   UNL A   1      41.568  25.974  28.069  1.00  0.00     0.031 A 
ATOM     30  C   UNL A   1      42.952  26.375  27.629  1.00  0.00     0.074 A 
ATOM     31  C   UNL A   1      40.805  26.848  28.754  1.00  0.00     0.049 A 
ATOM     32  N   UNL A   1      43.568  27.518  27.797  1.00  0.00    -0.248 NA
ATOM     33  C   UNL A   1      43.752  25.369  26.910  1.00  0.00     0.031 C 
ATOM     34  C   UNL A   1      39.453  26.569  29.239  1.00  0.00     0.029 A 
ATOM     35  N   UNL A   1      41.034  28.147  29.134  1.00  0.00    -0.354 N 
ATOM     36  C   UNL A   1      44.826  27.365  27.221  1.00  0.00     0.074 A 
ATOM     37  C   UNL A   1      44.900  26.008  26.731  1.00  0.00     0.031 C 
ATOM     38  C   UNL A   1      38.948  27.680  29.790  1.00  0.00     0.029 A 
ATOM     39  C   UNL A   1      39.959  28.734  29.763  1.00  0.00     0.049 A 
ATOM     40  H   UNL A   1      41.884  28.614  28.973  1.00  0.00     0.167 HD
ATOM     41  C   UNL A   1      45.817  28.281  27.096  1.00  0.00     0.034 A 
ATOM     42  C   UNL A   1      39.798  29.976  30.263  1.00  0.00     0.034 A 
ATOM     43  C   UNL A   1      45.726  29.639  27.570  1.00  0.00     0.049 A 
ATOM     44  C   UNL A   1      40.920  30.971  30.122  1.00  0.00     0.074 A 
ATOM     45  C   UNL A   1      46.670  30.645  27.464  1.00  0.00     0.029 A 
ATOM     46  N   UNL A   1      44.634  30.185  28.229  1.00  0.00    -0.354 N 
ATOM     47  N   UNL A   1      42.081  30.823  29.527  1.00  0.00    -0.248 NA
ATOM     48  C   UNL A   1      40.718  32.300  30.715  1.00  0.00     0.031 C 
ATOM     49  C   UNL A   1      46.174  31.781  28.106  1.00  0.00     0.029 A 
ATOM     50  C   UNL A   1      44.892  31.508  28.555  1.00  0.00     0.049 A 
ATOM     51  H   UNL A   1      43.800  29.705  28.435  1.00  0.00     0.167 HD
ATOM     52  C   UNL A   1      42.739  32.043  29.660  1.00  0.00     0.074 A 
ATOM     53  C   UNL A   1      41.834  32.926  30.365  1.00  0.00     0.031 C 
ATOM     54  C   UNL A   1      43.982  32.391  29.244  1.00  0.00     0.034 A 
BRANCH  41  55
ATOM     55  C   UNL A   1      47.097  27.872  26.406  1.00  0.00     0.023 A 
ATOM     56  C   UNL A   1      47.226  28.017  25.012  1.00  0.00     0.031 A 
ATOM     57  C   UNL A   1      48.128  27.220  27.105  1.00  0.00     0.131 A 
ATOM     58  C   UNL A   1      48.344  27.487  24.357  1.00  0.00     0.055 A 
ATOM     59  C   UNL A   1      49.260  26.727  26.452  1.00  0.00     0.041 A 
ATOM     60  F   UNL A   1      48.053  27.057  28.437  1.00  0.00    -0.206 F 
ATOM     61  C   UNL A   1      49.365  26.849  25.070  1.00  0.00     0.022 A 
BRANCH  58  62
ATOM     62  S   UNL A   1      48.492  27.548  22.549  1.00  0.00     0.124 S 
ATOM     63  O   UNL A   1      47.294  28.298  22.178  1.00  0.00    -0.237 OA
ATOM     64  O   UNL A   1      49.754  28.261  22.371  1.00  0.00    -0.237 OA
ATOM     65  O   UNL A   1      48.497  26.146  22.150  1.00  0.00    -0.744 OA
ENDBRANCH  58  62
ENDBRANCH  41  55
BRANCH  42  66
ATOM     66  C   UNL A   1      38.492  30.342  30.885  1.00  0.00     0.023 A 
ATOM     67  C   UNL A   1      37.491  30.988  30.136  1.00  0.00     0.031 A 
ATOM     68  C   UNL A   1      38.275  30.163  32.261  1.00  0.00     0.131 A 
ATOM     69  C   UNL A   1      36.360  31.503  30.781  1.00  0.00     0.055 A 
ATOM     70  C   UNL A   1      37.109  30.610  32.887  1.00  0.00     0.041 A 
ATOM     71  F   UNL A   1      39.205  29.565  33.021  1.00  0.00    -0.206 F 
ATOM     72  C   UNL A   1      36.154  31.303  32.149  1.00  0.00     0.022 A 
BRANCH  69  73
ATOM     73  S   UNL A   1      35.201  32.584  29.897  1.00  0.00     0.124 S 
ATOM     74  O   UNL A   1      34.727  31.710  28.828  1.00  0.00    -0.237 OA
ATOM     75  O   UNL A   1      34.225  32.893  30.940  1.00  0.00    -0.237 OA
ATOM     76  O   UNL A   1      36.032  33.707  29.475  1.00  0.00    -0.744 OA
ENDBRANCH  69  73
ENDBRANCH  42  66
BRANCH  54  77
ATOM     77  C   UNL A   1      44.473  33.792  29.524  1.00  0.00     0.023 A 
ATOM     78  C   UNL A   1      44.158  34.839  28.637  1.00  0.00     0.031 A 
ATOM     79  C   UNL A   1      45.371  34.054  30.573  1.00  0.00     0.131 A 
ATOM     80  C   UNL A   1      44.768  36.090  28.793  1.00  0.00     0.055 A 
ATOM     81  C   UNL A   1      45.942  35.315  30.749  1.00  0.00     0.041 A 
ATOM     82  F   UNL A   1      45.711  33.084  31.438  1.00  0.00    -0.206 F 
ATOM     83  C   UNL A   1      45.653  36.335  29.848  1.00  0.00     0.022 A 
BRANCH  80  84
ATOM     84  S   UNL A   1      44.508  37.416  27.581  1.00  0.00     0.124 S 
ATOM     85  O   UNL A   1      45.817  37.496  26.938  1.00  0.00    -0.237 OA
ATOM     86  O   UNL A   1      43.437  36.870  26.752  1.00  0.00    -0.237 OA
ATOM     87  O   UNL A   1      44.144  38.571  28.395  1.00  0.00    -0.744 OA
ENDBRANCH  80  84
ENDBRANCH  54  77
ENDBRANCH  28  29
ENDBRANCH  20  23
ENDBRANCH  18  19
ENDBRANCH   1  18
TORSDOF 15
ENDMDL
MODEL 3
REMARK VINA RESULT:     -11.3      2.376      3.163
REMARK SMILES O=C(Cc1cccn(C(F)F)c1=O)NCCCNC(=O)c1ccc(-c2c3nc(c(-c4cc(S(=O)(=O)[O-])ccc4F)c4ccc([nH]4)c(-c4cc(S(=O)(=O)[O-])ccc4F)c4nc(c(-c5cc(S(=O)(=O)[O-])ccc5F)c5ccc2[nH]5)C=C4)C=C3)cc1
REMARK SMILES IDX 16 1 15 2 14 3 1 4 2 5 3 7 4 8 5 9 12 10 6 11 8 12 13 13
REMARK SMILES IDX 7 14 9 15 10 16 11 17 17 18 18 19 19 20 20 22 21 23 22 24
REMARK SMILES IDX 83 25 23 26 82 27 24 28 25 29 26 30 76 31 27 32 81 33 75 34
REMARK SMILES IDX 77 35 28 36 80 37 74 38 73 39 29 41 61 42 41 43 60 44 42 45
REMARK SMILES IDX 45 46 59 47 78 48 43 49 44 50 58 52 79 53 46 54 30 55 31 56
REMARK SMILES IDX 39 57 32 58 38 59 40 60 37 61 33 62 34 63 35 64 36 65 62 66
REMARK SMILES IDX 63 67 71 68 64 69 70 70 72 71 69 72 65 73 66 74 67 75 68 76
REMARK SMILES IDX 47 77 48 78 56 79 49 80 55 81 57 82 54 83 50 84 51 85 52 86
REMARK SMILES IDX 53 87
REMARK H PARENT 14 6 18 21 77 40 45 51
REMARK Flexibility Score: inf
ROOT
ATOM      1  C   UNL A   1      31.691  29.951  25.199  1.00  0.00     0.042 C 
ENDROOT
BRANCH   1   2
ATOM      2  C   UNL A   1      31.431  28.465  25.016  1.00  0.00     0.117 C 
BRANCH   2   3
ATOM      3  N   UNL A   1      32.641  27.666  25.010  1.00  0.00    -0.356 N 
ATOM      4  O   UNL A   1      31.908  26.200  26.622  1.00  0.00    -0.275 OA
ATOM      5  C   UNL A   1      32.749  26.532  25.793  1.00  0.00     0.224 C 
ATOM      6  H   UNL A   1      33.396  27.936  24.440  1.00  0.00     0.163 HD
BRANCH   5   7
ATOM      7  C   UNL A   1      33.955  25.667  25.461  1.00  0.00     0.141 C 
BRANCH   7   8
ATOM      8  C   UNL A   1      33.622  24.628  24.421  1.00  0.00     0.027 A 
ATOM      9  C   UNL A   1      33.519  24.845  23.096  1.00  0.00     0.011 A 
ATOM     10  C   UNL A   1      33.368  23.237  24.935  1.00  0.00     0.258 A 
ATOM     11  C   UNL A   1      33.175  23.791  22.178  1.00  0.00     0.019 A 
ATOM     12  N   UNL A   1      33.013  22.288  23.990  1.00  0.00    -0.258 N 
ATOM     13  O   UNL A   1      33.485  22.992  26.133  1.00  0.00    -0.269 OA
ATOM     14  C   UNL A   1      32.927  22.564  22.641  1.00  0.00     0.095 A 
BRANCH  12  15
ATOM     15  C   UNL A   1      32.724  20.957  24.457  1.00  0.00     0.451 C 
ATOM     16  F   UNL A   1      31.626  20.987  25.261  1.00  0.00    -0.185 F 
ATOM     17  F   UNL A   1      32.393  20.164  23.402  1.00  0.00    -0.185 F 
ENDBRANCH  12  15
ENDBRANCH   7   8
ENDBRANCH   5   7
ENDBRANCH   2   3
ENDBRANCH   1   2
BRANCH   1  18
ATOM     18  C   UNL A   1      31.985  30.390  26.628  1.00  0.00     0.118 C 
BRANCH  18  19
ATOM     19  N   UNL A   1      31.861  31.823  26.854  1.00  0.00    -0.352 N 
ATOM     20  C   UNL A   1      32.777  32.693  27.408  1.00  0.00     0.251 C 
ATOM     21  H   UNL A   1      31.006  32.224  26.576  1.00  0.00     0.163 HD
ATOM     22  O   UNL A   1      32.465  33.867  27.593  1.00  0.00    -0.269 OA
BRANCH  20  23
ATOM     23  C   UNL A   1      34.111  32.198  27.819  1.00  0.00     0.039 A 
ATOM     24  C   UNL A   1      34.312  30.850  28.121  1.00  0.00     0.014 A 
ATOM     25  C   UNL A   1      35.163  33.108  27.959  1.00  0.00     0.014 A 
ATOM     26  C   UNL A   1      35.489  30.453  28.747  1.00  0.00     0.010 A 
ATOM     27  C   UNL A   1      36.383  32.685  28.503  1.00  0.00     0.010 A 
ATOM     28  C   UNL A   1      36.536  31.368  28.960  1.00  0.00    -0.014 A 
BRANCH  28  29
ATOM     29  C   UNL A   1      37.765  30.914  29.669  1.00  0.00     0.031 A 
ATOM     30  C   UNL A   1      38.041  31.329  31.092  1.00  0.00     0.074 A 
ATOM     31  C   UNL A   1      38.603  30.060  29.048  1.00  0.00     0.049 A 
ATOM     32  N   UNL A   1      39.014  30.954  31.882  1.00  0.00    -0.248 NA
ATOM     33  C   UNL A   1      37.110  32.287  31.709  1.00  0.00     0.031 C 
ATOM     34  C   UNL A   1      38.442  29.594  27.670  1.00  0.00     0.029 A 
ATOM     35  N   UNL A   1      39.727  29.409  29.492  1.00  0.00    -0.354 N 
ATOM     36  C   UNL A   1      38.823  31.637  33.079  1.00  0.00     0.074 A 
ATOM     37  C   UNL A   1      37.662  32.478  32.900  1.00  0.00     0.031 C 
ATOM     38  C   UNL A   1      39.388  28.685  27.404  1.00  0.00     0.029 A 
ATOM     39  C   UNL A   1      40.266  28.548  28.563  1.00  0.00     0.049 A 
ATOM     40  H   UNL A   1      40.111  29.545  30.387  1.00  0.00     0.167 HD
ATOM     41  C   UNL A   1      39.540  31.554  34.227  1.00  0.00     0.034 A 
ATOM     42  C   UNL A   1      41.343  27.739  28.629  1.00  0.00     0.034 A 
ATOM     43  C   UNL A   1      40.685  30.697  34.402  1.00  0.00     0.049 A 
ATOM     44  C   UNL A   1      42.130  27.675  29.912  1.00  0.00     0.074 A 
ATOM     45  C   UNL A   1      41.457  30.526  35.538  1.00  0.00     0.029 A 
ATOM     46  N   UNL A   1      41.219  29.864  33.428  1.00  0.00    -0.354 N 
ATOM     47  N   UNL A   1      41.901  28.288  31.050  1.00  0.00    -0.248 NA
ATOM     48  C   UNL A   1      43.318  26.810  29.928  1.00  0.00     0.031 C 
ATOM     49  C   UNL A   1      42.489  29.636  35.236  1.00  0.00     0.029 A 
ATOM     50  C   UNL A   1      42.324  29.196  33.933  1.00  0.00     0.049 A 
ATOM     51  H   UNL A   1      40.866  29.763  32.516  1.00  0.00     0.167 HD
ATOM     52  C   UNL A   1      42.905  27.873  31.919  1.00  0.00     0.074 A 
ATOM     53  C   UNL A   1      43.725  26.931  31.185  1.00  0.00     0.031 C 
ATOM     54  C   UNL A   1      43.129  28.246  33.204  1.00  0.00     0.034 A 
BRANCH  41  55
ATOM     55  C   UNL A   1      39.115  32.394  35.408  1.00  0.00     0.023 A 
ATOM     56  C   UNL A   1      39.614  33.700  35.562  1.00  0.00     0.031 A 
ATOM     57  C   UNL A   1      38.328  31.855  36.442  1.00  0.00     0.131 A 
ATOM     58  C   UNL A   1      39.349  34.413  36.739  1.00  0.00     0.055 A 
ATOM     59  C   UNL A   1      38.035  32.584  37.596  1.00  0.00     0.041 A 
ATOM     60  F   UNL A   1      37.828  30.612  36.342  1.00  0.00    -0.206 F 
ATOM     61  C   UNL A   1      38.557  33.864  37.753  1.00  0.00     0.022 A 
BRANCH  58  62
ATOM     62  S   UNL A   1      40.071  36.052  37.028  1.00  0.00     0.124 S 
ATOM     63  O   UNL A   1      39.774  36.734  35.770  1.00  0.00    -0.237 OA
ATOM     64  O   UNL A   1      39.312  36.519  38.185  1.00  0.00    -0.237 OA
ATOM     65  O   UNL A   1      41.482  35.777  37.268  1.00  0.00    -0.744 OA
ENDBRANCH  58  62
ENDBRANCH  41  55
BRANCH  42  66
ATOM     66  C   UNL A   1      41.684  26.891  27.450  1.00  0.00     0.023 A 
ATOM     67  C   UNL A   1      41.346  25.525  27.421  1.00  0.00     0.031 A 
ATOM     68  C   UNL A   1      42.458  27.402  26.395  1.00  0.00     0.131 A 
ATOM     69  C   UNL A   1      41.849  24.703  26.405  1.00  0.00     0.055 A 
ATOM     70  C   UNL A   1      42.892  26.595  25.342  1.00  0.00     0.041 A 
ATOM     71  F   UNL A   1      42.817  28.694  26.383  1.00  0.00    -0.206 F 
ATOM     72  C   UNL A   1      42.606  25.232  25.355  1.00  0.00     0.022 A 
BRANCH  69  73
ATOM     73  S   UNL A   1      41.672  22.900  26.500  1.00  0.00     0.124 S 
ATOM     74  O   UNL A   1      40.222  22.735  26.460  1.00  0.00    -0.237 OA
ATOM     75  O   UNL A   1      42.390  22.466  25.303  1.00  0.00    -0.237 OA
ATOM     76  O   UNL A   1      42.314  22.557  27.764  1.00  0.00    -0.744 OA
ENDBRANCH  69  73
ENDBRANCH  42  66
BRANCH  54  77
ATOM     77  C   UNL A   1      44.309  27.650  33.935  1.00  0.00     0.023 A 
ATOM     78  C   UNL A   1      44.172  26.420  34.608  1.00  0.00     0.031 A 
ATOM     79  C   UNL A   1      45.508  28.366  34.094  1.00  0.00     0.131 A 
ATOM     80  C   UNL A   1      45.202  25.964  35.441  1.00  0.00     0.055 A 
ATOM     81  C   UNL A   1      46.548  27.885  34.890  1.00  0.00     0.041 A 
ATOM     82  F   UNL A   1      45.681  29.549  33.481  1.00  0.00    -0.206 F 
ATOM     83  C   UNL A   1      46.391  26.686  35.579  1.00  0.00     0.022 A 
BRANCH  80  84
ATOM     84  S   UNL A   1      45.000  24.465  36.444  1.00  0.00     0.124 S 
ATOM     85  O   UNL A   1      43.903  23.789  35.757  1.00  0.00    -0.237 OA
ATOM     86  O   UNL A   1      46.308  23.828  36.312  1.00  0.00    -0.237 OA
ATOM     87  O   UNL A   1      44.682  24.972  37.775  1.00  0.00    -0.744 OA
ENDBRANCH  80  84
ENDBRANCH  54  77
ENDBRANCH  28  29
ENDBRANCH  20  23
ENDBRANCH  18  19
ENDBRANCH   1  18
TORSDOF 15
ENDMDL
