MODEL 1
REMARK VINA RESULT:     -12.8      0.000      0.000
REMARK SMILES Cc1cc(Br)cc2c1O[C@H](C(F)(F)F)C(C(=O)NCCCNC(=O)c1ccc(-c3c4nc(c(-c5cc(S(=O)(=O)[O-])ccc5F)c5ccc([nH]5)c(-c5cc(S(=O)(=O)[O-])ccc5F)c5nc(c(-c6cc(S(=O)(=O)[O-])ccc6F)c6ccc3[nH]6)C=C5)C=C4)cc1)=C2
REMARK SMILES IDX 21 1 20 2 19 3 18 4 16 5 17 6 15 8 1 9 2 10 3 11 8 12 4 13
REMARK SMILES IDX 7 14 9 15 5 16 6 17 88 18 10 19 11 20 12 21 13 22 14 23
REMARK SMILES IDX 22 24 23 25 24 27 25 28 26 29 87 30 27 31 86 32 28 33 29 34
REMARK SMILES IDX 30 35 80 36 31 37 85 38 79 39 81 40 32 41 84 42 78 43 77 44
REMARK SMILES IDX 33 46 65 47 45 48 64 49 46 50 49 51 63 52 82 53 47 54 48 55
REMARK SMILES IDX 62 57 83 58 50 59 34 60 35 61 43 62 36 63 42 64 44 65 41 66
REMARK SMILES IDX 37 67 38 68 39 69 40 70 66 71 67 72 75 73 68 74 74 75 76 76
REMARK SMILES IDX 73 77 69 78 70 79 71 80 72 81 51 82 52 83 60 84 53 85 59 86
REMARK SMILES IDX 61 87 58 88 54 89 55 90 56 91 57 92
REMARK H PARENT 18 7 22 26 81 45 49 56
REMARK Flexibility Score: inf
ROOT
ATOM      1  C   UNL A   1      32.848  29.088  25.488  1.00  0.00     0.118 C 
ENDROOT
BRANCH   1   2
ATOM      2  C   UNL A   1      33.131  28.973  23.994  1.00  0.00     0.042 C 
BRANCH   2   3
ATOM      3  C   UNL A   1      31.996  28.294  23.242  1.00  0.00     0.118 C 
BRANCH   3   4
ATOM      4  N   UNL A   1      32.484  27.447  22.165  1.00  0.00    -0.352 N 
ATOM      5  C   UNL A   1      32.990  26.199  22.032  1.00  0.00     0.251 C 
ATOM      6  O   UNL A   1      33.277  25.869  20.876  1.00  0.00    -0.270 OA
ATOM      7  H   UNL A   1      32.434  27.907  21.296  1.00  0.00     0.163 HD
BRANCH   5   8
ATOM      8  C   UNL A   1      33.206  25.235  23.148  1.00  0.00     0.067 C 
ATOM      9  C   UNL A   1      33.188  22.578  27.571  1.00  0.00     0.048 C 
ATOM     10  C   UNL A   1      34.077  22.662  26.363  1.00  0.00    -0.007 A 
ATOM     11  C   UNL A   1      35.166  21.787  26.250  1.00  0.00     0.023 A 
ATOM     12  C   UNL A   1      33.820  23.552  25.311  1.00  0.00     0.130 A 
ATOM     13  C   UNL A   1      35.991  21.830  25.127  1.00  0.00     0.019 A 
ATOM     14  C   UNL A   1      34.652  23.603  24.186  1.00  0.00     0.019 A 
ATOM     15  O   UNL A   1      32.754  24.399  25.447  1.00  0.00    -0.475 OA
ATOM     16  Br  UNL A   1      37.461  20.647  25.000  1.00  0.00    -0.051 Br
ATOM     17  C   UNL A   1      35.746  22.738  24.097  1.00  0.00     0.027 A 
ATOM     18  C   UNL A   1      34.384  24.583  23.141  1.00  0.00     0.025 C 
ATOM     19  C   UNL A   1      32.197  24.941  24.221  1.00  0.00     0.314 C 
BRANCH  19  20
ATOM     20  C   UNL A   1      31.060  24.026  23.728  1.00  0.00     0.429 C 
ATOM     21  F   UNL A   1      30.512  23.346  24.766  1.00  0.00    -0.167 F 
ATOM     22  F   UNL A   1      30.051  24.716  23.147  1.00  0.00    -0.167 F 
ATOM     23  F   UNL A   1      31.478  23.114  22.823  1.00  0.00    -0.167 F 
ENDBRANCH  19  20
ENDBRANCH   5   8
ENDBRANCH   3   4
ENDBRANCH   2   3
ENDBRANCH   1   2
BRANCH   1  24
ATOM     24  N   UNL A   1      32.473  30.448  25.866  1.00  0.00    -0.352 N 
ATOM     25  C   UNL A   1      32.956  31.250  26.870  1.00  0.00     0.251 C 
ATOM     26  H   UNL A   1      31.766  30.852  25.314  1.00  0.00     0.163 HD
ATOM     27  O   UNL A   1      32.320  32.248  27.205  1.00  0.00    -0.269 OA
BRANCH  25  28
ATOM     28  C   UNL A   1      34.220  30.904  27.549  1.00  0.00     0.039 A 
ATOM     29  C   UNL A   1      35.146  31.909  27.832  1.00  0.00     0.014 A 
ATOM     30  C   UNL A   1      34.491  29.579  27.898  1.00  0.00     0.014 A 
ATOM     31  C   UNL A   1      36.310  31.593  28.535  1.00  0.00     0.010 A 
ATOM     32  C   UNL A   1      35.600  29.283  28.680  1.00  0.00     0.010 A 
ATOM     33  C   UNL A   1      36.525  30.286  29.001  1.00  0.00    -0.014 A 
BRANCH  33  34
ATOM     34  C   UNL A   1      37.717  29.943  29.816  1.00  0.00     0.031 A 
ATOM     35  C   UNL A   1      38.787  29.054  29.241  1.00  0.00     0.074 A 
ATOM     36  C   UNL A   1      37.809  30.392  31.083  1.00  0.00     0.049 A 
ATOM     37  N   UNL A   1      39.869  28.592  29.811  1.00  0.00    -0.248 NA
ATOM     38  C   UNL A   1      38.601  28.598  27.853  1.00  0.00     0.031 C 
ATOM     39  C   UNL A   1      36.810  31.224  31.759  1.00  0.00     0.029 A 
ATOM     40  N   UNL A   1      38.788  30.220  32.029  1.00  0.00    -0.354 N 
ATOM     41  C   UNL A   1      40.486  27.791  28.858  1.00  0.00     0.074 A 
ATOM     42  C   UNL A   1      39.623  27.772  27.697  1.00  0.00     0.031 C 
ATOM     43  C   UNL A   1      37.252  31.532  32.989  1.00  0.00     0.029 A 
ATOM     44  C   UNL A   1      38.541  30.884  33.208  1.00  0.00     0.049 A 
ATOM     45  H   UNL A   1      39.592  29.673  31.877  1.00  0.00     0.167 HD
ATOM     46  C   UNL A   1      41.680  27.156  28.932  1.00  0.00     0.034 A 
ATOM     47  C   UNL A   1      39.274  30.965  34.337  1.00  0.00     0.034 A 
ATOM     48  C   UNL A   1      42.545  27.213  30.081  1.00  0.00     0.049 A 
ATOM     49  C   UNL A   1      40.591  30.238  34.401  1.00  0.00     0.074 A 
ATOM     50  C   UNL A   1      43.796  26.647  30.243  1.00  0.00     0.029 A 
ATOM     51  N   UNL A   1      42.250  27.882  31.260  1.00  0.00    -0.354 N 
ATOM     52  N   UNL A   1      41.165  29.497  33.482  1.00  0.00    -0.248 NA
ATOM     53  C   UNL A   1      41.359  30.356  35.648  1.00  0.00     0.031 C 
ATOM     54  C   UNL A   1      44.238  26.932  31.538  1.00  0.00     0.029 A 
ATOM     55  C   UNL A   1      43.289  27.726  32.162  1.00  0.00     0.049 A 
ATOM     56  H   UNL A   1      41.426  28.392  31.431  1.00  0.00     0.167 HD
ATOM     57  C   UNL A   1      42.372  29.081  34.031  1.00  0.00     0.074 A 
ATOM     58  C   UNL A   1      42.446  29.652  35.361  1.00  0.00     0.031 C 
ATOM     59  C   UNL A   1      43.337  28.302  33.482  1.00  0.00     0.034 A 
BRANCH  46  60
ATOM     60  C   UNL A   1      42.120  26.354  27.737  1.00  0.00     0.023 A 
ATOM     61  C   UNL A   1      41.798  24.991  27.614  1.00  0.00     0.031 A 
ATOM     62  C   UNL A   1      42.854  26.957  26.701  1.00  0.00     0.131 A 
ATOM     63  C   UNL A   1      42.250  24.264  26.505  1.00  0.00     0.055 A 
ATOM     64  C   UNL A   1      43.245  26.243  25.568  1.00  0.00     0.041 A 
ATOM     65  F   UNL A   1      43.203  28.251  26.778  1.00  0.00    -0.206 F 
ATOM     66  C   UNL A   1      42.950  24.886  25.468  1.00  0.00     0.022 A 
BRANCH  63  67
ATOM     67  S   UNL A   1      41.982  22.472  26.475  1.00  0.00     0.124 S 
ATOM     68  O   UNL A   1      42.678  22.091  25.248  1.00  0.00    -0.237 OA
ATOM     69  O   UNL A   1      42.599  22.036  27.721  1.00  0.00    -0.237 OA
ATOM     70  O   UNL A   1      40.526  22.345  26.424  1.00  0.00    -0.744 OA
ENDBRANCH  63  67
ENDBRANCH  46  60
BRANCH  47  71
ATOM     71  C   UNL A   1      38.786  31.774  35.487  1.00  0.00     0.023 A 
ATOM     72  C   UNL A   1      38.170  31.159  36.588  1.00  0.00     0.031 A 
ATOM     73  C   UNL A   1      38.933  33.173  35.507  1.00  0.00     0.131 A 
ATOM     74  C   UNL A   1      37.704  31.942  37.655  1.00  0.00     0.055 A 
ATOM     75  C   UNL A   1      38.501  33.944  36.587  1.00  0.00     0.041 A 
ATOM     76  F   UNL A   1      39.528  33.806  34.482  1.00  0.00    -0.206 F 
ATOM     77  C   UNL A   1      37.876  33.329  37.667  1.00  0.00     0.022 A 
BRANCH  74  78
ATOM     78  S   UNL A   1      36.837  31.124  39.022  1.00  0.00     0.124 S 
ATOM     79  O   UNL A   1      35.633  31.939  39.139  1.00  0.00    -0.237 OA
ATOM     80  O   UNL A   1      36.651  29.773  38.501  1.00  0.00    -0.237 OA
ATOM     81  O   UNL A   1      37.777  31.235  40.135  1.00  0.00    -0.744 OA
ENDBRANCH  74  78
ENDBRANCH  47  71
BRANCH  59  82
ATOM     82  C   UNL A   1      44.572  28.042  34.298  1.00  0.00     0.023 A 
ATOM     83  C   UNL A   1      44.678  26.909  35.121  1.00  0.00     0.031 A 
ATOM     84  C   UNL A   1      45.683  28.895  34.183  1.00  0.00     0.131 A 
ATOM     85  C   UNL A   1      45.874  26.663  35.809  1.00  0.00     0.055 A 
ATOM     86  C   UNL A   1      46.883  28.623  34.838  1.00  0.00     0.041 A 
ATOM     87  F   UNL A   1      45.627  29.985  33.401  1.00  0.00    -0.206 F 
ATOM     88  C   UNL A   1      46.983  27.502  35.658  1.00  0.00     0.022 A 
BRANCH  85  89
ATOM     89  S   UNL A   1      45.968  25.225  36.910  1.00  0.00     0.124 S 
ATOM     90  O   UNL A   1      44.679  24.581  36.674  1.00  0.00    -0.237 OA
ATOM     91  O   UNL A   1      47.138  24.514  36.405  1.00  0.00    -0.237 OA
ATOM     92  O   UNL A   1      46.132  25.819  38.235  1.00  0.00    -0.744 OA
ENDBRANCH  85  89
ENDBRANCH  59  82
ENDBRANCH  33  34
ENDBRANCH  25  28
ENDBRANCH   1  24
TORSDOF 14
ENDMDL
MODEL 2
REMARK VINA RESULT:     -12.8      2.457      3.244
REMARK SMILES Cc1cc(Br)cc2c1O[C@H](C(F)(F)F)C(C(=O)NCCCNC(=O)c1ccc(-c3c4nc(c(-c5cc(S(=O)(=O)[O-])ccc5F)c5ccc([nH]5)c(-c5cc(S(=O)(=O)[O-])ccc5F)c5nc(c(-c6cc(S(=O)(=O)[O-])ccc6F)c6ccc3[nH]6)C=C5)C=C4)cc1)=C2
REMARK SMILES IDX 21 1 20 2 19 3 18 4 16 5 17 6 15 8 1 9 2 10 3 11 8 12 4 13
REMARK SMILES IDX 7 14 9 15 5 16 6 17 88 18 10 19 11 20 12 21 13 22 14 23
REMARK SMILES IDX 22 24 23 25 24 27 25 28 26 29 87 30 27 31 86 32 28 33 29 34
REMARK SMILES IDX 30 35 80 36 31 37 85 38 79 39 81 40 32 41 84 42 78 43 77 44
REMARK SMILES IDX 33 46 65 47 45 48 64 49 46 50 49 51 63 52 82 53 47 54 48 55
REMARK SMILES IDX 62 57 83 58 50 59 34 60 35 61 43 62 36 63 42 64 44 65 41 66
REMARK SMILES IDX 37 67 38 68 39 69 40 70 66 71 67 72 75 73 68 74 74 75 76 76
REMARK SMILES IDX 73 77 69 78 70 79 71 80 72 81 51 82 52 83 60 84 53 85 59 86
REMARK SMILES IDX 61 87 58 88 54 89 55 90 56 91 57 92
REMARK H PARENT 18 7 22 26 81 45 49 56
REMARK Flexibility Score: inf
ROOT
ATOM      1  C   UNL A   1      32.697  32.624  27.319  1.00  0.00     0.118 C 
ENDROOT
BRANCH   1   2
ATOM      2  C   UNL A   1      31.426  32.014  26.738  1.00  0.00     0.042 C 
BRANCH   2   3
ATOM      3  C   UNL A   1      31.570  30.523  26.472  1.00  0.00     0.118 C 
BRANCH   3   4
ATOM      4  N   UNL A   1      31.411  30.202  25.062  1.00  0.00    -0.352 N 
ATOM      5  C   UNL A   1      31.429  29.094  24.285  1.00  0.00     0.251 C 
ATOM      6  O   UNL A   1      31.229  29.292  23.082  1.00  0.00    -0.270 OA
ATOM      7  H   UNL A   1      31.245  31.012  24.526  1.00  0.00     0.163 HD
BRANCH   5   8
ATOM      8  C   UNL A   1      31.660  27.705  24.774  1.00  0.00     0.067 C 
ATOM      9  C   UNL A   1      31.396  23.024  26.929  1.00  0.00     0.048 C 
ATOM     10  C   UNL A   1      32.484  23.902  26.377  1.00  0.00    -0.007 A 
ATOM     11  C   UNL A   1      33.791  23.404  26.294  1.00  0.00     0.023 A 
ATOM     12  C   UNL A   1      32.223  25.189  25.887  1.00  0.00     0.130 A 
ATOM     13  C   UNL A   1      34.812  24.191  25.764  1.00  0.00     0.019 A 
ATOM     14  C   UNL A   1      33.249  25.984  25.362  1.00  0.00     0.019 A 
ATOM     15  O   UNL A   1      30.940  25.654  25.984  1.00  0.00    -0.475 OA
ATOM     16  Br  UNL A   1      36.571  23.502  25.670  1.00  0.00    -0.051 Br
ATOM     17  C   UNL A   1      34.551  25.482  25.304  1.00  0.00     0.027 A 
ATOM     18  C   UNL A   1      32.948  27.339  24.916  1.00  0.00     0.025 C 
ATOM     19  C   UNL A   1      30.567  26.719  25.071  1.00  0.00     0.314 C 
BRANCH  19  20
ATOM     20  C   UNL A   1      29.960  26.107  23.794  1.00  0.00     0.429 C 
ATOM     21  F   UNL A   1      29.934  24.753  23.880  1.00  0.00    -0.167 F 
ATOM     22  F   UNL A   1      28.683  26.503  23.582  1.00  0.00    -0.167 F 
ATOM     23  F   UNL A   1      30.655  26.427  22.679  1.00  0.00    -0.167 F 
ENDBRANCH  19  20
ENDBRANCH   5   8
ENDBRANCH   3   4
ENDBRANCH   2   3
ENDBRANCH   1   2
BRANCH   1  24
ATOM     24  N   UNL A   1      32.539  34.050  27.589  1.00  0.00    -0.352 N 
ATOM     25  C   UNL A   1      33.078  34.825  28.586  1.00  0.00     0.251 C 
ATOM     26  H   UNL A   1      31.955  34.530  26.958  1.00  0.00     0.163 HD
ATOM     27  O   UNL A   1      32.603  35.937  28.811  1.00  0.00    -0.269 OA
BRANCH  25  28
ATOM     28  C   UNL A   1      34.208  34.316  29.387  1.00  0.00     0.039 A 
ATOM     29  C   UNL A   1      33.955  33.640  30.582  1.00  0.00     0.014 A 
ATOM     30  C   UNL A   1      35.522  34.518  28.958  1.00  0.00     0.014 A 
ATOM     31  C   UNL A   1      35.020  33.097  31.303  1.00  0.00     0.010 A 
ATOM     32  C   UNL A   1      36.570  33.897  29.625  1.00  0.00     0.010 A 
ATOM     33  C   UNL A   1      36.331  33.185  30.808  1.00  0.00    -0.014 A 
BRANCH  33  34
ATOM     34  C   UNL A   1      37.469  32.552  31.519  1.00  0.00     0.031 A 
ATOM     35  C   UNL A   1      38.208  31.406  30.882  1.00  0.00     0.074 A 
ATOM     36  C   UNL A   1      37.802  32.977  32.753  1.00  0.00     0.049 A 
ATOM     37  N   UNL A   1      39.184  30.684  31.365  1.00  0.00    -0.248 NA
ATOM     38  C   UNL A   1      37.770  30.996  29.536  1.00  0.00     0.031 C 
ATOM     39  C   UNL A   1      37.128  34.051  33.488  1.00  0.00     0.029 A 
ATOM     40  N   UNL A   1      38.794  32.567  33.609  1.00  0.00    -0.354 N 
ATOM     41  C   UNL A   1      39.472  29.736  30.391  1.00  0.00     0.074 A 
ATOM     42  C   UNL A   1      38.522  29.929  29.317  1.00  0.00     0.031 C 
ATOM     43  C   UNL A   1      37.756  34.248  34.657  1.00  0.00     0.029 A 
ATOM     44  C   UNL A   1      38.848  33.288  34.779  1.00  0.00     0.049 A 
ATOM     45  H   UNL A   1      39.408  31.826  33.404  1.00  0.00     0.167 HD
ATOM     46  C   UNL A   1      40.461  28.811  30.377  1.00  0.00     0.034 A 
ATOM     47  C   UNL A   1      39.686  33.189  35.831  1.00  0.00     0.034 A 
ATOM     48  C   UNL A   1      41.422  28.654  31.436  1.00  0.00     0.049 A 
ATOM     49  C   UNL A   1      40.769  32.142  35.799  1.00  0.00     0.074 A 
ATOM     50  C   UNL A   1      42.493  27.782  31.502  1.00  0.00     0.029 A 
ATOM     51  N   UNL A   1      41.433  29.392  32.611  1.00  0.00    -0.354 N 
ATOM     52  N   UNL A   1      41.035  31.265  34.860  1.00  0.00    -0.248 NA
ATOM     53  C   UNL A   1      41.663  32.071  36.963  1.00  0.00     0.031 C 
ATOM     54  C   UNL A   1      43.123  27.958  32.737  1.00  0.00     0.029 A 
ATOM     55  C   UNL A   1      42.481  28.981  33.416  1.00  0.00     0.049 A 
ATOM     56  H   UNL A   1      40.791  30.103  32.838  1.00  0.00     0.167 HD
ATOM     57  C   UNL A   1      42.141  30.553  35.309  1.00  0.00     0.074 A 
ATOM     58  C   UNL A   1      42.494  31.102  36.602  1.00  0.00     0.031 C 
ATOM     59  C   UNL A   1      42.810  29.541  34.702  1.00  0.00     0.034 A 
BRANCH  46  60
ATOM     60  C   UNL A   1      40.555  27.906  29.178  1.00  0.00     0.023 A 
ATOM     61  C   UNL A   1      41.459  28.168  28.135  1.00  0.00     0.031 A 
ATOM     62  C   UNL A   1      39.745  26.761  29.081  1.00  0.00     0.131 A 
ATOM     63  C   UNL A   1      41.499  27.324  27.016  1.00  0.00     0.055 A 
ATOM     64  C   UNL A   1      39.837  25.889  27.996  1.00  0.00     0.041 A 
ATOM     65  F   UNL A   1      38.852  26.474  30.040  1.00  0.00    -0.206 F 
ATOM     66  C   UNL A   1      40.712  26.172  26.951  1.00  0.00     0.022 A 
BRANCH  63  67
ATOM     67  S   UNL A   1      42.537  27.799  25.609  1.00  0.00     0.124 S 
ATOM     68  O   UNL A   1      43.830  28.014  26.257  1.00  0.00    -0.237 OA
ATOM     69  O   UNL A   1      42.446  26.635  24.737  1.00  0.00    -0.237 OA
ATOM     70  O   UNL A   1      41.892  29.009  25.101  1.00  0.00    -0.744 OA
ENDBRANCH  63  67
ENDBRANCH  46  60
BRANCH  47  71
ATOM     71  C   UNL A   1      39.544  34.113  36.989  1.00  0.00     0.023 A 
ATOM     72  C   UNL A   1      38.970  33.673  38.192  1.00  0.00     0.031 A 
ATOM     73  C   UNL A   1      39.986  35.446  36.914  1.00  0.00     0.131 A 
ATOM     74  C   UNL A   1      38.832  34.565  39.266  1.00  0.00     0.055 A 
ATOM     75  C   UNL A   1      39.879  36.319  37.998  1.00  0.00     0.041 A 
ATOM     76  F   UNL A   1      40.553  35.909  35.789  1.00  0.00    -0.206 F 
ATOM     77  C   UNL A   1      39.293  35.881  39.182  1.00  0.00     0.022 A 
BRANCH  74  78
ATOM     78  S   UNL A   1      38.008  33.988  40.776  1.00  0.00     0.124 S 
ATOM     79  O   UNL A   1      37.671  35.248  41.429  1.00  0.00    -0.237 OA
ATOM     80  O   UNL A   1      36.888  33.222  40.239  1.00  0.00    -0.237 OA
ATOM     81  O   UNL A   1      39.038  33.195  41.443  1.00  0.00    -0.744 OA
ENDBRANCH  74  78
ENDBRANCH  47  71
BRANCH  59  82
ATOM     82  C   UNL A   1      44.010  28.977  35.409  1.00  0.00     0.023 A 
ATOM     83  C   UNL A   1      43.891  27.905  36.307  1.00  0.00     0.031 A 
ATOM     84  C   UNL A   1      45.294  29.465  35.111  1.00  0.00     0.131 A 
ATOM     85  C   UNL A   1      45.044  27.358  36.889  1.00  0.00     0.055 A 
ATOM     86  C   UNL A   1      46.440  28.891  35.662  1.00  0.00     0.041 A 
ATOM     87  F   UNL A   1      45.454  30.484  34.252  1.00  0.00    -0.206 F 
ATOM     88  C   UNL A   1      46.318  27.833  36.558  1.00  0.00     0.022 A 
BRANCH  85  89
ATOM     89  S   UNL A   1      44.861  26.013  38.090  1.00  0.00     0.124 S 
ATOM     90  O   UNL A   1      44.612  24.866  37.222  1.00  0.00    -0.237 OA
ATOM     91  O   UNL A   1      46.149  26.023  38.777  1.00  0.00    -0.237 OA
ATOM     92  O   UNL A   1      43.724  26.433  38.906  1.00  0.00    -0.744 OA
ENDBRANCH  85  89
ENDBRANCH  59  82
ENDBRANCH  33  34
ENDBRANCH  25  28
ENDBRANCH   1  24
TORSDOF 14
ENDMDL
MODEL 3
REMARK VINA RESULT:     -12.6      5.249      7.504
REMARK SMILES Cc1cc(Br)cc2c1O[C@H](C(F)(F)F)C(C(=O)NCCCNC(=O)c1ccc(-c3c4nc(c(-c5cc(S(=O)(=O)[O-])ccc5F)c5ccc([nH]5)c(-c5cc(S(=O)(=O)[O-])ccc5F)c5nc(c(-c6cc(S(=O)(=O)[O-])ccc6F)c6ccc3[nH]6)C=C5)C=C4)cc1)=C2
REMARK SMILES IDX 21 1 20 2 19 3 18 4 16 5 17 6 15 8 1 9 2 10 3 11 8 12 4 13
REMARK SMILES IDX 7 14 9 15 5 16 6 17 88 18 10 19 11 20 12 21 13 22 14 23
REMARK SMILES IDX 22 24 23 25 24 27 25 28 26 29 87 30 27 31 86 32 28 33 29 34
REMARK SMILES IDX 30 35 80 36 31 37 85 38 79 39 81 40 32 41 84 42 78 43 77 44
REMARK SMILES IDX 33 46 65 47 45 48 64 49 46 50 49 51 63 52 82 53 47 54 48 55
REMARK SMILES IDX 62 57 83 58 50 59 34 60 35 61 43 62 36 63 42 64 44 65 41 66
REMARK SMILES IDX 37 67 38 68 39 69 40 70 66 71 67 72 75 73 68 74 74 75 76 76
REMARK SMILES IDX 73 77 69 78 70 79 71 80 72 81 51 82 52 83 60 84 53 85 59 86
REMARK SMILES IDX 61 87 58 88 54 89 55 90 56 91 57 92
REMARK H PARENT 18 7 22 26 81 45 49 56
REMARK Flexibility Score: inf
ROOT
ATOM      1  C   UNL A   1      35.928  22.172  25.989  1.00  0.00     0.118 C 
ENDROOT
BRANCH   1   2
ATOM      2  C   UNL A   1      34.591  21.544  26.367  1.00  0.00     0.042 C 
BRANCH   2   3
ATOM      3  C   UNL A   1      33.837  22.368  27.400  1.00  0.00     0.118 C 
BRANCH   3   4
ATOM      4  N   UNL A   1      32.409  22.417  27.124  1.00  0.00    -0.352 N 
ATOM      5  C   UNL A   1      31.549  23.235  26.474  1.00  0.00     0.251 C 
ATOM      6  O   UNL A   1      30.369  22.869  26.482  1.00  0.00    -0.270 OA
ATOM      7  H   UNL A   1      31.942  21.645  27.517  1.00  0.00     0.163 HD
BRANCH   5   8
ATOM      8  C   UNL A   1      31.924  24.495  25.771  1.00  0.00     0.067 C 
ATOM      9  C   UNL A   1      33.776  28.130  22.612  1.00  0.00     0.048 C 
ATOM     10  C   UNL A   1      33.201  28.092  24.000  1.00  0.00    -0.007 A 
ATOM     11  C   UNL A   1      32.984  29.296  24.685  1.00  0.00     0.023 A 
ATOM     12  C   UNL A   1      32.820  26.892  24.615  1.00  0.00     0.130 A 
ATOM     13  C   UNL A   1      32.429  29.287  25.965  1.00  0.00     0.019 A 
ATOM     14  C   UNL A   1      32.271  26.881  25.903  1.00  0.00     0.019 A 
ATOM     15  O   UNL A   1      33.047  25.731  23.927  1.00  0.00    -0.475 OA
ATOM     16  Br  UNL A   1      32.153  30.922  26.875  1.00  0.00    -0.051 Br
ATOM     17  C   UNL A   1      32.078  28.086  26.582  1.00  0.00     0.027 A 
ATOM     18  C   UNL A   1      31.941  25.607  26.530  1.00  0.00     0.025 C 
ATOM     19  C   UNL A   1      32.239  24.586  24.306  1.00  0.00     0.314 C 
BRANCH  19  20
ATOM     20  C   UNL A   1      30.975  24.540  23.426  1.00  0.00     0.429 C 
ATOM     21  F   UNL A   1      31.188  25.184  22.251  1.00  0.00    -0.167 F 
ATOM     22  F   UNL A   1      30.605  23.276  23.110  1.00  0.00    -0.167 F 
ATOM     23  F   UNL A   1      29.906  25.120  24.016  1.00  0.00    -0.167 F 
ENDBRANCH  19  20
ENDBRANCH   5   8
ENDBRANCH   3   4
ENDBRANCH   2   3
ENDBRANCH   1   2
BRANCH   1  24
ATOM     24  N   UNL A   1      36.973  21.164  25.825  1.00  0.00    -0.352 N 
ATOM     25  C   UNL A   1      38.339  21.303  25.807  1.00  0.00     0.251 C 
ATOM     26  H   UNL A   1      36.646  20.242  25.711  1.00  0.00     0.163 HD
ATOM     27  O   UNL A   1      39.034  20.385  25.376  1.00  0.00    -0.269 OA
BRANCH  25  28
ATOM     28  C   UNL A   1      38.960  22.552  26.287  1.00  0.00     0.039 A 
ATOM     29  C   UNL A   1      40.028  22.488  27.184  1.00  0.00     0.014 A 
ATOM     30  C   UNL A   1      38.478  23.790  25.855  1.00  0.00     0.014 A 
ATOM     31  C   UNL A   1      40.660  23.667  27.584  1.00  0.00     0.010 A 
ATOM     32  C   UNL A   1      39.167  24.952  26.178  1.00  0.00     0.010 A 
ATOM     33  C   UNL A   1      40.262  24.903  27.050  1.00  0.00    -0.014 A 
BRANCH  33  34
ATOM     34  C   UNL A   1      40.968  26.160  27.403  1.00  0.00     0.031 A 
ATOM     35  C   UNL A   1      42.364  26.404  26.895  1.00  0.00     0.074 A 
ATOM     36  C   UNL A   1      40.371  27.053  28.217  1.00  0.00     0.049 A 
ATOM     37  N   UNL A   1      43.166  27.406  27.141  1.00  0.00    -0.248 NA
ATOM     38  C   UNL A   1      42.946  25.370  26.022  1.00  0.00     0.031 C 
ATOM     39  C   UNL A   1      39.037  26.900  28.805  1.00  0.00     0.029 A 
ATOM     40  N   UNL A   1      40.800  28.268  28.687  1.00  0.00    -0.354 N 
ATOM     41  C   UNL A   1      44.344  27.122  26.460  1.00  0.00     0.074 A 
ATOM     42  C   UNL A   1      44.178  25.821  25.849  1.00  0.00     0.031 C 
ATOM     43  C   UNL A   1      38.739  28.001  29.512  1.00  0.00     0.029 A 
ATOM     44  C   UNL A   1      39.873  28.918  29.468  1.00  0.00     0.049 A 
ATOM     45  H   UNL A   1      41.689  28.640  28.484  1.00  0.00     0.167 HD
ATOM     46  C   UNL A   1      45.452  27.891  26.329  1.00  0.00     0.034 A 
ATOM     47  C   UNL A   1      39.930  30.120  30.078  1.00  0.00     0.034 A 
ATOM     48  C   UNL A   1      45.589  29.198  26.913  1.00  0.00     0.049 A 
ATOM     49  C   UNL A   1      41.177  30.950  29.929  1.00  0.00     0.074 A 
ATOM     50  C   UNL A   1      46.648  30.081  26.803  1.00  0.00     0.029 A 
ATOM     51  N   UNL A   1      44.634  29.813  27.711  1.00  0.00    -0.354 N 
ATOM     52  N   UNL A   1      42.276  30.670  29.268  1.00  0.00    -0.248 NA
ATOM     53  C   UNL A   1      41.196  32.254  30.606  1.00  0.00     0.031 C 
ATOM     54  C   UNL A   1      46.355  31.210  27.573  1.00  0.00     0.029 A 
ATOM     55  C   UNL A   1      45.089  31.057  28.115  1.00  0.00     0.049 A 
ATOM     56  H   UNL A   1      43.764  29.424  27.952  1.00  0.00     0.167 HD
ATOM     57  C   UNL A   1      43.106  31.773  29.429  1.00  0.00     0.074 A 
ATOM     58  C   UNL A   1      42.384  32.724  30.249  1.00  0.00     0.031 C 
ATOM     59  C   UNL A   1      44.352  31.984  28.935  1.00  0.00     0.034 A 
BRANCH  46  60
ATOM     60  C   UNL A   1      46.593  27.339  25.518  1.00  0.00     0.023 A 
ATOM     61  C   UNL A   1      46.888  27.838  24.238  1.00  0.00     0.031 A 
ATOM     62  C   UNL A   1      47.408  26.315  26.033  1.00  0.00     0.131 A 
ATOM     63  C   UNL A   1      47.937  27.281  23.495  1.00  0.00     0.055 A 
ATOM     64  C   UNL A   1      48.492  25.810  25.315  1.00  0.00     0.041 A 
ATOM     65  F   UNL A   1      47.159  25.790  27.243  1.00  0.00    -0.206 F 
ATOM     66  C   UNL A   1      48.758  26.287  24.035  1.00  0.00     0.022 A 
BRANCH  63  67
ATOM     67  S   UNL A   1      48.164  27.817  21.779  1.00  0.00     0.124 S 
ATOM     68  O   UNL A   1      48.278  26.536  21.084  1.00  0.00    -0.237 OA
ATOM     69  O   UNL A   1      46.949  28.578  21.518  1.00  0.00    -0.237 OA
ATOM     70  O   UNL A   1      49.395  28.605  21.827  1.00  0.00    -0.744 OA
ENDBRANCH  63  67
ENDBRANCH  46  60
BRANCH  47  71
ATOM     71  C   UNL A   1      38.768  30.612  30.866  1.00  0.00     0.023 A 
ATOM     72  C   UNL A   1      37.696  31.263  30.236  1.00  0.00     0.031 A 
ATOM     73  C   UNL A   1      38.707  30.434  32.260  1.00  0.00     0.131 A 
ATOM     74  C   UNL A   1      36.617  31.733  31.001  1.00  0.00     0.055 A 
ATOM     75  C   UNL A   1      37.615  30.870  33.012  1.00  0.00     0.041 A 
ATOM     76  F   UNL A   1      39.702  29.805  32.907  1.00  0.00    -0.206 F 
ATOM     77  C   UNL A   1      36.564  31.530  32.383  1.00  0.00     0.022 A 
BRANCH  74  78
ATOM     78  S   UNL A   1      35.290  32.645  30.166  1.00  0.00     0.124 S 
ATOM     79  O   UNL A   1      34.961  31.746  29.065  1.00  0.00    -0.237 OA
ATOM     80  O   UNL A   1      34.290  32.763  31.222  1.00  0.00    -0.237 OA
ATOM     81  O   UNL A   1      35.932  33.899  29.778  1.00  0.00    -0.744 OA
ENDBRANCH  74  78
ENDBRANCH  47  71
BRANCH  59  82
ATOM     82  C   UNL A   1      45.008  33.302  29.239  1.00  0.00     0.023 A 
ATOM     83  C   UNL A   1      44.852  34.408  28.388  1.00  0.00     0.031 A 
ATOM     84  C   UNL A   1      45.725  33.470  30.436  1.00  0.00     0.131 A 
ATOM     85  C   UNL A   1      45.418  35.640  28.744  1.00  0.00     0.055 A 
ATOM     86  C   UNL A   1      46.251  34.708  30.804  1.00  0.00     0.041 A 
ATOM     87  F   UNL A   1      45.891  32.441  31.282  1.00  0.00    -0.206 F 
ATOM     88  C   UNL A   1      46.101  35.801  29.954  1.00  0.00     0.022 A 
BRANCH  85  89
ATOM     89  S   UNL A   1      45.253  37.039  27.602  1.00  0.00     0.124 S 
ATOM     90  O   UNL A   1      46.141  36.644  26.512  1.00  0.00    -0.237 OA
ATOM     91  O   UNL A   1      43.826  37.032  27.295  1.00  0.00    -0.237 OA
ATOM     92  O   UNL A   1      45.709  38.181  28.392  1.00  0.00    -0.744 OA
ENDBRANCH  85  89
ENDBRANCH  59  82
ENDBRANCH  33  34
ENDBRANCH  25  28
ENDBRANCH   1  24
TORSDOF 14
ENDMDL
