MODEL 1
REMARK VINA RESULT:     -12.2      0.000      0.000
REMARK SMILES Cc1cccc([C@@H](CC(F)(F)F)C(=O)NCCCNC(=O)c2ccc(-c3c4nc(c(-c5cc(S(=O)(=O)[O-])ccc5F)c5ccc([nH]5)c(-c5cc(S(=O)(=O)[O-])ccc5F)c5nc(c(-c6cc(S(=O)(=O)[O-])ccc6F)c6ccc3[nH]6)C=C5)C=C4)cc2)c1
REMARK SMILES IDX 17 1 16 2 15 3 13 4 14 5 7 7 6 8 1 9 2 10 3 11 85 12 4 13
REMARK SMILES IDX 5 14 8 15 9 16 10 17 11 18 12 19 18 20 19 21 20 22 21 24
REMARK SMILES IDX 22 25 23 26 84 27 24 28 83 29 25 30 26 31 27 32 77 33 28 34
REMARK SMILES IDX 82 35 76 36 78 37 29 38 81 39 75 40 74 41 30 43 62 44 42 45
REMARK SMILES IDX 61 46 43 47 46 48 60 49 79 50 44 51 45 52 59 54 80 55 47 56
REMARK SMILES IDX 31 57 32 58 40 59 33 60 39 61 41 62 38 63 34 64 35 65 36 66
REMARK SMILES IDX 37 67 63 68 64 69 72 70 65 71 71 72 73 73 70 74 66 75 67 76
REMARK SMILES IDX 68 77 69 78 48 79 49 80 57 81 50 82 56 83 58 84 55 85 51 86
REMARK SMILES IDX 52 87 53 88 54 89
REMARK H PARENT 15 6 19 23 78 42 46 53
REMARK Flexibility Score: inf
ROOT
ATOM      1  C   UNL A   1      33.387  31.163  27.189  1.00  0.00     0.042 C 
ENDROOT
BRANCH   1   2
ATOM      2  C   UNL A   1      32.573  30.199  26.340  1.00  0.00     0.117 C 
BRANCH   2   3
ATOM      3  N   UNL A   1      33.200  29.931  25.053  1.00  0.00    -0.356 N 
ATOM      4  C   UNL A   1      33.081  28.949  24.132  1.00  0.00     0.227 C 
ATOM      5  O   UNL A   1      33.812  29.048  23.133  1.00  0.00    -0.274 OA
ATOM      6  H   UNL A   1      33.856  30.620  24.797  1.00  0.00     0.163 HD
BRANCH   4   7
ATOM      7  C   UNL A   1      32.128  27.750  24.212  1.00  0.00     0.117 C 
BRANCH   7   8
ATOM      8  C   UNL A   1      32.668  26.504  24.909  1.00  0.00    -0.035 A 
ATOM      9  C   UNL A   1      31.204  23.501  26.798  1.00  0.00     0.044 C 
ATOM     10  C   UNL A   1      32.185  24.426  26.142  1.00  0.00    -0.051 A 
ATOM     11  C   UNL A   1      33.547  24.124  26.159  1.00  0.00     0.003 A 
ATOM     12  C   UNL A   1      31.758  25.595  25.494  1.00  0.00     0.008 A 
ATOM     13  C   UNL A   1      34.462  25.010  25.596  1.00  0.00     0.001 A 
ATOM     14  C   UNL A   1      34.025  26.203  25.009  1.00  0.00     0.004 A 
ENDBRANCH   7   8
BRANCH   7  15
ATOM     15  C   UNL A   1      30.618  28.019  24.270  1.00  0.00     0.133 C 
BRANCH  15  16
ATOM     16  C   UNL A   1      29.729  27.632  23.123  1.00  0.00     0.390 C 
ATOM     17  F   UNL A   1      30.429  27.315  22.022  1.00  0.00    -0.171 F 
ATOM     18  F   UNL A   1      29.018  26.527  23.467  1.00  0.00    -0.171 F 
ATOM     19  F   UNL A   1      28.828  28.586  22.822  1.00  0.00    -0.171 F 
ENDBRANCH  15  16
ENDBRANCH   7  15
ENDBRANCH   4   7
ENDBRANCH   2   3
ENDBRANCH   1   2
BRANCH   1  20
ATOM     20  C   UNL A   1      34.457  30.481  28.023  1.00  0.00     0.118 C 
BRANCH  20  21
ATOM     21  N   UNL A   1      35.364  31.427  28.682  1.00  0.00    -0.352 N 
ATOM     22  C   UNL A   1      36.655  31.200  29.141  1.00  0.00     0.251 C 
ATOM     23  H   UNL A   1      35.014  32.337  28.816  1.00  0.00     0.163 HD
ATOM     24  O   UNL A   1      37.319  32.067  29.683  1.00  0.00    -0.269 OA
BRANCH  22  25
ATOM     25  C   UNL A   1      37.243  29.875  28.855  1.00  0.00     0.039 A 
ATOM     26  C   UNL A   1      37.432  29.021  29.945  1.00  0.00     0.014 A 
ATOM     27  C   UNL A   1      37.927  29.690  27.658  1.00  0.00     0.014 A 
ATOM     28  C   UNL A   1      38.510  28.144  29.925  1.00  0.00     0.010 A 
ATOM     29  C   UNL A   1      39.065  28.910  27.689  1.00  0.00     0.010 A 
ATOM     30  C   UNL A   1      39.397  28.198  28.850  1.00  0.00    -0.014 A 
BRANCH  30  31
ATOM     31  C   UNL A   1      40.759  27.673  28.929  1.00  0.00     0.031 A 
ATOM     32  C   UNL A   1      41.032  26.264  28.575  1.00  0.00     0.074 A 
ATOM     33  C   UNL A   1      41.785  28.474  29.307  1.00  0.00     0.049 A 
ATOM     34  N   UNL A   1      42.095  25.627  28.935  1.00  0.00    -0.248 NA
ATOM     35  C   UNL A   1      40.076  25.414  27.869  1.00  0.00     0.031 C 
ATOM     36  C   UNL A   1      43.215  28.196  29.192  1.00  0.00     0.029 A 
ATOM     37  N   UNL A   1      41.718  29.600  30.133  1.00  0.00    -0.354 N 
ATOM     38  C   UNL A   1      42.109  24.426  28.272  1.00  0.00     0.074 A 
ATOM     39  C   UNL A   1      40.779  24.285  27.744  1.00  0.00     0.031 C 
ATOM     40  C   UNL A   1      43.875  28.921  30.107  1.00  0.00     0.029 A 
ATOM     41  C   UNL A   1      42.885  29.598  30.922  1.00  0.00     0.049 A 
ATOM     42  H   UNL A   1      40.994  30.266  30.159  1.00  0.00     0.167 HD
ATOM     43  C   UNL A   1      43.293  23.768  28.139  1.00  0.00     0.034 A 
ATOM     44  C   UNL A   1      42.829  29.560  32.283  1.00  0.00     0.034 A 
ATOM     45  C   UNL A   1      44.291  24.286  29.083  1.00  0.00     0.049 A 
ATOM     46  C   UNL A   1      43.504  28.352  32.891  1.00  0.00     0.074 A 
ATOM     47  C   UNL A   1      45.452  25.027  28.950  1.00  0.00     0.029 A 
ATOM     48  N   UNL A   1      44.008  24.247  30.448  1.00  0.00    -0.354 N 
ATOM     49  N   UNL A   1      43.886  27.304  32.212  1.00  0.00    -0.248 NA
ATOM     50  C   UNL A   1      43.782  28.220  34.316  1.00  0.00     0.031 C 
ATOM     51  C   UNL A   1      45.816  25.502  30.242  1.00  0.00     0.029 A 
ATOM     52  C   UNL A   1      44.908  25.011  31.165  1.00  0.00     0.049 A 
ATOM     53  H   UNL A   1      43.264  23.740  30.848  1.00  0.00     0.167 HD
ATOM     54  C   UNL A   1      44.396  26.358  33.066  1.00  0.00     0.074 A 
ATOM     55  C   UNL A   1      44.343  26.999  34.368  1.00  0.00     0.031 C 
ATOM     56  C   UNL A   1      44.792  25.124  32.619  1.00  0.00     0.034 A 
BRANCH  43  57
ATOM     57  C   UNL A   1      43.628  22.788  27.025  1.00  0.00     0.023 A 
ATOM     58  C   UNL A   1      42.936  21.556  26.972  1.00  0.00     0.031 A 
ATOM     59  C   UNL A   1      44.682  22.913  26.090  1.00  0.00     0.131 A 
ATOM     60  C   UNL A   1      43.303  20.539  26.065  1.00  0.00     0.055 A 
ATOM     61  C   UNL A   1      45.008  21.925  25.151  1.00  0.00     0.041 A 
ATOM     62  F   UNL A   1      45.507  23.962  26.058  1.00  0.00    -0.206 F 
ATOM     63  C   UNL A   1      44.326  20.725  25.140  1.00  0.00     0.022 A 
BRANCH  60  64
ATOM     64  S   UNL A   1      42.488  18.921  26.158  1.00  0.00     0.124 S 
ATOM     65  O   UNL A   1      43.313  18.110  25.266  1.00  0.00    -0.237 OA
ATOM     66  O   UNL A   1      42.571  18.612  27.580  1.00  0.00    -0.237 OA
ATOM     67  O   UNL A   1      41.139  19.192  25.664  1.00  0.00    -0.744 OA
ENDBRANCH  60  64
ENDBRANCH  43  57
BRANCH  44  68
ATOM     68  C   UNL A   1      41.656  30.287  32.839  1.00  0.00     0.023 A 
ATOM     69  C   UNL A   1      41.724  31.697  32.837  1.00  0.00     0.031 A 
ATOM     70  C   UNL A   1      40.395  29.692  32.961  1.00  0.00     0.131 A 
ATOM     71  C   UNL A   1      40.552  32.462  32.776  1.00  0.00     0.055 A 
ATOM     72  C   UNL A   1      39.226  30.464  32.969  1.00  0.00     0.041 A 
ATOM     73  F   UNL A   1      40.263  28.356  32.927  1.00  0.00    -0.206 F 
ATOM     74  C   UNL A   1      39.299  31.852  32.831  1.00  0.00     0.022 A 
BRANCH  71  75
ATOM     75  S   UNL A   1      40.693  34.220  32.334  1.00  0.00     0.124 S 
ATOM     76  O   UNL A   1      39.419  34.469  31.671  1.00  0.00    -0.237 OA
ATOM     77  O   UNL A   1      40.876  34.863  33.635  1.00  0.00    -0.237 OA
ATOM     78  O   UNL A   1      41.875  34.261  31.476  1.00  0.00    -0.744 OA
ENDBRANCH  71  75
ENDBRANCH  44  68
BRANCH  56  79
ATOM     79  C   UNL A   1      45.165  23.929  33.487  1.00  0.00     0.023 A 
ATOM     80  C   UNL A   1      46.457  23.684  33.977  1.00  0.00     0.031 A 
ATOM     81  C   UNL A   1      44.178  23.003  33.912  1.00  0.00     0.131 A 
ATOM     82  C   UNL A   1      46.748  22.547  34.758  1.00  0.00     0.055 A 
ATOM     83  C   UNL A   1      44.452  21.916  34.750  1.00  0.00     0.041 A 
ATOM     84  F   UNL A   1      42.894  23.117  33.545  1.00  0.00    -0.206 F 
ATOM     85  C   UNL A   1      45.749  21.669  35.166  1.00  0.00     0.022 A 
BRANCH  82  86
ATOM     86  S   UNL A   1      48.479  22.211  35.178  1.00  0.00     0.124 S 
ATOM     87  O   UNL A   1      48.724  20.959  34.467  1.00  0.00    -0.237 OA
ATOM     88  O   UNL A   1      49.164  23.384  34.646  1.00  0.00    -0.237 OA
ATOM     89  O   UNL A   1      48.469  22.105  36.635  1.00  0.00    -0.744 OA
ENDBRANCH  82  86
ENDBRANCH  56  79
ENDBRANCH  30  31
ENDBRANCH  22  25
ENDBRANCH  20  21
ENDBRANCH   1  20
TORSDOF 16
ENDMDL
MODEL 2
REMARK VINA RESULT:     -12.2      4.688     10.972
REMARK SMILES Cc1cccc([C@@H](CC(F)(F)F)C(=O)NCCCNC(=O)c2ccc(-c3c4nc(c(-c5cc(S(=O)(=O)[O-])ccc5F)c5ccc([nH]5)c(-c5cc(S(=O)(=O)[O-])ccc5F)c5nc(c(-c6cc(S(=O)(=O)[O-])ccc6F)c6ccc3[nH]6)C=C5)C=C4)cc2)c1
REMARK SMILES IDX 17 1 16 2 15 3 13 4 14 5 7 7 6 8 1 9 2 10 3 11 85 12 4 13
REMARK SMILES IDX 5 14 8 15 9 16 10 17 11 18 12 19 18 20 19 21 20 22 21 24
REMARK SMILES IDX 22 25 23 26 84 27 24 28 83 29 25 30 26 31 27 32 77 33 28 34
REMARK SMILES IDX 82 35 76 36 78 37 29 38 81 39 75 40 74 41 30 43 62 44 42 45
REMARK SMILES IDX 61 46 43 47 46 48 60 49 79 50 44 51 45 52 59 54 80 55 47 56
REMARK SMILES IDX 31 57 32 58 40 59 33 60 39 61 41 62 38 63 34 64 35 65 36 66
REMARK SMILES IDX 37 67 63 68 64 69 72 70 65 71 71 72 73 73 70 74 66 75 67 76
REMARK SMILES IDX 68 77 69 78 48 79 49 80 57 81 50 82 56 83 58 84 55 85 51 86
REMARK SMILES IDX 52 87 53 88 54 89
REMARK H PARENT 15 6 19 23 78 42 46 53
REMARK Flexibility Score: inf
ROOT
ATOM      1  C   UNL A   1      38.230  21.676  25.719  1.00  0.00     0.042 C 
ENDROOT
BRANCH   1   2
ATOM      2  C   UNL A   1      36.794  21.619  25.222  1.00  0.00     0.117 C 
BRANCH   2   3
ATOM      3  N   UNL A   1      35.838  21.460  26.309  1.00  0.00    -0.356 N 
ATOM      4  C   UNL A   1      34.514  21.697  26.445  1.00  0.00     0.227 C 
ATOM      5  O   UNL A   1      34.027  21.448  27.559  1.00  0.00    -0.274 OA
ATOM      6  H   UNL A   1      36.249  21.098  27.129  1.00  0.00     0.163 HD
BRANCH   4   7
ATOM      7  C   UNL A   1      33.579  22.230  25.352  1.00  0.00     0.117 C 
BRANCH   7   8
ATOM      8  C   UNL A   1      33.662  23.727  25.063  1.00  0.00    -0.035 A 
ATOM      9  C   UNL A   1      33.380  25.999  21.984  1.00  0.00     0.044 C 
ATOM     10  C   UNL A   1      33.531  25.544  23.405  1.00  0.00    -0.051 A 
ATOM     11  C   UNL A   1      33.716  26.480  24.421  1.00  0.00     0.003 A 
ATOM     12  C   UNL A   1      33.477  24.182  23.738  1.00  0.00     0.008 A 
ATOM     13  C   UNL A   1      33.910  26.053  25.732  1.00  0.00     0.001 A 
ATOM     14  C   UNL A   1      33.917  24.688  26.040  1.00  0.00     0.004 A 
ENDBRANCH   7   8
BRANCH   7  15
ATOM     15  C   UNL A   1      33.183  21.289  24.206  1.00  0.00     0.133 C 
BRANCH  15  16
ATOM     16  C   UNL A   1      33.063  19.810  24.440  1.00  0.00     0.390 C 
ATOM     17  F   UNL A   1      32.406  19.190  23.447  1.00  0.00    -0.171 F 
ATOM     18  F   UNL A   1      34.307  19.265  24.487  1.00  0.00    -0.171 F 
ATOM     19  F   UNL A   1      32.475  19.518  25.616  1.00  0.00    -0.171 F 
ENDBRANCH  15  16
ENDBRANCH   7  15
ENDBRANCH   4   7
ENDBRANCH   2   3
ENDBRANCH   1   2
BRANCH   1  20
ATOM     20  C   UNL A   1      38.707  23.082  26.036  1.00  0.00     0.118 C 
BRANCH  20  21
ATOM     21  N   UNL A   1      40.083  23.124  26.542  1.00  0.00    -0.352 N 
ATOM     22  C   UNL A   1      40.791  24.221  27.016  1.00  0.00     0.251 C 
ATOM     23  H   UNL A   1      40.567  22.266  26.545  1.00  0.00     0.163 HD
ATOM     24  O   UNL A   1      41.942  24.138  27.408  1.00  0.00    -0.269 OA
BRANCH  22  25
ATOM     25  C   UNL A   1      40.052  25.496  27.122  1.00  0.00     0.039 A 
ATOM     26  C   UNL A   1      40.581  26.589  26.429  1.00  0.00     0.014 A 
ATOM     27  C   UNL A   1      39.153  25.664  28.169  1.00  0.00     0.014 A 
ATOM     28  C   UNL A   1      40.414  27.861  26.965  1.00  0.00     0.010 A 
ATOM     29  C   UNL A   1      39.093  26.908  28.765  1.00  0.00     0.010 A 
ATOM     30  C   UNL A   1      39.788  27.989  28.205  1.00  0.00    -0.014 A 
BRANCH  30  31
ATOM     31  C   UNL A   1      39.954  29.169  29.050  1.00  0.00     0.031 A 
ATOM     32  C   UNL A   1      38.949  30.253  29.017  1.00  0.00     0.074 A 
ATOM     33  C   UNL A   1      41.017  29.274  29.884  1.00  0.00     0.049 A 
ATOM     34  N   UNL A   1      39.171  31.451  29.441  1.00  0.00    -0.248 NA
ATOM     35  C   UNL A   1      37.632  30.106  28.402  1.00  0.00     0.031 C 
ATOM     36  C   UNL A   1      41.202  30.239  30.967  1.00  0.00     0.029 A 
ATOM     37  N   UNL A   1      42.276  28.687  29.728  1.00  0.00    -0.354 N 
ATOM     38  C   UNL A   1      37.976  32.124  29.442  1.00  0.00     0.074 A 
ATOM     39  C   UNL A   1      37.092  31.301  28.661  1.00  0.00     0.031 C 
ATOM     40  C   UNL A   1      42.514  30.388  31.198  1.00  0.00     0.029 A 
ATOM     41  C   UNL A   1      43.224  29.619  30.195  1.00  0.00     0.049 A 
ATOM     42  H   UNL A   1      42.464  27.793  29.362  1.00  0.00     0.167 HD
ATOM     43  C   UNL A   1      37.851  33.230  30.226  1.00  0.00     0.034 A 
ATOM     44  C   UNL A   1      44.210  30.101  29.388  1.00  0.00     0.034 A 
ATOM     45  C   UNL A   1      39.167  33.733  30.638  1.00  0.00     0.049 A 
ATOM     46  C   UNL A   1      44.169  31.599  29.198  1.00  0.00     0.074 A 
ATOM     47  C   UNL A   1      39.850  33.777  31.840  1.00  0.00     0.029 A 
ATOM     48  N   UNL A   1      40.088  34.091  29.654  1.00  0.00    -0.354 N 
ATOM     49  N   UNL A   1      43.162  32.357  29.540  1.00  0.00    -0.248 NA
ATOM     50  C   UNL A   1      45.251  32.361  28.584  1.00  0.00     0.031 C 
ATOM     51  C   UNL A   1      41.212  34.083  31.557  1.00  0.00     0.029 A 
ATOM     52  C   UNL A   1      41.346  34.274  30.193  1.00  0.00     0.049 A 
ATOM     53  H   UNL A   1      39.869  34.199  28.700  1.00  0.00     0.167 HD
ATOM     54  C   UNL A   1      43.410  33.655  29.168  1.00  0.00     0.074 A 
ATOM     55  C   UNL A   1      44.749  33.608  28.608  1.00  0.00     0.031 C 
ATOM     56  C   UNL A   1      42.473  34.642  29.336  1.00  0.00     0.034 A 
BRANCH  43  57
ATOM     57  C   UNL A   1      36.541  33.755  30.794  1.00  0.00     0.023 A 
ATOM     58  C   UNL A   1      35.572  34.271  29.903  1.00  0.00     0.031 A 
ATOM     59  C   UNL A   1      36.230  33.920  32.164  1.00  0.00     0.131 A 
ATOM     60  C   UNL A   1      34.406  34.915  30.370  1.00  0.00     0.055 A 
ATOM     61  C   UNL A   1      35.045  34.508  32.625  1.00  0.00     0.041 A 
ATOM     62  F   UNL A   1      37.069  33.586  33.147  1.00  0.00    -0.206 F 
ATOM     63  C   UNL A   1      34.129  35.021  31.729  1.00  0.00     0.022 A 
BRANCH  60  64
ATOM     64  S   UNL A   1      33.283  35.703  29.182  1.00  0.00     0.124 S 
ATOM     65  O   UNL A   1      32.592  34.554  28.605  1.00  0.00    -0.237 OA
ATOM     66  O   UNL A   1      32.489  36.577  30.037  1.00  0.00    -0.237 OA
ATOM     67  O   UNL A   1      34.190  36.395  28.267  1.00  0.00    -0.744 OA
ENDBRANCH  60  64
ENDBRANCH  43  57
BRANCH  44  68
ATOM     68  C   UNL A   1      44.698  29.100  28.401  1.00  0.00     0.023 A 
ATOM     69  C   UNL A   1      45.518  28.065  28.900  1.00  0.00     0.031 A 
ATOM     70  C   UNL A   1      44.074  28.903  27.163  1.00  0.00     0.131 A 
ATOM     71  C   UNL A   1      45.555  26.821  28.258  1.00  0.00     0.055 A 
ATOM     72  C   UNL A   1      44.170  27.679  26.489  1.00  0.00     0.041 A 
ATOM     73  F   UNL A   1      43.250  29.834  26.658  1.00  0.00    -0.206 F 
ATOM     74  C   UNL A   1      44.874  26.616  27.058  1.00  0.00     0.022 A 
BRANCH  71  75
ATOM     75  S   UNL A   1      46.259  25.407  29.161  1.00  0.00     0.124 S 
ATOM     76  O   UNL A   1      46.403  24.414  28.103  1.00  0.00    -0.237 OA
ATOM     77  O   UNL A   1      47.502  25.958  29.697  1.00  0.00    -0.237 OA
ATOM     78  O   UNL A   1      45.249  25.114  30.175  1.00  0.00    -0.744 OA
ENDBRANCH  71  75
ENDBRANCH  44  68
BRANCH  56  79
ATOM     79  C   UNL A   1      42.544  36.056  28.772  1.00  0.00     0.023 A 
ATOM     80  C   UNL A   1      43.078  37.154  29.464  1.00  0.00     0.031 A 
ATOM     81  C   UNL A   1      42.118  36.332  27.447  1.00  0.00     0.131 A 
ATOM     82  C   UNL A   1      43.097  38.445  28.898  1.00  0.00     0.055 A 
ATOM     83  C   UNL A   1      42.206  37.599  26.859  1.00  0.00     0.041 A 
ATOM     84  F   UNL A   1      41.606  35.381  26.654  1.00  0.00    -0.206 F 
ATOM     85  C   UNL A   1      42.681  38.674  27.591  1.00  0.00     0.022 A 
BRANCH  82  86
ATOM     86  S   UNL A   1      43.621  39.833  29.940  1.00  0.00     0.124 S 
ATOM     87  O   UNL A   1      42.344  40.457  30.278  1.00  0.00    -0.237 OA
ATOM     88  O   UNL A   1      44.305  39.160  31.039  1.00  0.00    -0.237 OA
ATOM     89  O   UNL A   1      44.482  40.621  29.061  1.00  0.00    -0.744 OA
ENDBRANCH  82  86
ENDBRANCH  56  79
ENDBRANCH  30  31
ENDBRANCH  22  25
ENDBRANCH  20  21
ENDBRANCH   1  20
TORSDOF 16
ENDMDL
MODEL 3
REMARK VINA RESULT:     -12.2      4.652     10.932
REMARK SMILES Cc1cccc([C@@H](CC(F)(F)F)C(=O)NCCCNC(=O)c2ccc(-c3c4nc(c(-c5cc(S(=O)(=O)[O-])ccc5F)c5ccc([nH]5)c(-c5cc(S(=O)(=O)[O-])ccc5F)c5nc(c(-c6cc(S(=O)(=O)[O-])ccc6F)c6ccc3[nH]6)C=C5)C=C4)cc2)c1
REMARK SMILES IDX 17 1 16 2 15 3 13 4 14 5 7 7 6 8 1 9 2 10 3 11 85 12 4 13
REMARK SMILES IDX 5 14 8 15 9 16 10 17 11 18 12 19 18 20 19 21 20 22 21 24
REMARK SMILES IDX 22 25 23 26 84 27 24 28 83 29 25 30 26 31 27 32 77 33 28 34
REMARK SMILES IDX 82 35 76 36 78 37 29 38 81 39 75 40 74 41 30 43 62 44 42 45
REMARK SMILES IDX 61 46 43 47 46 48 60 49 79 50 44 51 45 52 59 54 80 55 47 56
REMARK SMILES IDX 31 57 32 58 40 59 33 60 39 61 41 62 38 63 34 64 35 65 36 66
REMARK SMILES IDX 37 67 63 68 64 69 72 70 65 71 71 72 73 73 70 74 66 75 67 76
REMARK SMILES IDX 68 77 69 78 48 79 49 80 57 81 50 82 56 83 58 84 55 85 51 86
REMARK SMILES IDX 52 87 53 88 54 89
REMARK H PARENT 15 6 19 23 78 42 46 53
REMARK Flexibility Score: inf
ROOT
ATOM      1  C   UNL A   1      38.579  21.472  25.599  1.00  0.00     0.042 C 
ENDROOT
BRANCH   1   2
ATOM      2  C   UNL A   1      37.162  21.356  25.061  1.00  0.00     0.117 C 
BRANCH   2   3
ATOM      3  N   UNL A   1      36.163  21.391  26.121  1.00  0.00    -0.356 N 
ATOM      4  C   UNL A   1      34.817  21.508  26.146  1.00  0.00     0.227 C 
ATOM      5  O   UNL A   1      34.291  21.516  27.270  1.00  0.00    -0.274 OA
ATOM      6  H   UNL A   1      36.558  21.311  27.020  1.00  0.00     0.163 HD
BRANCH   4   7
ATOM      7  C   UNL A   1      33.900  21.619  24.921  1.00  0.00     0.117 C 
BRANCH   7   8
ATOM      8  C   UNL A   1      33.491  20.303  24.262  1.00  0.00    -0.035 A 
ATOM      9  C   UNL A   1      34.515  16.614  24.512  1.00  0.00     0.044 C 
ATOM     10  C   UNL A   1      33.792  17.864  24.106  1.00  0.00    -0.051 A 
ATOM     11  C   UNL A   1      32.761  17.800  23.169  1.00  0.00     0.003 A 
ATOM     12  C   UNL A   1      34.126  19.107  24.663  1.00  0.00     0.008 A 
ATOM     13  C   UNL A   1      32.128  18.967  22.753  1.00  0.00     0.001 A 
ATOM     14  C   UNL A   1      32.515  20.209  23.271  1.00  0.00     0.004 A 
ENDBRANCH   7   8
BRANCH   7  15
ATOM     15  C   UNL A   1      32.930  22.806  24.839  1.00  0.00     0.133 C 
BRANCH  15  16
ATOM     16  C   UNL A   1      31.614  22.767  25.561  1.00  0.00     0.390 C 
ATOM     17  F   UNL A   1      31.342  21.549  26.057  1.00  0.00    -0.171 F 
ATOM     18  F   UNL A   1      31.662  23.619  26.618  1.00  0.00    -0.171 F 
ATOM     19  F   UNL A   1      30.588  23.174  24.789  1.00  0.00    -0.171 F 
ENDBRANCH  15  16
ENDBRANCH   7  15
ENDBRANCH   4   7
ENDBRANCH   2   3
ENDBRANCH   1   2
BRANCH   1  20
ATOM     20  C   UNL A   1      38.951  22.881  26.026  1.00  0.00     0.118 C 
BRANCH  20  21
ATOM     21  N   UNL A   1      40.353  23.006  26.441  1.00  0.00    -0.352 N 
ATOM     22  C   UNL A   1      41.023  24.145  26.870  1.00  0.00     0.251 C 
ATOM     23  H   UNL A   1      40.886  22.179  26.411  1.00  0.00     0.163 HD
ATOM     24  O   UNL A   1      42.200  24.131  27.187  1.00  0.00    -0.269 OA
BRANCH  22  25
ATOM     25  C   UNL A   1      40.218  25.373  27.028  1.00  0.00     0.039 A 
ATOM     26  C   UNL A   1      40.658  26.507  26.339  1.00  0.00     0.014 A 
ATOM     27  C   UNL A   1      39.349  25.470  28.110  1.00  0.00     0.014 A 
ATOM     28  C   UNL A   1      40.440  27.757  26.906  1.00  0.00     0.010 A 
ATOM     29  C   UNL A   1      39.241  26.698  28.732  1.00  0.00     0.010 A 
ATOM     30  C   UNL A   1      39.853  27.827  28.169  1.00  0.00    -0.014 A 
BRANCH  30  31
ATOM     31  C   UNL A   1      39.982  28.999  29.032  1.00  0.00     0.031 A 
ATOM     32  C   UNL A   1      38.964  30.070  28.986  1.00  0.00     0.074 A 
ATOM     33  C   UNL A   1      41.023  29.108  29.893  1.00  0.00     0.049 A 
ATOM     34  N   UNL A   1      39.160  31.267  29.428  1.00  0.00    -0.248 NA
ATOM     35  C   UNL A   1      37.665  29.914  28.336  1.00  0.00     0.031 C 
ATOM     36  C   UNL A   1      41.168  30.063  30.991  1.00  0.00     0.029 A 
ATOM     37  N   UNL A   1      42.293  28.539  29.762  1.00  0.00    -0.354 N 
ATOM     38  C   UNL A   1      37.956  31.924  29.408  1.00  0.00     0.074 A 
ATOM     39  C   UNL A   1      37.103  31.098  28.596  1.00  0.00     0.031 C 
ATOM     40  C   UNL A   1      42.472  30.226  31.257  1.00  0.00     0.029 A 
ATOM     41  C   UNL A   1      43.216  29.478  30.263  1.00  0.00     0.049 A 
ATOM     42  H   UNL A   1      42.502  27.652  29.391  1.00  0.00     0.167 HD
ATOM     43  C   UNL A   1      37.797  33.019  30.201  1.00  0.00     0.034 A 
ATOM     44  C   UNL A   1      44.216  29.982  29.486  1.00  0.00     0.034 A 
ATOM     45  C   UNL A   1      39.096  33.534  30.651  1.00  0.00     0.049 A 
ATOM     46  C   UNL A   1      44.160  31.482  29.312  1.00  0.00     0.074 A 
ATOM     47  C   UNL A   1      39.748  33.572  31.870  1.00  0.00     0.029 A 
ATOM     48  N   UNL A   1      40.036  33.915  29.694  1.00  0.00    -0.354 N 
ATOM     49  N   UNL A   1      43.135  32.222  29.638  1.00  0.00    -0.248 NA
ATOM     50  C   UNL A   1      45.247  32.264  28.734  1.00  0.00     0.031 C 
ATOM     51  C   UNL A   1      41.113  33.900  31.625  1.00  0.00     0.029 A 
ATOM     52  C   UNL A   1      41.278  34.108  30.266  1.00  0.00     0.049 A 
ATOM     53  H   UNL A   1      39.840  34.032  28.736  1.00  0.00     0.167 HD
ATOM     54  C   UNL A   1      43.375  33.528  29.286  1.00  0.00     0.074 A 
ATOM     55  C   UNL A   1      44.728  33.505  28.760  1.00  0.00     0.031 C 
ATOM     56  C   UNL A   1      42.422  34.501  29.442  1.00  0.00     0.034 A 
BRANCH  43  57
ATOM     57  C   UNL A   1      36.467  33.521  30.741  1.00  0.00     0.023 A 
ATOM     58  C   UNL A   1      35.547  34.111  29.844  1.00  0.00     0.031 A 
ATOM     59  C   UNL A   1      36.092  33.593  32.103  1.00  0.00     0.131 A 
ATOM     60  C   UNL A   1      34.367  34.737  30.300  1.00  0.00     0.055 A 
ATOM     61  C   UNL A   1      34.892  34.163  32.549  1.00  0.00     0.041 A 
ATOM     62  F   UNL A   1      36.879  33.179  33.099  1.00  0.00    -0.206 F 
ATOM     63  C   UNL A   1      34.025  34.750  31.648  1.00  0.00     0.022 A 
BRANCH  60  64
ATOM     64  S   UNL A   1      33.311  35.621  29.119  1.00  0.00     0.124 S 
ATOM     65  O   UNL A   1      34.293  36.295  28.274  1.00  0.00    -0.237 OA
ATOM     66  O   UNL A   1      32.557  34.537  28.503  1.00  0.00    -0.237 OA
ATOM     67  O   UNL A   1      32.523  36.512  29.971  1.00  0.00    -0.744 OA
ENDBRANCH  60  64
ENDBRANCH  43  57
BRANCH  44  68
ATOM     68  C   UNL A   1      44.741  28.998  28.500  1.00  0.00     0.023 A 
ATOM     69  C   UNL A   1      45.486  27.918  29.018  1.00  0.00     0.031 A 
ATOM     70  C   UNL A   1      44.205  28.868  27.214  1.00  0.00     0.131 A 
ATOM     71  C   UNL A   1      45.529  26.696  28.335  1.00  0.00     0.055 A 
ATOM     72  C   UNL A   1      44.308  27.665  26.503  1.00  0.00     0.041 A 
ATOM     73  F   UNL A   1      43.452  29.846  26.686  1.00  0.00    -0.206 F 
ATOM     74  C   UNL A   1      44.932  26.558  27.081  1.00  0.00     0.022 A 
BRANCH  71  75
ATOM     75  S   UNL A   1      46.115  25.227  29.233  1.00  0.00     0.124 S 
ATOM     76  O   UNL A   1      46.883  24.532  28.207  1.00  0.00    -0.237 OA
ATOM     77  O   UNL A   1      46.887  25.810  30.329  1.00  0.00    -0.237 OA
ATOM     78  O   UNL A   1      44.879  24.571  29.655  1.00  0.00    -0.744 OA
ENDBRANCH  71  75
ENDBRANCH  44  68
BRANCH  56  79
ATOM     79  C   UNL A   1      42.488  35.921  28.896  1.00  0.00     0.023 A 
ATOM     80  C   UNL A   1      43.215  36.962  29.494  1.00  0.00     0.031 A 
ATOM     81  C   UNL A   1      41.847  36.263  27.676  1.00  0.00     0.131 A 
ATOM     82  C   UNL A   1      43.221  38.264  28.954  1.00  0.00     0.055 A 
ATOM     83  C   UNL A   1      41.915  37.537  27.101  1.00  0.00     0.041 A 
ATOM     84  F   UNL A   1      41.132  35.370  26.977  1.00  0.00    -0.206 F 
ATOM     85  C   UNL A   1      42.591  38.556  27.750  1.00  0.00     0.022 A 
BRANCH  82  86
ATOM     86  S   UNL A   1      44.024  39.585  29.902  1.00  0.00     0.124 S 
ATOM     87  O   UNL A   1      44.706  38.831  30.951  1.00  0.00    -0.237 OA
ATOM     88  O   UNL A   1      44.890  40.205  28.905  1.00  0.00    -0.237 OA
ATOM     89  O   UNL A   1      42.909  40.412  30.359  1.00  0.00    -0.744 OA
ENDBRANCH  82  86
ENDBRANCH  56  79
ENDBRANCH  30  31
ENDBRANCH  22  25
ENDBRANCH  20  21
ENDBRANCH   1  20
TORSDOF 16
ENDMDL
