MODEL 1
REMARK VINA RESULT:     -10.7      0.000      0.000
REMARK SMILES CCc1cccc2c3c([nH]c12)[C@](CC)(CC(=O)NCCCNC(=O)c1ccc(-c2c4nc(c(-c5cc(S(=O)(=O)[O-])ccc5F)c5ccc([nH]5)c(-c5cc(S(=O)(=O)[O-])ccc5F)c5nc(c(-c6cc(S(=O)(=O)[O-])ccc6F)c6ccc2[nH]6)C=C5)C=C4)cc1)OCC3
REMARK SMILES IDX 20 1 19 2 18 3 16 4 17 5 15 7 12 8 3 9 4 10 11 11 5 12 7 13
REMARK SMILES IDX 10 14 6 15 8 16 9 17 90 19 89 20 88 21 2 22 1 23 13 24 14 25
REMARK SMILES IDX 21 26 22 27 23 28 24 30 25 31 26 32 87 33 27 34 86 35 28 36
REMARK SMILES IDX 29 37 30 38 80 39 31 40 85 41 79 42 81 43 32 44 84 45 78 46
REMARK SMILES IDX 77 47 33 49 65 50 45 51 64 52 46 53 49 54 63 55 82 56 47 57
REMARK SMILES IDX 48 58 62 60 83 61 50 62 34 63 35 64 43 65 36 66 42 67 44 68
REMARK SMILES IDX 41 69 37 70 38 71 39 72 40 73 66 74 67 75 75 76 68 77 74 78
REMARK SMILES IDX 76 79 73 80 69 81 70 82 71 83 72 84 51 85 52 86 60 87 53 88
REMARK SMILES IDX 59 89 61 90 58 91 54 92 55 93 56 94 57 95
REMARK H PARENT 18 6 10 18 22 29 81 48 49 59
REMARK Flexibility Score: inf
ROOT
ATOM      1  C   UNL A   1      34.782  34.412  29.668  1.00  0.00     0.042 C 
ENDROOT
BRANCH   1   2
ATOM      2  C   UNL A   1      35.732  33.817  30.728  1.00  0.00     0.117 C 
BRANCH   2   3
ATOM      3  N   UNL A   1      35.829  34.582  31.972  1.00  0.00    -0.356 N 
ATOM      4  C   UNL A   1      35.839  34.218  33.291  1.00  0.00     0.223 C 
ATOM      5  O   UNL A   1      35.801  35.124  34.128  1.00  0.00    -0.275 OA
ATOM      6  H   UNL A   1      35.902  35.553  31.831  1.00  0.00     0.163 HD
BRANCH   4   7
ATOM      7  C   UNL A   1      35.986  32.772  33.705  1.00  0.00     0.142 C 
BRANCH   7   8
ATOM      8  C   UNL A   1      37.377  32.208  34.085  1.00  0.00     0.117 C 
ATOM      9  C   UNL A   1      41.498  34.372  32.030  1.00  0.00    -0.024 A 
ATOM     10  C   UNL A   1      42.455  35.259  32.579  1.00  0.00     0.006 A 
ATOM     11  C   UNL A   1      40.399  34.067  32.867  1.00  0.00     0.049 A 
ATOM     12  C   UNL A   1      42.339  35.791  33.860  1.00  0.00     0.001 A 
ATOM     13  C   UNL A   1      40.300  34.547  34.171  1.00  0.00     0.003 A 
ATOM     14  N   UNL A   1      39.284  33.261  32.658  1.00  0.00    -0.356 N 
ATOM     15  C   UNL A   1      41.271  35.430  34.673  1.00  0.00     0.010 A 
ATOM     16  C   UNL A   1      39.205  33.888  34.770  1.00  0.00    -0.014 A 
ATOM     17  C   UNL A   1      38.551  33.135  33.818  1.00  0.00     0.052 A 
ATOM     18  H   UNL A   1      39.052  32.839  31.800  1.00  0.00     0.166 HD
ATOM     19  C   UNL A   1      38.864  33.826  36.198  1.00  0.00     0.066 C 
ATOM     20  C   UNL A   1      37.674  32.906  36.420  1.00  0.00     0.166 C 
ATOM     21  O   UNL A   1      37.470  31.842  35.484  1.00  0.00    -0.368 OA
BRANCH   9  22
ATOM     22  C   UNL A   1      41.670  33.743  30.668  1.00  0.00     0.034 C 
ATOM     23  C   UNL A   1      42.668  34.412  29.727  1.00  0.00     0.009 C 
ENDBRANCH   9  22
BRANCH   8  24
ATOM     24  C   UNL A   1      37.585  30.862  33.317  1.00  0.00     0.039 C 
ATOM     25  C   UNL A   1      36.526  30.547  32.258  1.00  0.00     0.007 C 
ENDBRANCH   8  24
ENDBRANCH   7   8
ENDBRANCH   4   7
ENDBRANCH   2   3
ENDBRANCH   1   2
BRANCH   1  26
ATOM     26  C   UNL A   1      35.095  34.063  28.210  1.00  0.00     0.118 C 
BRANCH  26  27
ATOM     27  N   UNL A   1      34.485  32.857  27.707  1.00  0.00    -0.352 N 
ATOM     28  C   UNL A   1      34.802  31.532  27.829  1.00  0.00     0.251 C 
ATOM     29  H   UNL A   1      33.678  33.021  27.168  1.00  0.00     0.163 HD
ATOM     30  O   UNL A   1      33.983  30.722  27.392  1.00  0.00    -0.269 OA
BRANCH  28  31
ATOM     31  C   UNL A   1      36.099  31.041  28.361  1.00  0.00     0.039 A 
ATOM     32  C   UNL A   1      37.177  31.842  28.741  1.00  0.00     0.014 A 
ATOM     33  C   UNL A   1      36.216  29.647  28.480  1.00  0.00     0.014 A 
ATOM     34  C   UNL A   1      38.398  31.263  29.072  1.00  0.00     0.010 A 
ATOM     35  C   UNL A   1      37.417  29.066  28.866  1.00  0.00     0.010 A 
ATOM     36  C   UNL A   1      38.530  29.873  29.094  1.00  0.00    -0.014 A 
BRANCH  36  37
ATOM     37  C   UNL A   1      39.850  29.313  29.378  1.00  0.00     0.031 A 
ATOM     38  C   UNL A   1      40.132  28.913  30.790  1.00  0.00     0.074 A 
ATOM     39  C   UNL A   1      40.749  29.044  28.411  1.00  0.00     0.049 A 
ATOM     40  N   UNL A   1      41.056  29.341  31.593  1.00  0.00    -0.248 NA
ATOM     41  C   UNL A   1      39.210  27.948  31.402  1.00  0.00     0.031 C 
ATOM     42  C   UNL A   1      40.550  29.048  26.958  1.00  0.00     0.029 A 
ATOM     43  N   UNL A   1      42.026  28.594  28.548  1.00  0.00    -0.354 N 
ATOM     44  C   UNL A   1      40.934  28.592  32.767  1.00  0.00     0.074 A 
ATOM     45  C   UNL A   1      39.716  27.831  32.630  1.00  0.00     0.031 C 
ATOM     46  C   UNL A   1      41.576  28.395  26.369  1.00  0.00     0.029 A 
ATOM     47  C   UNL A   1      42.571  28.088  27.382  1.00  0.00     0.049 A 
ATOM     48  H   UNL A   1      42.518  28.625  29.400  1.00  0.00     0.167 HD
ATOM     49  C   UNL A   1      41.910  28.534  33.720  1.00  0.00     0.034 A 
ATOM     50  C   UNL A   1      43.721  27.384  27.267  1.00  0.00     0.034 A 
ATOM     51  C   UNL A   1      42.881  29.578  33.556  1.00  0.00     0.049 A 
ATOM     52  C   UNL A   1      44.547  27.643  28.469  1.00  0.00     0.074 A 
ATOM     53  C   UNL A   1      42.870  30.952  33.661  1.00  0.00     0.029 A 
ATOM     54  N   UNL A   1      44.068  29.259  32.947  1.00  0.00    -0.354 N 
ATOM     55  N   UNL A   1      45.105  28.787  28.752  1.00  0.00    -0.248 NA
ATOM     56  C   UNL A   1      44.443  26.708  29.577  1.00  0.00     0.031 C 
ATOM     57  C   UNL A   1      43.819  31.404  32.701  1.00  0.00     0.029 A 
ATOM     58  C   UNL A   1      44.363  30.277  32.080  1.00  0.00     0.049 A 
ATOM     59  H   UNL A   1      44.607  28.450  33.105  1.00  0.00     0.167 HD
ATOM     60  C   UNL A   1      45.034  28.881  30.134  1.00  0.00     0.074 A 
ATOM     61  C   UNL A   1      44.736  27.526  30.588  1.00  0.00     0.031 C 
ATOM     62  C   UNL A   1      44.953  30.089  30.768  1.00  0.00     0.034 A 
BRANCH  49  63
ATOM     63  C   UNL A   1      42.138  27.375  34.667  1.00  0.00     0.023 A 
ATOM     64  C   UNL A   1      42.886  26.239  34.310  1.00  0.00     0.031 A 
ATOM     65  C   UNL A   1      41.792  27.475  36.033  1.00  0.00     0.131 A 
ATOM     66  C   UNL A   1      43.235  25.261  35.254  1.00  0.00     0.055 A 
ATOM     67  C   UNL A   1      42.199  26.533  36.988  1.00  0.00     0.041 A 
ATOM     68  F   UNL A   1      41.091  28.523  36.497  1.00  0.00    -0.206 F 
ATOM     69  C   UNL A   1      42.923  25.415  36.599  1.00  0.00     0.022 A 
BRANCH  66  70
ATOM     70  S   UNL A   1      44.107  23.760  34.727  1.00  0.00     0.124 S 
ATOM     71  O   UNL A   1      45.198  24.317  33.926  1.00  0.00    -0.237 OA
ATOM     72  O   UNL A   1      44.503  23.181  36.011  1.00  0.00    -0.237 OA
ATOM     73  O   UNL A   1      43.095  23.015  34.000  1.00  0.00    -0.744 OA
ENDBRANCH  66  70
ENDBRANCH  49  63
BRANCH  50  74
ATOM     74  C   UNL A   1      43.888  26.170  26.438  1.00  0.00     0.023 A 
ATOM     75  C   UNL A   1      43.042  25.062  26.647  1.00  0.00     0.031 A 
ATOM     76  C   UNL A   1      45.031  25.975  25.651  1.00  0.00     0.131 A 
ATOM     77  C   UNL A   1      43.365  23.808  26.115  1.00  0.00     0.055 A 
ATOM     78  C   UNL A   1      45.347  24.723  25.109  1.00  0.00     0.041 A 
ATOM     79  F   UNL A   1      45.894  26.981  25.444  1.00  0.00    -0.206 F 
ATOM     80  C   UNL A   1      44.519  23.630  25.350  1.00  0.00     0.022 A 
BRANCH  77  81
ATOM     81  S   UNL A   1      42.320  22.368  26.464  1.00  0.00     0.124 S 
ATOM     82  O   UNL A   1      42.786  21.963  27.789  1.00  0.00    -0.237 OA
ATOM     83  O   UNL A   1      40.984  22.953  26.421  1.00  0.00    -0.237 OA
ATOM     84  O   UNL A   1      42.645  21.439  25.387  1.00  0.00    -0.744 OA
ENDBRANCH  77  81
ENDBRANCH  50  74
BRANCH  62  85
ATOM     85  C   UNL A   1      45.195  31.358  29.979  1.00  0.00     0.023 A 
ATOM     86  C   UNL A   1      44.550  31.484  28.734  1.00  0.00     0.031 A 
ATOM     87  C   UNL A   1      46.213  32.283  30.280  1.00  0.00     0.131 A 
ATOM     88  C   UNL A   1      44.960  32.465  27.823  1.00  0.00     0.055 A 
ATOM     89  C   UNL A   1      46.569  33.305  29.396  1.00  0.00     0.041 A 
ATOM     90  F   UNL A   1      46.956  32.168  31.387  1.00  0.00    -0.206 F 
ATOM     91  C   UNL A   1      45.955  33.389  28.152  1.00  0.00     0.022 A 
BRANCH  88  92
ATOM     92  S   UNL A   1      44.330  32.463  26.124  1.00  0.00     0.124 S 
ATOM     93  O   UNL A   1      43.522  31.246  26.095  1.00  0.00    -0.237 OA
ATOM     94  O   UNL A   1      43.574  33.713  26.074  1.00  0.00    -0.237 OA
ATOM     95  O   UNL A   1      45.532  32.432  25.298  1.00  0.00    -0.744 OA
ENDBRANCH  88  92
ENDBRANCH  62  85
ENDBRANCH  36  37
ENDBRANCH  28  31
ENDBRANCH  26  27
ENDBRANCH   1  26
TORSDOF 16
ENDMDL
MODEL 2
REMARK VINA RESULT:     -10.7      4.626     10.921
REMARK SMILES CCc1cccc2c3c([nH]c12)[C@](CC)(CC(=O)NCCCNC(=O)c1ccc(-c2c4nc(c(-c5cc(S(=O)(=O)[O-])ccc5F)c5ccc([nH]5)c(-c5cc(S(=O)(=O)[O-])ccc5F)c5nc(c(-c6cc(S(=O)(=O)[O-])ccc6F)c6ccc2[nH]6)C=C5)C=C4)cc1)OCC3
REMARK SMILES IDX 20 1 19 2 18 3 16 4 17 5 15 7 12 8 3 9 4 10 11 11 5 12 7 13
REMARK SMILES IDX 10 14 6 15 8 16 9 17 90 19 89 20 88 21 2 22 1 23 13 24 14 25
REMARK SMILES IDX 21 26 22 27 23 28 24 30 25 31 26 32 87 33 27 34 86 35 28 36
REMARK SMILES IDX 29 37 30 38 80 39 31 40 85 41 79 42 81 43 32 44 84 45 78 46
REMARK SMILES IDX 77 47 33 49 65 50 45 51 64 52 46 53 49 54 63 55 82 56 47 57
REMARK SMILES IDX 48 58 62 60 83 61 50 62 34 63 35 64 43 65 36 66 42 67 44 68
REMARK SMILES IDX 41 69 37 70 38 71 39 72 40 73 66 74 67 75 75 76 68 77 74 78
REMARK SMILES IDX 76 79 73 80 69 81 70 82 71 83 72 84 51 85 52 86 60 87 53 88
REMARK SMILES IDX 59 89 61 90 58 91 54 92 55 93 56 94 57 95
REMARK H PARENT 18 6 10 18 22 29 81 48 49 59
REMARK Flexibility Score: inf
ROOT
ATOM      1  C   UNL A   1      37.889  21.029  25.084  1.00  0.00     0.042 C 
ENDROOT
BRANCH   1   2
ATOM      2  C   UNL A   1      36.400  21.434  25.093  1.00  0.00     0.117 C 
BRANCH   2   3
ATOM      3  N   UNL A   1      35.902  21.935  26.373  1.00  0.00    -0.356 N 
ATOM      4  C   UNL A   1      34.644  22.172  26.856  1.00  0.00     0.223 C 
ATOM      5  O   UNL A   1      34.554  22.729  27.953  1.00  0.00    -0.275 OA
ATOM      6  H   UNL A   1      36.616  22.143  27.018  1.00  0.00     0.163 HD
BRANCH   4   7
ATOM      7  C   UNL A   1      33.417  21.686  26.119  1.00  0.00     0.142 C 
BRANCH   7   8
ATOM      8  C   UNL A   1      32.322  22.690  25.681  1.00  0.00     0.117 C 
ATOM      9  C   UNL A   1      33.475  27.645  25.638  1.00  0.00    -0.024 A 
ATOM     10  C   UNL A   1      33.760  28.525  24.566  1.00  0.00     0.006 A 
ATOM     11  C   UNL A   1      33.318  26.285  25.284  1.00  0.00     0.049 A 
ATOM     12  C   UNL A   1      33.868  28.093  23.246  1.00  0.00     0.001 A 
ATOM     13  C   UNL A   1      33.366  25.848  23.961  1.00  0.00     0.003 A 
ATOM     14  N   UNL A   1      33.051  25.161  26.061  1.00  0.00    -0.356 N 
ATOM     15  C   UNL A   1      33.659  26.756  22.930  1.00  0.00     0.010 A 
ATOM     16  C   UNL A   1      32.969  24.494  23.961  1.00  0.00    -0.014 A 
ATOM     17  C   UNL A   1      32.825  24.061  25.262  1.00  0.00     0.052 A 
ATOM     18  H   UNL A   1      33.027  25.154  27.044  1.00  0.00     0.166 HD
ATOM     19  C   UNL A   1      32.582  23.671  22.806  1.00  0.00     0.066 C 
ATOM     20  C   UNL A   1      32.105  22.302  23.267  1.00  0.00     0.166 C 
ATOM     21  O   UNL A   1      31.526  22.203  24.573  1.00  0.00    -0.368 OA
BRANCH   9  22
ATOM     22  C   UNL A   1      33.287  28.135  27.053  1.00  0.00     0.034 C 
ATOM     23  C   UNL A   1      31.857  28.159  27.584  1.00  0.00     0.009 C 
ENDBRANCH   9  22
BRANCH   8  24
ATOM     24  C   UNL A   1      31.301  22.842  26.855  1.00  0.00     0.039 C 
ATOM     25  C   UNL A   1      30.000  23.563  26.497  1.00  0.00     0.007 C 
ENDBRANCH   8  24
ENDBRANCH   7   8
ENDBRANCH   4   7
ENDBRANCH   2   3
ENDBRANCH   1   2
BRANCH   1  26
ATOM     26  C   UNL A   1      38.789  21.747  26.094  1.00  0.00     0.118 C 
BRANCH  26  27
ATOM     27  N   UNL A   1      40.187  21.825  25.746  1.00  0.00    -0.352 N 
ATOM     28  C   UNL A   1      41.194  22.669  26.127  1.00  0.00     0.251 C 
ATOM     29  H   UNL A   1      40.472  21.133  25.108  1.00  0.00     0.163 HD
ATOM     30  O   UNL A   1      42.332  22.377  25.754  1.00  0.00    -0.269 OA
BRANCH  28  31
ATOM     31  C   UNL A   1      40.973  23.938  26.864  1.00  0.00     0.039 A 
ATOM     32  C   UNL A   1      39.989  24.884  26.575  1.00  0.00     0.014 A 
ATOM     33  C   UNL A   1      41.843  24.174  27.940  1.00  0.00     0.014 A 
ATOM     34  C   UNL A   1      39.979  26.110  27.233  1.00  0.00     0.010 A 
ATOM     35  C   UNL A   1      41.799  25.374  28.638  1.00  0.00     0.010 A 
ATOM     36  C   UNL A   1      40.913  26.372  28.238  1.00  0.00    -0.014 A 
BRANCH  36  37
ATOM     37  C   UNL A   1      40.909  27.699  28.850  1.00  0.00     0.031 A 
ATOM     38  C   UNL A   1      41.886  28.697  28.319  1.00  0.00     0.074 A 
ATOM     39  C   UNL A   1      39.997  28.073  29.768  1.00  0.00     0.049 A 
ATOM     40  N   UNL A   1      42.835  29.324  28.941  1.00  0.00    -0.248 NA
ATOM     41  C   UNL A   1      41.826  28.982  26.880  1.00  0.00     0.031 C 
ATOM     42  C   UNL A   1      38.773  27.372  30.172  1.00  0.00     0.029 A 
ATOM     43  N   UNL A   1      39.927  29.244  30.460  1.00  0.00    -0.354 N 
ATOM     44  C   UNL A   1      43.403  30.200  28.012  1.00  0.00     0.074 A 
ATOM     45  C   UNL A   1      42.815  29.866  26.738  1.00  0.00     0.031 C 
ATOM     46  C   UNL A   1      37.974  28.231  30.844  1.00  0.00     0.029 A 
ATOM     47  C   UNL A   1      38.701  29.469  31.060  1.00  0.00     0.049 A 
ATOM     48  H   UNL A   1      40.681  29.873  30.526  1.00  0.00     0.167 HD
ATOM     49  C   UNL A   1      44.216  31.239  28.365  1.00  0.00     0.034 A 
ATOM     50  C   UNL A   1      38.277  30.625  31.620  1.00  0.00     0.034 A 
ATOM     51  C   UNL A   1      44.696  31.110  29.711  1.00  0.00     0.049 A 
ATOM     52  C   UNL A   1      39.464  31.456  31.927  1.00  0.00     0.074 A 
ATOM     53  C   UNL A   1      45.532  30.238  30.375  1.00  0.00     0.029 A 
ATOM     54  N   UNL A   1      44.069  31.843  30.687  1.00  0.00    -0.354 N 
ATOM     55  N   UNL A   1      40.351  31.172  32.839  1.00  0.00    -0.248 NA
ATOM     56  C   UNL A   1      39.876  32.441  30.939  1.00  0.00     0.031 C 
ATOM     57  C   UNL A   1      45.021  30.172  31.702  1.00  0.00     0.029 A 
ATOM     58  C   UNL A   1      43.913  31.021  31.771  1.00  0.00     0.049 A 
ATOM     59  H   UNL A   1      43.786  32.783  30.621  1.00  0.00     0.167 HD
ATOM     60  C   UNL A   1      41.556  31.608  32.305  1.00  0.00     0.074 A 
ATOM     61  C   UNL A   1      41.182  32.487  31.202  1.00  0.00     0.031 C 
ATOM     62  C   UNL A   1      42.742  31.008  32.627  1.00  0.00     0.034 A 
BRANCH  49  63
ATOM     63  C   UNL A   1      44.387  32.520  27.577  1.00  0.00     0.023 A 
ATOM     64  C   UNL A   1      43.773  33.729  27.951  1.00  0.00     0.031 A 
ATOM     65  C   UNL A   1      45.350  32.616  26.548  1.00  0.00     0.131 A 
ATOM     66  C   UNL A   1      44.084  34.940  27.315  1.00  0.00     0.055 A 
ATOM     67  C   UNL A   1      45.711  33.837  25.960  1.00  0.00     0.041 A 
ATOM     68  F   UNL A   1      46.015  31.532  26.115  1.00  0.00    -0.206 F 
ATOM     69  C   UNL A   1      45.073  35.009  26.341  1.00  0.00     0.022 A 
BRANCH  66  70
ATOM     70  S   UNL A   1      43.187  36.454  27.756  1.00  0.00     0.124 S 
ATOM     71  O   UNL A   1      42.272  36.597  26.623  1.00  0.00    -0.237 OA
ATOM     72  O   UNL A   1      42.561  36.069  29.022  1.00  0.00    -0.237 OA
ATOM     73  O   UNL A   1      44.235  37.452  27.864  1.00  0.00    -0.744 OA
ENDBRANCH  66  70
ENDBRANCH  49  63
BRANCH  50  74
ATOM     74  C   UNL A   1      36.929  31.206  31.435  1.00  0.00     0.023 A 
ATOM     75  C   UNL A   1      36.448  31.453  30.132  1.00  0.00     0.031 A 
ATOM     76  C   UNL A   1      36.230  31.783  32.504  1.00  0.00     0.131 A 
ATOM     77  C   UNL A   1      35.336  32.276  29.927  1.00  0.00     0.055 A 
ATOM     78  C   UNL A   1      35.109  32.596  32.298  1.00  0.00     0.041 A 
ATOM     79  F   UNL A   1      36.656  31.614  33.765  1.00  0.00    -0.206 F 
ATOM     80  C   UNL A   1      34.664  32.856  31.004  1.00  0.00     0.022 A 
BRANCH  77  81
ATOM     81  S   UNL A   1      34.780  32.661  28.244  1.00  0.00     0.124 S 
ATOM     82  O   UNL A   1      33.716  33.633  28.486  1.00  0.00    -0.237 OA
ATOM     83  O   UNL A   1      35.996  33.198  27.645  1.00  0.00    -0.237 OA
ATOM     84  O   UNL A   1      34.329  31.372  27.729  1.00  0.00    -0.744 OA
ENDBRANCH  77  81
ENDBRANCH  50  74
BRANCH  62  85
ATOM     85  C   UNL A   1      42.785  30.018  33.771  1.00  0.00     0.023 A 
ATOM     86  C   UNL A   1      43.358  30.447  34.983  1.00  0.00     0.031 A 
ATOM     87  C   UNL A   1      42.538  28.640  33.621  1.00  0.00     0.131 A 
ATOM     88  C   UNL A   1      43.712  29.514  35.965  1.00  0.00     0.055 A 
ATOM     89  C   UNL A   1      42.828  27.722  34.634  1.00  0.00     0.041 A 
ATOM     90  F   UNL A   1      42.105  28.130  32.461  1.00  0.00    -0.206 F 
ATOM     91  C   UNL A   1      43.435  28.154  35.807  1.00  0.00     0.022 A 
BRANCH  88  92
ATOM     92  S   UNL A   1      44.692  30.021  37.402  1.00  0.00     0.124 S 
ATOM     93  O   UNL A   1      44.508  28.896  38.316  1.00  0.00    -0.237 OA
ATOM     94  O   UNL A   1      46.033  30.147  36.832  1.00  0.00    -0.237 OA
ATOM     95  O   UNL A   1      44.080  31.276  37.827  1.00  0.00    -0.744 OA
ENDBRANCH  88  92
ENDBRANCH  62  85
ENDBRANCH  36  37
ENDBRANCH  28  31
ENDBRANCH  26  27
ENDBRANCH   1  26
TORSDOF 16
ENDMDL
MODEL 3
REMARK VINA RESULT:     -10.6      1.623      2.076
REMARK SMILES CCc1cccc2c3c([nH]c12)[C@](CC)(CC(=O)NCCCNC(=O)c1ccc(-c2c4nc(c(-c5cc(S(=O)(=O)[O-])ccc5F)c5ccc([nH]5)c(-c5cc(S(=O)(=O)[O-])ccc5F)c5nc(c(-c6cc(S(=O)(=O)[O-])ccc6F)c6ccc2[nH]6)C=C5)C=C4)cc1)OCC3
REMARK SMILES IDX 20 1 19 2 18 3 16 4 17 5 15 7 12 8 3 9 4 10 11 11 5 12 7 13
REMARK SMILES IDX 10 14 6 15 8 16 9 17 90 19 89 20 88 21 2 22 1 23 13 24 14 25
REMARK SMILES IDX 21 26 22 27 23 28 24 30 25 31 26 32 87 33 27 34 86 35 28 36
REMARK SMILES IDX 29 37 30 38 80 39 31 40 85 41 79 42 81 43 32 44 84 45 78 46
REMARK SMILES IDX 77 47 33 49 65 50 45 51 64 52 46 53 49 54 63 55 82 56 47 57
REMARK SMILES IDX 48 58 62 60 83 61 50 62 34 63 35 64 43 65 36 66 42 67 44 68
REMARK SMILES IDX 41 69 37 70 38 71 39 72 40 73 66 74 67 75 75 76 68 77 74 78
REMARK SMILES IDX 76 79 73 80 69 81 70 82 71 83 72 84 51 85 52 86 60 87 53 88
REMARK SMILES IDX 59 89 61 90 58 91 54 92 55 93 56 94 57 95
REMARK H PARENT 18 6 10 18 22 29 81 48 49 59
REMARK Flexibility Score: inf
ROOT
ATOM      1  C   UNL A   1      35.190  34.371  31.798  1.00  0.00     0.042 C 
ENDROOT
BRANCH   1   2
ATOM      2  C   UNL A   1      34.547  35.012  33.046  1.00  0.00     0.117 C 
BRANCH   2   3
ATOM      3  N   UNL A   1      34.891  34.373  34.316  1.00  0.00    -0.356 N 
ATOM      4  C   UNL A   1      36.080  33.994  34.877  1.00  0.00     0.223 C 
ATOM      5  O   UNL A   1      36.032  33.349  35.927  1.00  0.00    -0.275 OA
ATOM      6  H   UNL A   1      34.110  34.176  34.881  1.00  0.00     0.163 HD
BRANCH   4   7
ATOM      7  C   UNL A   1      37.401  34.432  34.285  1.00  0.00     0.142 C 
BRANCH   7   8
ATOM      8  C   UNL A   1      38.443  33.378  33.838  1.00  0.00     0.117 C 
ATOM      9  C   UNL A   1      42.128  34.835  30.647  1.00  0.00    -0.024 A 
ATOM     10  C   UNL A   1      43.499  35.108  30.871  1.00  0.00     0.006 A 
ATOM     11  C   UNL A   1      41.362  34.571  31.806  1.00  0.00     0.049 A 
ATOM     12  C   UNL A   1      44.068  35.107  32.142  1.00  0.00     0.001 A 
ATOM     13  C   UNL A   1      41.930  34.510  33.077  1.00  0.00     0.003 A 
ATOM     14  N   UNL A   1      40.010  34.282  31.964  1.00  0.00    -0.356 N 
ATOM     15  C   UNL A   1      43.295  34.794  33.253  1.00  0.00     0.010 A 
ATOM     16  C   UNL A   1      40.932  34.029  33.950  1.00  0.00    -0.014 A 
ATOM     17  C   UNL A   1      39.736  33.939  33.270  1.00  0.00     0.052 A 
ATOM     18  H   UNL A   1      39.342  34.318  31.243  1.00  0.00     0.166 HD
ATOM     19  C   UNL A   1      41.103  33.520  35.320  1.00  0.00     0.066 C 
ATOM     20  C   UNL A   1      39.784  32.987  35.856  1.00  0.00     0.166 C 
ATOM     21  O   UNL A   1      38.833  32.486  34.910  1.00  0.00    -0.368 OA
BRANCH   9  22
ATOM     22  C   UNL A   1      41.537  34.766  29.260  1.00  0.00     0.034 C 
ATOM     23  C   UNL A   1      42.127  35.712  28.217  1.00  0.00     0.009 C 
ENDBRANCH   9  22
BRANCH   8  24
ATOM     24  C   UNL A   1      37.769  32.443  32.781  1.00  0.00     0.039 C 
ATOM     25  C   UNL A   1      37.473  31.021  33.264  1.00  0.00     0.007 C 
ENDBRANCH   8  24
ENDBRANCH   7   8
ENDBRANCH   4   7
ENDBRANCH   2   3
ENDBRANCH   1   2
BRANCH   1  26
ATOM     26  C   UNL A   1      34.649  32.998  31.390  1.00  0.00     0.118 C 
BRANCH  26  27
ATOM     27  N   UNL A   1      34.163  32.891  30.036  1.00  0.00    -0.352 N 
ATOM     28  C   UNL A   1      34.561  32.145  28.960  1.00  0.00     0.251 C 
ATOM     29  H   UNL A   1      33.389  33.469  29.849  1.00  0.00     0.163 HD
ATOM     30  O   UNL A   1      33.835  32.175  27.965  1.00  0.00    -0.269 OA
BRANCH  28  31
ATOM     31  C   UNL A   1      35.845  31.402  28.903  1.00  0.00     0.039 A 
ATOM     32  C   UNL A   1      35.979  30.025  28.723  1.00  0.00     0.014 A 
ATOM     33  C   UNL A   1      37.004  32.182  29.042  1.00  0.00     0.014 A 
ATOM     34  C   UNL A   1      37.225  29.418  28.847  1.00  0.00     0.010 A 
ATOM     35  C   UNL A   1      38.257  31.586  29.109  1.00  0.00     0.010 A 
ATOM     36  C   UNL A   1      38.361  30.197  29.083  1.00  0.00    -0.014 A 
BRANCH  36  37
ATOM     37  C   UNL A   1      39.636  29.509  29.277  1.00  0.00     0.031 A 
ATOM     38  C   UNL A   1      40.014  29.158  30.679  1.00  0.00     0.074 A 
ATOM     39  C   UNL A   1      40.399  29.088  28.249  1.00  0.00     0.049 A 
ATOM     40  N   UNL A   1      41.054  29.522  31.361  1.00  0.00    -0.248 NA
ATOM     41  C   UNL A   1      39.061  28.337  31.437  1.00  0.00     0.031 C 
ATOM     42  C   UNL A   1      40.056  29.035  26.824  1.00  0.00     0.029 A 
ATOM     43  N   UNL A   1      41.628  28.505  28.294  1.00  0.00    -0.354 N 
ATOM     44  C   UNL A   1      40.972  28.857  32.588  1.00  0.00     0.074 A 
ATOM     45  C   UNL A   1      39.673  28.231  32.617  1.00  0.00     0.031 C 
ATOM     46  C   UNL A   1      40.942  28.239  26.186  1.00  0.00     0.029 A 
ATOM     47  C   UNL A   1      41.995  27.878  27.117  1.00  0.00     0.049 A 
ATOM     48  H   UNL A   1      42.203  28.528  29.092  1.00  0.00     0.167 HD
ATOM     49  C   UNL A   1      42.028  28.742  33.447  1.00  0.00     0.034 A 
ATOM     50  C   UNL A   1      43.047  27.045  26.941  1.00  0.00     0.034 A 
ATOM     51  C   UNL A   1      43.083  29.660  33.125  1.00  0.00     0.049 A 
ATOM     52  C   UNL A   1      44.012  27.275  28.040  1.00  0.00     0.074 A 
ATOM     53  C   UNL A   1      43.228  31.031  33.140  1.00  0.00     0.029 A 
ATOM     54  N   UNL A   1      44.162  29.177  32.429  1.00  0.00    -0.354 N 
ATOM     55  N   UNL A   1      44.715  28.363  28.194  1.00  0.00    -0.248 NA
ATOM     56  C   UNL A   1      43.922  26.419  29.212  1.00  0.00     0.031 C 
ATOM     57  C   UNL A   1      44.119  31.320  32.067  1.00  0.00     0.029 A 
ATOM     58  C   UNL A   1      44.474  30.106  31.472  1.00  0.00     0.049 A 
ATOM     59  H   UNL A   1      44.625  28.323  32.587  1.00  0.00     0.167 HD
ATOM     60  C   UNL A   1      44.794  28.539  29.568  1.00  0.00     0.074 A 
ATOM     61  C   UNL A   1      44.401  27.253  30.136  1.00  0.00     0.031 C 
ATOM     62  C   UNL A   1      44.906  29.782  30.126  1.00  0.00     0.034 A 
BRANCH  49  63
ATOM     63  C   UNL A   1      42.225  27.618  34.442  1.00  0.00     0.023 A 
ATOM     64  C   UNL A   1      42.989  26.473  34.152  1.00  0.00     0.031 A 
ATOM     65  C   UNL A   1      41.831  27.766  35.791  1.00  0.00     0.131 A 
ATOM     66  C   UNL A   1      43.307  25.532  35.142  1.00  0.00     0.055 A 
ATOM     67  C   UNL A   1      42.207  26.860  36.793  1.00  0.00     0.041 A 
ATOM     68  F   UNL A   1      41.111  28.826  36.192  1.00  0.00    -0.206 F 
ATOM     69  C   UNL A   1      42.948  25.732  36.469  1.00  0.00     0.022 A 
BRANCH  66  70
ATOM     70  S   UNL A   1      44.202  24.016  34.700  1.00  0.00     0.124 S 
ATOM     71  O   UNL A   1      43.204  22.987  34.997  1.00  0.00    -0.237 OA
ATOM     72  O   UNL A   1      44.472  24.236  33.278  1.00  0.00    -0.237 OA
ATOM     73  O   UNL A   1      45.369  24.045  35.562  1.00  0.00    -0.744 OA
ENDBRANCH  66  70
ENDBRANCH  49  63
BRANCH  50  74
ATOM     74  C   UNL A   1      42.999  25.776  26.181  1.00  0.00     0.023 A 
ATOM     75  C   UNL A   1      42.099  24.764  26.571  1.00  0.00     0.031 A 
ATOM     76  C   UNL A   1      44.007  25.433  25.269  1.00  0.00     0.131 A 
ATOM     77  C   UNL A   1      42.242  23.458  26.088  1.00  0.00     0.055 A 
ATOM     78  C   UNL A   1      44.141  24.129  24.777  1.00  0.00     0.041 A 
ATOM     79  F   UNL A   1      44.915  26.343  24.886  1.00  0.00    -0.206 F 
ATOM     80  C   UNL A   1      43.264  23.132  25.195  1.00  0.00     0.022 A 
BRANCH  77  81
ATOM     81  S   UNL A   1      41.136  22.142  26.665  1.00  0.00     0.124 S 
ATOM     82  O   UNL A   1      39.818  22.681  26.336  1.00  0.00    -0.237 OA
ATOM     83  O   UNL A   1      41.572  21.011  25.854  1.00  0.00    -0.237 OA
ATOM     84  O   UNL A   1      41.425  22.053  28.093  1.00  0.00    -0.744 OA
ENDBRANCH  77  81
ENDBRANCH  50  74
BRANCH  62  85
ATOM     85  C   UNL A   1      45.201  30.971  29.236  1.00  0.00     0.023 A 
ATOM     86  C   UNL A   1      46.507  31.496  29.263  1.00  0.00     0.031 A 
ATOM     87  C   UNL A   1      44.205  31.735  28.599  1.00  0.00     0.131 A 
ATOM     88  C   UNL A   1      46.770  32.759  28.718  1.00  0.00     0.055 A 
ATOM     89  C   UNL A   1      44.489  32.963  27.994  1.00  0.00     0.041 A 
ATOM     90  F   UNL A   1      42.918  31.369  28.627  1.00  0.00    -0.206 F 
ATOM     91  C   UNL A   1      45.772  33.491  28.068  1.00  0.00     0.022 A 
BRANCH  88  92
ATOM     92  S   UNL A   1      48.373  33.560  28.987  1.00  0.00     0.124 S 
ATOM     93  O   UNL A   1      48.972  33.509  27.656  1.00  0.00    -0.237 OA
ATOM     94  O   UNL A   1      47.979  34.892  29.443  1.00  0.00    -0.237 OA
ATOM     95  O   UNL A   1      49.022  32.728  29.995  1.00  0.00    -0.744 OA
ENDBRANCH  88  92
ENDBRANCH  62  85
ENDBRANCH  36  37
ENDBRANCH  28  31
ENDBRANCH  26  27
ENDBRANCH   1  26
TORSDOF 16
ENDMDL
