MODEL 1
REMARK VINA RESULT:     -12.2      0.000      0.000
REMARK SMILES O=C(NCCCNC(=O)c1cc(S(=O)(=O)NCc2ccncc2)c(Cl)cc1Cl)c1ccc(-c2c3nc(c(-c4cc(S(=O)(=O)[O-])ccc4F)c4ccc([nH]4)c(-c4cc(S(=O)(=O)[O-])ccc4F)c4nc(c(-c5cc(S(=O)(=O)[O-])ccc5F)c5ccc2[nH]5)C=C4)C=C3)cc1
REMARK SMILES IDX 5 1 4 2 3 3 1 4 2 5 29 7 30 8 91 9 31 10 90 11 32 12 33 13
REMARK SMILES IDX 34 14 84 15 35 16 89 17 83 18 85 19 36 20 88 21 82 22 81 23
REMARK SMILES IDX 37 25 69 26 49 27 68 28 50 29 53 30 67 31 86 32 51 33 52 34
REMARK SMILES IDX 66 36 87 37 54 38 38 39 39 40 47 41 40 42 46 43 48 44 45 45
REMARK SMILES IDX 41 46 42 47 43 48 44 49 70 50 71 51 79 52 72 53 78 54 80 55
REMARK SMILES IDX 77 56 73 57 74 58 75 59 76 60 55 61 56 62 64 63 57 64 63 65
REMARK SMILES IDX 65 66 62 67 58 68 59 69 60 70 61 71 6 72 7 73 8 74 9 76
REMARK SMILES IDX 10 77 11 78 27 79 12 80 26 81 28 82 24 83 25 84 13 85 14 86
REMARK SMILES IDX 15 87 16 88 17 90 18 91 19 92 23 93 20 94 22 95 21 96
REMARK H PARENT 3 6 85 24 53 35 7 75 16 89
REMARK Flexibility Score: inf
ROOT
ATOM      1  C   UNL A   1      32.872  29.126  23.964  1.00  0.00     0.042 C 
ENDROOT
BRANCH   1   2
ATOM      2  C   UNL A   1      33.015  29.276  25.471  1.00  0.00     0.118 C 
BRANCH   2   3
ATOM      3  N   UNL A   1      32.487  30.539  25.976  1.00  0.00    -0.352 N 
ATOM      4  O   UNL A   1      32.280  32.321  27.336  1.00  0.00    -0.269 OA
ATOM      5  C   UNL A   1      32.967  31.374  26.960  1.00  0.00     0.251 C 
ATOM      6  H   UNL A   1      31.657  30.844  25.544  1.00  0.00     0.163 HD
BRANCH   5   7
ATOM      7  C   UNL A   1      34.288  31.123  27.579  1.00  0.00     0.039 A 
ATOM      8  C   UNL A   1      34.627  29.850  28.029  1.00  0.00     0.014 A 
ATOM      9  C   UNL A   1      35.206  32.172  27.704  1.00  0.00     0.014 A 
ATOM     10  C   UNL A   1      35.783  29.667  28.775  1.00  0.00     0.010 A 
ATOM     11  C   UNL A   1      36.433  31.954  28.345  1.00  0.00     0.010 A 
ATOM     12  C   UNL A   1      36.717  30.707  28.920  1.00  0.00    -0.014 A 
BRANCH  12  13
ATOM     13  C   UNL A   1      37.998  30.410  29.617  1.00  0.00     0.031 A 
ATOM     14  C   UNL A   1      38.266  30.898  31.014  1.00  0.00     0.074 A 
ATOM     15  C   UNL A   1      38.887  29.611  28.993  1.00  0.00     0.049 A 
ATOM     16  N   UNL A   1      39.296  30.652  31.786  1.00  0.00    -0.248 NA
ATOM     17  C   UNL A   1      37.261  31.783  31.624  1.00  0.00     0.031 C 
ATOM     18  C   UNL A   1      38.735  29.094  27.628  1.00  0.00     0.029 A 
ATOM     19  N   UNL A   1      40.063  29.055  29.424  1.00  0.00    -0.354 N 
ATOM     20  C   UNL A   1      39.069  31.353  32.967  1.00  0.00     0.074 A 
ATOM     21  C   UNL A   1      37.820  32.065  32.793  1.00  0.00     0.031 C 
ATOM     22  C   UNL A   1      39.734  28.241  27.365  1.00  0.00     0.029 A 
ATOM     23  C   UNL A   1      40.642  28.211  28.502  1.00  0.00     0.049 A 
ATOM     24  H   UNL A   1      40.457  29.242  30.306  1.00  0.00     0.167 HD
ATOM     25  C   UNL A   1      39.829  31.388  34.091  1.00  0.00     0.034 A 
ATOM     26  C   UNL A   1      41.787  27.504  28.555  1.00  0.00     0.034 A 
ATOM     27  C   UNL A   1      41.075  30.674  34.243  1.00  0.00     0.049 A 
ATOM     28  C   UNL A   1      42.614  27.575  29.810  1.00  0.00     0.074 A 
ATOM     29  C   UNL A   1      41.925  30.642  35.336  1.00  0.00     0.029 A 
ATOM     30  N   UNL A   1      41.654  29.863  33.273  1.00  0.00    -0.354 N 
ATOM     31  N   UNL A   1      42.377  28.244  30.915  1.00  0.00    -0.248 NA
ATOM     32  C   UNL A   1      43.855  26.795  29.826  1.00  0.00     0.031 C 
ATOM     33  C   UNL A   1      43.041  29.863  35.007  1.00  0.00     0.029 A 
ATOM     34  C   UNL A   1      42.857  29.346  33.735  1.00  0.00     0.049 A 
ATOM     35  H   UNL A   1      41.267  29.681  32.386  1.00  0.00     0.167 HD
ATOM     36  C   UNL A   1      43.444  27.960  31.760  1.00  0.00     0.074 A 
ATOM     37  C   UNL A   1      44.295  27.024  31.052  1.00  0.00     0.031 C 
ATOM     38  C   UNL A   1      43.707  28.438  33.004  1.00  0.00     0.034 A 
BRANCH  25  39
ATOM     39  C   UNL A   1      39.349  32.256  35.231  1.00  0.00     0.023 A 
ATOM     40  C   UNL A   1      39.766  33.592  35.370  1.00  0.00     0.031 A 
ATOM     41  C   UNL A   1      38.457  31.743  36.190  1.00  0.00     0.131 A 
ATOM     42  C   UNL A   1      39.332  34.353  36.467  1.00  0.00     0.055 A 
ATOM     43  C   UNL A   1      37.976  32.525  37.243  1.00  0.00     0.041 A 
ATOM     44  F   UNL A   1      38.038  30.470  36.120  1.00  0.00    -0.206 F 
ATOM     45  C   UNL A   1      38.421  33.835  37.392  1.00  0.00     0.022 A 
BRANCH  42  46
ATOM     46  S   UNL A   1      40.056  35.996  36.729  1.00  0.00     0.124 S 
ATOM     47  O   UNL A   1      41.471  35.674  36.900  1.00  0.00    -0.237 OA
ATOM     48  O   UNL A   1      39.707  36.696  35.499  1.00  0.00    -0.237 OA
ATOM     49  O   UNL A   1      39.385  36.480  37.934  1.00  0.00    -0.744 OA
ENDBRANCH  42  46
ENDBRANCH  25  39
BRANCH  26  50
ATOM     50  C   UNL A   1      42.237  26.712  27.376  1.00  0.00     0.023 A 
ATOM     51  C   UNL A   1      41.959  25.341  27.266  1.00  0.00     0.031 A 
ATOM     52  C   UNL A   1      42.994  27.314  26.353  1.00  0.00     0.131 A 
ATOM     53  C   UNL A   1      42.473  24.608  26.185  1.00  0.00     0.055 A 
ATOM     54  C   UNL A   1      43.449  26.595  25.248  1.00  0.00     0.041 A 
ATOM     55  F   UNL A   1      43.288  28.622  26.406  1.00  0.00    -0.206 F 
ATOM     56  C   UNL A   1      43.203  25.229  25.168  1.00  0.00     0.022 A 
BRANCH  53  57
ATOM     57  S   UNL A   1      42.266  22.806  26.179  1.00  0.00     0.124 S 
ATOM     58  O   UNL A   1      42.842  22.442  24.890  1.00  0.00    -0.237 OA
ATOM     59  O   UNL A   1      43.032  22.412  27.357  1.00  0.00    -0.237 OA
ATOM     60  O   UNL A   1      40.819  22.630  26.290  1.00  0.00    -0.744 OA
ENDBRANCH  53  57
ENDBRANCH  26  50
BRANCH  38  61
ATOM     61  C   UNL A   1      44.967  27.930  33.662  1.00  0.00     0.023 A 
ATOM     62  C   UNL A   1      44.959  26.775  34.464  1.00  0.00     0.031 A 
ATOM     63  C   UNL A   1      46.173  28.641  33.535  1.00  0.00     0.131 A 
ATOM     64  C   UNL A   1      46.112  26.409  35.173  1.00  0.00     0.055 A 
ATOM     65  C   UNL A   1      47.336  28.233  34.190  1.00  0.00     0.041 A 
ATOM     66  F   UNL A   1      46.236  29.752  32.784  1.00  0.00    -0.206 F 
ATOM     67  C   UNL A   1      47.305  27.123  35.029  1.00  0.00     0.022 A 
BRANCH  64  68
ATOM     68  S   UNL A   1      45.997  25.061  36.381  1.00  0.00     0.124 S 
ATOM     69  O   UNL A   1      45.816  23.897  35.519  1.00  0.00    -0.237 OA
ATOM     70  O   UNL A   1      47.281  25.150  37.069  1.00  0.00    -0.237 OA
ATOM     71  O   UNL A   1      44.834  25.422  37.189  1.00  0.00    -0.744 OA
ENDBRANCH  64  68
ENDBRANCH  38  61
ENDBRANCH  12  13
ENDBRANCH   5   7
ENDBRANCH   2   3
ENDBRANCH   1   2
BRANCH   1  72
ATOM     72  C   UNL A   1      34.057  28.448  23.297  1.00  0.00     0.118 C 
BRANCH  72  73
ATOM     73  N   UNL A   1      33.668  27.683  22.119  1.00  0.00    -0.352 N 
ATOM     74  C   UNL A   1      33.347  26.358  21.969  1.00  0.00     0.252 C 
ATOM     75  H   UNL A   1      33.629  28.207  21.287  1.00  0.00     0.163 HD
ATOM     76  O   UNL A   1      33.134  25.908  20.847  1.00  0.00    -0.269 OA
BRANCH  74  77
ATOM     77  C   UNL A   1      33.169  25.486  23.148  1.00  0.00     0.059 A 
ATOM     78  C   UNL A   1      34.293  24.835  23.668  1.00  0.00     0.038 A 
ATOM     79  C   UNL A   1      31.947  25.373  23.816  1.00  0.00     0.055 A 
ATOM     80  C   UNL A   1      34.194  24.022  24.807  1.00  0.00     0.101 A 
ATOM     81  C   UNL A   1      31.871  24.630  25.003  1.00  0.00     0.043 A 
ATOM     82  Cl  UNL A   1      30.488  26.083  23.227  1.00  0.00    -0.083 Cl
ATOM     83  C   UNL A   1      32.996  23.966  25.513  1.00  0.00     0.062 A 
ATOM     84  Cl  UNL A   1      32.804  23.132  27.009  1.00  0.00    -0.083 Cl
BRANCH  80  85
ATOM     85  S   UNL A   1      35.614  23.035  25.193  1.00  0.00     0.242 S 
ATOM     86  O   UNL A   1      36.713  23.580  24.418  1.00  0.00    -0.207 OA
ATOM     87  O   UNL A   1      35.697  22.948  26.629  1.00  0.00    -0.207 OA
BRANCH  85  88
ATOM     88  N   UNL A   1      35.343  21.496  24.618  1.00  0.00    -0.207 NA
ATOM     89  H   UNL A   1      36.258  21.049  24.578  1.00  0.00     0.141 HD
BRANCH  88  90
ATOM     90  C   UNL A   1      34.459  20.532  25.263  1.00  0.00     0.134 C 
BRANCH  90  91
ATOM     91  C   UNL A   1      33.934  19.431  24.391  1.00  0.00    -0.030 A 
ATOM     92  C   UNL A   1      32.745  19.590  23.674  1.00  0.00     0.025 A 
ATOM     93  C   UNL A   1      34.554  18.176  24.370  1.00  0.00     0.025 A 
ATOM     94  C   UNL A   1      32.237  18.509  22.973  1.00  0.00     0.111 A 
ATOM     95  C   UNL A   1      33.964  17.152  23.644  1.00  0.00     0.111 A 
ATOM     96  N   UNL A   1      32.827  17.298  22.935  1.00  0.00    -0.265 NA
ENDBRANCH  90  91
ENDBRANCH  88  90
ENDBRANCH  85  88
ENDBRANCH  80  85
ENDBRANCH  74  77
ENDBRANCH  72  73
ENDBRANCH   1  72
TORSDOF 17
ENDMDL
MODEL 2
REMARK VINA RESULT:     -12.0      1.980      2.244
REMARK SMILES O=C(NCCCNC(=O)c1cc(S(=O)(=O)NCc2ccncc2)c(Cl)cc1Cl)c1ccc(-c2c3nc(c(-c4cc(S(=O)(=O)[O-])ccc4F)c4ccc([nH]4)c(-c4cc(S(=O)(=O)[O-])ccc4F)c4nc(c(-c5cc(S(=O)(=O)[O-])ccc5F)c5ccc2[nH]5)C=C4)C=C3)cc1
REMARK SMILES IDX 5 1 4 2 3 3 1 4 2 5 29 7 30 8 91 9 31 10 90 11 32 12 33 13
REMARK SMILES IDX 34 14 84 15 35 16 89 17 83 18 85 19 36 20 88 21 82 22 81 23
REMARK SMILES IDX 37 25 69 26 49 27 68 28 50 29 53 30 67 31 86 32 51 33 52 34
REMARK SMILES IDX 66 36 87 37 54 38 38 39 39 40 47 41 40 42 46 43 48 44 45 45
REMARK SMILES IDX 41 46 42 47 43 48 44 49 70 50 71 51 79 52 72 53 78 54 80 55
REMARK SMILES IDX 77 56 73 57 74 58 75 59 76 60 55 61 56 62 64 63 57 64 63 65
REMARK SMILES IDX 65 66 62 67 58 68 59 69 60 70 61 71 6 72 7 73 8 74 9 76
REMARK SMILES IDX 10 77 11 78 27 79 12 80 26 81 28 82 24 83 25 84 13 85 14 86
REMARK SMILES IDX 15 87 16 88 17 90 18 91 19 92 23 93 20 94 22 95 21 96
REMARK H PARENT 3 6 85 24 53 35 7 75 16 89
REMARK Flexibility Score: inf
ROOT
ATOM      1  C   UNL A   1      33.092  29.106  23.705  1.00  0.00     0.042 C 
ENDROOT
BRANCH   1   2
ATOM      2  C   UNL A   1      33.347  29.197  25.202  1.00  0.00     0.118 C 
BRANCH   2   3
ATOM      3  N   UNL A   1      32.756  30.382  25.815  1.00  0.00    -0.352 N 
ATOM      4  O   UNL A   1      32.436  32.001  27.345  1.00  0.00    -0.269 OA
ATOM      5  C   UNL A   1      33.169  31.122  26.900  1.00  0.00     0.251 C 
ATOM      6  H   UNL A   1      31.932  30.703  25.385  1.00  0.00     0.163 HD
BRANCH   5   7
ATOM      7  C   UNL A   1      34.476  30.849  27.540  1.00  0.00     0.039 A 
ATOM      8  C   UNL A   1      34.797  29.564  27.971  1.00  0.00     0.014 A 
ATOM      9  C   UNL A   1      35.397  31.889  27.707  1.00  0.00     0.014 A 
ATOM     10  C   UNL A   1      35.936  29.358  28.737  1.00  0.00     0.010 A 
ATOM     11  C   UNL A   1      36.609  31.650  28.370  1.00  0.00     0.010 A 
ATOM     12  C   UNL A   1      36.873  30.389  28.924  1.00  0.00    -0.014 A 
BRANCH  12  13
ATOM     13  C   UNL A   1      38.137  30.069  29.641  1.00  0.00     0.031 A 
ATOM     14  C   UNL A   1      38.410  30.588  31.026  1.00  0.00     0.074 A 
ATOM     15  C   UNL A   1      39.003  29.222  29.049  1.00  0.00     0.049 A 
ATOM     16  N   UNL A   1      39.424  30.330  31.814  1.00  0.00    -0.248 NA
ATOM     17  C   UNL A   1      37.431  31.524  31.600  1.00  0.00     0.031 C 
ATOM     18  C   UNL A   1      38.845  28.670  27.698  1.00  0.00     0.029 A 
ATOM     19  N   UNL A   1      40.156  28.639  29.507  1.00  0.00    -0.354 N 
ATOM     20  C   UNL A   1      39.211  31.072  32.972  1.00  0.00     0.074 A 
ATOM     21  C   UNL A   1      37.989  31.821  32.766  1.00  0.00     0.031 C 
ATOM     22  C   UNL A   1      39.816  27.777  27.470  1.00  0.00     0.029 A 
ATOM     23  C   UNL A   1      40.714  27.749  28.616  1.00  0.00     0.049 A 
ATOM     24  H   UNL A   1      40.548  28.838  30.387  1.00  0.00     0.167 HD
ATOM     25  C   UNL A   1      39.962  31.114  34.102  1.00  0.00     0.034 A 
ATOM     26  C   UNL A   1      41.832  27.006  28.700  1.00  0.00     0.034 A 
ATOM     27  C   UNL A   1      41.182  30.362  34.287  1.00  0.00     0.049 A 
ATOM     28  C   UNL A   1      42.651  27.085  29.960  1.00  0.00     0.074 A 
ATOM     29  C   UNL A   1      42.021  30.333  35.388  1.00  0.00     0.029 A 
ATOM     30  N   UNL A   1      41.741  29.504  33.347  1.00  0.00    -0.354 N 
ATOM     31  N   UNL A   1      42.428  27.793  31.043  1.00  0.00    -0.248 NA
ATOM     32  C   UNL A   1      43.864  26.264  30.010  1.00  0.00     0.031 C 
ATOM     33  C   UNL A   1      43.112  29.507  35.093  1.00  0.00     0.029 A 
ATOM     34  C   UNL A   1      42.921  28.960  33.835  1.00  0.00     0.049 A 
ATOM     35  H   UNL A   1      41.356  29.310  32.461  1.00  0.00     0.167 HD
ATOM     36  C   UNL A   1      43.477  27.498  31.906  1.00  0.00     0.074 A 
ATOM     37  C   UNL A   1      44.301  26.513  31.234  1.00  0.00     0.031 C 
ATOM     38  C   UNL A   1      43.746  28.002  33.138  1.00  0.00     0.034 A 
BRANCH  25  39
ATOM     39  C   UNL A   1      39.503  32.031  35.212  1.00  0.00     0.023 A 
ATOM     40  C   UNL A   1      38.809  31.546  36.334  1.00  0.00     0.031 A 
ATOM     41  C   UNL A   1      39.770  33.411  35.150  1.00  0.00     0.131 A 
ATOM     42  C   UNL A   1      38.362  32.437  37.323  1.00  0.00     0.055 A 
ATOM     43  C   UNL A   1      39.381  34.284  36.169  1.00  0.00     0.041 A 
ATOM     44  F   UNL A   1      40.413  33.935  34.095  1.00  0.00    -0.206 F 
ATOM     45  C   UNL A   1      38.664  33.800  37.259  1.00  0.00     0.022 A 
BRANCH  42  46
ATOM     46  S   UNL A   1      37.289  31.806  38.643  1.00  0.00     0.124 S 
ATOM     47  O   UNL A   1      38.142  31.957  39.819  1.00  0.00    -0.237 OA
ATOM     48  O   UNL A   1      36.139  32.700  38.572  1.00  0.00    -0.237 OA
ATOM     49  O   UNL A   1      37.030  30.424  38.244  1.00  0.00    -0.744 OA
ENDBRANCH  42  46
ENDBRANCH  25  39
BRANCH  26  50
ATOM     50  C   UNL A   1      42.265  26.164  27.548  1.00  0.00     0.023 A 
ATOM     51  C   UNL A   1      41.854  24.828  27.423  1.00  0.00     0.031 A 
ATOM     52  C   UNL A   1      43.137  26.679  26.570  1.00  0.00     0.131 A 
ATOM     53  C   UNL A   1      42.351  24.040  26.373  1.00  0.00     0.055 A 
ATOM     54  C   UNL A   1      43.578  25.910  25.493  1.00  0.00     0.041 A 
ATOM     55  F   UNL A   1      43.560  27.951  26.640  1.00  0.00    -0.206 F 
ATOM     56  C   UNL A   1      43.197  24.577  25.399  1.00  0.00     0.022 A 
BRANCH  53  57
ATOM     57  S   UNL A   1      41.961  22.268  26.356  1.00  0.00     0.124 S 
ATOM     58  O   UNL A   1      42.769  21.795  25.238  1.00  0.00    -0.237 OA
ATOM     59  O   UNL A   1      42.397  21.852  27.684  1.00  0.00    -0.237 OA
ATOM     60  O   UNL A   1      40.516  22.242  26.138  1.00  0.00    -0.744 OA
ENDBRANCH  53  57
ENDBRANCH  26  50
BRANCH  38  61
ATOM     61  C   UNL A   1      44.982  27.472  33.823  1.00  0.00     0.023 A 
ATOM     62  C   UNL A   1      46.251  28.018  33.566  1.00  0.00     0.031 A 
ATOM     63  C   UNL A   1      44.896  26.372  34.693  1.00  0.00     0.131 A 
ATOM     64  C   UNL A   1      47.394  27.415  34.111  1.00  0.00     0.055 A 
ATOM     65  C   UNL A   1      46.032  25.817  35.286  1.00  0.00     0.041 A 
ATOM     66  F   UNL A   1      43.709  25.809  34.971  1.00  0.00    -0.206 F 
ATOM     67  C   UNL A   1      47.291  26.326  34.981  1.00  0.00     0.022 A 
BRANCH  64  68
ATOM     68  S   UNL A   1      49.025  27.995  33.567  1.00  0.00     0.124 S 
ATOM     69  O   UNL A   1      48.684  29.210  32.833  1.00  0.00    -0.237 OA
ATOM     70  O   UNL A   1      49.723  28.190  34.833  1.00  0.00    -0.237 OA
ATOM     71  O   UNL A   1      49.525  26.894  32.747  1.00  0.00    -0.744 OA
ENDBRANCH  64  68
ENDBRANCH  38  61
ENDBRANCH  12  13
ENDBRANCH   5   7
ENDBRANCH   2   3
ENDBRANCH   1   2
BRANCH   1  72
ATOM     72  C   UNL A   1      33.836  27.971  23.021  1.00  0.00     0.118 C 
BRANCH  72  73
ATOM     73  N   UNL A   1      33.088  27.412  21.901  1.00  0.00    -0.352 N 
ATOM     74  C   UNL A   1      32.355  26.259  21.791  1.00  0.00     0.252 C 
ATOM     75  H   UNL A   1      33.114  27.957  21.082  1.00  0.00     0.163 HD
ATOM     76  O   UNL A   1      31.877  25.944  20.706  1.00  0.00    -0.269 OA
BRANCH  74  77
ATOM     77  C   UNL A   1      32.059  25.436  22.983  1.00  0.00     0.059 A 
ATOM     78  C   UNL A   1      32.937  24.397  23.306  1.00  0.00     0.038 A 
ATOM     79  C   UNL A   1      30.998  25.726  23.844  1.00  0.00     0.055 A 
ATOM     80  C   UNL A   1      32.728  23.603  24.445  1.00  0.00     0.101 A 
ATOM     81  C   UNL A   1      30.843  24.986  25.026  1.00  0.00     0.043 A 
ATOM     82  Cl  UNL A   1      29.822  26.944  23.509  1.00  0.00    -0.083 Cl
ATOM     83  C   UNL A   1      31.716  23.934  25.340  1.00  0.00     0.062 A 
ATOM     84  Cl  UNL A   1      31.469  23.133  26.846  1.00  0.00    -0.083 Cl
BRANCH  80  85
ATOM     85  S   UNL A   1      33.736  22.153  24.586  1.00  0.00     0.242 S 
ATOM     86  O   UNL A   1      34.699  22.219  23.503  1.00  0.00    -0.207 OA
ATOM     87  O   UNL A   1      34.173  22.068  25.957  1.00  0.00    -0.207 OA
BRANCH  85  88
ATOM     88  N   UNL A   1      32.775  20.827  24.289  1.00  0.00    -0.207 NA
ATOM     89  H   UNL A   1      33.189  20.358  23.485  1.00  0.00     0.141 HD
BRANCH  88  90
ATOM     90  C   UNL A   1      32.513  19.778  25.268  1.00  0.00     0.134 C 
BRANCH  90  91
ATOM     91  C   UNL A   1      32.914  18.389  24.870  1.00  0.00    -0.030 A 
ATOM     92  C   UNL A   1      32.756  17.317  25.752  1.00  0.00     0.025 A 
ATOM     93  C   UNL A   1      33.567  18.152  23.655  1.00  0.00     0.025 A 
ATOM     94  C   UNL A   1      33.244  16.073  25.387  1.00  0.00     0.111 A 
ATOM     95  C   UNL A   1      34.029  16.872  23.383  1.00  0.00     0.111 A 
ATOM     96  N   UNL A   1      33.868  15.827  24.218  1.00  0.00    -0.265 NA
ENDBRANCH  90  91
ENDBRANCH  88  90
ENDBRANCH  85  88
ENDBRANCH  80  85
ENDBRANCH  74  77
ENDBRANCH  72  73
ENDBRANCH   1  72
TORSDOF 17
ENDMDL
MODEL 3
REMARK VINA RESULT:     -11.9      1.821      2.229
REMARK SMILES O=C(NCCCNC(=O)c1cc(S(=O)(=O)NCc2ccncc2)c(Cl)cc1Cl)c1ccc(-c2c3nc(c(-c4cc(S(=O)(=O)[O-])ccc4F)c4ccc([nH]4)c(-c4cc(S(=O)(=O)[O-])ccc4F)c4nc(c(-c5cc(S(=O)(=O)[O-])ccc5F)c5ccc2[nH]5)C=C4)C=C3)cc1
REMARK SMILES IDX 5 1 4 2 3 3 1 4 2 5 29 7 30 8 91 9 31 10 90 11 32 12 33 13
REMARK SMILES IDX 34 14 84 15 35 16 89 17 83 18 85 19 36 20 88 21 82 22 81 23
REMARK SMILES IDX 37 25 69 26 49 27 68 28 50 29 53 30 67 31 86 32 51 33 52 34
REMARK SMILES IDX 66 36 87 37 54 38 38 39 39 40 47 41 40 42 46 43 48 44 45 45
REMARK SMILES IDX 41 46 42 47 43 48 44 49 70 50 71 51 79 52 72 53 78 54 80 55
REMARK SMILES IDX 77 56 73 57 74 58 75 59 76 60 55 61 56 62 64 63 57 64 63 65
REMARK SMILES IDX 65 66 62 67 58 68 59 69 60 70 61 71 6 72 7 73 8 74 9 76
REMARK SMILES IDX 10 77 11 78 27 79 12 80 26 81 28 82 24 83 25 84 13 85 14 86
REMARK SMILES IDX 15 87 16 88 17 90 18 91 19 92 23 93 20 94 22 95 21 96
REMARK H PARENT 3 6 85 24 53 35 7 75 16 89
REMARK Flexibility Score: inf
ROOT
ATOM      1  C   UNL A   1      32.481  29.817  25.476  1.00  0.00     0.042 C 
ENDROOT
BRANCH   1   2
ATOM      2  C   UNL A   1      32.499  30.368  26.894  1.00  0.00     0.118 C 
BRANCH   2   3
ATOM      3  N   UNL A   1      32.488  31.827  26.944  1.00  0.00    -0.352 N 
ATOM      4  O   UNL A   1      33.092  33.898  27.586  1.00  0.00    -0.269 OA
ATOM      5  C   UNL A   1      33.372  32.703  27.533  1.00  0.00     0.251 C 
ATOM      6  H   UNL A   1      31.729  32.251  26.484  1.00  0.00     0.163 HD
BRANCH   5   7
ATOM      7  C   UNL A   1      34.640  32.211  28.117  1.00  0.00     0.039 A 
ATOM      8  C   UNL A   1      34.701  30.955  28.716  1.00  0.00     0.014 A 
ATOM      9  C   UNL A   1      35.786  33.010  28.059  1.00  0.00     0.014 A 
ATOM     10  C   UNL A   1      35.835  30.584  29.425  1.00  0.00     0.010 A 
ATOM     11  C   UNL A   1      36.973  32.576  28.666  1.00  0.00     0.010 A 
ATOM     12  C   UNL A   1      36.997  31.373  29.388  1.00  0.00    -0.014 A 
BRANCH  12  13
ATOM     13  C   UNL A   1      38.221  30.857  30.057  1.00  0.00     0.031 A 
ATOM     14  C   UNL A   1      38.547  31.206  31.484  1.00  0.00     0.074 A 
ATOM     15  C   UNL A   1      38.995  29.987  29.377  1.00  0.00     0.049 A 
ATOM     16  N   UNL A   1      39.528  30.769  32.232  1.00  0.00    -0.248 NA
ATOM     17  C   UNL A   1      37.669  32.177  32.156  1.00  0.00     0.031 C 
ATOM     18  C   UNL A   1      38.781  29.590  27.980  1.00  0.00     0.029 A 
ATOM     19  N   UNL A   1      40.082  29.246  29.763  1.00  0.00    -0.354 N 
ATOM     20  C   UNL A   1      39.393  31.412  33.459  1.00  0.00     0.074 A 
ATOM     21  C   UNL A   1      38.255  32.299  33.340  1.00  0.00     0.031 C 
ATOM     22  C   UNL A   1      39.654  28.628  27.655  1.00  0.00     0.029 A 
ATOM     23  C   UNL A   1      40.544  28.396  28.784  1.00  0.00     0.049 A 
ATOM     24  H   UNL A   1      40.492  29.316  30.655  1.00  0.00     0.167 HD
ATOM     25  C   UNL A   1      40.144  31.264  34.580  1.00  0.00     0.034 A 
ATOM     26  C   UNL A   1      41.580  27.536  28.783  1.00  0.00     0.034 A 
ATOM     27  C   UNL A   1      41.280  30.377  34.678  1.00  0.00     0.049 A 
ATOM     28  C   UNL A   1      42.402  27.407  30.037  1.00  0.00     0.074 A 
ATOM     29  C   UNL A   1      42.112  30.154  35.763  1.00  0.00     0.029 A 
ATOM     30  N   UNL A   1      41.747  29.562  33.653  1.00  0.00    -0.354 N 
ATOM     31  N   UNL A   1      42.254  28.024  31.186  1.00  0.00    -0.248 NA
ATOM     32  C   UNL A   1      43.523  26.464  29.994  1.00  0.00     0.031 C 
ATOM     33  C   UNL A   1      43.111  29.252  35.377  1.00  0.00     0.029 A 
ATOM     34  C   UNL A   1      42.865  28.855  34.073  1.00  0.00     0.049 A 
ATOM     35  H   UNL A   1      41.344  29.497  32.757  1.00  0.00     0.167 HD
ATOM     36  C   UNL A   1      43.267  27.539  32.005  1.00  0.00     0.074 A 
ATOM     37  C   UNL A   1      43.984  26.545  31.232  1.00  0.00     0.031 C 
ATOM     38  C   UNL A   1      43.586  27.889  33.278  1.00  0.00     0.034 A 
BRANCH  25  39
ATOM     39  C   UNL A   1      39.783  32.111  35.779  1.00  0.00     0.023 A 
ATOM     40  C   UNL A   1      38.850  31.677  36.737  1.00  0.00     0.031 A 
ATOM     41  C   UNL A   1      40.386  33.367  35.970  1.00  0.00     0.131 A 
ATOM     42  C   UNL A   1      38.510  32.511  37.814  1.00  0.00     0.055 A 
ATOM     43  C   UNL A   1      40.092  34.165  37.078  1.00  0.00     0.041 A 
ATOM     44  F   UNL A   1      41.270  33.843  35.079  1.00  0.00    -0.206 F 
ATOM     45  C   UNL A   1      39.142  33.743  38.003  1.00  0.00     0.022 A 
BRANCH  42  46
ATOM     46  S   UNL A   1      37.152  32.011  38.908  1.00  0.00     0.124 S 
ATOM     47  O   UNL A   1      37.013  30.594  38.581  1.00  0.00    -0.237 OA
ATOM     48  O   UNL A   1      37.683  32.309  40.232  1.00  0.00    -0.237 OA
ATOM     49  O   UNL A   1      36.036  32.853  38.479  1.00  0.00    -0.744 OA
ENDBRANCH  42  46
ENDBRANCH  25  39
BRANCH  26  50
ATOM     50  C   UNL A   1      41.923  26.771  27.551  1.00  0.00     0.023 A 
ATOM     51  C   UNL A   1      41.675  25.394  27.451  1.00  0.00     0.031 A 
ATOM     52  C   UNL A   1      42.547  27.409  26.461  1.00  0.00     0.131 A 
ATOM     53  C   UNL A   1      42.091  24.690  26.310  1.00  0.00     0.055 A 
ATOM     54  C   UNL A   1      42.901  26.717  25.303  1.00  0.00     0.041 A 
ATOM     55  F   UNL A   1      42.806  28.725  26.502  1.00  0.00    -0.206 F 
ATOM     56  C   UNL A   1      42.687  25.345  25.230  1.00  0.00     0.022 A 
BRANCH  53  57
ATOM     57  S   UNL A   1      41.937  22.883  26.300  1.00  0.00     0.124 S 
ATOM     58  O   UNL A   1      42.705  22.511  27.483  1.00  0.00    -0.237 OA
ATOM     59  O   UNL A   1      40.492  22.704  26.391  1.00  0.00    -0.237 OA
ATOM     60  O   UNL A   1      42.533  22.498  25.022  1.00  0.00    -0.744 OA
ENDBRANCH  53  57
ENDBRANCH  26  50
BRANCH  38  61
ATOM     61  C   UNL A   1      44.760  27.170  33.895  1.00  0.00     0.023 A 
ATOM     62  C   UNL A   1      44.590  25.970  34.608  1.00  0.00     0.031 A 
ATOM     63  C   UNL A   1      46.052  27.719  33.819  1.00  0.00     0.131 A 
ATOM     64  C   UNL A   1      45.677  25.401  35.286  1.00  0.00     0.055 A 
ATOM     65  C   UNL A   1      47.144  27.111  34.440  1.00  0.00     0.041 A 
ATOM     66  F   UNL A   1      46.271  28.864  33.153  1.00  0.00    -0.206 F 
ATOM     67  C   UNL A   1      46.957  25.955  35.194  1.00  0.00     0.022 A 
BRANCH  64  68
ATOM     68  S   UNL A   1      45.372  23.994  36.391  1.00  0.00     0.124 S 
ATOM     69  O   UNL A   1      44.878  24.657  37.594  1.00  0.00    -0.237 OA
ATOM     70  O   UNL A   1      44.390  23.218  35.641  1.00  0.00    -0.237 OA
ATOM     71  O   UNL A   1      46.687  23.369  36.522  1.00  0.00    -0.744 OA
ENDBRANCH  64  68
ENDBRANCH  38  61
ENDBRANCH  12  13
ENDBRANCH   5   7
ENDBRANCH   2   3
ENDBRANCH   1   2
BRANCH   1  72
ATOM     72  C   UNL A   1      33.622  28.861  25.171  1.00  0.00     0.118 C 
BRANCH  72  73
ATOM     73  N   UNL A   1      34.113  28.998  23.806  1.00  0.00    -0.352 N 
ATOM     74  C   UNL A   1      33.958  28.194  22.706  1.00  0.00     0.252 C 
ATOM     75  H   UNL A   1      34.647  29.808  23.645  1.00  0.00     0.163 HD
ATOM     76  O   UNL A   1      34.544  28.470  21.664  1.00  0.00    -0.269 OA
BRANCH  74  77
ATOM     77  C   UNL A   1      33.025  27.049  22.734  1.00  0.00     0.059 A 
ATOM     78  C   UNL A   1      33.557  25.762  22.869  1.00  0.00     0.038 A 
ATOM     79  C   UNL A   1      31.637  27.216  22.732  1.00  0.00     0.055 A 
ATOM     80  C   UNL A   1      32.720  24.638  22.937  1.00  0.00     0.101 A 
ATOM     81  C   UNL A   1      30.803  26.099  22.887  1.00  0.00     0.043 A 
ATOM     82  Cl  UNL A   1      30.878  28.750  22.507  1.00  0.00    -0.083 Cl
ATOM     83  C   UNL A   1      31.340  24.808  23.007  1.00  0.00     0.062 A 
ATOM     84  Cl  UNL A   1      30.227  23.516  23.253  1.00  0.00    -0.083 Cl
BRANCH  80  85
ATOM     85  S   UNL A   1      33.514  23.059  22.821  1.00  0.00     0.242 S 
ATOM     86  O   UNL A   1      32.824  22.332  21.772  1.00  0.00    -0.207 OA
ATOM     87  O   UNL A   1      34.933  23.299  22.740  1.00  0.00    -0.207 OA
BRANCH  85  88
ATOM     88  N   UNL A   1      33.232  22.234  24.239  1.00  0.00    -0.207 NA
ATOM     89  H   UNL A   1      32.908  22.932  24.907  1.00  0.00     0.141 HD
BRANCH  88  90
ATOM     90  C   UNL A   1      32.305  21.114  24.355  1.00  0.00     0.134 C 
BRANCH  90  91
ATOM     91  C   UNL A   1      32.889  19.749  24.142  1.00  0.00    -0.030 A 
ATOM     92  C   UNL A   1      34.094  19.384  24.746  1.00  0.00     0.025 A 
ATOM     93  C   UNL A   1      32.307  18.853  23.237  1.00  0.00     0.025 A 
ATOM     94  C   UNL A   1      34.656  18.157  24.431  1.00  0.00     0.111 A 
ATOM     95  C   UNL A   1      32.950  17.652  22.980  1.00  0.00     0.111 A 
ATOM     96  N   UNL A   1      34.104  17.281  23.569  1.00  0.00    -0.265 NA
ENDBRANCH  90  91
ENDBRANCH  88  90
ENDBRANCH  85  88
ENDBRANCH  80  85
ENDBRANCH  74  77
ENDBRANCH  72  73
ENDBRANCH   1  72
TORSDOF 17
ENDMDL
