MODEL 1
REMARK VINA RESULT:     -14.6      0.000      0.000
REMARK SMILES Cc1cc(/C=C2/C(=O)NC(=S)[NH+]=C2NCCCNC(=O)c2ccc(-c3c4nc(c(-c5cc(S(=O)(=O)[O-])ccc5F)c5ccc([nH]5)c(-c5cc(S(=O)(=O)[O-])ccc5F)c5nc(c(-c6cc(S(=O)(=O)[O-])ccc6F)c6ccc3[nH]6)C=C5)C=C4)cc2)c(C)n1-c1cccc(C(=O)[O-])c1
REMARK SMILES IDX 16 1 15 2 14 3 5 4 6 5 7 6 13 7 8 8 9 9 12 10 10 11 11 15
REMARK SMILES IDX 4 16 1 17 2 18 3 19 86 20 84 21 85 22 87 23 88 24 95 25
REMARK SMILES IDX 89 26 91 27 90 28 92 29 93 30 94 31 17 32 18 33 19 34 20 36
REMARK SMILES IDX 21 37 22 38 83 39 23 40 82 41 24 42 25 43 26 44 76 45 27 46
REMARK SMILES IDX 81 47 75 48 77 49 28 50 80 51 74 52 73 53 29 55 61 56 41 57
REMARK SMILES IDX 60 58 42 59 45 60 59 61 78 62 43 63 44 64 58 66 79 67 46 68
REMARK SMILES IDX 30 69 31 70 39 71 32 72 38 73 40 74 37 75 33 76 34 77 35 78
REMARK SMILES IDX 36 79 62 80 63 81 71 82 64 83 70 84 72 85 69 86 65 87 66 88
REMARK SMILES IDX 67 89 68 90 47 91 48 92 56 93 49 94 55 95 57 96 54 97 50 98
REMARK SMILES IDX 51 99 52 100 53 101
REMARK H PARENT 9 12 12 13 14 14 18 35 77 54 45 65
REMARK Flexibility Score: inf
ROOT
ATOM      1  C   UNL A   1      33.322  21.901  27.441  1.00  0.00     0.059 C 
ENDROOT
BRANCH   1   2
ATOM      2  C   UNL A   1      32.985  20.978  26.379  1.00  0.00     0.195 C 
BRANCH   2   3
ATOM      3  N   UNL A   1      33.045  19.623  26.623  1.00  0.00    -0.305 N 
ATOM      4  C   UNL A   1      33.004  20.579  23.396  1.00  0.00     0.032 C 
ATOM      5  C   UNL A   1      32.933  19.356  24.058  1.00  0.00     0.128 C 
ATOM      6  C   UNL A   1      32.419  18.208  23.210  1.00  0.00     0.319 C 
ATOM      7  C   UNL A   1      33.079  18.840  25.524  1.00  0.00     0.234 C 
ATOM      8  O   UNL A   1      31.864  18.358  22.125  1.00  0.00    -0.250 OA
ATOM      9  N   UNL A   1      32.547  16.947  23.745  1.00  0.00    -0.229 N 
ATOM     10  N   UNL A   1      33.170  17.598  25.883  1.00  0.00    -0.236 N 
ATOM     11  C   UNL A   1      33.003  16.610  24.986  1.00  0.00     0.295 C 
ATOM     12  H   UNL A   1      32.278  16.199  23.164  1.00  0.00     0.268 HD
ATOM     13  H   UNL A   1      33.364  17.376  26.822  1.00  0.00     0.268 HD
ATOM     14  H   UNL A   1      33.061  19.252  27.536  1.00  0.00     0.256 HD
ATOM     15  S   UNL A   1      33.213  14.995  25.375  1.00  0.00    -0.005 S 
BRANCH   4  16
ATOM     16  C   UNL A   1      33.129  22.041  23.735  1.00  0.00    -0.003 A 
ATOM     17  C   UNL A   1      35.004  25.135  24.765  1.00  0.00     0.065 C 
ATOM     18  C   UNL A   1      34.150  24.071  24.176  1.00  0.00     0.020 A 
ATOM     19  C   UNL A   1      34.376  22.697  24.030  1.00  0.00     0.031 A 
ATOM     20  N   UNL A   1      32.881  24.294  23.639  1.00  0.00    -0.318 N 
ATOM     21  C   UNL A   1      32.225  23.076  24.075  1.00  0.00     0.027 A 
ATOM     22  C   UNL A   1      30.890  22.989  24.759  1.00  0.00     0.065 C 
BRANCH  20  23
ATOM     23  C   UNL A   1      32.318  25.623  23.163  1.00  0.00     0.046 A 
ATOM     24  C   UNL A   1      33.481  26.383  22.072  1.00  0.00     0.026 A 
ATOM     25  C   UNL A   1      31.346  26.702  24.336  1.00  0.00     0.036 A 
ATOM     26  C   UNL A   1      33.823  28.114  22.108  1.00  0.00     0.003 A 
ATOM     27  C   UNL A   1      31.780  28.606  24.444  1.00  0.00    -0.001 A 
ATOM     28  C   UNL A   1      33.036  29.202  23.251  1.00  0.00     0.010 A 
BRANCH  27  29
ATOM     29  C   UNL A   1      31.253  29.897  24.960  1.00  0.00     0.072 C 
ATOM     30  O   UNL A   1      31.757  30.473  25.912  1.00  0.00    -0.545 OA
ATOM     31  O   UNL A   1      30.241  30.461  24.321  1.00  0.00    -0.545 OA
ENDBRANCH  27  29
ENDBRANCH  20  23
ENDBRANCH   4  16
ENDBRANCH   2   3
ENDBRANCH   1   2
BRANCH   1  32
ATOM     32  C   UNL A   1      34.803  22.425  27.307  1.00  0.00     0.119 C 
BRANCH  32  33
ATOM     33  N   UNL A   1      36.024  21.385  26.532  1.00  0.00    -0.352 N 
ATOM     34  C   UNL A   1      37.940  21.750  25.991  1.00  0.00     0.251 C 
ATOM     35  H   UNL A   1      35.712  20.473  26.330  1.00  0.00     0.163 HD
ATOM     36  O   UNL A   1      38.693  21.018  25.348  1.00  0.00    -0.269 OA
BRANCH  34  37
ATOM     37  C   UNL A   1      38.830  23.430  26.488  1.00  0.00     0.039 A 
ATOM     38  C   UNL A   1      39.990  23.502  27.251  1.00  0.00     0.014 A 
ATOM     39  C   UNL A   1      38.286  24.877  26.703  1.00  0.00     0.014 A 
ATOM     40  C   UNL A   1      40.383  24.788  28.159  1.00  0.00     0.010 A 
ATOM     41  C   UNL A   1      38.704  26.148  27.572  1.00  0.00     0.010 A 
ATOM     42  C   UNL A   1      39.785  26.178  28.425  1.00  0.00    -0.014 A 
BRANCH  42  43
ATOM     43  C   UNL A   1      40.528  27.577  29.345  1.00  0.00     0.031 A 
ATOM     44  C   UNL A   1      41.211  28.137  28.189  1.00  0.00     0.074 A 
ATOM     45  C   UNL A   1      41.053  28.345  30.544  1.00  0.00     0.049 A 
ATOM     46  N   UNL A   1      42.272  27.465  27.910  1.00  0.00    -0.248 NA
ATOM     47  C   UNL A   1      40.619  28.867  27.080  1.00  0.00     0.031 C 
ATOM     48  C   UNL A   1      41.232  27.956  31.990  1.00  0.00     0.029 A 
ATOM     49  N   UNL A   1      41.759  29.742  30.726  1.00  0.00    -0.354 N 
ATOM     50  C   UNL A   1      42.571  27.681  26.596  1.00  0.00     0.074 A 
ATOM     51  C   UNL A   1      41.507  28.566  26.117  1.00  0.00     0.031 C 
ATOM     52  C   UNL A   1      41.732  28.942  32.836  1.00  0.00     0.029 A 
ATOM     53  C   UNL A   1      42.068  30.235  32.180  1.00  0.00     0.049 A 
ATOM     54  H   UNL A   1      41.999  30.290  29.945  1.00  0.00     0.167 HD
ATOM     55  C   UNL A   1      43.907  27.613  26.387  1.00  0.00     0.034 A 
ATOM     56  C   UNL A   1      42.683  31.466  32.730  1.00  0.00     0.034 A 
ATOM     57  C   UNL A   1      44.456  28.836  26.919  1.00  0.00     0.049 A 
ATOM     58  C   UNL A   1      43.864  31.669  31.899  1.00  0.00     0.074 A 
ATOM     59  C   UNL A   1      43.953  30.128  26.862  1.00  0.00     0.029 A 
ATOM     60  N   UNL A   1      45.235  28.753  28.049  1.00  0.00    -0.354 N 
ATOM     61  N   UNL A   1      44.985  31.041  32.048  1.00  0.00    -0.248 NA
ATOM     62  C   UNL A   1      43.843  32.718  30.900  1.00  0.00     0.031 C 
ATOM     63  C   UNL A   1      44.035  30.585  28.187  1.00  0.00     0.029 A 
ATOM     64  C   UNL A   1      45.007  29.844  28.849  1.00  0.00     0.049 A 
ATOM     65  H   UNL A   1      45.860  28.021  28.253  1.00  0.00     0.167 HD
ATOM     66  C   UNL A   1      45.480  31.119  30.782  1.00  0.00     0.074 A 
ATOM     67  C   UNL A   1      44.931  32.353  30.225  1.00  0.00     0.031 C 
ATOM     68  C   UNL A   1      45.611  29.921  30.157  1.00  0.00     0.034 A 
BRANCH  55  69
ATOM     69  C   UNL A   1      44.375  26.195  26.757  1.00  0.00     0.023 A 
ATOM     70  C   UNL A   1      44.480  25.275  25.711  1.00  0.00     0.031 A 
ATOM     71  C   UNL A   1      44.485  25.672  28.078  1.00  0.00     0.131 A 
ATOM     72  C   UNL A   1      44.643  23.903  25.981  1.00  0.00     0.055 A 
ATOM     73  C   UNL A   1      44.601  24.302  28.342  1.00  0.00     0.041 A 
ATOM     74  F   UNL A   1      44.442  26.473  29.155  1.00  0.00    -0.206 F 
ATOM     75  C   UNL A   1      44.679  23.405  27.286  1.00  0.00     0.022 A 
BRANCH  72  76
ATOM     76  S   UNL A   1      44.802  22.779  24.574  1.00  0.00     0.124 S 
ATOM     77  O   UNL A   1      45.810  23.452  23.760  1.00  0.00    -0.237 OA
ATOM     78  O   UNL A   1      45.238  21.542  25.216  1.00  0.00    -0.237 OA
ATOM     79  O   UNL A   1      43.458  22.736  24.002  1.00  0.00    -0.744 OA
ENDBRANCH  72  76
ENDBRANCH  55  69
BRANCH  56  80
ATOM     80  C   UNL A   1      43.017  32.653  33.951  1.00  0.00     0.023 A 
ATOM     81  C   UNL A   1      42.344  34.006  34.104  1.00  0.00     0.031 A 
ATOM     82  C   UNL A   1      43.543  32.229  35.182  1.00  0.00     0.131 A 
ATOM     83  C   UNL A   1      42.226  34.745  35.364  1.00  0.00     0.055 A 
ATOM     84  C   UNL A   1      43.411  32.966  36.413  1.00  0.00     0.041 A 
ATOM     85  F   UNL A   1      44.130  31.030  35.278  1.00  0.00    -0.206 F 
ATOM     86  C   UNL A   1      42.748  34.191  36.519  1.00  0.00     0.022 A 
BRANCH  83  87
ATOM     87  S   UNL A   1      41.268  36.366  35.649  1.00  0.00     0.124 S 
ATOM     88  O   UNL A   1      41.487  36.646  37.063  1.00  0.00    -0.237 OA
ATOM     89  O   UNL A   1      41.867  37.294  34.696  1.00  0.00    -0.237 OA
ATOM     90  O   UNL A   1      39.878  36.013  35.326  1.00  0.00    -0.744 OA
ENDBRANCH  83  87
ENDBRANCH  56  80
BRANCH  68  91
ATOM     91  C   UNL A   1      46.238  28.771  30.944  1.00  0.00     0.023 A 
ATOM     92  C   UNL A   1      45.577  27.903  31.858  1.00  0.00     0.031 A 
ATOM     93  C   UNL A   1      47.627  28.613  30.839  1.00  0.00     0.131 A 
ATOM     94  C   UNL A   1      46.303  26.974  32.635  1.00  0.00     0.055 A 
ATOM     95  C   UNL A   1      48.341  27.665  31.573  1.00  0.00     0.041 A 
ATOM     96  F   UNL A   1      48.341  29.405  30.023  1.00  0.00    -0.206 F 
ATOM     97  C   UNL A   1      47.684  26.854  32.489  1.00  0.00     0.022 A 
BRANCH  94  98
ATOM     98  S   UNL A   1      45.474  25.967  33.914  1.00  0.00     0.124 S 
ATOM     99  O   UNL A   1      45.063  24.769  33.189  1.00  0.00    -0.237 OA
ATOM    100  O   UNL A   1      46.531  25.780  34.904  1.00  0.00    -0.237 OA
ATOM    101  O   UNL A   1      44.366  26.818  34.353  1.00  0.00    -0.744 OA
ENDBRANCH  94  98
ENDBRANCH  68  91
ENDBRANCH  42  43
ENDBRANCH  34  37
ENDBRANCH  32  33
ENDBRANCH   1  32
TORSDOF 15
ENDMDL
MODEL 2
REMARK VINA RESULT:     -14.3      4.918      8.629
REMARK SMILES Cc1cc(/C=C2/C(=O)NC(=S)[NH+]=C2NCCCNC(=O)c2ccc(-c3c4nc(c(-c5cc(S(=O)(=O)[O-])ccc5F)c5ccc([nH]5)c(-c5cc(S(=O)(=O)[O-])ccc5F)c5nc(c(-c6cc(S(=O)(=O)[O-])ccc6F)c6ccc3[nH]6)C=C5)C=C4)cc2)c(C)n1-c1cccc(C(=O)[O-])c1
REMARK SMILES IDX 16 1 15 2 14 3 5 4 6 5 7 6 13 7 8 8 9 9 12 10 10 11 11 15
REMARK SMILES IDX 4 16 1 17 2 18 3 19 86 20 84 21 85 22 87 23 88 24 95 25
REMARK SMILES IDX 89 26 91 27 90 28 92 29 93 30 94 31 17 32 18 33 19 34 20 36
REMARK SMILES IDX 21 37 22 38 83 39 23 40 82 41 24 42 25 43 26 44 76 45 27 46
REMARK SMILES IDX 81 47 75 48 77 49 28 50 80 51 74 52 73 53 29 55 61 56 41 57
REMARK SMILES IDX 60 58 42 59 45 60 59 61 78 62 43 63 44 64 58 66 79 67 46 68
REMARK SMILES IDX 30 69 31 70 39 71 32 72 38 73 40 74 37 75 33 76 34 77 35 78
REMARK SMILES IDX 36 79 62 80 63 81 71 82 64 83 70 84 72 85 69 86 65 87 66 88
REMARK SMILES IDX 67 89 68 90 47 91 48 92 56 93 49 94 55 95 57 96 54 97 50 98
REMARK SMILES IDX 51 99 52 100 53 101
REMARK H PARENT 9 12 12 13 14 14 18 35 77 54 45 65
REMARK Flexibility Score: inf
ROOT
ATOM      1  C   UNL A   1      32.580  27.022  26.217  1.00  0.00     0.059 C 
ENDROOT
BRANCH   1   2
ATOM      2  C   UNL A   1      33.385  26.329  25.236  1.00  0.00     0.195 C 
BRANCH   2   3
ATOM      3  N   UNL A   1      34.568  25.741  25.632  1.00  0.00    -0.305 N 
ATOM      4  C   UNL A   1      32.642  23.981  23.506  1.00  0.00     0.032 C 
ATOM      5  C   UNL A   1      33.804  23.716  24.226  1.00  0.00     0.128 C 
ATOM      6  C   UNL A   1      34.143  22.243  24.356  1.00  0.00     0.319 C 
ATOM      7  C   UNL A   1      34.807  24.519  25.111  1.00  0.00     0.234 C 
ATOM      8  O   UNL A   1      33.356  21.337  24.094  1.00  0.00    -0.250 OA
ATOM      9  N   UNL A   1      35.390  21.945  24.855  1.00  0.00    -0.229 N 
ATOM     10  N   UNL A   1      35.957  24.091  25.528  1.00  0.00    -0.236 N 
ATOM     11  C   UNL A   1      36.329  22.814  25.329  1.00  0.00     0.295 C 
ATOM     12  H   UNL A   1      35.634  20.991  24.873  1.00  0.00     0.268 HD
ATOM     13  H   UNL A   1      36.566  24.709  25.995  1.00  0.00     0.268 HD
ATOM     14  H   UNL A   1      35.194  26.182  26.251  1.00  0.00     0.256 HD
ATOM     15  S   UNL A   1      37.843  22.238  25.754  1.00  0.00    -0.005 S 
BRANCH   4  16
ATOM     16  C   UNL A   1      31.677  25.119  23.297  1.00  0.00    -0.003 A 
ATOM     17  C   UNL A   1      28.463  26.987  23.871  1.00  0.00     0.065 C 
ATOM     18  C   UNL A   1      29.848  26.488  23.669  1.00  0.00     0.020 A 
ATOM     19  C   UNL A   1      30.435  25.265  24.012  1.00  0.00     0.031 A 
ATOM     20  N   UNL A   1      30.860  27.220  23.045  1.00  0.00    -0.318 N 
ATOM     21  C   UNL A   1      31.523  26.144  22.334  1.00  0.00     0.027 A 
ATOM     22  C   UNL A   1      31.914  26.155  20.883  1.00  0.00     0.065 C 
BRANCH  20  23
ATOM     23  C   UNL A   1      30.904  28.728  22.856  1.00  0.00     0.046 A 
ATOM     24  C   UNL A   1      30.994  29.505  24.439  1.00  0.00     0.026 A 
ATOM     25  C   UNL A   1      29.885  29.532  21.514  1.00  0.00     0.036 A 
ATOM     26  C   UNL A   1      30.087  30.967  24.829  1.00  0.00     0.003 A 
ATOM     27  C   UNL A   1      28.809  31.102  21.962  1.00  0.00    -0.001 A 
ATOM     28  C   UNL A   1      29.013  31.744  23.665  1.00  0.00     0.010 A 
BRANCH  27  29
ATOM     29  C   UNL A   1      28.053  32.217  21.334  1.00  0.00     0.072 C 
ATOM     30  O   UNL A   1      27.971  33.322  21.852  1.00  0.00    -0.545 OA
ATOM     31  O   UNL A   1      27.504  32.013  20.148  1.00  0.00    -0.545 OA
ENDBRANCH  27  29
ENDBRANCH  20  23
ENDBRANCH   4  16
ENDBRANCH   2   3
ENDBRANCH   1   2
BRANCH   1  32
ATOM     32  C   UNL A   1      33.367  28.222  26.871  1.00  0.00     0.119 C 
BRANCH  32  33
ATOM     33  N   UNL A   1      32.575  29.813  26.994  1.00  0.00    -0.352 N 
ATOM     34  C   UNL A   1      33.301  31.629  27.514  1.00  0.00     0.251 C 
ATOM     35  H   UNL A   1      31.617  29.808  26.770  1.00  0.00     0.163 HD
ATOM     36  O   UNL A   1      32.668  32.670  27.693  1.00  0.00    -0.269 OA
BRANCH  34  37
ATOM     37  C   UNL A   1      35.226  31.908  27.794  1.00  0.00     0.039 A 
ATOM     38  C   UNL A   1      36.128  30.889  28.083  1.00  0.00     0.014 A 
ATOM     39  C   UNL A   1      36.039  33.132  28.320  1.00  0.00     0.014 A 
ATOM     40  C   UNL A   1      37.514  31.126  28.892  1.00  0.00     0.010 A 
ATOM     41  C   UNL A   1      37.423  33.356  29.083  1.00  0.00     0.010 A 
ATOM     42  C   UNL A   1      38.259  32.336  29.479  1.00  0.00    -0.014 A 
BRANCH  42  43
ATOM     43  C   UNL A   1      39.949  32.396  30.182  1.00  0.00     0.031 A 
ATOM     44  C   UNL A   1      39.763  31.244  31.050  1.00  0.00     0.074 A 
ATOM     45  C   UNL A   1      41.277  33.007  30.591  1.00  0.00     0.049 A 
ATOM     46  N   UNL A   1      39.077  31.557  32.093  1.00  0.00    -0.248 NA
ATOM     47  C   UNL A   1      39.714  29.843  30.663  1.00  0.00     0.031 C 
ATOM     48  C   UNL A   1      41.788  34.426  30.547  1.00  0.00     0.029 A 
ATOM     49  N   UNL A   1      42.542  32.466  31.356  1.00  0.00    -0.354 N 
ATOM     50  C   UNL A   1      38.510  30.415  32.580  1.00  0.00     0.074 A 
ATOM     51  C   UNL A   1      38.937  29.367  31.651  1.00  0.00     0.031 C 
ATOM     52  C   UNL A   1      43.092  34.624  30.992  1.00  0.00     0.029 A 
ATOM     53  C   UNL A   1      43.785  33.408  31.498  1.00  0.00     0.049 A 
ATOM     54  H   UNL A   1      42.551  31.558  31.735  1.00  0.00     0.167 HD
ATOM     55  C   UNL A   1      38.365  30.483  33.924  1.00  0.00     0.034 A 
ATOM     56  C   UNL A   1      45.124  33.244  32.114  1.00  0.00     0.034 A 
ATOM     57  C   UNL A   1      39.686  30.300  34.477  1.00  0.00     0.049 A 
ATOM     58  C   UNL A   1      44.842  32.632  33.407  1.00  0.00     0.074 A 
ATOM     59  C   UNL A   1      40.700  29.445  34.072  1.00  0.00     0.029 A 
ATOM     60  N   UNL A   1      40.281  31.378  35.088  1.00  0.00    -0.354 N 
ATOM     61  N   UNL A   1      44.438  33.276  34.453  1.00  0.00    -0.248 NA
ATOM     62  C   UNL A   1      45.130  31.225  33.590  1.00  0.00     0.031 C 
ATOM     63  C   UNL A   1      41.834  30.270  34.005  1.00  0.00     0.029 A 
ATOM     64  C   UNL A   1      41.628  31.371  34.827  1.00  0.00     0.049 A 
ATOM     65  H   UNL A   1      39.812  32.052  35.630  1.00  0.00     0.167 HD
ATOM     66  C   UNL A   1      43.790  32.281  35.119  1.00  0.00     0.074 A 
ATOM     67  C   UNL A   1      44.471  31.047  34.733  1.00  0.00     0.031 C 
ATOM     68  C   UNL A   1      42.453  32.476  35.253  1.00  0.00     0.034 A 
BRANCH  55  69
ATOM     69  C   UNL A   1      37.425  31.658  34.244  1.00  0.00     0.023 A 
ATOM     70  C   UNL A   1      36.471  31.981  33.274  1.00  0.00     0.031 A 
ATOM     71  C   UNL A   1      37.585  32.586  35.313  1.00  0.00     0.131 A 
ATOM     72  C   UNL A   1      35.751  33.188  33.356  1.00  0.00     0.055 A 
ATOM     73  C   UNL A   1      36.898  33.805  35.366  1.00  0.00     0.041 A 
ATOM     74  F   UNL A   1      38.441  32.355  36.321  1.00  0.00    -0.206 F 
ATOM     75  C   UNL A   1      35.973  34.114  34.378  1.00  0.00     0.022 A 
BRANCH  72  76
ATOM     76  S   UNL A   1      34.512  33.519  32.081  1.00  0.00     0.124 S 
ATOM     77  O   UNL A   1      34.510  32.268  31.328  1.00  0.00    -0.237 OA
ATOM     78  O   UNL A   1      33.314  33.774  32.876  1.00  0.00    -0.237 OA
ATOM     79  O   UNL A   1      35.039  34.681  31.370  1.00  0.00    -0.744 OA
ENDBRANCH  72  76
ENDBRANCH  55  69
BRANCH  56  80
ATOM     80  C   UNL A   1      46.803  33.607  32.358  1.00  0.00     0.023 A 
ATOM     81  C   UNL A   1      47.984  32.839  31.793  1.00  0.00     0.031 A 
ATOM     82  C   UNL A   1      47.175  34.931  32.644  1.00  0.00     0.131 A 
ATOM     83  C   UNL A   1      49.313  33.407  31.546  1.00  0.00     0.055 A 
ATOM     84  C   UNL A   1      48.485  35.475  32.388  1.00  0.00     0.041 A 
ATOM     85  F   UNL A   1      46.261  35.796  33.098  1.00  0.00    -0.206 F 
ATOM     86  C   UNL A   1      49.535  34.742  31.829  1.00  0.00     0.022 A 
BRANCH  83  87
ATOM     87  S   UNL A   1      50.785  32.540  30.705  1.00  0.00     0.124 S 
ATOM     88  O   UNL A   1      50.212  32.022  29.469  1.00  0.00    -0.237 OA
ATOM     89  O   UNL A   1      51.780  33.598  30.573  1.00  0.00    -0.237 OA
ATOM     90  O   UNL A   1      51.168  31.492  31.662  1.00  0.00    -0.744 OA
ENDBRANCH  83  87
ENDBRANCH  56  80
BRANCH  68  91
ATOM     91  C   UNL A   1      41.974  33.859  35.690  1.00  0.00     0.023 A 
ATOM     92  C   UNL A   1      42.204  34.482  36.949  1.00  0.00     0.031 A 
ATOM     93  C   UNL A   1      41.135  34.550  34.805  1.00  0.00     0.131 A 
ATOM     94  C   UNL A   1      41.578  35.704  37.282  1.00  0.00     0.055 A 
ATOM     95  C   UNL A   1      40.552  35.779  35.114  1.00  0.00     0.041 A 
ATOM     96  F   UNL A   1      40.839  34.027  33.604  1.00  0.00    -0.206 F 
ATOM     97  C   UNL A   1      40.756  36.352  36.362  1.00  0.00     0.022 A 
BRANCH  94  98
ATOM     98  S   UNL A   1      41.754  36.426  38.951  1.00  0.00     0.124 S 
ATOM     99  O   UNL A   1      40.490  37.126  39.153  1.00  0.00    -0.237 OA
ATOM    100  O   UNL A   1      41.969  35.247  39.784  1.00  0.00    -0.237 OA
ATOM    101  O   UNL A   1      42.918  37.305  38.820  1.00  0.00    -0.744 OA
ENDBRANCH  94  98
ENDBRANCH  68  91
ENDBRANCH  42  43
ENDBRANCH  34  37
ENDBRANCH  32  33
ENDBRANCH   1  32
TORSDOF 15
ENDMDL
MODEL 3
REMARK VINA RESULT:     -14.2      6.138     12.333
REMARK SMILES Cc1cc(/C=C2/C(=O)NC(=S)[NH+]=C2NCCCNC(=O)c2ccc(-c3c4nc(c(-c5cc(S(=O)(=O)[O-])ccc5F)c5ccc([nH]5)c(-c5cc(S(=O)(=O)[O-])ccc5F)c5nc(c(-c6cc(S(=O)(=O)[O-])ccc6F)c6ccc3[nH]6)C=C5)C=C4)cc2)c(C)n1-c1cccc(C(=O)[O-])c1
REMARK SMILES IDX 16 1 15 2 14 3 5 4 6 5 7 6 13 7 8 8 9 9 12 10 10 11 11 15
REMARK SMILES IDX 4 16 1 17 2 18 3 19 86 20 84 21 85 22 87 23 88 24 95 25
REMARK SMILES IDX 89 26 91 27 90 28 92 29 93 30 94 31 17 32 18 33 19 34 20 36
REMARK SMILES IDX 21 37 22 38 83 39 23 40 82 41 24 42 25 43 26 44 76 45 27 46
REMARK SMILES IDX 81 47 75 48 77 49 28 50 80 51 74 52 73 53 29 55 61 56 41 57
REMARK SMILES IDX 60 58 42 59 45 60 59 61 78 62 43 63 44 64 58 66 79 67 46 68
REMARK SMILES IDX 30 69 31 70 39 71 32 72 38 73 40 74 37 75 33 76 34 77 35 78
REMARK SMILES IDX 36 79 62 80 63 81 71 82 64 83 70 84 72 85 69 86 65 87 66 88
REMARK SMILES IDX 67 89 68 90 47 91 48 92 56 93 49 94 55 95 57 96 54 97 50 98
REMARK SMILES IDX 51 99 52 100 53 101
REMARK H PARENT 9 12 12 13 14 14 18 35 77 54 45 65
REMARK Flexibility Score: inf
ROOT
ATOM      1  C   UNL A   1      41.357  35.061  34.052  1.00  0.00     0.059 C 
ENDROOT
BRANCH   1   2
ATOM      2  C   UNL A   1      41.434  33.670  34.439  1.00  0.00     0.195 C 
BRANCH   2   3
ATOM      3  N   UNL A   1      42.620  33.177  34.938  1.00  0.00    -0.305 N 
ATOM      4  C   UNL A   1      40.180  30.935  34.343  1.00  0.00     0.032 C 
ATOM      5  C   UNL A   1      41.436  30.883  34.944  1.00  0.00     0.128 C 
ATOM      6  C   UNL A   1      41.675  29.653  35.800  1.00  0.00     0.319 C 
ATOM      7  C   UNL A   1      42.654  31.841  35.129  1.00  0.00     0.234 C 
ATOM      8  O   UNL A   1      40.783  28.892  36.163  1.00  0.00    -0.250 OA
ATOM      9  N   UNL A   1      42.967  29.445  36.222  1.00  0.00    -0.229 N 
ATOM     10  N   UNL A   1      43.826  31.498  35.565  1.00  0.00    -0.236 N 
ATOM     11  C   UNL A   1      44.048  30.258  36.037  1.00  0.00     0.295 C 
ATOM     12  H   UNL A   1      43.133  28.611  36.718  1.00  0.00     0.268 HD
ATOM     13  H   UNL A   1      44.561  32.152  35.549  1.00  0.00     0.268 HD
ATOM     14  H   UNL A   1      43.388  33.758  35.143  1.00  0.00     0.256 HD
ATOM     15  S   UNL A   1      45.564  29.733  36.514  1.00  0.00    -0.005 S 
BRANCH   4  16
ATOM     16  C   UNL A   1      39.287  31.950  33.678  1.00  0.00    -0.003 A 
ATOM     17  C   UNL A   1      38.357  34.391  30.972  1.00  0.00     0.065 C 
ATOM     18  C   UNL A   1      38.472  33.344  32.021  1.00  0.00     0.020 A 
ATOM     19  C   UNL A   1      39.559  32.545  32.396  1.00  0.00     0.031 A 
ATOM     20  N   UNL A   1      37.429  32.969  32.870  1.00  0.00    -0.318 N 
ATOM     21  C   UNL A   1      38.187  32.742  34.085  1.00  0.00     0.027 A 
ATOM     22  C   UNL A   1      37.851  33.277  35.448  1.00  0.00     0.065 C 
BRANCH  20  23
ATOM     23  C   UNL A   1      35.944  33.199  32.639  1.00  0.00     0.046 A 
ATOM     24  C   UNL A   1      35.496  32.537  31.065  1.00  0.00     0.026 A 
ATOM     25  C   UNL A   1      35.144  34.786  33.209  1.00  0.00     0.036 A 
ATOM     26  C   UNL A   1      34.386  33.363  29.970  1.00  0.00     0.003 A 
ATOM     27  C   UNL A   1      33.981  35.753  31.969  1.00  0.00    -0.001 A 
ATOM     28  C   UNL A   1      33.660  34.920  30.370  1.00  0.00     0.010 A 
BRANCH  27  29
ATOM     29  C   UNL A   1      32.966  36.838  31.925  1.00  0.00     0.072 C 
ATOM     30  O   UNL A   1      32.105  36.960  32.784  1.00  0.00    -0.545 OA
ATOM     31  O   UNL A   1      33.043  37.730  30.952  1.00  0.00    -0.545 OA
ENDBRANCH  27  29
ENDBRANCH  20  23
ENDBRANCH   4  16
ENDBRANCH   2   3
ENDBRANCH   1   2
BRANCH   1  32
ATOM     32  C   UNL A   1      42.787  35.717  33.956  1.00  0.00     0.119 C 
BRANCH  32  33
ATOM     33  N   UNL A   1      43.112  36.904  32.666  1.00  0.00    -0.352 N 
ATOM     34  C   UNL A   1      43.363  36.672  30.672  1.00  0.00     0.251 C 
ATOM     35  H   UNL A   1      43.181  37.834  32.979  1.00  0.00     0.163 HD
ATOM     36  O   UNL A   1      43.704  37.525  29.851  1.00  0.00    -0.269 OA
BRANCH  34  37
ATOM     37  C   UNL A   1      43.058  34.934  29.807  1.00  0.00     0.039 A 
ATOM     38  C   UNL A   1      42.249  33.933  30.333  1.00  0.00     0.014 A 
ATOM     39  C   UNL A   1      43.935  34.079  28.840  1.00  0.00     0.014 A 
ATOM     40  C   UNL A   1      42.451  32.357  30.005  1.00  0.00     0.010 A 
ATOM     41  C   UNL A   1      44.099  32.529  28.498  1.00  0.00     0.010 A 
ATOM     42  C   UNL A   1      43.383  31.525  29.111  1.00  0.00    -0.014 A 
BRANCH  42  43
ATOM     43  C   UNL A   1      43.291  29.735  28.729  1.00  0.00     0.031 A 
ATOM     44  C   UNL A   1      43.752  29.305  30.040  1.00  0.00     0.074 A 
ATOM     45  C   UNL A   1      43.271  28.484  27.870  1.00  0.00     0.049 A 
ATOM     46  N   UNL A   1      45.027  29.444  30.149  1.00  0.00    -0.248 NA
ATOM     47  C   UNL A   1      43.008  29.323  31.288  1.00  0.00     0.031 C 
ATOM     48  C   UNL A   1      43.458  28.277  26.388  1.00  0.00     0.029 A 
ATOM     49  N   UNL A   1      43.224  26.942  28.184  1.00  0.00    -0.354 N 
ATOM     50  C   UNL A   1      45.327  29.528  31.478  1.00  0.00     0.074 A 
ATOM     51  C   UNL A   1      44.030  29.447  32.153  1.00  0.00     0.031 C 
ATOM     52  C   UNL A   1      43.352  26.966  25.931  1.00  0.00     0.029 A 
ATOM     53  C   UNL A   1      43.115  25.942  26.984  1.00  0.00     0.049 A 
ATOM     54  H   UNL A   1      43.262  26.615  29.111  1.00  0.00     0.167 HD
ATOM     55  C   UNL A   1      46.555  29.018  31.730  1.00  0.00     0.034 A 
ATOM     56  C   UNL A   1      43.027  24.464  26.892  1.00  0.00     0.034 A 
ATOM     57  C   UNL A   1      46.414  27.584  31.648  1.00  0.00     0.049 A 
ATOM     58  C   UNL A   1      44.058  23.994  27.809  1.00  0.00     0.074 A 
ATOM     59  C   UNL A   1      45.378  26.773  32.086  1.00  0.00     0.029 A 
ATOM     60  N   UNL A   1      47.020  26.938  30.596  1.00  0.00    -0.354 N 
ATOM     61  N   UNL A   1      45.320  23.937  27.531  1.00  0.00    -0.248 NA
ATOM     62  C   UNL A   1      43.657  23.445  29.088  1.00  0.00     0.031 C 
ATOM     63  C   UNL A   1      45.100  25.950  30.984  1.00  0.00     0.029 A 
ATOM     64  C   UNL A   1      46.229  25.898  30.176  1.00  0.00     0.049 A 
ATOM     65  H   UNL A   1      47.888  27.184  30.204  1.00  0.00     0.167 HD
ATOM     66  C   UNL A   1      45.851  24.027  28.781  1.00  0.00     0.074 A 
ATOM     67  C   UNL A   1      44.854  23.439  29.671  1.00  0.00     0.031 C 
ATOM     68  C   UNL A   1      46.588  25.147  28.997  1.00  0.00     0.034 A 
BRANCH  55  69
ATOM     69  C   UNL A   1      47.587  29.853  30.952  1.00  0.00     0.023 A 
ATOM     70  C   UNL A   1      48.654  29.157  30.378  1.00  0.00     0.031 A 
ATOM     71  C   UNL A   1      47.685  31.275  30.961  1.00  0.00     0.131 A 
ATOM     72  C   UNL A   1      49.773  29.851  29.880  1.00  0.00     0.055 A 
ATOM     73  C   UNL A   1      48.819  31.957  30.506  1.00  0.00     0.041 A 
ATOM     74  F   UNL A   1      46.698  32.043  31.448  1.00  0.00    -0.206 F 
ATOM     75  C   UNL A   1      49.877  31.243  29.961  1.00  0.00     0.022 A 
BRANCH  72  76
ATOM     76  S   UNL A   1      51.099  28.882  29.124  1.00  0.00     0.124 S 
ATOM     77  O   UNL A   1      52.278  29.682  29.440  1.00  0.00    -0.237 OA
ATOM     78  O   UNL A   1      50.993  27.611  29.835  1.00  0.00    -0.237 OA
ATOM     79  O   UNL A   1      50.735  28.829  27.709  1.00  0.00    -0.744 OA
ENDBRANCH  72  76
ENDBRANCH  55  69
BRANCH  56  80
ATOM     80  C   UNL A   1      42.642  22.951  26.135  1.00  0.00     0.023 A 
ATOM     81  C   UNL A   1      43.625  21.978  25.509  1.00  0.00     0.031 A 
ATOM     82  C   UNL A   1      41.471  22.279  26.521  1.00  0.00     0.131 A 
ATOM     83  C   UNL A   1      43.401  20.536  25.365  1.00  0.00     0.055 A 
ATOM     84  C   UNL A   1      41.270  20.859  26.379  1.00  0.00     0.041 A 
ATOM     85  F   UNL A   1      40.496  22.947  27.148  1.00  0.00    -0.206 F 
ATOM     86  C   UNL A   1      42.219  19.991  25.833  1.00  0.00     0.022 A 
BRANCH  83  87
ATOM     87  S   UNL A   1      44.650  19.246  24.730  1.00  0.00     0.124 S 
ATOM     88  O   UNL A   1      45.941  19.819  25.090  1.00  0.00    -0.237 OA
ATOM     89  O   UNL A   1      44.261  18.021  25.419  1.00  0.00    -0.237 OA
ATOM     90  O   UNL A   1      44.405  19.206  23.281  1.00  0.00    -0.744 OA
ENDBRANCH  83  87
ENDBRANCH  56  80
BRANCH  68  91
ATOM     91  C   UNL A   1      47.591  25.559  27.921  1.00  0.00     0.023 A 
ATOM     92  C   UNL A   1      47.295  26.146  26.659  1.00  0.00     0.031 A 
ATOM     93  C   UNL A   1      48.936  25.234  28.148  1.00  0.00     0.131 A 
ATOM     94  C   UNL A   1      48.305  26.342  25.691  1.00  0.00     0.055 A 
ATOM     95  C   UNL A   1      49.943  25.467  27.210  1.00  0.00     0.041 A 
ATOM     96  F   UNL A   1      49.308  24.651  29.299  1.00  0.00    -0.206 F 
ATOM     97  C   UNL A   1      49.628  26.005  25.970  1.00  0.00     0.022 A 
BRANCH  94  98
ATOM     98  S   UNL A   1      47.898  26.956  24.019  1.00  0.00     0.124 S 
ATOM     99  O   UNL A   1      48.201  25.819  23.157  1.00  0.00    -0.237 OA
ATOM    100  O   UNL A   1      46.485  27.302  24.144  1.00  0.00    -0.237 OA
ATOM    101  O   UNL A   1      48.796  28.100  23.849  1.00  0.00    -0.744 OA
ENDBRANCH  94  98
ENDBRANCH  68  91
ENDBRANCH  42  43
ENDBRANCH  34  37
ENDBRANCH  32  33
ENDBRANCH   1  32
TORSDOF 15
ENDMDL
