MODEL 1
REMARK VINA RESULT:     -12.2      0.000      0.000
REMARK SMILES C[C@H]1OCC[C@H]1c1nnnn1CCC(=O)NCCCNC(=O)c1ccc(-c2c3nc(c(-c4cc(S(=O)(=O)[O-])ccc4F)c4ccc([nH]4)c(-c4cc(S(=O)(=O)[O-])ccc4F)c4nc(c(-c5cc(S(=O)(=O)[O-])ccc5F)c5ccc2[nH]5)C=C4)C=C3)cc1
REMARK SMILES IDX 18 1 17 2 16 3 14 4 15 5 13 7 12 8 11 9 7 10 8 11 9 12 10 13
REMARK SMILES IDX 6 14 1 15 2 16 3 17 4 18 5 19 19 20 20 21 21 22 22 24 23 25
REMARK SMILES IDX 24 26 85 27 25 28 84 29 26 30 27 31 28 32 78 33 29 34 83 35
REMARK SMILES IDX 77 36 79 37 30 38 82 39 76 40 75 41 31 43 63 44 43 45 62 46
REMARK SMILES IDX 44 47 47 48 61 49 80 50 45 51 46 52 60 54 81 55 48 56 32 57
REMARK SMILES IDX 33 58 41 59 34 60 40 61 42 62 39 63 35 64 36 65 37 66 38 67
REMARK SMILES IDX 64 68 65 69 73 70 66 71 72 72 74 73 71 74 67 75 68 76 69 77
REMARK SMILES IDX 70 78 49 79 50 80 58 81 51 82 57 83 59 84 56 85 52 86 53 87
REMARK SMILES IDX 54 88 55 89
REMARK H PARENT 16 6 20 23 79 42 47 53
REMARK Flexibility Score: inf
ROOT
ATOM      1  C   UNL A   1      37.551  19.629  24.996  1.00  0.00     0.042 C 
ENDROOT
BRANCH   1   2
ATOM      2  C   UNL A   1      36.439  20.672  25.059  1.00  0.00     0.117 C 
BRANCH   2   3
ATOM      3  N   UNL A   1      35.115  20.055  25.060  1.00  0.00    -0.356 N 
ATOM      4  C   UNL A   1      33.888  20.612  24.857  1.00  0.00     0.221 C 
ATOM      5  O   UNL A   1      32.876  19.929  25.013  1.00  0.00    -0.275 OA
ATOM      6  H   UNL A   1      35.107  19.086  25.235  1.00  0.00     0.163 HD
BRANCH   4   7
ATOM      7  C   UNL A   1      33.772  22.043  24.390  1.00  0.00     0.124 C 
BRANCH   7   8
ATOM      8  C   UNL A   1      32.327  22.512  24.285  1.00  0.00     0.158 C 
BRANCH   8   9
ATOM      9  N   UNL A   1      31.802  23.136  25.478  1.00  0.00    -0.229 N 
ATOM     10  C   UNL A   1      31.957  24.415  25.966  1.00  0.00     0.157 A 
ATOM     11  N   UNL A   1      31.325  24.476  27.121  1.00  0.00    -0.113 NA
ATOM     12  N   UNL A   1      30.639  23.298  27.248  1.00  0.00    -0.024 NA
ATOM     13  N   UNL A   1      30.886  22.495  26.223  1.00  0.00    -0.045 NA
BRANCH  10  14
ATOM     14  C   UNL A   1      32.554  25.562  25.220  1.00  0.00     0.090 C 
ATOM     15  C   UNL A   1      30.099  25.842  24.318  1.00  0.00     0.039 C 
ATOM     16  C   UNL A   1      31.485  26.443  24.532  1.00  0.00     0.126 C 
ATOM     17  O   UNL A   1      31.322  27.640  25.322  1.00  0.00    -0.378 OA
ATOM     18  C   UNL A   1      32.085  27.488  26.523  1.00  0.00     0.161 C 
ATOM     19  C   UNL A   1      33.228  26.571  26.146  1.00  0.00     0.043 C 
ENDBRANCH  10  14
ENDBRANCH   8   9
ENDBRANCH   7   8
ENDBRANCH   4   7
ENDBRANCH   2   3
ENDBRANCH   1   2
BRANCH   1  20
ATOM     20  C   UNL A   1      38.853  20.109  25.586  1.00  0.00     0.118 C 
BRANCH  20  21
ATOM     21  N   UNL A   1      39.889  19.082  25.708  1.00  0.00    -0.352 N 
ATOM     22  C   UNL A   1      41.241  19.280  25.966  1.00  0.00     0.251 C 
ATOM     23  H   UNL A   1      39.595  18.149  25.593  1.00  0.00     0.163 HD
ATOM     24  O   UNL A   1      42.048  18.376  25.747  1.00  0.00    -0.269 OA
BRANCH  22  25
ATOM     25  C   UNL A   1      41.688  20.595  26.478  1.00  0.00     0.039 A 
ATOM     26  C   UNL A   1      42.317  21.568  25.699  1.00  0.00     0.014 A 
ATOM     27  C   UNL A   1      41.397  20.874  27.803  1.00  0.00     0.014 A 
ATOM     28  C   UNL A   1      42.590  22.809  26.284  1.00  0.00     0.010 A 
ATOM     29  C   UNL A   1      41.304  22.162  28.220  1.00  0.00     0.010 A 
ATOM     30  C   UNL A   1      42.072  23.091  27.560  1.00  0.00    -0.014 A 
BRANCH  30  31
ATOM     31  C   UNL A   1      42.272  24.343  28.272  1.00  0.00     0.031 A 
ATOM     32  C   UNL A   1      41.215  25.343  28.031  1.00  0.00     0.074 A 
ATOM     33  C   UNL A   1      43.188  24.495  29.260  1.00  0.00     0.049 A 
ATOM     34  N   UNL A   1      41.299  26.403  27.305  1.00  0.00    -0.248 NA
ATOM     35  C   UNL A   1      39.853  25.042  28.495  1.00  0.00     0.031 C 
ATOM     36  C   UNL A   1      44.081  23.489  29.860  1.00  0.00     0.029 A 
ATOM     37  N   UNL A   1      43.434  25.586  30.033  1.00  0.00    -0.354 N 
ATOM     38  C   UNL A   1      40.076  27.046  27.439  1.00  0.00     0.074 A 
ATOM     39  C   UNL A   1      39.172  26.057  27.962  1.00  0.00     0.031 C 
ATOM     40  C   UNL A   1      44.576  23.950  31.031  1.00  0.00     0.029 A 
ATOM     41  C   UNL A   1      44.197  25.342  31.173  1.00  0.00     0.049 A 
ATOM     42  H   UNL A   1      43.100  26.483  29.804  1.00  0.00     0.167 HD
ATOM     43  C   UNL A   1      39.990  28.402  27.356  1.00  0.00     0.034 A 
ATOM     44  C   UNL A   1      44.486  26.217  32.174  1.00  0.00     0.034 A 
ATOM     45  C   UNL A   1      41.218  28.961  26.823  1.00  0.00     0.049 A 
ATOM     46  C   UNL A   1      44.308  27.575  31.598  1.00  0.00     0.074 A 
ATOM     47  C   UNL A   1      41.932  28.775  25.654  1.00  0.00     0.029 A 
ATOM     48  N   UNL A   1      42.109  29.525  27.712  1.00  0.00    -0.354 N 
ATOM     49  N   UNL A   1      45.045  28.040  30.623  1.00  0.00    -0.248 NA
ATOM     50  C   UNL A   1      43.002  28.204  31.736  1.00  0.00     0.031 C 
ATOM     51  C   UNL A   1      43.299  28.740  26.065  1.00  0.00     0.029 A 
ATOM     52  C   UNL A   1      43.352  29.007  27.436  1.00  0.00     0.049 A 
ATOM     53  H   UNL A   1      41.894  30.178  28.417  1.00  0.00     0.167 HD
ATOM     54  C   UNL A   1      44.155  28.682  29.774  1.00  0.00     0.074 A 
ATOM     55  C   UNL A   1      42.930  28.833  30.558  1.00  0.00     0.031 C 
ATOM     56  C   UNL A   1      44.388  28.772  28.430  1.00  0.00     0.034 A 
BRANCH  43  57
ATOM     57  C   UNL A   1      38.978  29.256  28.083  1.00  0.00     0.023 A 
ATOM     58  C   UNL A   1      39.056  29.282  29.488  1.00  0.00     0.031 A 
ATOM     59  C   UNL A   1      37.804  29.809  27.524  1.00  0.00     0.131 A 
ATOM     60  C   UNL A   1      37.976  29.734  30.264  1.00  0.00     0.055 A 
ATOM     61  C   UNL A   1      36.762  30.325  28.299  1.00  0.00     0.041 A 
ATOM     62  F   UNL A   1      37.546  29.799  26.211  1.00  0.00    -0.206 F 
ATOM     63  C   UNL A   1      36.829  30.259  29.678  1.00  0.00     0.022 A 
BRANCH  60  64
ATOM     64  S   UNL A   1      38.029  29.450  32.051  1.00  0.00     0.124 S 
ATOM     65  O   UNL A   1      38.591  28.105  32.119  1.00  0.00    -0.237 OA
ATOM     66  O   UNL A   1      38.895  30.535  32.501  1.00  0.00    -0.237 OA
ATOM     67  O   UNL A   1      36.629  29.562  32.452  1.00  0.00    -0.744 OA
ENDBRANCH  60  64
ENDBRANCH  43  57
BRANCH  44  68
ATOM     68  C   UNL A   1      44.537  25.922  33.637  1.00  0.00     0.023 A 
ATOM     69  C   UNL A   1      43.470  26.183  34.525  1.00  0.00     0.031 A 
ATOM     70  C   UNL A   1      45.599  25.138  34.143  1.00  0.00     0.131 A 
ATOM     71  C   UNL A   1      43.499  25.670  35.848  1.00  0.00     0.055 A 
ATOM     72  C   UNL A   1      45.622  24.635  35.447  1.00  0.00     0.041 A 
ATOM     73  F   UNL A   1      46.619  24.763  33.355  1.00  0.00    -0.206 F 
ATOM     74  C   UNL A   1      44.566  24.893  36.304  1.00  0.00     0.022 A 
BRANCH  71  75
ATOM     75  S   UNL A   1      42.100  25.946  36.989  1.00  0.00     0.124 S 
ATOM     76  O   UNL A   1      41.397  27.056  36.357  1.00  0.00    -0.237 OA
ATOM     77  O   UNL A   1      41.422  24.654  36.972  1.00  0.00    -0.237 OA
ATOM     78  O   UNL A   1      42.752  26.278  38.258  1.00  0.00    -0.744 OA
ENDBRANCH  71  75
ENDBRANCH  44  68
BRANCH  56  79
ATOM     79  C   UNL A   1      45.764  28.419  27.897  1.00  0.00     0.023 A 
ATOM     80  C   UNL A   1      46.176  27.131  27.478  1.00  0.00     0.031 A 
ATOM     81  C   UNL A   1      46.646  29.490  27.665  1.00  0.00     0.131 A 
ATOM     82  C   UNL A   1      47.428  26.963  26.847  1.00  0.00     0.055 A 
ATOM     83  C   UNL A   1      47.871  29.322  27.023  1.00  0.00     0.041 A 
ATOM     84  F   UNL A   1      46.303  30.740  28.019  1.00  0.00    -0.206 F 
ATOM     85  C   UNL A   1      48.269  28.056  26.613  1.00  0.00     0.022 A 
BRANCH  82  86
ATOM     86  S   UNL A   1      48.001  25.312  26.319  1.00  0.00     0.124 S 
ATOM     87  O   UNL A   1      47.192  25.030  25.140  1.00  0.00    -0.237 OA
ATOM     88  O   UNL A   1      49.425  25.528  26.081  1.00  0.00    -0.237 OA
ATOM     89  O   UNL A   1      47.704  24.462  27.475  1.00  0.00    -0.744 OA
ENDBRANCH  82  86
ENDBRANCH  56  79
ENDBRANCH  30  31
ENDBRANCH  22  25
ENDBRANCH  20  21
ENDBRANCH   1  20
TORSDOF 16
ENDMDL
MODEL 2
REMARK VINA RESULT:     -12.0      4.709     10.042
REMARK SMILES C[C@H]1OCC[C@H]1c1nnnn1CCC(=O)NCCCNC(=O)c1ccc(-c2c3nc(c(-c4cc(S(=O)(=O)[O-])ccc4F)c4ccc([nH]4)c(-c4cc(S(=O)(=O)[O-])ccc4F)c4nc(c(-c5cc(S(=O)(=O)[O-])ccc5F)c5ccc2[nH]5)C=C4)C=C3)cc1
REMARK SMILES IDX 18 1 17 2 16 3 14 4 15 5 13 7 12 8 11 9 7 10 8 11 9 12 10 13
REMARK SMILES IDX 6 14 1 15 2 16 3 17 4 18 5 19 19 20 20 21 21 22 22 24 23 25
REMARK SMILES IDX 24 26 85 27 25 28 84 29 26 30 27 31 28 32 78 33 29 34 83 35
REMARK SMILES IDX 77 36 79 37 30 38 82 39 76 40 75 41 31 43 63 44 43 45 62 46
REMARK SMILES IDX 44 47 47 48 61 49 80 50 45 51 46 52 60 54 81 55 48 56 32 57
REMARK SMILES IDX 33 58 41 59 34 60 40 61 42 62 39 63 35 64 36 65 37 66 38 67
REMARK SMILES IDX 64 68 65 69 73 70 66 71 72 72 74 73 71 74 67 75 68 76 69 77
REMARK SMILES IDX 70 78 49 79 50 80 58 81 51 82 57 83 59 84 56 85 52 86 53 87
REMARK SMILES IDX 54 88 55 89
REMARK H PARENT 16 6 20 23 79 42 47 53
REMARK Flexibility Score: inf
ROOT
ATOM      1  C   UNL A   1      31.402  31.651  26.320  1.00  0.00     0.042 C 
ENDROOT
BRANCH   1   2
ATOM      2  C   UNL A   1      31.805  30.262  25.833  1.00  0.00     0.117 C 
BRANCH   2   3
ATOM      3  N   UNL A   1      31.325  30.001  24.478  1.00  0.00    -0.356 N 
ATOM      4  C   UNL A   1      31.507  28.913  23.678  1.00  0.00     0.221 C 
ATOM      5  O   UNL A   1      31.107  28.939  22.515  1.00  0.00    -0.275 OA
ATOM      6  H   UNL A   1      30.786  30.722  24.081  1.00  0.00     0.163 HD
BRANCH   4   7
ATOM      7  C   UNL A   1      32.147  27.662  24.232  1.00  0.00     0.124 C 
BRANCH   7   8
ATOM      8  C   UNL A   1      33.463  27.322  23.545  1.00  0.00     0.158 C 
BRANCH   8   9
ATOM      9  N   UNL A   1      33.393  26.228  22.603  1.00  0.00    -0.229 N 
ATOM     10  C   UNL A   1      33.358  24.867  22.810  1.00  0.00     0.157 A 
ATOM     11  N   UNL A   1      33.356  24.289  21.625  1.00  0.00    -0.113 NA
ATOM     12  N   UNL A   1      33.207  25.293  20.706  1.00  0.00    -0.024 NA
ATOM     13  N   UNL A   1      33.179  26.477  21.301  1.00  0.00    -0.045 NA
BRANCH  10  14
ATOM     14  C   UNL A   1      33.153  24.193  24.125  1.00  0.00     0.090 C 
ATOM     15  C   UNL A   1      30.634  24.176  23.364  1.00  0.00     0.039 C 
ATOM     16  C   UNL A   1      31.721  23.629  24.286  1.00  0.00     0.126 C 
ATOM     17  O   UNL A   1      31.783  22.201  24.085  1.00  0.00    -0.378 OA
ATOM     18  C   UNL A   1      33.106  21.868  23.655  1.00  0.00     0.161 C 
ATOM     19  C   UNL A   1      33.994  22.928  24.269  1.00  0.00     0.043 C 
ENDBRANCH  10  14
ENDBRANCH   8   9
ENDBRANCH   7   8
ENDBRANCH   4   7
ENDBRANCH   2   3
ENDBRANCH   1   2
BRANCH   1  20
ATOM     20  C   UNL A   1      32.402  32.264  27.268  1.00  0.00     0.118 C 
BRANCH  20  21
ATOM     21  N   UNL A   1      32.221  33.697  27.511  1.00  0.00    -0.352 N 
ATOM     22  C   UNL A   1      32.958  34.501  28.373  1.00  0.00     0.251 C 
ATOM     23  H   UNL A   1      31.499  34.138  27.007  1.00  0.00     0.163 HD
ATOM     24  O   UNL A   1      32.522  35.603  28.709  1.00  0.00    -0.269 OA
BRANCH  22  25
ATOM     25  C   UNL A   1      34.249  34.000  28.894  1.00  0.00     0.039 A 
ATOM     26  C   UNL A   1      34.424  33.458  30.169  1.00  0.00     0.014 A 
ATOM     27  C   UNL A   1      35.322  34.027  28.019  1.00  0.00     0.014 A 
ATOM     28  C   UNL A   1      35.674  32.922  30.495  1.00  0.00     0.010 A 
ATOM     29  C   UNL A   1      36.364  33.176  28.197  1.00  0.00     0.010 A 
ATOM     30  C   UNL A   1      36.644  32.790  29.486  1.00  0.00    -0.014 A 
BRANCH  30  31
ATOM     31  C   UNL A   1      37.975  32.239  29.690  1.00  0.00     0.031 A 
ATOM     32  C   UNL A   1      38.082  30.803  29.374  1.00  0.00     0.074 A 
ATOM     33  C   UNL A   1      39.071  33.010  29.895  1.00  0.00     0.049 A 
ATOM     34  N   UNL A   1      38.172  29.827  30.211  1.00  0.00    -0.248 NA
ATOM     35  C   UNL A   1      37.880  30.379  27.981  1.00  0.00     0.031 C 
ATOM     36  C   UNL A   1      39.188  34.478  29.887  1.00  0.00     0.029 A 
ATOM     37  N   UNL A   1      40.367  32.626  30.043  1.00  0.00    -0.354 N 
ATOM     38  C   UNL A   1      38.310  28.683  29.437  1.00  0.00     0.074 A 
ATOM     39  C   UNL A   1      37.878  29.052  28.116  1.00  0.00     0.031 C 
ATOM     40  C   UNL A   1      40.487  34.838  29.782  1.00  0.00     0.029 A 
ATOM     41  C   UNL A   1      41.304  33.647  29.910  1.00  0.00     0.049 A 
ATOM     42  H   UNL A   1      40.624  31.694  30.232  1.00  0.00     0.167 HD
ATOM     43  C   UNL A   1      39.017  27.615  29.897  1.00  0.00     0.034 A 
ATOM     44  C   UNL A   1      42.659  33.525  29.889  1.00  0.00     0.034 A 
ATOM     45  C   UNL A   1      39.280  27.746  31.318  1.00  0.00     0.049 A 
ATOM     46  C   UNL A   1      42.966  32.230  30.550  1.00  0.00     0.074 A 
ATOM     47  C   UNL A   1      38.480  27.901  32.434  1.00  0.00     0.029 A 
ATOM     48  N   UNL A   1      40.535  28.168  31.704  1.00  0.00    -0.354 N 
ATOM     49  N   UNL A   1      42.701  31.989  31.807  1.00  0.00    -0.248 NA
ATOM     50  C   UNL A   1      43.075  31.048  29.707  1.00  0.00     0.031 C 
ATOM     51  C   UNL A   1      39.153  28.875  33.232  1.00  0.00     0.029 A 
ATOM     52  C   UNL A   1      40.368  29.184  32.615  1.00  0.00     0.049 A 
ATOM     53  H   UNL A   1      41.394  27.808  31.386  1.00  0.00     0.167 HD
ATOM     54  C   UNL A   1      42.182  30.702  31.826  1.00  0.00     0.074 A 
ATOM     55  C   UNL A   1      42.526  30.139  30.520  1.00  0.00     0.031 C 
ATOM     56  C   UNL A   1      41.276  30.310  32.771  1.00  0.00     0.034 A 
BRANCH  43  57
ATOM     57  C   UNL A   1      39.788  26.644  29.033  1.00  0.00     0.023 A 
ATOM     58  C   UNL A   1      40.920  27.146  28.364  1.00  0.00     0.031 A 
ATOM     59  C   UNL A   1      39.343  25.370  28.613  1.00  0.00     0.131 A 
ATOM     60  C   UNL A   1      41.485  26.455  27.281  1.00  0.00     0.055 A 
ATOM     61  C   UNL A   1      39.954  24.653  27.582  1.00  0.00     0.041 A 
ATOM     62  F   UNL A   1      38.243  24.786  29.100  1.00  0.00    -0.206 F 
ATOM     63  C   UNL A   1      41.011  25.208  26.886  1.00  0.00     0.022 A 
BRANCH  60  64
ATOM     64  S   UNL A   1      42.734  27.304  26.282  1.00  0.00     0.124 S 
ATOM     65  O   UNL A   1      42.090  27.341  24.974  1.00  0.00    -0.237 OA
ATOM     66  O   UNL A   1      42.857  28.580  26.978  1.00  0.00    -0.237 OA
ATOM     67  O   UNL A   1      43.898  26.425  26.379  1.00  0.00    -0.744 OA
ENDBRANCH  60  64
ENDBRANCH  43  57
BRANCH  44  68
ATOM     68  C   UNL A   1      43.615  34.274  29.021  1.00  0.00     0.023 A 
ATOM     69  C   UNL A   1      44.067  33.806  27.767  1.00  0.00     0.031 A 
ATOM     70  C   UNL A   1      43.920  35.619  29.336  1.00  0.00     0.131 A 
ATOM     71  C   UNL A   1      44.787  34.667  26.899  1.00  0.00     0.055 A 
ATOM     72  C   UNL A   1      44.630  36.462  28.477  1.00  0.00     0.041 A 
ATOM     73  F   UNL A   1      43.463  36.186  30.465  1.00  0.00    -0.206 F 
ATOM     74  C   UNL A   1      45.061  35.990  27.248  1.00  0.00     0.022 A 
BRANCH  71  75
ATOM     75  S   UNL A   1      45.325  34.094  25.250  1.00  0.00     0.124 S 
ATOM     76  O   UNL A   1      46.629  34.732  25.108  1.00  0.00    -0.237 OA
ATOM     77  O   UNL A   1      45.325  32.644  25.407  1.00  0.00    -0.237 OA
ATOM     78  O   UNL A   1      44.290  34.611  24.352  1.00  0.00    -0.744 OA
ENDBRANCH  71  75
ENDBRANCH  44  68
BRANCH  56  79
ATOM     79  C   UNL A   1      41.046  31.196  33.982  1.00  0.00     0.023 A 
ATOM     80  C   UNL A   1      40.097  32.244  34.064  1.00  0.00     0.031 A 
ATOM     81  C   UNL A   1      41.730  30.846  35.160  1.00  0.00     0.131 A 
ATOM     82  C   UNL A   1      39.865  32.888  35.299  1.00  0.00     0.055 A 
ATOM     83  C   UNL A   1      41.482  31.470  36.380  1.00  0.00     0.041 A 
ATOM     84  F   UNL A   1      42.627  29.845  35.152  1.00  0.00    -0.206 F 
ATOM     85  C   UNL A   1      40.549  32.496  36.454  1.00  0.00     0.022 A 
BRANCH  82  86
ATOM     86  S   UNL A   1      38.668  34.260  35.433  1.00  0.00     0.124 S 
ATOM     87  O   UNL A   1      39.083  34.958  36.644  1.00  0.00    -0.237 OA
ATOM     88  O   UNL A   1      38.867  34.981  34.179  1.00  0.00    -0.237 OA
ATOM     89  O   UNL A   1      37.377  33.577  35.540  1.00  0.00    -0.744 OA
ENDBRANCH  82  86
ENDBRANCH  56  79
ENDBRANCH  30  31
ENDBRANCH  22  25
ENDBRANCH  20  21
ENDBRANCH   1  20
TORSDOF 16
ENDMDL
MODEL 3
REMARK VINA RESULT:     -11.6      4.789      9.700
REMARK SMILES C[C@H]1OCC[C@H]1c1nnnn1CCC(=O)NCCCNC(=O)c1ccc(-c2c3nc(c(-c4cc(S(=O)(=O)[O-])ccc4F)c4ccc([nH]4)c(-c4cc(S(=O)(=O)[O-])ccc4F)c4nc(c(-c5cc(S(=O)(=O)[O-])ccc5F)c5ccc2[nH]5)C=C4)C=C3)cc1
REMARK SMILES IDX 18 1 17 2 16 3 14 4 15 5 13 7 12 8 11 9 7 10 8 11 9 12 10 13
REMARK SMILES IDX 6 14 1 15 2 16 3 17 4 18 5 19 19 20 20 21 21 22 22 24 23 25
REMARK SMILES IDX 24 26 85 27 25 28 84 29 26 30 27 31 28 32 78 33 29 34 83 35
REMARK SMILES IDX 77 36 79 37 30 38 82 39 76 40 75 41 31 43 63 44 43 45 62 46
REMARK SMILES IDX 44 47 47 48 61 49 80 50 45 51 46 52 60 54 81 55 48 56 32 57
REMARK SMILES IDX 33 58 41 59 34 60 40 61 42 62 39 63 35 64 36 65 37 66 38 67
REMARK SMILES IDX 64 68 65 69 73 70 66 71 72 72 74 73 71 74 67 75 68 76 69 77
REMARK SMILES IDX 70 78 49 79 50 80 58 81 51 82 57 83 59 84 56 85 52 86 53 87
REMARK SMILES IDX 54 88 55 89
REMARK H PARENT 16 6 20 23 79 42 47 53
REMARK Flexibility Score: inf
ROOT
ATOM      1  C   UNL A   1      34.288  34.795  28.153  1.00  0.00     0.042 C 
ENDROOT
BRANCH   1   2
ATOM      2  C   UNL A   1      34.388  35.844  29.257  1.00  0.00     0.117 C 
BRANCH   2   3
ATOM      3  N   UNL A   1      33.105  36.053  29.925  1.00  0.00    -0.356 N 
ATOM      4  C   UNL A   1      32.835  36.437  31.204  1.00  0.00     0.221 C 
ATOM      5  O   UNL A   1      31.671  36.446  31.604  1.00  0.00    -0.275 OA
ATOM      6  H   UNL A   1      32.312  35.892  29.364  1.00  0.00     0.163 HD
BRANCH   4   7
ATOM      7  C   UNL A   1      33.951  36.900  32.109  1.00  0.00     0.124 C 
BRANCH   7   8
ATOM      8  C   UNL A   1      34.292  35.884  33.189  1.00  0.00     0.158 C 
BRANCH   8   9
ATOM      9  N   UNL A   1      34.606  34.560  32.702  1.00  0.00    -0.229 N 
ATOM     10  C   UNL A   1      35.812  33.996  32.348  1.00  0.00     0.157 A 
ATOM     11  N   UNL A   1      35.564  32.777  31.909  1.00  0.00    -0.113 NA
ATOM     12  N   UNL A   1      34.240  32.538  32.165  1.00  0.00    -0.024 NA
ATOM     13  N   UNL A   1      33.661  33.605  32.696  1.00  0.00    -0.045 NA
BRANCH  10  14
ATOM     14  C   UNL A   1      37.157  34.587  32.609  1.00  0.00     0.090 C 
ATOM     15  C   UNL A   1      36.714  33.715  35.052  1.00  0.00     0.039 C 
ATOM     16  C   UNL A   1      37.707  34.214  34.005  1.00  0.00     0.126 C 
ATOM     17  O   UNL A   1      38.704  33.184  33.828  1.00  0.00    -0.378 OA
ATOM     18  C   UNL A   1      38.692  32.784  32.455  1.00  0.00     0.161 C 
ATOM     19  C   UNL A   1      38.235  34.009  31.695  1.00  0.00     0.043 C 
ENDBRANCH  10  14
ENDBRANCH   8   9
ENDBRANCH   7   8
ENDBRANCH   4   7
ENDBRANCH   2   3
ENDBRANCH   1   2
BRANCH   1  20
ATOM     20  C   UNL A   1      34.963  33.494  28.504  1.00  0.00     0.118 C 
BRANCH  20  21
ATOM     21  N   UNL A   1      34.218  32.292  28.123  1.00  0.00    -0.352 N 
ATOM     22  C   UNL A   1      34.744  31.053  27.772  1.00  0.00     0.251 C 
ATOM     23  H   UNL A   1      33.236  32.371  28.113  1.00  0.00     0.163 HD
ATOM     24  O   UNL A   1      34.040  30.228  27.190  1.00  0.00    -0.269 OA
BRANCH  22  25
ATOM     25  C   UNL A   1      36.161  30.762  28.086  1.00  0.00     0.039 A 
ATOM     26  C   UNL A   1      37.004  31.628  28.787  1.00  0.00     0.014 A 
ATOM     27  C   UNL A   1      36.637  29.520  27.701  1.00  0.00     0.014 A 
ATOM     28  C   UNL A   1      38.290  31.182  29.109  1.00  0.00     0.010 A 
ATOM     29  C   UNL A   1      37.698  28.972  28.345  1.00  0.00     0.010 A 
ATOM     30  C   UNL A   1      38.624  29.838  28.877  1.00  0.00    -0.014 A 
BRANCH  30  31
ATOM     31  C   UNL A   1      39.919  29.247  29.177  1.00  0.00     0.031 A 
ATOM     32  C   UNL A   1      40.172  29.064  30.618  1.00  0.00     0.074 A 
ATOM     33  C   UNL A   1      40.711  28.679  28.234  1.00  0.00     0.049 A 
ATOM     34  N   UNL A   1      40.956  29.761  31.365  1.00  0.00    -0.248 NA
ATOM     35  C   UNL A   1      39.323  28.119  31.359  1.00  0.00     0.031 C 
ATOM     36  C   UNL A   1      40.441  28.469  26.801  1.00  0.00     0.029 A 
ATOM     37  N   UNL A   1      41.906  28.051  28.391  1.00  0.00    -0.354 N 
ATOM     38  C   UNL A   1      40.901  29.169  32.619  1.00  0.00     0.074 A 
ATOM     39  C   UNL A   1      39.720  28.348  32.612  1.00  0.00     0.031 C 
ATOM     40  C   UNL A   1      41.315  27.570  26.294  1.00  0.00     0.029 A 
ATOM     41  C   UNL A   1      42.318  27.286  27.302  1.00  0.00     0.049 A 
ATOM     42  H   UNL A   1      42.441  28.130  29.213  1.00  0.00     0.167 HD
ATOM     43  C   UNL A   1      41.978  29.205  33.452  1.00  0.00     0.034 A 
ATOM     44  C   UNL A   1      43.401  26.465  27.235  1.00  0.00     0.034 A 
ATOM     45  C   UNL A   1      42.961  30.161  32.978  1.00  0.00     0.049 A 
ATOM     46  C   UNL A   1      44.332  26.922  28.298  1.00  0.00     0.074 A 
ATOM     47  C   UNL A   1      42.931  31.514  32.698  1.00  0.00     0.029 A 
ATOM     48  N   UNL A   1      44.064  29.672  32.311  1.00  0.00    -0.354 N 
ATOM     49  N   UNL A   1      44.898  28.100  28.294  1.00  0.00    -0.248 NA
ATOM     50  C   UNL A   1      44.224  26.295  29.608  1.00  0.00     0.031 C 
ATOM     51  C   UNL A   1      43.677  31.652  31.490  1.00  0.00     0.029 A 
ATOM     52  C   UNL A   1      44.205  30.402  31.155  1.00  0.00     0.049 A 
ATOM     53  H   UNL A   1      44.646  28.935  32.608  1.00  0.00     0.167 HD
ATOM     54  C   UNL A   1      44.813  28.545  29.606  1.00  0.00     0.074 A 
ATOM     55  C   UNL A   1      44.477  27.354  30.385  1.00  0.00     0.031 C 
ATOM     56  C   UNL A   1      44.735  29.877  29.906  1.00  0.00     0.034 A 
BRANCH  43  57
ATOM     57  C   UNL A   1      42.327  28.144  34.469  1.00  0.00     0.023 A 
ATOM     58  C   UNL A   1      43.142  27.084  34.031  1.00  0.00     0.031 A 
ATOM     59  C   UNL A   1      41.706  27.961  35.726  1.00  0.00     0.131 A 
ATOM     60  C   UNL A   1      43.230  25.889  34.763  1.00  0.00     0.055 A 
ATOM     61  C   UNL A   1      41.854  26.798  36.485  1.00  0.00     0.041 A 
ATOM     62  F   UNL A   1      40.848  28.843  36.250  1.00  0.00    -0.206 F 
ATOM     63  C   UNL A   1      42.592  25.738  35.990  1.00  0.00     0.022 A 
BRANCH  60  64
ATOM     64  S   UNL A   1      44.043  24.469  33.988  1.00  0.00     0.124 S 
ATOM     65  O   UNL A   1      44.208  24.937  32.616  1.00  0.00    -0.237 OA
ATOM     66  O   UNL A   1      45.262  24.351  34.782  1.00  0.00    -0.237 OA
ATOM     67  O   UNL A   1      43.075  23.388  34.166  1.00  0.00    -0.744 OA
ENDBRANCH  60  64
ENDBRANCH  43  57
BRANCH  44  68
ATOM     68  C   UNL A   1      43.475  25.132  26.566  1.00  0.00     0.023 A 
ATOM     69  C   UNL A   1      42.636  24.044  26.893  1.00  0.00     0.031 A 
ATOM     70  C   UNL A   1      44.255  24.994  25.394  1.00  0.00     0.131 A 
ATOM     71  C   UNL A   1      42.606  22.890  26.067  1.00  0.00     0.055 A 
ATOM     72  C   UNL A   1      44.221  23.855  24.584  1.00  0.00     0.041 A 
ATOM     73  F   UNL A   1      45.021  26.003  24.950  1.00  0.00    -0.206 F 
ATOM     74  C   UNL A   1      43.388  22.799  24.914  1.00  0.00     0.022 A 
BRANCH  71  75
ATOM     75  S   UNL A   1      41.482  21.501  26.442  1.00  0.00     0.124 S 
ATOM     76  O   UNL A   1      40.191  22.015  26.000  1.00  0.00    -0.237 OA
ATOM     77  O   UNL A   1      42.052  20.414  25.653  1.00  0.00    -0.237 OA
ATOM     78  O   UNL A   1      41.611  21.336  27.892  1.00  0.00    -0.744 OA
ENDBRANCH  71  75
ENDBRANCH  44  68
BRANCH  56  79
ATOM     79  C   UNL A   1      45.028  30.894  28.818  1.00  0.00     0.023 A 
ATOM     80  C   UNL A   1      46.313  31.376  28.470  1.00  0.00     0.031 A 
ATOM     81  C   UNL A   1      43.950  31.269  27.997  1.00  0.00     0.131 A 
ATOM     82  C   UNL A   1      46.473  32.196  27.332  1.00  0.00     0.055 A 
ATOM     83  C   UNL A   1      44.116  32.060  26.863  1.00  0.00     0.041 A 
ATOM     84  F   UNL A   1      42.709  30.825  28.262  1.00  0.00    -0.206 F 
ATOM     85  C   UNL A   1      45.379  32.529  26.527  1.00  0.00     0.022 A 
BRANCH  82  86
ATOM     86  S   UNL A   1      48.111  32.856  26.872  1.00  0.00     0.124 S 
ATOM     87  O   UNL A   1      47.817  33.762  25.768  1.00  0.00    -0.237 OA
ATOM     88  O   UNL A   1      48.564  33.481  28.111  1.00  0.00    -0.237 OA
ATOM     89  O   UNL A   1      48.866  31.660  26.488  1.00  0.00    -0.744 OA
ENDBRANCH  82  86
ENDBRANCH  56  79
ENDBRANCH  30  31
ENDBRANCH  22  25
ENDBRANCH  20  21
ENDBRANCH   1  20
TORSDOF 16
ENDMDL
