MODEL 1
REMARK VINA RESULT:     -10.3      0.000      0.000
REMARK SMILES CCc1ncc(CC(=O)NCCCNC(=O)c2ccc(-c3c4nc(c(-c5cc(S(=O)(=O)[O-])ccc5F)c5ccc([nH]5)c(-c5cc(S(=O)(=O)[O-])ccc5F)c5nc(c(-c6cc(S(=O)(=O)[O-])ccc6F)c6ccc3[nH]6)C=C5)C=C4)cc2)c(=O)[nH]1
REMARK SMILES IDX 12 1 11 2 10 3 8 4 9 5 7 7 6 8 3 9 4 10 82 11 5 12 80 13
REMARK SMILES IDX 81 15 2 16 1 17 13 18 14 19 15 20 16 22 17 23 18 24 79 25
REMARK SMILES IDX 19 26 78 27 20 28 21 29 22 30 72 31 23 32 77 33 71 34 73 35
REMARK SMILES IDX 24 36 76 37 70 38 69 39 25 41 57 42 37 43 56 44 38 45 41 46
REMARK SMILES IDX 55 47 74 48 39 49 40 50 54 52 75 53 42 54 26 55 27 56 35 57
REMARK SMILES IDX 28 58 34 59 36 60 33 61 29 62 30 63 31 64 32 65 58 66 59 67
REMARK SMILES IDX 67 68 60 69 66 70 68 71 65 72 61 73 62 74 63 75 64 76 43 77
REMARK SMILES IDX 44 78 52 79 45 80 51 81 53 82 50 83 46 84 47 85 48 86 49 87
REMARK H PARENT 10 6 82 14 14 21 73 40 41 51
REMARK Flexibility Score: inf
ROOT
ATOM      1  C   UNL A   1      42.014  20.015  27.316  1.00  0.00     0.042 C 
ENDROOT
BRANCH   1   2
ATOM      2  C   UNL A   1      42.269  19.657  25.854  1.00  0.00     0.117 C 
BRANCH   2   3
ATOM      3  N   UNL A   1      43.685  19.487  25.577  1.00  0.00    -0.356 N 
ATOM      4  C   UNL A   1      44.588  20.408  25.137  1.00  0.00     0.224 C 
ATOM      5  O   UNL A   1      45.735  20.036  24.880  1.00  0.00    -0.275 OA
ATOM      6  H   UNL A   1      44.041  18.582  25.727  1.00  0.00     0.163 HD
BRANCH   4   7
ATOM      7  C   UNL A   1      44.181  21.864  24.983  1.00  0.00     0.143 C 
BRANCH   7   8
ATOM      8  C   UNL A   1      44.946  22.758  25.908  1.00  0.00     0.045 A 
ATOM      9  C   UNL A   1      46.409  24.367  27.575  1.00  0.00     0.108 A 
ATOM     10  N   UNL A   1      45.431  23.686  28.079  1.00  0.00    -0.243 NA
ATOM     11  N   UNL A   1      46.736  24.326  26.249  1.00  0.00    -0.310 N 
ATOM     12  C   UNL A   1      44.727  22.876  27.226  1.00  0.00     0.123 A 
ATOM     13  C   UNL A   1      46.036  23.584  25.349  1.00  0.00     0.254 A 
ATOM     14  H   UNL A   1      47.507  24.853  25.934  1.00  0.00     0.171 HD
ATOM     15  O   UNL A   1      46.303  23.600  24.150  1.00  0.00    -0.269 OA
BRANCH   9  16
ATOM     16  C   UNL A   1      47.240  25.290  28.434  1.00  0.00     0.072 C 
ATOM     17  C   UNL A   1      46.504  25.678  29.704  1.00  0.00     0.012 C 
ENDBRANCH   9  16
ENDBRANCH   7   8
ENDBRANCH   4   7
ENDBRANCH   2   3
ENDBRANCH   1   2
BRANCH   1  18
ATOM     18  C   UNL A   1      41.232  21.313  27.506  1.00  0.00     0.118 C 
BRANCH  18  19
ATOM     19  N   UNL A   1      40.025  21.357  26.694  1.00  0.00    -0.352 N 
ATOM     20  C   UNL A   1      39.168  22.398  26.432  1.00  0.00     0.251 C 
ATOM     21  H   UNL A   1      39.784  20.505  26.263  1.00  0.00     0.163 HD
ATOM     22  O   UNL A   1      38.089  22.158  25.893  1.00  0.00    -0.269 OA
BRANCH  20  23
ATOM     23  C   UNL A   1      39.521  23.784  26.806  1.00  0.00     0.039 A 
ATOM     24  C   UNL A   1      39.290  24.208  28.118  1.00  0.00     0.014 A 
ATOM     25  C   UNL A   1      40.046  24.677  25.869  1.00  0.00     0.014 A 
ATOM     26  C   UNL A   1      39.645  25.502  28.504  1.00  0.00     0.010 A 
ATOM     27  C   UNL A   1      40.475  25.939  26.274  1.00  0.00     0.010 A 
ATOM     28  C   UNL A   1      40.276  26.367  27.595  1.00  0.00    -0.014 A 
BRANCH  28  29
ATOM     29  C   UNL A   1      40.734  27.721  28.008  1.00  0.00     0.031 A 
ATOM     30  C   UNL A   1      42.192  28.082  27.948  1.00  0.00     0.074 A 
ATOM     31  C   UNL A   1      39.841  28.606  28.492  1.00  0.00     0.049 A 
ATOM     32  N   UNL A   1      42.790  29.186  28.318  1.00  0.00    -0.248 NA
ATOM     33  C   UNL A   1      43.100  27.049  27.430  1.00  0.00     0.031 C 
ATOM     34  C   UNL A   1      38.401  28.366  28.626  1.00  0.00     0.029 A 
ATOM     35  N   UNL A   1      40.008  29.884  28.962  1.00  0.00    -0.354 N 
ATOM     36  C   UNL A   1      44.145  28.979  28.085  1.00  0.00     0.074 A 
ATOM     37  C   UNL A   1      44.281  27.615  27.619  1.00  0.00     0.031 C 
ATOM     38  C   UNL A   1      37.814  29.476  29.100  1.00  0.00     0.029 A 
ATOM     39  C   UNL A   1      38.837  30.485  29.357  1.00  0.00     0.049 A 
ATOM     40  H   UNL A   1      40.885  30.329  29.011  1.00  0.00     0.167 HD
ATOM     41  C   UNL A   1      45.177  29.852  28.218  1.00  0.00     0.034 A 
ATOM     42  C   UNL A   1      38.610  31.708  29.873  1.00  0.00     0.034 A 
ATOM     43  C   UNL A   1      45.022  31.207  28.695  1.00  0.00     0.049 A 
ATOM     44  C   UNL A   1      39.777  32.639  30.086  1.00  0.00     0.074 A 
ATOM     45  C   UNL A   1      45.986  32.191  28.834  1.00  0.00     0.029 A 
ATOM     46  N   UNL A   1      43.826  31.766  29.131  1.00  0.00    -0.354 N 
ATOM     47  N   UNL A   1      41.048  32.446  29.819  1.00  0.00    -0.248 NA
ATOM     48  C   UNL A   1      39.474  33.952  30.666  1.00  0.00     0.031 C 
ATOM     49  C   UNL A   1      45.392  33.310  29.427  1.00  0.00     0.029 A 
ATOM     50  C   UNL A   1      44.036  33.063  29.577  1.00  0.00     0.049 A 
ATOM     51  H   UNL A   1      42.954  31.308  29.124  1.00  0.00     0.167 HD
ATOM     52  C   UNL A   1      41.692  33.631  30.166  1.00  0.00     0.074 A 
ATOM     53  C   UNL A   1      40.665  34.532  30.652  1.00  0.00     0.031 C 
ATOM     54  C   UNL A   1      43.009  33.948  30.082  1.00  0.00     0.034 A 
BRANCH  41  55
ATOM     55  C   UNL A   1      46.560  29.341  27.874  1.00  0.00     0.023 A 
ATOM     56  C   UNL A   1      46.860  28.838  26.594  1.00  0.00     0.031 A 
ATOM     57  C   UNL A   1      47.569  29.283  28.851  1.00  0.00     0.131 A 
ATOM     58  C   UNL A   1      48.085  28.197  26.361  1.00  0.00     0.055 A 
ATOM     59  C   UNL A   1      48.827  28.739  28.580  1.00  0.00     0.041 A 
ATOM     60  F   UNL A   1      47.343  29.729  30.096  1.00  0.00    -0.206 F 
ATOM     61  C   UNL A   1      49.083  28.168  27.336  1.00  0.00     0.022 A 
BRANCH  58  62
ATOM     62  S   UNL A   1      48.270  27.222  24.841  1.00  0.00     0.124 S 
ATOM     63  O   UNL A   1      49.036  26.073  25.322  1.00  0.00    -0.237 OA
ATOM     64  O   UNL A   1      46.886  26.956  24.467  1.00  0.00    -0.237 OA
ATOM     65  O   UNL A   1      49.000  28.116  23.946  1.00  0.00    -0.744 OA
ENDBRANCH  58  62
ENDBRANCH  41  55
BRANCH  42  66
ATOM     66  C   UNL A   1      37.224  32.137  30.213  1.00  0.00     0.023 A 
ATOM     67  C   UNL A   1      36.413  32.759  29.251  1.00  0.00     0.031 A 
ATOM     68  C   UNL A   1      36.695  31.948  31.502  1.00  0.00     0.131 A 
ATOM     69  C   UNL A   1      35.130  33.205  29.601  1.00  0.00     0.055 A 
ATOM     70  C   UNL A   1      35.399  32.348  31.831  1.00  0.00     0.041 A 
ATOM     71  F   UNL A   1      37.427  31.353  32.457  1.00  0.00    -0.206 F 
ATOM     72  C   UNL A   1      34.611  32.991  30.880  1.00  0.00     0.022 A 
BRANCH  69  73
ATOM     73  S   UNL A   1      34.168  34.131  28.374  1.00  0.00     0.124 S 
ATOM     74  O   UNL A   1      35.193  34.484  27.399  1.00  0.00    -0.237 OA
ATOM     75  O   UNL A   1      33.188  33.138  27.945  1.00  0.00    -0.237 OA
ATOM     76  O   UNL A   1      33.623  35.247  29.142  1.00  0.00    -0.744 OA
ENDBRANCH  69  73
ENDBRANCH  42  66
BRANCH  54  77
ATOM     77  C   UNL A   1      43.406  35.349  30.489  1.00  0.00     0.023 A 
ATOM     78  C   UNL A   1      43.603  35.704  31.836  1.00  0.00     0.031 A 
ATOM     79  C   UNL A   1      43.570  36.349  29.513  1.00  0.00     0.131 A 
ATOM     80  C   UNL A   1      43.892  37.036  32.173  1.00  0.00     0.055 A 
ATOM     81  C   UNL A   1      43.926  37.656  29.850  1.00  0.00     0.041 A 
ATOM     82  F   UNL A   1      43.389  36.071  28.212  1.00  0.00    -0.206 F 
ATOM     83  C   UNL A   1      44.074  38.009  31.188  1.00  0.00     0.022 A 
BRANCH  80  84
ATOM     84  S   UNL A   1      43.923  37.504  33.926  1.00  0.00     0.124 S 
ATOM     85  O   UNL A   1      45.192  38.220  34.025  1.00  0.00    -0.237 OA
ATOM     86  O   UNL A   1      42.720  38.320  34.054  1.00  0.00    -0.237 OA
ATOM     87  O   UNL A   1      43.879  36.221  34.625  1.00  0.00    -0.744 OA
ENDBRANCH  80  84
ENDBRANCH  54  77
ENDBRANCH  28  29
ENDBRANCH  20  23
ENDBRANCH  18  19
ENDBRANCH   1  18
TORSDOF 15
ENDMDL
MODEL 2
REMARK VINA RESULT:     -10.1      5.396     11.265
REMARK SMILES CCc1ncc(CC(=O)NCCCNC(=O)c2ccc(-c3c4nc(c(-c5cc(S(=O)(=O)[O-])ccc5F)c5ccc([nH]5)c(-c5cc(S(=O)(=O)[O-])ccc5F)c5nc(c(-c6cc(S(=O)(=O)[O-])ccc6F)c6ccc3[nH]6)C=C5)C=C4)cc2)c(=O)[nH]1
REMARK SMILES IDX 12 1 11 2 10 3 8 4 9 5 7 7 6 8 3 9 4 10 82 11 5 12 80 13
REMARK SMILES IDX 81 15 2 16 1 17 13 18 14 19 15 20 16 22 17 23 18 24 79 25
REMARK SMILES IDX 19 26 78 27 20 28 21 29 22 30 72 31 23 32 77 33 71 34 73 35
REMARK SMILES IDX 24 36 76 37 70 38 69 39 25 41 57 42 37 43 56 44 38 45 41 46
REMARK SMILES IDX 55 47 74 48 39 49 40 50 54 52 75 53 42 54 26 55 27 56 35 57
REMARK SMILES IDX 28 58 34 59 36 60 33 61 29 62 30 63 31 64 32 65 58 66 59 67
REMARK SMILES IDX 67 68 60 69 66 70 68 71 65 72 61 73 62 74 63 75 64 76 43 77
REMARK SMILES IDX 44 78 52 79 45 80 51 81 53 82 50 83 46 84 47 85 48 86 49 87
REMARK H PARENT 10 6 82 14 14 21 73 40 41 51
REMARK Flexibility Score: inf
ROOT
ATOM      1  C   UNL A   1      33.299  27.564  26.602  1.00  0.00     0.042 C 
ENDROOT
BRANCH   1   2
ATOM      2  C   UNL A   1      32.132  26.931  25.849  1.00  0.00     0.117 C 
BRANCH   2   3
ATOM      3  N   UNL A   1      31.479  25.897  26.634  1.00  0.00    -0.356 N 
ATOM      4  C   UNL A   1      31.716  24.554  26.649  1.00  0.00     0.224 C 
ATOM      5  O   UNL A   1      30.985  23.832  27.331  1.00  0.00    -0.275 OA
ATOM      6  H   UNL A   1      30.767  26.209  27.237  1.00  0.00     0.163 HD
BRANCH   4   7
ATOM      7  C   UNL A   1      32.869  23.973  25.848  1.00  0.00     0.143 C 
BRANCH   7   8
ATOM      8  C   UNL A   1      32.803  22.480  25.778  1.00  0.00     0.045 A 
ATOM      9  C   UNL A   1      32.756  19.743  25.655  1.00  0.00     0.108 A 
ATOM     10  N   UNL A   1      32.114  20.411  24.753  1.00  0.00    -0.243 NA
ATOM     11  N   UNL A   1      33.447  20.342  26.671  1.00  0.00    -0.310 N 
ATOM     12  C   UNL A   1      32.168  21.778  24.827  1.00  0.00     0.123 A 
ATOM     13  C   UNL A   1      33.487  21.693  26.825  1.00  0.00     0.254 A 
ATOM     14  H   UNL A   1      33.933  19.776  27.313  1.00  0.00     0.171 HD
ATOM     15  O   UNL A   1      34.063  22.220  27.774  1.00  0.00    -0.269 OA
BRANCH   9  16
ATOM     16  C   UNL A   1      32.752  18.233  25.660  1.00  0.00     0.072 C 
ATOM     17  C   UNL A   1      32.722  17.675  24.249  1.00  0.00     0.012 C 
ENDBRANCH   9  16
ENDBRANCH   7   8
ENDBRANCH   4   7
ENDBRANCH   2   3
ENDBRANCH   1   2
BRANCH   1  18
ATOM     18  C   UNL A   1      34.007  28.671  25.824  1.00  0.00     0.118 C 
BRANCH  18  19
ATOM     19  N   UNL A   1      33.696  29.997  26.340  1.00  0.00    -0.352 N 
ATOM     20  C   UNL A   1      34.279  30.715  27.355  1.00  0.00     0.251 C 
ATOM     21  H   UNL A   1      32.948  30.452  25.890  1.00  0.00     0.163 HD
ATOM     22  O   UNL A   1      33.717  31.728  27.766  1.00  0.00    -0.269 OA
BRANCH  20  23
ATOM     23  C   UNL A   1      35.554  30.274  27.962  1.00  0.00     0.039 A 
ATOM     24  C   UNL A   1      35.533  29.716  29.243  1.00  0.00     0.014 A 
ATOM     25  C   UNL A   1      36.770  30.434  27.292  1.00  0.00     0.014 A 
ATOM     26  C   UNL A   1      36.719  29.262  29.824  1.00  0.00     0.010 A 
ATOM     27  C   UNL A   1      37.939  29.908  27.837  1.00  0.00     0.010 A 
ATOM     28  C   UNL A   1      37.928  29.319  29.110  1.00  0.00    -0.014 A 
BRANCH  28  29
ATOM     29  C   UNL A   1      39.187  28.768  29.678  1.00  0.00     0.031 A 
ATOM     30  C   UNL A   1      39.799  29.381  30.908  1.00  0.00     0.074 A 
ATOM     31  C   UNL A   1      39.810  27.751  29.053  1.00  0.00     0.049 A 
ATOM     32  N   UNL A   1      40.918  29.081  31.516  1.00  0.00    -0.248 NA
ATOM     33  C   UNL A   1      39.066  30.502  31.512  1.00  0.00     0.031 C 
ATOM     34  C   UNL A   1      39.332  27.087  27.837  1.00  0.00     0.029 A 
ATOM     35  N   UNL A   1      40.979  27.097  29.349  1.00  0.00    -0.354 N 
ATOM     36  C   UNL A   1      41.028  29.980  32.572  1.00  0.00     0.074 A 
ATOM     37  C   UNL A   1      39.901  30.884  32.465  1.00  0.00     0.031 C 
ATOM     38  C   UNL A   1      40.175  26.093  27.520  1.00  0.00     0.029 A 
ATOM     39  C   UNL A   1      41.281  26.082  28.472  1.00  0.00     0.049 A 
ATOM     40  H   UNL A   1      41.547  27.331  30.118  1.00  0.00     0.167 HD
ATOM     41  C   UNL A   1      41.964  30.031  33.555  1.00  0.00     0.034 A 
ATOM     42  C   UNL A   1      42.333  25.241  28.434  1.00  0.00     0.034 A 
ATOM     43  C   UNL A   1      43.087  29.126  33.638  1.00  0.00     0.049 A 
ATOM     44  C   UNL A   1      43.402  25.360  29.490  1.00  0.00     0.074 A 
ATOM     45  C   UNL A   1      44.072  29.059  34.608  1.00  0.00     0.029 A 
ATOM     46  N   UNL A   1      43.387  28.141  32.704  1.00  0.00    -0.354 N 
ATOM     47  N   UNL A   1      43.471  26.186  30.508  1.00  0.00    -0.248 NA
ATOM     48  C   UNL A   1      44.532  24.429  29.390  1.00  0.00     0.031 C 
ATOM     49  C   UNL A   1      45.008  28.093  34.219  1.00  0.00     0.029 A 
ATOM     50  C   UNL A   1      44.562  27.491  33.053  1.00  0.00     0.049 A 
ATOM     51  H   UNL A   1      42.843  27.933  31.910  1.00  0.00     0.167 HD
ATOM     52  C   UNL A   1      44.635  25.848  31.192  1.00  0.00     0.074 A 
ATOM     53  C   UNL A   1      45.230  24.739  30.473  1.00  0.00     0.031 C 
ATOM     54  C   UNL A   1      45.161  26.399  32.316  1.00  0.00     0.034 A 
BRANCH  41  55
ATOM     55  C   UNL A   1      41.816  31.127  34.589  1.00  0.00     0.023 A 
ATOM     56  C   UNL A   1      40.777  31.108  35.538  1.00  0.00     0.031 A 
ATOM     57  C   UNL A   1      42.672  32.242  34.582  1.00  0.00     0.131 A 
ATOM     58  C   UNL A   1      40.550  32.225  36.354  1.00  0.00     0.055 A 
ATOM     59  C   UNL A   1      42.505  33.306  35.472  1.00  0.00     0.041 A 
ATOM     60  F   UNL A   1      43.672  32.332  33.691  1.00  0.00    -0.206 F 
ATOM     61  C   UNL A   1      41.423  33.314  36.348  1.00  0.00     0.022 A 
BRANCH  58  62
ATOM     62  S   UNL A   1      38.983  32.321  37.264  1.00  0.00     0.124 S 
ATOM     63  O   UNL A   1      39.448  32.611  38.619  1.00  0.00    -0.237 OA
ATOM     64  O   UNL A   1      38.288  33.405  36.582  1.00  0.00    -0.237 OA
ATOM     65  O   UNL A   1      38.400  30.993  37.086  1.00  0.00    -0.744 OA
ENDBRANCH  58  62
ENDBRANCH  41  55
BRANCH  42  66
ATOM     66  C   UNL A   1      42.426  24.201  27.371  1.00  0.00     0.023 A 
ATOM     67  C   UNL A   1      41.839  22.939  27.553  1.00  0.00     0.031 A 
ATOM     68  C   UNL A   1      43.114  24.442  26.169  1.00  0.00     0.131 A 
ATOM     69  C   UNL A   1      41.981  21.952  26.567  1.00  0.00     0.055 A 
ATOM     70  C   UNL A   1      43.209  23.473  25.168  1.00  0.00     0.041 A 
ATOM     71  F   UNL A   1      43.688  25.634  25.941  1.00  0.00    -0.206 F 
ATOM     72  C   UNL A   1      42.649  22.215  25.369  1.00  0.00     0.022 A 
BRANCH  69  73
ATOM     73  S   UNL A   1      41.332  20.292  26.900  1.00  0.00     0.124 S 
ATOM     74  O   UNL A   1      40.244  20.199  25.934  1.00  0.00    -0.237 OA
ATOM     75  O   UNL A   1      42.498  19.453  26.639  1.00  0.00    -0.237 OA
ATOM     76  O   UNL A   1      40.921  20.363  28.301  1.00  0.00    -0.744 OA
ENDBRANCH  69  73
ENDBRANCH  42  66
BRANCH  54  77
ATOM     77  C   UNL A   1      46.426  25.775  32.860  1.00  0.00     0.023 A 
ATOM     78  C   UNL A   1      46.395  24.698  33.763  1.00  0.00     0.031 A 
ATOM     79  C   UNL A   1      47.683  26.284  32.484  1.00  0.00     0.131 A 
ATOM     80  C   UNL A   1      47.593  24.204  34.304  1.00  0.00     0.055 A 
ATOM     81  C   UNL A   1      48.873  25.742  32.973  1.00  0.00     0.041 A 
ATOM     82  F   UNL A   1      47.775  27.316  31.630  1.00  0.00    -0.206 F 
ATOM     83  C   UNL A   1      48.832  24.706  33.900  1.00  0.00     0.022 A 
BRANCH  80  84
ATOM     84  S   UNL A   1      47.506  22.964  35.626  1.00  0.00     0.124 S 
ATOM     85  O   UNL A   1      48.700  23.269  36.407  1.00  0.00    -0.237 OA
ATOM     86  O   UNL A   1      46.231  23.275  36.264  1.00  0.00    -0.237 OA
ATOM     87  O   UNL A   1      47.544  21.692  34.906  1.00  0.00    -0.744 OA
ENDBRANCH  80  84
ENDBRANCH  54  77
ENDBRANCH  28  29
ENDBRANCH  20  23
ENDBRANCH  18  19
ENDBRANCH   1  18
TORSDOF 15
ENDMDL
MODEL 3
REMARK VINA RESULT:     -10.1      6.182     12.023
REMARK SMILES CCc1ncc(CC(=O)NCCCNC(=O)c2ccc(-c3c4nc(c(-c5cc(S(=O)(=O)[O-])ccc5F)c5ccc([nH]5)c(-c5cc(S(=O)(=O)[O-])ccc5F)c5nc(c(-c6cc(S(=O)(=O)[O-])ccc6F)c6ccc3[nH]6)C=C5)C=C4)cc2)c(=O)[nH]1
REMARK SMILES IDX 12 1 11 2 10 3 8 4 9 5 7 7 6 8 3 9 4 10 82 11 5 12 80 13
REMARK SMILES IDX 81 15 2 16 1 17 13 18 14 19 15 20 16 22 17 23 18 24 79 25
REMARK SMILES IDX 19 26 78 27 20 28 21 29 22 30 72 31 23 32 77 33 71 34 73 35
REMARK SMILES IDX 24 36 76 37 70 38 69 39 25 41 57 42 37 43 56 44 38 45 41 46
REMARK SMILES IDX 55 47 74 48 39 49 40 50 54 52 75 53 42 54 26 55 27 56 35 57
REMARK SMILES IDX 28 58 34 59 36 60 33 61 29 62 30 63 31 64 32 65 58 66 59 67
REMARK SMILES IDX 67 68 60 69 66 70 68 71 65 72 61 73 62 74 63 75 64 76 43 77
REMARK SMILES IDX 44 78 52 79 45 80 51 81 53 82 50 83 46 84 47 85 48 86 49 87
REMARK H PARENT 10 6 82 14 14 21 73 40 41 51
REMARK Flexibility Score: inf
ROOT
ATOM      1  C   UNL A   1      32.380  28.727  26.883  1.00  0.00     0.042 C 
ENDROOT
BRANCH   1   2
ATOM      2  C   UNL A   1      32.597  27.265  26.502  1.00  0.00     0.117 C 
BRANCH   2   3
ATOM      3  N   UNL A   1      31.445  26.443  26.831  1.00  0.00    -0.356 N 
ATOM      4  C   UNL A   1      30.514  25.899  25.998  1.00  0.00     0.224 C 
ATOM      5  O   UNL A   1      29.557  25.298  26.491  1.00  0.00    -0.275 OA
ATOM      6  H   UNL A   1      31.319  26.254  27.789  1.00  0.00     0.163 HD
BRANCH   4   7
ATOM      7  C   UNL A   1      30.671  26.025  24.492  1.00  0.00     0.143 C 
BRANCH   7   8
ATOM      8  C   UNL A   1      29.988  27.245  23.959  1.00  0.00     0.045 A 
ATOM      9  C   UNL A   1      28.711  29.439  22.928  1.00  0.00     0.108 A 
ATOM     10  N   UNL A   1      29.964  29.543  23.233  1.00  0.00    -0.243 NA
ATOM     11  N   UNL A   1      27.996  28.288  23.107  1.00  0.00    -0.310 N 
ATOM     12  C   UNL A   1      30.582  28.426  23.730  1.00  0.00     0.123 A 
ATOM     13  C   UNL A   1      28.546  27.167  23.649  1.00  0.00     0.254 A 
ATOM     14  H   UNL A   1      27.050  28.269  22.834  1.00  0.00     0.171 HD
ATOM     15  O   UNL A   1      27.880  26.156  23.860  1.00  0.00    -0.269 OA
BRANCH   9  16
ATOM     16  C   UNL A   1      27.941  30.616  22.378  1.00  0.00     0.072 C 
ATOM     17  C   UNL A   1      27.642  31.637  23.460  1.00  0.00     0.012 C 
ENDBRANCH   9  16
ENDBRANCH   7   8
ENDBRANCH   4   7
ENDBRANCH   2   3
ENDBRANCH   1   2
BRANCH   1  18
ATOM     18  C   UNL A   1      33.269  29.704  26.116  1.00  0.00     0.118 C 
BRANCH  18  19
ATOM     19  N   UNL A   1      33.159  31.066  26.619  1.00  0.00    -0.352 N 
ATOM     20  C   UNL A   1      33.898  31.724  27.572  1.00  0.00     0.251 C 
ATOM     21  H   UNL A   1      32.441  31.601  26.211  1.00  0.00     0.163 HD
ATOM     22  O   UNL A   1      33.494  32.804  27.997  1.00  0.00    -0.269 OA
BRANCH  20  23
ATOM     23  C   UNL A   1      35.150  31.139  28.099  1.00  0.00     0.039 A 
ATOM     24  C   UNL A   1      36.336  31.867  27.982  1.00  0.00     0.014 A 
ATOM     25  C   UNL A   1      35.168  29.866  28.677  1.00  0.00     0.014 A 
ATOM     26  C   UNL A   1      37.525  31.349  28.500  1.00  0.00     0.010 A 
ATOM     27  C   UNL A   1      36.336  29.387  29.266  1.00  0.00     0.010 A 
ATOM     28  C   UNL A   1      37.528  30.121  29.181  1.00  0.00    -0.014 A 
BRANCH  28  29
ATOM     29  C   UNL A   1      38.767  29.590  29.810  1.00  0.00     0.031 A 
ATOM     30  C   UNL A   1      39.229  30.112  31.142  1.00  0.00     0.074 A 
ATOM     31  C   UNL A   1      39.508  28.677  29.152  1.00  0.00     0.049 A 
ATOM     32  N   UNL A   1      40.308  29.817  31.821  1.00  0.00    -0.248 NA
ATOM     33  C   UNL A   1      38.374  31.124  31.778  1.00  0.00     0.031 C 
ATOM     34  C   UNL A   1      39.181  28.110  27.841  1.00  0.00     0.029 A 
ATOM     35  N   UNL A   1      40.687  28.064  29.493  1.00  0.00    -0.354 N 
ATOM     36  C   UNL A   1      40.267  30.613  32.961  1.00  0.00     0.074 A 
ATOM     37  C   UNL A   1      39.097  31.457  32.835  1.00  0.00     0.031 C 
ATOM     38  C   UNL A   1      40.112  27.202  27.511  1.00  0.00     0.029 A 
ATOM     39  C   UNL A   1      41.130  27.160  28.556  1.00  0.00     0.049 A 
ATOM     40  H   UNL A   1      41.170  28.253  30.330  1.00  0.00     0.167 HD
ATOM     41  C   UNL A   1      41.109  30.619  34.027  1.00  0.00     0.034 A 
ATOM     42  C   UNL A   1      42.234  26.388  28.537  1.00  0.00     0.034 A 
ATOM     43  C   UNL A   1      42.278  29.777  34.129  1.00  0.00     0.049 A 
ATOM     44  C   UNL A   1      43.198  26.464  29.694  1.00  0.00     0.074 A 
ATOM     45  C   UNL A   1      43.178  29.670  35.175  1.00  0.00     0.029 A 
ATOM     46  N   UNL A   1      42.722  28.907  33.139  1.00  0.00    -0.354 N 
ATOM     47  N   UNL A   1      43.124  27.187  30.788  1.00  0.00    -0.248 NA
ATOM     48  C   UNL A   1      44.390  25.613  29.613  1.00  0.00     0.031 C 
ATOM     49  C   UNL A   1      44.205  28.803  34.786  1.00  0.00     0.029 A 
ATOM     50  C   UNL A   1      43.903  28.294  33.532  1.00  0.00     0.049 A 
ATOM     51  H   UNL A   1      42.263  28.748  32.281  1.00  0.00     0.167 HD
ATOM     52  C   UNL A   1      44.245  26.851  31.541  1.00  0.00     0.074 A 
ATOM     53  C   UNL A   1      44.971  25.853  30.780  1.00  0.00     0.031 C 
ATOM     54  C   UNL A   1      44.634  27.316  32.756  1.00  0.00     0.034 A 
BRANCH  41  55
ATOM     55  C   UNL A   1      40.801  31.598  35.140  1.00  0.00     0.023 A 
ATOM     56  C   UNL A   1      39.789  31.343  36.085  1.00  0.00     0.031 A 
ATOM     57  C   UNL A   1      41.470  32.832  35.219  1.00  0.00     0.131 A 
ATOM     58  C   UNL A   1      39.397  32.345  36.982  1.00  0.00     0.055 A 
ATOM     59  C   UNL A   1      41.146  33.787  36.186  1.00  0.00     0.041 A 
ATOM     60  F   UNL A   1      42.433  33.147  34.339  1.00  0.00    -0.206 F 
ATOM     61  C   UNL A   1      40.086  33.557  37.060  1.00  0.00     0.022 A 
BRANCH  58  62
ATOM     62  S   UNL A   1      37.844  32.123  37.896  1.00  0.00     0.124 S 
ATOM     63  O   UNL A   1      37.497  30.746  37.553  1.00  0.00    -0.237 OA
ATOM     64  O   UNL A   1      38.255  32.354  39.275  1.00  0.00    -0.237 OA
ATOM     65  O   UNL A   1      36.962  33.140  37.326  1.00  0.00    -0.744 OA
ENDBRANCH  58  62
ENDBRANCH  41  55
BRANCH  42  66
ATOM     66  C   UNL A   1      42.487  25.465  27.395  1.00  0.00     0.023 A 
ATOM     67  C   UNL A   1      41.919  24.182  27.375  1.00  0.00     0.031 A 
ATOM     68  C   UNL A   1      43.309  25.840  26.319  1.00  0.00     0.131 A 
ATOM     69  C   UNL A   1      42.209  23.305  26.320  1.00  0.00     0.055 A 
ATOM     70  C   UNL A   1      43.555  24.982  25.246  1.00  0.00     0.041 A 
ATOM     71  F   UNL A   1      43.873  27.059  26.286  1.00  0.00    -0.206 F 
ATOM     72  C   UNL A   1      43.011  23.701  25.248  1.00  0.00     0.022 A 
BRANCH  69  73
ATOM     73  S   UNL A   1      41.573  21.609  26.401  1.00  0.00     0.124 S 
ATOM     74  O   UNL A   1      42.537  20.891  25.575  1.00  0.00    -0.237 OA
ATOM     75  O   UNL A   1      41.623  21.334  27.834  1.00  0.00    -0.237 OA
ATOM     76  O   UNL A   1      40.229  21.723  25.839  1.00  0.00    -0.744 OA
ENDBRANCH  69  73
ENDBRANCH  42  66
BRANCH  54  77
ATOM     77  C   UNL A   1      45.885  26.715  33.354  1.00  0.00     0.023 A 
ATOM     78  C   UNL A   1      45.854  25.526  34.103  1.00  0.00     0.031 A 
ATOM     79  C   UNL A   1      47.126  27.357  33.188  1.00  0.00     0.131 A 
ATOM     80  C   UNL A   1      47.028  25.048  34.707  1.00  0.00     0.055 A 
ATOM     81  C   UNL A   1      48.302  26.840  33.734  1.00  0.00     0.041 A 
ATOM     82  F   UNL A   1      47.217  28.500  32.489  1.00  0.00    -0.206 F 
ATOM     83  C   UNL A   1      48.255  25.686  34.511  1.00  0.00     0.022 A 
BRANCH  80  84
ATOM     84  S   UNL A   1      46.912  23.637  35.842  1.00  0.00     0.124 S 
ATOM     85  O   UNL A   1      46.691  22.526  34.922  1.00  0.00    -0.237 OA
ATOM     86  O   UNL A   1      48.211  23.663  36.508  1.00  0.00    -0.237 OA
ATOM     87  O   UNL A   1      45.773  23.974  36.693  1.00  0.00    -0.744 OA
ENDBRANCH  80  84
ENDBRANCH  54  77
ENDBRANCH  28  29
ENDBRANCH  20  23
ENDBRANCH  18  19
ENDBRANCH   1  18
TORSDOF 15
ENDMDL
