MODEL 1
REMARK VINA RESULT:     -12.8      0.000      0.000
REMARK SMILES O=C(NCCCNC(=O)[C@H](Cc1ccc([N+](=O)[O-])cc1)N1C(=O)c2ccccc2C1=O)c1ccc(-c2c3nc(c(-c4cc(S(=O)(=O)[O-])ccc4F)c4ccc([nH]4)c(-c4cc(S(=O)(=O)[O-])ccc4F)c4nc(c(-c5cc(S(=O)(=O)[O-])ccc5F)c5ccc2[nH]5)C=C4)C=C3)cc1
REMARK SMILES IDX 5 1 4 2 3 3 1 4 2 5 32 7 33 8 94 9 34 10 93 11 35 12 36 13
REMARK SMILES IDX 37 14 87 15 38 16 92 17 86 18 88 19 39 20 91 21 85 22 84 23
REMARK SMILES IDX 40 25 72 26 52 27 71 28 53 29 56 30 70 31 89 32 54 33 55 34
REMARK SMILES IDX 69 36 90 37 57 38 41 39 42 40 50 41 43 42 49 43 51 44 48 45
REMARK SMILES IDX 44 46 45 47 46 48 47 49 73 50 74 51 82 52 75 53 81 54 83 55
REMARK SMILES IDX 80 56 76 57 77 58 78 59 79 60 58 61 59 62 67 63 60 64 66 65
REMARK SMILES IDX 68 66 65 67 61 68 62 69 63 70 64 71 6 72 7 73 8 74 9 76
REMARK SMILES IDX 10 77 21 78 22 79 30 80 23 81 24 82 29 83 31 84 25 85 28 86
REMARK SMILES IDX 26 87 27 88 11 89 12 90 13 91 20 92 14 93 19 94 15 95 16 96
REMARK SMILES IDX 17 97 18 98
REMARK H PARENT 3 6 88 24 56 35 7 75
REMARK Flexibility Score: inf
ROOT
ATOM      1  C   UNL A   1      31.403  29.591  26.969  1.00  0.00     0.042 C 
ENDROOT
BRANCH   1   2
ATOM      2  C   UNL A   1      32.492  30.421  26.309  1.00  0.00     0.118 C 
BRANCH   2   3
ATOM      3  N   UNL A   1      32.440  31.828  26.674  1.00  0.00    -0.352 N 
ATOM      4  O   UNL A   1      32.952  33.766  27.663  1.00  0.00    -0.269 OA
ATOM      5  C   UNL A   1      33.282  32.603  27.436  1.00  0.00     0.251 C 
ATOM      6  H   UNL A   1      31.664  32.312  26.310  1.00  0.00     0.163 HD
BRANCH   5   7
ATOM      7  C   UNL A   1      34.556  32.076  27.983  1.00  0.00     0.039 A 
ATOM      8  C   UNL A   1      35.684  32.884  28.133  1.00  0.00     0.014 A 
ATOM      9  C   UNL A   1      34.598  30.752  28.437  1.00  0.00     0.014 A 
ATOM     10  C   UNL A   1      36.879  32.348  28.602  1.00  0.00     0.010 A 
ATOM     11  C   UNL A   1      35.767  30.244  29.016  1.00  0.00     0.010 A 
ATOM     12  C   UNL A   1      36.921  31.039  29.096  1.00  0.00    -0.014 A 
BRANCH  12  13
ATOM     13  C   UNL A   1      38.134  30.565  29.812  1.00  0.00     0.031 A 
ATOM     14  C   UNL A   1      39.062  29.565  29.191  1.00  0.00     0.074 A 
ATOM     15  C   UNL A   1      38.372  31.037  31.052  1.00  0.00     0.049 A 
ATOM     16  N   UNL A   1      40.129  29.005  29.701  1.00  0.00    -0.248 NA
ATOM     17  C   UNL A   1      38.746  29.133  27.823  1.00  0.00     0.031 C 
ATOM     18  C   UNL A   1      37.529  32.010  31.754  1.00  0.00     0.029 A 
ATOM     19  N   UNL A   1      39.376  30.768  31.946  1.00  0.00    -0.354 N 
ATOM     20  C   UNL A   1      40.607  28.137  28.726  1.00  0.00     0.074 A 
ATOM     21  C   UNL A   1      39.688  28.226  27.608  1.00  0.00     0.031 C 
ATOM     22  C   UNL A   1      38.057  32.267  32.956  1.00  0.00     0.029 A 
ATOM     23  C   UNL A   1      39.224  31.416  33.150  1.00  0.00     0.049 A 
ATOM     24  H   UNL A   1      40.131  30.169  31.746  1.00  0.00     0.167 HD
ATOM     25  C   UNL A   1      41.709  27.344  28.768  1.00  0.00     0.034 A 
ATOM     26  C   UNL A   1      39.909  31.304  34.305  1.00  0.00     0.034 A 
ATOM     27  C   UNL A   1      42.584  27.253  29.915  1.00  0.00     0.049 A 
ATOM     28  C   UNL A   1      41.077  30.361  34.361  1.00  0.00     0.074 A 
ATOM     29  C   UNL A   1      43.744  26.511  30.059  1.00  0.00     0.029 A 
ATOM     30  N   UNL A   1      42.379  27.901  31.130  1.00  0.00    -0.354 N 
ATOM     31  N   UNL A   1      41.539  29.569  33.421  1.00  0.00    -0.248 NA
ATOM     32  C   UNL A   1      41.819  30.295  35.625  1.00  0.00     0.031 C 
ATOM     33  C   UNL A   1      44.181  26.632  31.382  1.00  0.00     0.029 A 
ATOM     34  C   UNL A   1      43.362  27.537  32.040  1.00  0.00     0.049 A 
ATOM     35  H   UNL A   1      41.643  28.528  31.317  1.00  0.00     0.167 HD
ATOM     36  C   UNL A   1      42.646  28.932  33.970  1.00  0.00     0.074 A 
ATOM     37  C   UNL A   1      42.780  29.431  35.325  1.00  0.00     0.031 C 
ATOM     38  C   UNL A   1      43.481  28.030  33.395  1.00  0.00     0.034 A 
BRANCH  25  39
ATOM     39  C   UNL A   1      41.976  26.467  27.564  1.00  0.00     0.023 A 
ATOM     40  C   UNL A   1      41.540  25.131  27.506  1.00  0.00     0.031 A 
ATOM     41  C   UNL A   1      42.733  26.953  26.482  1.00  0.00     0.131 A 
ATOM     42  C   UNL A   1      41.951  24.302  26.450  1.00  0.00     0.055 A 
ATOM     43  C   UNL A   1      43.054  26.152  25.385  1.00  0.00     0.041 A 
ATOM     44  F   UNL A   1      43.195  28.214  26.481  1.00  0.00    -0.206 F 
ATOM     45  C   UNL A   1      42.684  24.810  25.376  1.00  0.00     0.022 A 
BRANCH  42  46
ATOM     46  S   UNL A   1      41.683  22.513  26.600  1.00  0.00     0.124 S 
ATOM     47  O   UNL A   1      42.416  22.200  27.824  1.00  0.00    -0.237 OA
ATOM     48  O   UNL A   1      40.231  22.418  26.685  1.00  0.00    -0.237 OA
ATOM     49  O   UNL A   1      42.273  21.972  25.377  1.00  0.00    -0.744 OA
ENDBRANCH  42  46
ENDBRANCH  25  39
BRANCH  26  50
ATOM     50  C   UNL A   1      39.453  32.066  35.501  1.00  0.00     0.023 A 
ATOM     51  C   UNL A   1      39.852  33.392  35.723  1.00  0.00     0.031 A 
ATOM     52  C   UNL A   1      38.571  31.477  36.427  1.00  0.00     0.131 A 
ATOM     53  C   UNL A   1      39.383  34.080  36.853  1.00  0.00     0.055 A 
ATOM     54  C   UNL A   1      38.065  32.183  37.519  1.00  0.00     0.041 A 
ATOM     55  F   UNL A   1      38.153  30.212  36.256  1.00  0.00    -0.206 F 
ATOM     56  C   UNL A   1      38.477  33.491  37.741  1.00  0.00     0.022 A 
BRANCH  53  57
ATOM     57  S   UNL A   1      40.012  35.748  37.182  1.00  0.00     0.124 S 
ATOM     58  O   UNL A   1      41.435  35.495  37.383  1.00  0.00    -0.237 OA
ATOM     59  O   UNL A   1      39.653  36.456  35.957  1.00  0.00    -0.237 OA
ATOM     60  O   UNL A   1      39.278  36.162  38.375  1.00  0.00    -0.744 OA
ENDBRANCH  53  57
ENDBRANCH  26  50
BRANCH  38  61
ATOM     61  C   UNL A   1      44.666  27.567  34.208  1.00  0.00     0.023 A 
ATOM     62  C   UNL A   1      44.630  26.405  34.997  1.00  0.00     0.031 A 
ATOM     63  C   UNL A   1      45.871  28.292  34.152  1.00  0.00     0.131 A 
ATOM     64  C   UNL A   1      45.771  26.018  35.720  1.00  0.00     0.055 A 
ATOM     65  C   UNL A   1      47.018  27.870  34.823  1.00  0.00     0.041 A 
ATOM     66  F   UNL A   1      45.958  29.416  33.422  1.00  0.00    -0.206 F 
ATOM     67  C   UNL A   1      46.970  26.729  35.618  1.00  0.00     0.022 A 
BRANCH  64  68
ATOM     68  S   UNL A   1      45.657  24.601  36.848  1.00  0.00     0.124 S 
ATOM     69  O   UNL A   1      45.053  25.205  38.031  1.00  0.00    -0.237 OA
ATOM     70  O   UNL A   1      44.814  23.673  36.102  1.00  0.00    -0.237 OA
ATOM     71  O   UNL A   1      47.048  24.179  37.009  1.00  0.00    -0.744 OA
ENDBRANCH  64  68
ENDBRANCH  38  61
ENDBRANCH  12  13
ENDBRANCH   5   7
ENDBRANCH   2   3
ENDBRANCH   1   2
BRANCH   1  72
ATOM     72  C   UNL A   1      31.906  28.308  27.619  1.00  0.00     0.117 C 
BRANCH  72  73
ATOM     73  N   UNL A   1      31.028  27.198  27.316  1.00  0.00    -0.354 N 
ATOM     74  C   UNL A   1      30.735  26.506  26.189  1.00  0.00     0.243 C 
ATOM     75  H   UNL A   1      30.535  26.874  28.104  1.00  0.00     0.163 HD
ATOM     76  O   UNL A   1      29.863  25.638  26.362  1.00  0.00    -0.273 OA
BRANCH  74  77
ATOM     77  C   UNL A   1      31.460  26.674  24.813  1.00  0.00     0.187 C 
BRANCH  77  78
ATOM     78  N   UNL A   1      32.406  25.530  24.816  1.00  0.00    -0.261 N 
ATOM     79  C   UNL A   1      33.732  25.638  25.169  1.00  0.00     0.262 C 
ATOM     80  C   UNL A   1      32.147  24.320  24.233  1.00  0.00     0.262 C 
ATOM     81  O   UNL A   1      34.335  26.575  25.644  1.00  0.00    -0.269 OA
ATOM     82  C   UNL A   1      34.359  24.363  24.845  1.00  0.00     0.053 A 
ATOM     83  C   UNL A   1      33.399  23.559  24.263  1.00  0.00     0.053 A 
ATOM     84  O   UNL A   1      31.104  23.907  23.758  1.00  0.00    -0.269 OA
ATOM     85  C   UNL A   1      35.664  23.947  25.030  1.00  0.00     0.015 A 
ATOM     86  C   UNL A   1      33.697  22.286  23.820  1.00  0.00     0.015 A 
ATOM     87  C   UNL A   1      35.985  22.656  24.604  1.00  0.00     0.001 A 
ATOM     88  C   UNL A   1      35.011  21.834  23.999  1.00  0.00     0.001 A 
ENDBRANCH  77  78
BRANCH  77  89
ATOM     89  C   UNL A   1      30.605  26.614  23.525  1.00  0.00     0.071 C 
BRANCH  89  90
ATOM     90  C   UNL A   1      29.857  27.816  22.986  1.00  0.00    -0.045 A 
ATOM     91  C   UNL A   1      28.457  27.828  23.165  1.00  0.00     0.011 A 
ATOM     92  C   UNL A   1      30.456  28.921  22.376  1.00  0.00     0.011 A 
ATOM     93  C   UNL A   1      27.708  28.984  22.937  1.00  0.00     0.086 A 
ATOM     94  C   UNL A   1      29.727  30.103  22.193  1.00  0.00     0.086 A 
ATOM     95  C   UNL A   1      28.365  30.144  22.526  1.00  0.00     0.269 A 
BRANCH  95  96
ATOM     96  N   UNL A   1      27.653  31.427  22.528  1.00  0.00     0.062 N 
ATOM     97  O   UNL A   1      27.770  32.157  21.536  1.00  0.00    -0.258 OA
ATOM     98  O   UNL A   1      26.947  31.688  23.513  1.00  0.00    -0.258 OA
ENDBRANCH  95  96
ENDBRANCH  89  90
ENDBRANCH  77  89
ENDBRANCH  74  77
ENDBRANCH  72  73
ENDBRANCH   1  72
TORSDOF 17
ENDMDL
MODEL 2
REMARK VINA RESULT:     -12.7      1.384      1.937
REMARK SMILES O=C(NCCCNC(=O)[C@H](Cc1ccc([N+](=O)[O-])cc1)N1C(=O)c2ccccc2C1=O)c1ccc(-c2c3nc(c(-c4cc(S(=O)(=O)[O-])ccc4F)c4ccc([nH]4)c(-c4cc(S(=O)(=O)[O-])ccc4F)c4nc(c(-c5cc(S(=O)(=O)[O-])ccc5F)c5ccc2[nH]5)C=C4)C=C3)cc1
REMARK SMILES IDX 5 1 4 2 3 3 1 4 2 5 32 7 33 8 94 9 34 10 93 11 35 12 36 13
REMARK SMILES IDX 37 14 87 15 38 16 92 17 86 18 88 19 39 20 91 21 85 22 84 23
REMARK SMILES IDX 40 25 72 26 52 27 71 28 53 29 56 30 70 31 89 32 54 33 55 34
REMARK SMILES IDX 69 36 90 37 57 38 41 39 42 40 50 41 43 42 49 43 51 44 48 45
REMARK SMILES IDX 44 46 45 47 46 48 47 49 73 50 74 51 82 52 75 53 81 54 83 55
REMARK SMILES IDX 80 56 76 57 77 58 78 59 79 60 58 61 59 62 67 63 60 64 66 65
REMARK SMILES IDX 68 66 65 67 61 68 62 69 63 70 64 71 6 72 7 73 8 74 9 76
REMARK SMILES IDX 10 77 21 78 22 79 30 80 23 81 24 82 29 83 31 84 25 85 28 86
REMARK SMILES IDX 26 87 27 88 11 89 12 90 13 91 20 92 14 93 19 94 15 95 16 96
REMARK SMILES IDX 17 97 18 98
REMARK H PARENT 3 6 88 24 56 35 7 75
REMARK Flexibility Score: inf
ROOT
ATOM      1  C   UNL A   1      31.658  29.447  26.987  1.00  0.00     0.042 C 
ENDROOT
BRANCH   1   2
ATOM      2  C   UNL A   1      32.441  30.445  26.149  1.00  0.00     0.118 C 
BRANCH   2   3
ATOM      3  N   UNL A   1      32.305  31.816  26.617  1.00  0.00    -0.352 N 
ATOM      4  O   UNL A   1      32.688  33.695  27.766  1.00  0.00    -0.269 OA
ATOM      5  C   UNL A   1      33.085  32.570  27.462  1.00  0.00     0.251 C 
ATOM      6  H   UNL A   1      31.515  32.287  26.267  1.00  0.00     0.163 HD
BRANCH   5   7
ATOM      7  C   UNL A   1      34.368  32.067  28.007  1.00  0.00     0.039 A 
ATOM      8  C   UNL A   1      35.499  32.880  28.098  1.00  0.00     0.014 A 
ATOM      9  C   UNL A   1      34.419  30.764  28.520  1.00  0.00     0.014 A 
ATOM     10  C   UNL A   1      36.703  32.364  28.567  1.00  0.00     0.010 A 
ATOM     11  C   UNL A   1      35.599  30.282  29.098  1.00  0.00     0.010 A 
ATOM     12  C   UNL A   1      36.754  31.078  29.120  1.00  0.00    -0.014 A 
BRANCH  12  13
ATOM     13  C   UNL A   1      37.981  30.636  29.832  1.00  0.00     0.031 A 
ATOM     14  C   UNL A   1      38.937  29.666  29.206  1.00  0.00     0.074 A 
ATOM     15  C   UNL A   1      38.207  31.108  31.075  1.00  0.00     0.049 A 
ATOM     16  N   UNL A   1      40.020  29.134  29.712  1.00  0.00    -0.248 NA
ATOM     17  C   UNL A   1      38.633  29.232  27.836  1.00  0.00     0.031 C 
ATOM     18  C   UNL A   1      37.336  32.053  31.782  1.00  0.00     0.029 A 
ATOM     19  N   UNL A   1      39.219  30.863  31.967  1.00  0.00    -0.354 N 
ATOM     20  C   UNL A   1      40.522  28.286  28.732  1.00  0.00     0.074 A 
ATOM     21  C   UNL A   1      39.600  28.353  27.615  1.00  0.00     0.031 C 
ATOM     22  C   UNL A   1      37.858  32.319  32.985  1.00  0.00     0.029 A 
ATOM     23  C   UNL A   1      39.049  31.500  33.174  1.00  0.00     0.049 A 
ATOM     24  H   UNL A   1      39.990  30.287  31.763  1.00  0.00     0.167 HD
ATOM     25  C   UNL A   1      41.646  27.525  28.769  1.00  0.00     0.034 A 
ATOM     26  C   UNL A   1      39.738  31.402  34.328  1.00  0.00     0.034 A 
ATOM     27  C   UNL A   1      42.524  27.452  29.916  1.00  0.00     0.049 A 
ATOM     28  C   UNL A   1      40.932  30.493  34.379  1.00  0.00     0.074 A 
ATOM     29  C   UNL A   1      43.705  26.743  30.055  1.00  0.00     0.029 A 
ATOM     30  N   UNL A   1      42.302  28.088  31.134  1.00  0.00    -0.354 N 
ATOM     31  N   UNL A   1      41.416  29.719  33.434  1.00  0.00    -0.248 NA
ATOM     32  C   UNL A   1      41.677  30.442  35.641  1.00  0.00     0.031 C 
ATOM     33  C   UNL A   1      44.140  26.869  31.379  1.00  0.00     0.029 A 
ATOM     34  C   UNL A   1      43.295  27.747  32.042  1.00  0.00     0.049 A 
ATOM     35  H   UNL A   1      41.548  28.692  31.325  1.00  0.00     0.167 HD
ATOM     36  C   UNL A   1      42.541  29.111  33.979  1.00  0.00     0.074 A 
ATOM     37  C   UNL A   1      42.661  29.607  35.336  1.00  0.00     0.031 C 
ATOM     38  C   UNL A   1      43.402  28.237  33.399  1.00  0.00     0.034 A 
BRANCH  25  39
ATOM     39  C   UNL A   1      41.938  26.661  27.561  1.00  0.00     0.023 A 
ATOM     40  C   UNL A   1      41.498  25.328  27.476  1.00  0.00     0.031 A 
ATOM     41  C   UNL A   1      42.721  27.158  26.503  1.00  0.00     0.131 A 
ATOM     42  C   UNL A   1      41.930  24.511  26.419  1.00  0.00     0.055 A 
ATOM     43  C   UNL A   1      43.064  26.369  25.403  1.00  0.00     0.041 A 
ATOM     44  F   UNL A   1      43.189  28.416  26.529  1.00  0.00    -0.206 F 
ATOM     45  C   UNL A   1      42.689  25.029  25.368  1.00  0.00     0.022 A 
BRANCH  42  46
ATOM     46  S   UNL A   1      41.650  22.722  26.539  1.00  0.00     0.124 S 
ATOM     47  O   UNL A   1      40.197  22.635  26.414  1.00  0.00    -0.237 OA
ATOM     48  O   UNL A   1      42.419  22.206  25.413  1.00  0.00    -0.237 OA
ATOM     49  O   UNL A   1      42.172  22.379  27.861  1.00  0.00    -0.744 OA
ENDBRANCH  42  46
ENDBRANCH  25  39
BRANCH  26  50
ATOM     50  C   UNL A   1      39.261  32.145  35.528  1.00  0.00     0.023 A 
ATOM     51  C   UNL A   1      38.516  31.514  36.534  1.00  0.00     0.031 A 
ATOM     52  C   UNL A   1      39.584  33.505  35.699  1.00  0.00     0.131 A 
ATOM     53  C   UNL A   1      38.103  32.247  37.658  1.00  0.00     0.055 A 
ATOM     54  C   UNL A   1      39.219  34.215  36.843  1.00  0.00     0.041 A 
ATOM     55  F   UNL A   1      40.302  34.154  34.767  1.00  0.00    -0.206 F 
ATOM     56  C   UNL A   1      38.466  33.587  37.829  1.00  0.00     0.022 A 
BRANCH  53  57
ATOM     57  S   UNL A   1      37.036  31.440  38.882  1.00  0.00     0.124 S 
ATOM     58  O   UNL A   1      37.831  31.568  40.099  1.00  0.00    -0.237 OA
ATOM     59  O   UNL A   1      35.827  32.254  38.816  1.00  0.00    -0.237 OA
ATOM     60  O   UNL A   1      36.897  30.079  38.369  1.00  0.00    -0.744 OA
ENDBRANCH  53  57
ENDBRANCH  26  50
BRANCH  38  61
ATOM     61  C   UNL A   1      44.600  27.804  34.209  1.00  0.00     0.023 A 
ATOM     62  C   UNL A   1      44.597  26.639  34.995  1.00  0.00     0.031 A 
ATOM     63  C   UNL A   1      45.785  28.561  34.153  1.00  0.00     0.131 A 
ATOM     64  C   UNL A   1      45.749  26.281  35.715  1.00  0.00     0.055 A 
ATOM     65  C   UNL A   1      46.943  28.168  34.821  1.00  0.00     0.041 A 
ATOM     66  F   UNL A   1      45.840  29.689  33.426  1.00  0.00    -0.206 F 
ATOM     67  C   UNL A   1      46.927  27.024  35.613  1.00  0.00     0.022 A 
BRANCH  64  68
ATOM     68  S   UNL A   1      45.674  24.859  36.839  1.00  0.00     0.124 S 
ATOM     69  O   UNL A   1      44.777  25.344  37.882  1.00  0.00    -0.237 OA
ATOM     70  O   UNL A   1      45.146  23.806  35.979  1.00  0.00    -0.237 OA
ATOM     71  O   UNL A   1      47.065  24.678  37.254  1.00  0.00    -0.744 OA
ENDBRANCH  64  68
ENDBRANCH  38  61
ENDBRANCH  12  13
ENDBRANCH   5   7
ENDBRANCH   2   3
ENDBRANCH   1   2
BRANCH   1  72
ATOM     72  C   UNL A   1      32.375  28.121  27.208  1.00  0.00     0.117 C 
BRANCH  72  73
ATOM     73  N   UNL A   1      31.448  27.013  27.133  1.00  0.00    -0.354 N 
ATOM     74  C   UNL A   1      30.954  26.261  26.120  1.00  0.00     0.243 C 
ATOM     75  H   UNL A   1      31.098  26.747  28.013  1.00  0.00     0.163 HD
ATOM     76  O   UNL A   1      30.119  25.423  26.495  1.00  0.00    -0.273 OA
BRANCH  74  77
ATOM     77  C   UNL A   1      31.428  26.333  24.630  1.00  0.00     0.187 C 
BRANCH  77  78
ATOM     78  N   UNL A   1      32.079  25.011  24.445  1.00  0.00    -0.261 N 
ATOM     79  C   UNL A   1      31.423  23.898  23.973  1.00  0.00     0.262 C 
ATOM     80  C   UNL A   1      33.304  24.683  24.955  1.00  0.00     0.262 C 
ATOM     81  O   UNL A   1      30.306  23.790  23.513  1.00  0.00    -0.269 OA
ATOM     82  C   UNL A   1      32.334  22.772  24.133  1.00  0.00     0.053 A 
ATOM     83  C   UNL A   1      33.480  23.244  24.743  1.00  0.00     0.053 A 
ATOM     84  O   UNL A   1      34.125  25.402  25.498  1.00  0.00    -0.269 OA
ATOM     85  C   UNL A   1      32.169  21.444  23.788  1.00  0.00     0.015 A 
ATOM     86  C   UNL A   1      34.529  22.402  25.055  1.00  0.00     0.015 A 
ATOM     87  C   UNL A   1      33.224  20.576  24.080  1.00  0.00     0.001 A 
ATOM     88  C   UNL A   1      34.392  21.050  24.713  1.00  0.00     0.001 A 
ENDBRANCH  77  78
BRANCH  77  89
ATOM     89  C   UNL A   1      30.355  26.521  23.532  1.00  0.00     0.071 C 
BRANCH  89  90
ATOM     90  C   UNL A   1      29.629  27.834  23.317  1.00  0.00    -0.045 A 
ATOM     91  C   UNL A   1      30.429  28.977  23.105  1.00  0.00     0.011 A 
ATOM     92  C   UNL A   1      28.241  27.978  23.267  1.00  0.00     0.011 A 
ATOM     93  C   UNL A   1      29.874  30.175  22.652  1.00  0.00     0.086 A 
ATOM     94  C   UNL A   1      27.676  29.157  22.763  1.00  0.00     0.086 A 
ATOM     95  C   UNL A   1      28.502  30.233  22.407  1.00  0.00     0.269 A 
BRANCH  95  96
ATOM     96  N   UNL A   1      27.935  31.383  21.693  1.00  0.00     0.062 N 
ATOM     97  O   UNL A   1      27.651  32.392  22.350  1.00  0.00    -0.258 OA
ATOM     98  O   UNL A   1      27.805  31.286  20.464  1.00  0.00    -0.258 OA
ENDBRANCH  95  96
ENDBRANCH  89  90
ENDBRANCH  77  89
ENDBRANCH  74  77
ENDBRANCH  72  73
ENDBRANCH   1  72
TORSDOF 17
ENDMDL
MODEL 3
REMARK VINA RESULT:     -12.7      1.826      7.715
REMARK SMILES O=C(NCCCNC(=O)[C@H](Cc1ccc([N+](=O)[O-])cc1)N1C(=O)c2ccccc2C1=O)c1ccc(-c2c3nc(c(-c4cc(S(=O)(=O)[O-])ccc4F)c4ccc([nH]4)c(-c4cc(S(=O)(=O)[O-])ccc4F)c4nc(c(-c5cc(S(=O)(=O)[O-])ccc5F)c5ccc2[nH]5)C=C4)C=C3)cc1
REMARK SMILES IDX 5 1 4 2 3 3 1 4 2 5 32 7 33 8 94 9 34 10 93 11 35 12 36 13
REMARK SMILES IDX 37 14 87 15 38 16 92 17 86 18 88 19 39 20 91 21 85 22 84 23
REMARK SMILES IDX 40 25 72 26 52 27 71 28 53 29 56 30 70 31 89 32 54 33 55 34
REMARK SMILES IDX 69 36 90 37 57 38 41 39 42 40 50 41 43 42 49 43 51 44 48 45
REMARK SMILES IDX 44 46 45 47 46 48 47 49 73 50 74 51 82 52 75 53 81 54 83 55
REMARK SMILES IDX 80 56 76 57 77 58 78 59 79 60 58 61 59 62 67 63 60 64 66 65
REMARK SMILES IDX 68 66 65 67 61 68 62 69 63 70 64 71 6 72 7 73 8 74 9 76
REMARK SMILES IDX 10 77 21 78 22 79 30 80 23 81 24 82 29 83 31 84 25 85 28 86
REMARK SMILES IDX 26 87 27 88 11 89 12 90 13 91 20 92 14 93 19 94 15 95 16 96
REMARK SMILES IDX 17 97 18 98
REMARK H PARENT 3 6 88 24 56 35 7 75
REMARK Flexibility Score: inf
ROOT
ATOM      1  C   UNL A   1      32.287  28.878  26.137  1.00  0.00     0.042 C 
ENDROOT
BRANCH   1   2
ATOM      2  C   UNL A   1      33.645  29.558  26.181  1.00  0.00     0.118 C 
BRANCH   2   3
ATOM      3  N   UNL A   1      33.610  30.864  26.823  1.00  0.00    -0.352 N 
ATOM      4  O   UNL A   1      34.126  32.545  28.202  1.00  0.00    -0.269 OA
ATOM      5  C   UNL A   1      34.439  31.442  27.755  1.00  0.00     0.251 C 
ATOM      6  H   UNL A   1      32.860  31.435  26.538  1.00  0.00     0.163 HD
BRANCH   5   7
ATOM      7  C   UNL A   1      35.677  30.777  28.227  1.00  0.00     0.039 A 
ATOM      8  C   UNL A   1      36.924  31.057  27.665  1.00  0.00     0.014 A 
ATOM      9  C   UNL A   1      35.600  29.906  29.321  1.00  0.00     0.014 A 
ATOM     10  C   UNL A   1      38.060  30.379  28.095  1.00  0.00     0.010 A 
ATOM     11  C   UNL A   1      36.761  29.312  29.829  1.00  0.00     0.010 A 
ATOM     12  C   UNL A   1      38.001  29.539  29.214  1.00  0.00    -0.014 A 
BRANCH  12  13
ATOM     13  C   UNL A   1      39.260  29.016  29.804  1.00  0.00     0.031 A 
ATOM     14  C   UNL A   1      39.908  29.688  30.977  1.00  0.00     0.074 A 
ATOM     15  C   UNL A   1      39.828  27.929  29.243  1.00  0.00     0.049 A 
ATOM     16  N   UNL A   1      41.036  29.397  31.573  1.00  0.00    -0.248 NA
ATOM     17  C   UNL A   1      39.202  30.843  31.547  1.00  0.00     0.031 C 
ATOM     18  C   UNL A   1      39.284  27.200  28.093  1.00  0.00     0.029 A 
ATOM     19  N   UNL A   1      40.980  27.250  29.548  1.00  0.00    -0.354 N 
ATOM     20  C   UNL A   1      41.189  30.342  32.582  1.00  0.00     0.074 A 
ATOM     21  C   UNL A   1      40.050  31.234  32.487  1.00  0.00     0.031 C 
ATOM     22  C   UNL A   1      40.088  26.170  27.802  1.00  0.00     0.029 A 
ATOM     23  C   UNL A   1      41.250  26.216  28.682  1.00  0.00     0.049 A 
ATOM     24  H   UNL A   1      41.558  27.482  30.310  1.00  0.00     0.167 HD
ATOM     25  C   UNL A   1      42.188  30.448  33.494  1.00  0.00     0.034 A 
ATOM     26  C   UNL A   1      42.331  25.421  28.567  1.00  0.00     0.034 A 
ATOM     27  C   UNL A   1      43.330  29.561  33.536  1.00  0.00     0.049 A 
ATOM     28  C   UNL A   1      43.466  25.605  29.533  1.00  0.00     0.074 A 
ATOM     29  C   UNL A   1      44.385  29.554  34.433  1.00  0.00     0.029 A 
ATOM     30  N   UNL A   1      43.584  28.544  32.621  1.00  0.00    -0.354 N 
ATOM     31  N   UNL A   1      43.585  26.482  30.503  1.00  0.00    -0.248 NA
ATOM     32  C   UNL A   1      44.610  24.696  29.398  1.00  0.00     0.031 C 
ATOM     33  C   UNL A   1      45.318  28.603  34.005  1.00  0.00     0.029 A 
ATOM     34  C   UNL A   1      44.800  27.937  32.905  1.00  0.00     0.049 A 
ATOM     35  H   UNL A   1      42.988  28.290  31.880  1.00  0.00     0.167 HD
ATOM     36  C   UNL A   1      44.804  26.211  31.115  1.00  0.00     0.074 A 
ATOM     37  C   UNL A   1      45.383  25.090  30.401  1.00  0.00     0.031 C 
ATOM     38  C   UNL A   1      45.378  26.826  32.179  1.00  0.00     0.034 A 
BRANCH  25  39
ATOM     39  C   UNL A   1      42.118  31.606  34.467  1.00  0.00     0.023 A 
ATOM     40  C   UNL A   1      41.303  31.565  35.613  1.00  0.00     0.031 A 
ATOM     41  C   UNL A   1      42.828  32.794  34.213  1.00  0.00     0.131 A 
ATOM     42  C   UNL A   1      41.135  32.718  36.397  1.00  0.00     0.055 A 
ATOM     43  C   UNL A   1      42.735  33.905  35.054  1.00  0.00     0.041 A 
ATOM     44  F   UNL A   1      43.610  32.906  33.127  1.00  0.00    -0.206 F 
ATOM     45  C   UNL A   1      41.866  33.879  36.140  1.00  0.00     0.022 A 
BRANCH  42  46
ATOM     46  S   UNL A   1      39.807  32.737  37.633  1.00  0.00     0.124 S 
ATOM     47  O   UNL A   1      38.939  31.661  37.159  1.00  0.00    -0.237 OA
ATOM     48  O   UNL A   1      40.526  32.475  38.874  1.00  0.00    -0.237 OA
ATOM     49  O   UNL A   1      39.241  34.079  37.511  1.00  0.00    -0.744 OA
ENDBRANCH  42  46
ENDBRANCH  25  39
BRANCH  26  50
ATOM     50  C   UNL A   1      42.396  24.433  27.453  1.00  0.00     0.023 A 
ATOM     51  C   UNL A   1      41.669  23.235  27.491  1.00  0.00     0.031 A 
ATOM     52  C   UNL A   1      43.170  24.701  26.308  1.00  0.00     0.131 A 
ATOM     53  C   UNL A   1      41.744  22.341  26.411  1.00  0.00     0.055 A 
ATOM     54  C   UNL A   1      43.198  23.835  25.214  1.00  0.00     0.041 A 
ATOM     55  F   UNL A   1      43.880  25.838  26.219  1.00  0.00    -0.206 F 
ATOM     56  C   UNL A   1      42.487  22.642  25.266  1.00  0.00     0.022 A 
BRANCH  53  57
ATOM     57  S   UNL A   1      40.893  20.745  26.541  1.00  0.00     0.124 S 
ATOM     58  O   UNL A   1      39.570  21.071  26.018  1.00  0.00    -0.237 OA
ATOM     59  O   UNL A   1      41.723  19.889  25.700  1.00  0.00    -0.237 OA
ATOM     60  O   UNL A   1      40.942  20.447  27.970  1.00  0.00    -0.744 OA
ENDBRANCH  53  57
ENDBRANCH  26  50
BRANCH  38  61
ATOM     61  C   UNL A   1      46.680  26.257  32.689  1.00  0.00     0.023 A 
ATOM     62  C   UNL A   1      46.730  25.178  33.588  1.00  0.00     0.031 A 
ATOM     63  C   UNL A   1      47.898  26.790  32.226  1.00  0.00     0.131 A 
ATOM     64  C   UNL A   1      47.974  24.684  34.014  1.00  0.00     0.055 A 
ATOM     65  C   UNL A   1      49.128  26.257  32.606  1.00  0.00     0.041 A 
ATOM     66  F   UNL A   1      47.908  27.829  31.375  1.00  0.00    -0.206 F 
ATOM     67  C   UNL A   1      49.171  25.200  33.510  1.00  0.00     0.022 A 
BRANCH  64  68
ATOM     68  S   UNL A   1      48.016  23.392  35.288  1.00  0.00     0.124 S 
ATOM     69  O   UNL A   1      46.598  23.111  35.480  1.00  0.00    -0.237 OA
ATOM     70  O   UNL A   1      48.794  22.340  34.642  1.00  0.00    -0.237 OA
ATOM     71  O   UNL A   1      48.677  24.045  36.417  1.00  0.00    -0.744 OA
ENDBRANCH  64  68
ENDBRANCH  38  61
ENDBRANCH  12  13
ENDBRANCH   5   7
ENDBRANCH   2   3
ENDBRANCH   1   2
BRANCH   1  72
ATOM     72  C   UNL A   1      31.971  28.035  27.366  1.00  0.00     0.117 C 
BRANCH  72  73
ATOM     73  N   UNL A   1      31.002  27.008  27.053  1.00  0.00    -0.354 N 
ATOM     74  C   UNL A   1      30.657  26.346  25.922  1.00  0.00     0.243 C 
ATOM     75  H   UNL A   1      30.476  26.727  27.837  1.00  0.00     0.163 HD
ATOM     76  O   UNL A   1      29.712  25.559  26.086  1.00  0.00    -0.273 OA
BRANCH  74  77
ATOM     77  C   UNL A   1      31.405  26.453  24.552  1.00  0.00     0.187 C 
BRANCH  77  78
ATOM     78  N   UNL A   1      32.157  25.174  24.505  1.00  0.00    -0.261 N 
ATOM     79  C   UNL A   1      31.626  23.994  24.038  1.00  0.00     0.262 C 
ATOM     80  C   UNL A   1      33.346  24.961  25.147  1.00  0.00     0.262 C 
ATOM     81  O   UNL A   1      30.569  23.784  23.483  1.00  0.00    -0.269 OA
ATOM     82  C   UNL A   1      32.589  22.946  24.348  1.00  0.00     0.053 A 
ATOM     83  C   UNL A   1      33.636  23.529  25.035  1.00  0.00     0.053 A 
ATOM     84  O   UNL A   1      34.060  25.763  25.722  1.00  0.00    -0.269 OA
ATOM     85  C   UNL A   1      32.547  21.594  24.066  1.00  0.00     0.015 A 
ATOM     86  C   UNL A   1      34.702  22.781  25.492  1.00  0.00     0.015 A 
ATOM     87  C   UNL A   1      33.623  20.819  24.505  1.00  0.00     0.001 A 
ATOM     88  C   UNL A   1      34.690  21.407  25.217  1.00  0.00     0.001 A 
ENDBRANCH  77  78
BRANCH  77  89
ATOM     89  C   UNL A   1      30.556  26.583  23.265  1.00  0.00     0.071 C 
BRANCH  89  90
ATOM     90  C   UNL A   1      29.801  27.847  22.910  1.00  0.00    -0.045 A 
ATOM     91  C   UNL A   1      28.417  27.863  23.189  1.00  0.00     0.011 A 
ATOM     92  C   UNL A   1      30.382  29.000  22.378  1.00  0.00     0.011 A 
ATOM     93  C   UNL A   1      27.682  29.048  23.138  1.00  0.00     0.086 A 
ATOM     94  C   UNL A   1      29.670  30.207  22.373  1.00  0.00     0.086 A 
ATOM     95  C   UNL A   1      28.336  30.234  22.804  1.00  0.00     0.269 A 
BRANCH  95  96
ATOM     96  N   UNL A   1      27.656  31.521  22.991  1.00  0.00     0.062 N 
ATOM     97  O   UNL A   1      27.905  32.431  22.191  1.00  0.00    -0.258 OA
ATOM     98  O   UNL A   1      26.844  31.609  23.924  1.00  0.00    -0.258 OA
ENDBRANCH  95  96
ENDBRANCH  89  90
ENDBRANCH  77  89
ENDBRANCH  74  77
ENDBRANCH  72  73
ENDBRANCH   1  72
TORSDOF 17
ENDMDL
