MODEL 1
REMARK VINA RESULT:     -12.4      0.000      0.000
REMARK SMILES CCNC(=O)c1ccc(NC(=O)CC2(C(=O)NCCCNC(=O)c3ccc(-c4c5nc(c(-c6cc(S(=O)(=O)[O-])ccc6F)c6ccc([nH]6)c(-c6cc(S(=O)(=O)[O-])ccc6F)c6nc(c(-c7cc(S(=O)(=O)[O-])ccc7F)c7ccc4[nH]7)C=C6)C=C5)cc3)CCCC2)cc1
REMARK SMILES IDX 18 1 17 2 15 3 16 4 14 6 87 7 90 8 88 9 89 10 13 11 11 12
REMARK SMILES IDX 10 13 12 15 9 16 6 17 7 18 92 19 8 20 91 21 4 22 3 23 5 25
REMARK SMILES IDX 2 26 1 27 19 28 20 29 21 30 22 31 23 33 24 34 25 35 86 36
REMARK SMILES IDX 26 37 85 38 27 39 28 40 29 41 79 42 30 43 84 44 78 45 80 46
REMARK SMILES IDX 31 47 83 48 77 49 76 50 32 52 64 53 44 54 63 55 45 56 48 57
REMARK SMILES IDX 62 58 81 59 46 60 47 61 61 63 82 64 49 65 33 66 34 67 42 68
REMARK SMILES IDX 35 69 41 70 43 71 40 72 36 73 37 74 38 75 39 76 65 77 66 78
REMARK SMILES IDX 74 79 67 80 73 81 75 82 72 83 68 84 69 85 70 86 71 87 50 88
REMARK SMILES IDX 51 89 59 90 52 91 58 92 60 93 57 94 53 95 54 96 55 97 56 98
REMARK H PARENT 17 5 10 14 3 24 21 32 80 51 48 62
REMARK Flexibility Score: inf
ROOT
ATOM      1  C   UNL A   1      35.511  22.011  24.443  1.00  0.00     0.117 C 
ENDROOT
BRANCH   1   2
ATOM      2  N   UNL A   1      34.271  21.295  24.635  1.00  0.00    -0.356 N 
ATOM      3  C   UNL A   1      32.982  21.717  24.623  1.00  0.00     0.226 C 
ATOM      4  O   UNL A   1      32.175  20.883  24.185  1.00  0.00    -0.274 OA
ATOM      5  H   UNL A   1      34.381  20.332  24.805  1.00  0.00     0.163 HD
BRANCH   3   6
ATOM      6  C   UNL A   1      32.482  23.123  25.064  1.00  0.00     0.058 C 
ATOM      7  C   UNL A   1      32.662  24.089  23.864  1.00  0.00     0.017 C 
ATOM      8  C   UNL A   1      33.240  23.821  26.208  1.00  0.00     0.017 C 
ATOM      9  C   UNL A   1      33.953  24.856  24.097  1.00  0.00     0.001 C 
ATOM     10  C   UNL A   1      34.134  24.907  25.604  1.00  0.00     0.001 C 
BRANCH   6  11
ATOM     11  C   UNL A   1      30.940  22.968  25.370  1.00  0.00     0.117 C 
BRANCH  11  12
ATOM     12  C   UNL A   1      30.378  23.659  26.607  1.00  0.00     0.225 C 
ATOM     13  N   UNL A   1      30.048  24.979  26.652  1.00  0.00    -0.326 N 
ATOM     14  H   UNL A   1      29.527  25.229  27.448  1.00  0.00     0.169 HD
ATOM     15  O   UNL A   1      30.126  22.983  27.614  1.00  0.00    -0.275 OA
BRANCH  13  16
ATOM     16  C   UNL A   1      30.306  26.050  25.789  1.00  0.00     0.041 A 
ATOM     17  C   UNL A   1      30.860  28.026  23.895  1.00  0.00     0.039 A 
ATOM     18  C   UNL A   1      31.461  28.079  25.150  1.00  0.00     0.016 A 
ATOM     19  C   UNL A   1      29.933  27.027  23.596  1.00  0.00     0.016 A 
ATOM     20  C   UNL A   1      31.156  27.106  26.104  1.00  0.00     0.027 A 
ATOM     21  C   UNL A   1      29.642  26.052  24.555  1.00  0.00     0.027 A 
BRANCH  17  22
ATOM     22  C   UNL A   1      31.280  28.989  22.867  1.00  0.00     0.251 C 
ATOM     23  N   UNL A   1      30.383  29.898  22.384  1.00  0.00    -0.352 N 
ATOM     24  H   UNL A   1      30.677  30.411  21.596  1.00  0.00     0.163 HD
ATOM     25  O   UNL A   1      32.442  28.962  22.465  1.00  0.00    -0.269 OA
BRANCH  23  26
ATOM     26  C   UNL A   1      29.055  30.207  22.879  1.00  0.00     0.112 C 
ATOM     27  C   UNL A   1      29.112  31.351  23.876  1.00  0.00     0.027 C 
ENDBRANCH  23  26
ENDBRANCH  17  22
ENDBRANCH  13  16
ENDBRANCH  11  12
ENDBRANCH   6  11
ENDBRANCH   3   6
ENDBRANCH   1   2
BRANCH   1  28
ATOM     28  C   UNL A   1      36.514  21.844  25.570  1.00  0.00     0.042 C 
BRANCH  28  29
ATOM     29  C   UNL A   1      37.951  21.712  25.091  1.00  0.00     0.118 C 
BRANCH  29  30
ATOM     30  N   UNL A   1      38.741  20.810  25.923  1.00  0.00    -0.352 N 
ATOM     31  C   UNL A   1      39.833  21.039  26.724  1.00  0.00     0.251 C 
ATOM     32  H   UNL A   1      38.439  19.873  25.906  1.00  0.00     0.163 HD
ATOM     33  O   UNL A   1      40.471  20.085  27.152  1.00  0.00    -0.269 OA
BRANCH  31  34
ATOM     34  C   UNL A   1      40.248  22.420  27.052  1.00  0.00     0.039 A 
ATOM     35  C   UNL A   1      41.235  22.624  28.021  1.00  0.00     0.014 A 
ATOM     36  C   UNL A   1      39.644  23.517  26.435  1.00  0.00     0.014 A 
ATOM     37  C   UNL A   1      41.663  23.920  28.315  1.00  0.00     0.010 A 
ATOM     38  C   UNL A   1      40.146  24.796  26.648  1.00  0.00     0.010 A 
ATOM     39  C   UNL A   1      41.151  25.015  27.601  1.00  0.00    -0.014 A 
BRANCH  39  40
ATOM     40  C   UNL A   1      41.618  26.403  27.852  1.00  0.00     0.031 A 
ATOM     41  C   UNL A   1      42.989  26.823  27.390  1.00  0.00     0.074 A 
ATOM     42  C   UNL A   1      40.847  27.254  28.559  1.00  0.00     0.049 A 
ATOM     43  N   UNL A   1      43.638  27.935  27.620  1.00  0.00    -0.248 NA
ATOM     44  C   UNL A   1      43.745  25.840  26.598  1.00  0.00     0.031 C 
ATOM     45  C   UNL A   1      39.516  26.949  29.088  1.00  0.00     0.029 A 
ATOM     46  N   UNL A   1      41.073  28.545  28.963  1.00  0.00    -0.354 N 
ATOM     47  C   UNL A   1      44.884  27.776  27.022  1.00  0.00     0.074 A 
ATOM     48  C   UNL A   1      44.923  26.433  26.484  1.00  0.00     0.031 C 
ATOM     49  C   UNL A   1      39.035  28.029  29.721  1.00  0.00     0.029 A 
ATOM     50  C   UNL A   1      40.042  29.086  29.694  1.00  0.00     0.049 A 
ATOM     51  H   UNL A   1      41.899  29.039  28.749  1.00  0.00     0.167 HD
ATOM     52  C   UNL A   1      45.891  28.676  26.907  1.00  0.00     0.034 A 
ATOM     53  C   UNL A   1      39.927  30.290  30.290  1.00  0.00     0.034 A 
ATOM     54  C   UNL A   1      45.823  30.018  27.432  1.00  0.00     0.049 A 
ATOM     55  C   UNL A   1      41.070  31.267  30.172  1.00  0.00     0.074 A 
ATOM     56  C   UNL A   1      46.758  31.032  27.332  1.00  0.00     0.029 A 
ATOM     57  N   UNL A   1      44.757  30.532  28.161  1.00  0.00    -0.354 N 
ATOM     58  N   UNL A   1      42.228  31.116  29.569  1.00  0.00    -0.248 NA
ATOM     59  C   UNL A   1      40.887  32.579  30.805  1.00  0.00     0.031 C 
ATOM     60  C   UNL A   1      46.292  32.132  28.059  1.00  0.00     0.029 A 
ATOM     61  C   UNL A   1      45.026  31.838  28.542  1.00  0.00     0.049 A 
ATOM     62  H   UNL A   1      43.930  30.042  28.376  1.00  0.00     0.167 HD
ATOM     63  C   UNL A   1      42.895  32.330  29.721  1.00  0.00     0.074 A 
ATOM     64  C   UNL A   1      42.005  33.201  30.460  1.00  0.00     0.031 C 
ATOM     65  C   UNL A   1      44.128  32.692  29.285  1.00  0.00     0.034 A 
BRANCH  52  66
ATOM     66  C   UNL A   1      47.154  28.223  26.212  1.00  0.00     0.023 A 
ATOM     67  C   UNL A   1      47.300  28.304  24.815  1.00  0.00     0.031 A 
ATOM     68  C   UNL A   1      48.216  27.671  26.949  1.00  0.00     0.131 A 
ATOM     69  C   UNL A   1      48.435  27.761  24.194  1.00  0.00     0.055 A 
ATOM     70  C   UNL A   1      49.385  27.216  26.333  1.00  0.00     0.041 A 
ATOM     71  F   UNL A   1      48.131  27.545  28.283  1.00  0.00    -0.206 F 
ATOM     72  C   UNL A   1      49.491  27.244  24.946  1.00  0.00     0.022 A 
BRANCH  69  73
ATOM     73  S   UNL A   1      48.438  27.598  22.388  1.00  0.00     0.124 S 
ATOM     74  O   UNL A   1      48.544  26.150  22.225  1.00  0.00    -0.237 OA
ATOM     75  O   UNL A   1      47.161  28.193  22.014  1.00  0.00    -0.237 OA
ATOM     76  O   UNL A   1      49.623  28.350  21.978  1.00  0.00    -0.744 OA
ENDBRANCH  69  73
ENDBRANCH  52  66
BRANCH  53  77
ATOM     77  C   UNL A   1      38.697  30.643  31.056  1.00  0.00     0.023 A 
ATOM     78  C   UNL A   1      37.613  31.278  30.430  1.00  0.00     0.031 A 
ATOM     79  C   UNL A   1      38.602  30.389  32.437  1.00  0.00     0.131 A 
ATOM     80  C   UNL A   1      36.505  31.684  31.189  1.00  0.00     0.055 A 
ATOM     81  C   UNL A   1      37.472  30.742  33.177  1.00  0.00     0.041 A 
ATOM     82  F   UNL A   1      39.607  29.781  33.086  1.00  0.00    -0.206 F 
ATOM     83  C   UNL A   1      36.420  31.407  32.556  1.00  0.00     0.022 A 
BRANCH  80  84
ATOM     84  S   UNL A   1      35.212  32.667  30.380  1.00  0.00     0.124 S 
ATOM     85  O   UNL A   1      34.203  32.748  31.429  1.00  0.00    -0.237 OA
ATOM     86  O   UNL A   1      35.921  33.904  30.073  1.00  0.00    -0.237 OA
ATOM     87  O   UNL A   1      34.845  31.857  29.220  1.00  0.00    -0.744 OA
ENDBRANCH  80  84
ENDBRANCH  53  77
BRANCH  65  88
ATOM     88  C   UNL A   1      44.560  34.114  29.552  1.00  0.00     0.023 A 
ATOM     89  C   UNL A   1      44.352  35.141  28.615  1.00  0.00     0.031 A 
ATOM     90  C   UNL A   1      45.194  34.442  30.764  1.00  0.00     0.131 A 
ATOM     91  C   UNL A   1      44.825  36.436  28.882  1.00  0.00     0.055 A 
ATOM     92  C   UNL A   1      45.602  35.744  31.051  1.00  0.00     0.041 A 
ATOM     93  F   UNL A   1      45.421  33.500  31.694  1.00  0.00    -0.206 F 
ATOM     94  C   UNL A   1      45.430  36.748  30.102  1.00  0.00     0.022 A 
BRANCH  91  95
ATOM     95  S   UNL A   1      44.723  37.686  27.572  1.00  0.00     0.124 S 
ATOM     96  O   UNL A   1      44.891  38.926  28.324  1.00  0.00    -0.237 OA
ATOM     97  O   UNL A   1      45.830  37.315  26.698  1.00  0.00    -0.237 OA
ATOM     98  O   UNL A   1      43.391  37.480  27.005  1.00  0.00    -0.744 OA
ENDBRANCH  91  95
ENDBRANCH  65  88
ENDBRANCH  39  40
ENDBRANCH  31  34
ENDBRANCH  29  30
ENDBRANCH  28  29
ENDBRANCH   1  28
TORSDOF 18
ENDMDL
MODEL 2
REMARK VINA RESULT:     -12.3      5.373      8.880
REMARK SMILES CCNC(=O)c1ccc(NC(=O)CC2(C(=O)NCCCNC(=O)c3ccc(-c4c5nc(c(-c6cc(S(=O)(=O)[O-])ccc6F)c6ccc([nH]6)c(-c6cc(S(=O)(=O)[O-])ccc6F)c6nc(c(-c7cc(S(=O)(=O)[O-])ccc7F)c7ccc4[nH]7)C=C6)C=C5)cc3)CCCC2)cc1
REMARK SMILES IDX 18 1 17 2 15 3 16 4 14 6 87 7 90 8 88 9 89 10 13 11 11 12
REMARK SMILES IDX 10 13 12 15 9 16 6 17 7 18 92 19 8 20 91 21 4 22 3 23 5 25
REMARK SMILES IDX 2 26 1 27 19 28 20 29 21 30 22 31 23 33 24 34 25 35 86 36
REMARK SMILES IDX 26 37 85 38 27 39 28 40 29 41 79 42 30 43 84 44 78 45 80 46
REMARK SMILES IDX 31 47 83 48 77 49 76 50 32 52 64 53 44 54 63 55 45 56 48 57
REMARK SMILES IDX 62 58 81 59 46 60 47 61 61 63 82 64 49 65 33 66 34 67 42 68
REMARK SMILES IDX 35 69 41 70 43 71 40 72 36 73 37 74 38 75 39 76 65 77 66 78
REMARK SMILES IDX 74 79 67 80 73 81 75 82 72 83 68 84 69 85 70 86 71 87 50 88
REMARK SMILES IDX 51 89 59 90 52 91 58 92 60 93 57 94 53 95 54 96 55 97 56 98
REMARK H PARENT 17 5 10 14 3 24 21 32 80 51 48 62
REMARK Flexibility Score: inf
ROOT
ATOM      1  C   UNL A   1      31.815  30.451  26.294  1.00  0.00     0.117 C 
ENDROOT
BRANCH   1   2
ATOM      2  N   UNL A   1      31.290  30.425  24.948  1.00  0.00    -0.356 N 
ATOM      3  C   UNL A   1      30.913  29.393  24.153  1.00  0.00     0.226 C 
ATOM      4  O   UNL A   1      29.970  29.652  23.391  1.00  0.00    -0.274 OA
ATOM      5  H   UNL A   1      31.190  31.313  24.535  1.00  0.00     0.163 HD
BRANCH   3   6
ATOM      6  C   UNL A   1      31.530  27.965  24.165  1.00  0.00     0.058 C 
ATOM      7  C   UNL A   1      30.882  27.157  23.011  1.00  0.00     0.017 C 
ATOM      8  C   UNL A   1      31.275  27.090  25.406  1.00  0.00     0.017 C 
ATOM      9  C   UNL A   1      29.777  26.311  23.622  1.00  0.00     0.001 C 
ATOM     10  C   UNL A   1      30.203  26.054  25.057  1.00  0.00     0.001 C 
BRANCH   6  11
ATOM     11  C   UNL A   1      33.071  28.145  23.862  1.00  0.00     0.117 C 
BRANCH  11  12
ATOM     12  C   UNL A   1      33.651  27.448  22.638  1.00  0.00     0.225 C 
ATOM     13  N   UNL A   1      33.776  26.097  22.525  1.00  0.00    -0.326 N 
ATOM     14  H   UNL A   1      33.987  25.794  21.613  1.00  0.00     0.169 HD
ATOM     15  O   UNL A   1      33.959  28.124  21.647  1.00  0.00    -0.275 OA
BRANCH  13  16
ATOM     16  C   UNL A   1      33.665  25.054  23.452  1.00  0.00     0.041 A 
ATOM     17  C   UNL A   1      33.206  22.989  25.276  1.00  0.00     0.039 A 
ATOM     18  C   UNL A   1      34.086  24.018  25.599  1.00  0.00     0.016 A 
ATOM     19  C   UNL A   1      32.597  22.947  24.021  1.00  0.00     0.016 A 
ATOM     20  C   UNL A   1      34.336  25.032  24.671  1.00  0.00     0.027 A 
ATOM     21  C   UNL A   1      32.847  23.971  23.103  1.00  0.00     0.027 A 
BRANCH  17  22
ATOM     22  C   UNL A   1      32.867  21.997  26.306  1.00  0.00     0.251 C 
ATOM     23  N   UNL A   1      31.797  22.211  27.126  1.00  0.00    -0.352 N 
ATOM     24  H   UNL A   1      31.712  21.591  27.888  1.00  0.00     0.163 HD
ATOM     25  O   UNL A   1      33.555  20.982  26.403  1.00  0.00    -0.269 OA
BRANCH  23  26
ATOM     26  C   UNL A   1      30.769  23.229  27.023  1.00  0.00     0.112 C 
ATOM     27  C   UNL A   1      29.392  22.615  27.198  1.00  0.00     0.027 C 
ENDBRANCH  23  26
ENDBRANCH  17  22
ENDBRANCH  13  16
ENDBRANCH  11  12
ENDBRANCH   6  11
ENDBRANCH   3   6
ENDBRANCH   1   2
BRANCH   1  28
ATOM     28  C   UNL A   1      31.644  31.778  27.010  1.00  0.00     0.042 C 
BRANCH  28  29
ATOM     29  C   UNL A   1      32.943  32.553  27.172  1.00  0.00     0.118 C 
BRANCH  29  30
ATOM     30  N   UNL A   1      32.729  33.924  27.622  1.00  0.00    -0.352 N 
ATOM     31  C   UNL A   1      33.265  34.628  28.672  1.00  0.00     0.251 C 
ATOM     32  H   UNL A   1      32.085  34.433  27.079  1.00  0.00     0.163 HD
ATOM     33  O   UNL A   1      32.764  35.699  28.993  1.00  0.00    -0.269 OA
BRANCH  31  34
ATOM     34  C   UNL A   1      34.422  34.093  29.422  1.00  0.00     0.039 A 
ATOM     35  C   UNL A   1      34.197  33.228  30.498  1.00  0.00     0.014 A 
ATOM     36  C   UNL A   1      35.726  34.466  29.094  1.00  0.00     0.014 A 
ATOM     37  C   UNL A   1      35.281  32.686  31.192  1.00  0.00     0.010 A 
ATOM     38  C   UNL A   1      36.804  33.843  29.713  1.00  0.00     0.010 A 
ATOM     39  C   UNL A   1      36.595  32.956  30.779  1.00  0.00    -0.014 A 
BRANCH  39  40
ATOM     40  C   UNL A   1      37.771  32.359  31.462  1.00  0.00     0.031 A 
ATOM     41  C   UNL A   1      38.515  31.223  30.809  1.00  0.00     0.074 A 
ATOM     42  C   UNL A   1      38.117  32.781  32.695  1.00  0.00     0.049 A 
ATOM     43  N   UNL A   1      39.477  30.478  31.287  1.00  0.00    -0.248 NA
ATOM     44  C   UNL A   1      38.088  30.853  29.451  1.00  0.00     0.031 C 
ATOM     45  C   UNL A   1      37.450  33.848  33.443  1.00  0.00     0.029 A 
ATOM     46  N   UNL A   1      39.110  32.357  33.542  1.00  0.00    -0.354 N 
ATOM     47  C   UNL A   1      39.754  29.538  30.298  1.00  0.00     0.074 A 
ATOM     48  C   UNL A   1      38.807  29.765  29.228  1.00  0.00     0.031 C 
ATOM     49  C   UNL A   1      38.068  34.013  34.622  1.00  0.00     0.029 A 
ATOM     50  C   UNL A   1      39.139  33.029  34.742  1.00  0.00     0.049 A 
ATOM     51  H   UNL A   1      39.743  31.638  33.312  1.00  0.00     0.167 HD
ATOM     52  C   UNL A   1      40.726  28.593  30.274  1.00  0.00     0.034 A 
ATOM     53  C   UNL A   1      39.928  32.860  35.821  1.00  0.00     0.034 A 
ATOM     54  C   UNL A   1      41.674  28.399  31.344  1.00  0.00     0.049 A 
ATOM     55  C   UNL A   1      40.986  31.786  35.784  1.00  0.00     0.074 A 
ATOM     56  C   UNL A   1      42.732  27.510  31.408  1.00  0.00     0.029 A 
ATOM     57  N   UNL A   1      41.676  29.106  32.541  1.00  0.00    -0.354 N 
ATOM     58  N   UNL A   1      41.261  30.930  34.825  1.00  0.00    -0.248 NA
ATOM     59  C   UNL A   1      41.846  31.661  36.967  1.00  0.00     0.031 C 
ATOM     60  C   UNL A   1      43.327  27.627  32.668  1.00  0.00     0.029 A 
ATOM     61  C   UNL A   1      42.698  28.650  33.360  1.00  0.00     0.049 A 
ATOM     62  H   UNL A   1      41.046  29.825  32.774  1.00  0.00     0.167 HD
ATOM     63  C   UNL A   1      42.351  30.190  35.279  1.00  0.00     0.074 A 
ATOM     64  C   UNL A   1      42.687  30.710  36.589  1.00  0.00     0.031 C 
ATOM     65  C   UNL A   1      43.016  29.177  34.667  1.00  0.00     0.034 A 
BRANCH  52  66
ATOM     66  C   UNL A   1      40.786  27.688  29.065  1.00  0.00     0.023 A 
ATOM     67  C   UNL A   1      41.719  27.894  28.032  1.00  0.00     0.031 A 
ATOM     68  C   UNL A   1      39.878  26.625  28.924  1.00  0.00     0.131 A 
ATOM     69  C   UNL A   1      41.665  27.109  26.871  1.00  0.00     0.055 A 
ATOM     70  C   UNL A   1      39.890  25.788  27.805  1.00  0.00     0.041 A 
ATOM     71  F   UNL A   1      38.948  26.389  29.863  1.00  0.00    -0.206 F 
ATOM     72  C   UNL A   1      40.775  26.039  26.762  1.00  0.00     0.022 A 
BRANCH  69  73
ATOM     73  S   UNL A   1      42.665  27.609  25.443  1.00  0.00     0.124 S 
ATOM     74  O   UNL A   1      42.655  26.390  24.637  1.00  0.00    -0.237 OA
ATOM     75  O   UNL A   1      41.912  28.737  24.907  1.00  0.00    -0.237 OA
ATOM     76  O   UNL A   1      43.961  27.945  26.032  1.00  0.00    -0.744 OA
ENDBRANCH  69  73
ENDBRANCH  52  66
BRANCH  53  77
ATOM     77  C   UNL A   1      39.751  33.715  37.032  1.00  0.00     0.023 A 
ATOM     78  C   UNL A   1      39.053  33.242  38.154  1.00  0.00     0.031 A 
ATOM     79  C   UNL A   1      40.239  35.034  37.068  1.00  0.00     0.131 A 
ATOM     80  C   UNL A   1      38.817  34.095  39.243  1.00  0.00     0.055 A 
ATOM     81  C   UNL A   1      40.054  35.860  38.178  1.00  0.00     0.041 A 
ATOM     82  F   UNL A   1      40.917  35.536  36.024  1.00  0.00    -0.206 F 
ATOM     83  C   UNL A   1      39.326  35.396  39.269  1.00  0.00     0.022 A 
BRANCH  80  84
ATOM     84  S   UNL A   1      37.753  33.509  40.590  1.00  0.00     0.124 S 
ATOM     85  O   UNL A   1      37.587  34.720  41.384  1.00  0.00    -0.237 OA
ATOM     86  O   UNL A   1      36.573  33.049  39.865  1.00  0.00    -0.237 OA
ATOM     87  O   UNL A   1      38.547  32.454  41.216  1.00  0.00    -0.744 OA
ENDBRANCH  80  84
ENDBRANCH  53  77
BRANCH  65  88
ATOM     88  C   UNL A   1      44.211  28.604  35.391  1.00  0.00     0.023 A 
ATOM     89  C   UNL A   1      44.077  27.609  36.374  1.00  0.00     0.031 A 
ATOM     90  C   UNL A   1      45.505  29.068  35.091  1.00  0.00     0.131 A 
ATOM     91  C   UNL A   1      45.211  27.151  37.063  1.00  0.00     0.055 A 
ATOM     92  C   UNL A   1      46.634  28.561  35.732  1.00  0.00     0.041 A 
ATOM     93  F   UNL A   1      45.691  30.020  34.162  1.00  0.00    -0.206 F 
ATOM     94  C   UNL A   1      46.490  27.606  36.734  1.00  0.00     0.022 A 
BRANCH  91  95
ATOM     95  S   UNL A   1      44.981  26.020  38.462  1.00  0.00     0.124 S 
ATOM     96  O   UNL A   1      43.700  26.463  39.002  1.00  0.00    -0.237 OA
ATOM     97  O   UNL A   1      44.982  24.714  37.812  1.00  0.00    -0.237 OA
ATOM     98  O   UNL A   1      46.140  26.288  39.313  1.00  0.00    -0.744 OA
ENDBRANCH  91  95
ENDBRANCH  65  88
ENDBRANCH  39  40
ENDBRANCH  31  34
ENDBRANCH  29  30
ENDBRANCH  28  29
ENDBRANCH   1  28
TORSDOF 18
ENDMDL
MODEL 3
REMARK VINA RESULT:     -12.1      5.353      8.880
REMARK SMILES CCNC(=O)c1ccc(NC(=O)CC2(C(=O)NCCCNC(=O)c3ccc(-c4c5nc(c(-c6cc(S(=O)(=O)[O-])ccc6F)c6ccc([nH]6)c(-c6cc(S(=O)(=O)[O-])ccc6F)c6nc(c(-c7cc(S(=O)(=O)[O-])ccc7F)c7ccc4[nH]7)C=C6)C=C5)cc3)CCCC2)cc1
REMARK SMILES IDX 18 1 17 2 15 3 16 4 14 6 87 7 90 8 88 9 89 10 13 11 11 12
REMARK SMILES IDX 10 13 12 15 9 16 6 17 7 18 92 19 8 20 91 21 4 22 3 23 5 25
REMARK SMILES IDX 2 26 1 27 19 28 20 29 21 30 22 31 23 33 24 34 25 35 86 36
REMARK SMILES IDX 26 37 85 38 27 39 28 40 29 41 79 42 30 43 84 44 78 45 80 46
REMARK SMILES IDX 31 47 83 48 77 49 76 50 32 52 64 53 44 54 63 55 45 56 48 57
REMARK SMILES IDX 62 58 81 59 46 60 47 61 61 63 82 64 49 65 33 66 34 67 42 68
REMARK SMILES IDX 35 69 41 70 43 71 40 72 36 73 37 74 38 75 39 76 65 77 66 78
REMARK SMILES IDX 74 79 67 80 73 81 75 82 72 83 68 84 69 85 70 86 71 87 50 88
REMARK SMILES IDX 51 89 59 90 52 91 58 92 60 93 57 94 53 95 54 96 55 97 56 98
REMARK H PARENT 17 5 10 14 3 24 21 32 80 51 48 62
REMARK Flexibility Score: inf
ROOT
ATOM      1  C   UNL A   1      31.683  30.715  26.325  1.00  0.00     0.117 C 
ENDROOT
BRANCH   1   2
ATOM      2  N   UNL A   1      31.232  30.474  24.973  1.00  0.00    -0.356 N 
ATOM      3  C   UNL A   1      31.100  29.326  24.265  1.00  0.00     0.226 C 
ATOM      4  O   UNL A   1      30.157  29.328  23.458  1.00  0.00    -0.274 OA
ATOM      5  H   UNL A   1      30.977  31.287  24.480  1.00  0.00     0.163 HD
BRANCH   3   6
ATOM      6  C   UNL A   1      31.984  28.055  24.419  1.00  0.00     0.058 C 
ATOM      7  C   UNL A   1      31.312  27.132  25.469  1.00  0.00     0.017 C 
ATOM      8  C   UNL A   1      33.411  28.245  24.964  1.00  0.00     0.017 C 
ATOM      9  C   UNL A   1      32.023  27.367  26.792  1.00  0.00     0.001 C 
ATOM     10  C   UNL A   1      33.434  27.797  26.429  1.00  0.00     0.001 C 
BRANCH   6  11
ATOM     11  C   UNL A   1      31.967  27.330  23.015  1.00  0.00     0.117 C 
BRANCH  11  12
ATOM     12  C   UNL A   1      33.279  26.773  22.476  1.00  0.00     0.225 C 
ATOM     13  N   UNL A   1      33.840  25.610  22.907  1.00  0.00    -0.326 N 
ATOM     14  H   UNL A   1      34.577  25.291  22.337  1.00  0.00     0.169 HD
ATOM     15  O   UNL A   1      33.842  27.354  21.538  1.00  0.00    -0.275 OA
BRANCH  13  16
ATOM     16  C   UNL A   1      33.577  24.780  24.001  1.00  0.00     0.041 A 
ATOM     17  C   UNL A   1      33.268  23.022  26.151  1.00  0.00     0.039 A 
ATOM     18  C   UNL A   1      32.247  23.161  25.215  1.00  0.00     0.016 A 
ATOM     19  C   UNL A   1      34.422  23.801  26.059  1.00  0.00     0.016 A 
ATOM     20  C   UNL A   1      32.394  24.064  24.159  1.00  0.00     0.027 A 
ATOM     21  C   UNL A   1      34.563  24.695  24.994  1.00  0.00     0.027 A 
BRANCH  17  22
ATOM     22  C   UNL A   1      33.145  21.986  27.186  1.00  0.00     0.251 C 
ATOM     23  N   UNL A   1      33.306  20.672  26.852  1.00  0.00    -0.352 N 
ATOM     24  H   UNL A   1      33.063  20.021  27.550  1.00  0.00     0.163 HD
ATOM     25  O   UNL A   1      32.906  22.327  28.343  1.00  0.00    -0.269 OA
BRANCH  23  26
ATOM     26  C   UNL A   1      33.787  20.110  25.604  1.00  0.00     0.112 C 
ATOM     27  C   UNL A   1      32.647  19.469  24.835  1.00  0.00     0.027 C 
ENDBRANCH  23  26
ENDBRANCH  17  22
ENDBRANCH  13  16
ENDBRANCH  11  12
ENDBRANCH   6  11
ENDBRANCH   3   6
ENDBRANCH   1   2
BRANCH   1  28
ATOM     28  C   UNL A   1      31.544  32.154  26.787  1.00  0.00     0.042 C 
BRANCH  28  29
ATOM     29  C   UNL A   1      32.823  32.730  27.375  1.00  0.00     0.118 C 
BRANCH  29  30
ATOM     30  N   UNL A   1      32.683  34.128  27.766  1.00  0.00    -0.352 N 
ATOM     31  C   UNL A   1      33.277  34.853  28.770  1.00  0.00     0.251 C 
ATOM     32  H   UNL A   1      32.051  34.643  27.214  1.00  0.00     0.163 HD
ATOM     33  O   UNL A   1      32.834  35.959  29.053  1.00  0.00    -0.269 OA
BRANCH  31  34
ATOM     34  C   UNL A   1      34.426  34.298  29.519  1.00  0.00     0.039 A 
ATOM     35  C   UNL A   1      34.189  33.553  30.678  1.00  0.00     0.014 A 
ATOM     36  C   UNL A   1      35.737  34.537  29.103  1.00  0.00     0.014 A 
ATOM     37  C   UNL A   1      35.262  32.992  31.374  1.00  0.00     0.010 A 
ATOM     38  C   UNL A   1      36.794  33.890  29.733  1.00  0.00     0.010 A 
ATOM     39  C   UNL A   1      36.571  33.121  30.884  1.00  0.00    -0.014 A 
BRANCH  39  40
ATOM     40  C   UNL A   1      37.731  32.497  31.571  1.00  0.00     0.031 A 
ATOM     41  C   UNL A   1      38.461  31.355  30.913  1.00  0.00     0.074 A 
ATOM     42  C   UNL A   1      38.076  32.901  32.810  1.00  0.00     0.049 A 
ATOM     43  N   UNL A   1      39.407  30.589  31.390  1.00  0.00    -0.248 NA
ATOM     44  C   UNL A   1      38.038  31.004  29.548  1.00  0.00     0.031 C 
ATOM     45  C   UNL A   1      37.421  33.973  33.562  1.00  0.00     0.029 A 
ATOM     46  N   UNL A   1      39.055  32.453  33.660  1.00  0.00    -0.354 N 
ATOM     47  C   UNL A   1      39.674  29.653  30.396  1.00  0.00     0.074 A 
ATOM     48  C   UNL A   1      38.740  29.906  29.321  1.00  0.00     0.031 C 
ATOM     49  C   UNL A   1      38.033  34.117  34.748  1.00  0.00     0.029 A 
ATOM     50  C   UNL A   1      39.086  33.113  34.867  1.00  0.00     0.049 A 
ATOM     51  H   UNL A   1      39.677  31.725  33.428  1.00  0.00     0.167 HD
ATOM     52  C   UNL A   1      40.630  28.691  30.370  1.00  0.00     0.034 A 
ATOM     53  C   UNL A   1      39.864  32.920  35.950  1.00  0.00     0.034 A 
ATOM     54  C   UNL A   1      41.566  28.471  31.445  1.00  0.00     0.049 A 
ATOM     55  C   UNL A   1      40.903  31.828  35.911  1.00  0.00     0.074 A 
ATOM     56  C   UNL A   1      42.608  27.563  31.509  1.00  0.00     0.029 A 
ATOM     57  N   UNL A   1      41.572  29.167  32.648  1.00  0.00    -0.354 N 
ATOM     58  N   UNL A   1      41.170  30.976  34.947  1.00  0.00    -0.248 NA
ATOM     59  C   UNL A   1      41.751  31.678  37.099  1.00  0.00     0.031 C 
ATOM     60  C   UNL A   1      43.195  27.658  32.774  1.00  0.00     0.029 A 
ATOM     61  C   UNL A   1      42.579  28.686  33.471  1.00  0.00     0.049 A 
ATOM     62  H   UNL A   1      40.952  29.895  32.883  1.00  0.00     0.167 HD
ATOM     63  C   UNL A   1      42.244  30.214  35.402  1.00  0.00     0.074 A 
ATOM     64  C   UNL A   1      42.579  30.716  36.719  1.00  0.00     0.031 C 
ATOM     65  C   UNL A   1      42.896  29.195  34.786  1.00  0.00     0.034 A 
BRANCH  52  66
ATOM     66  C   UNL A   1      40.684  27.796  29.153  1.00  0.00     0.023 A 
ATOM     67  C   UNL A   1      41.619  28.004  28.123  1.00  0.00     0.031 A 
ATOM     68  C   UNL A   1      39.768  26.741  29.002  1.00  0.00     0.131 A 
ATOM     69  C   UNL A   1      41.560  27.230  26.954  1.00  0.00     0.055 A 
ATOM     70  C   UNL A   1      39.774  25.914  27.876  1.00  0.00     0.041 A 
ATOM     71  F   UNL A   1      38.836  26.504  29.939  1.00  0.00    -0.206 F 
ATOM     72  C   UNL A   1      40.661  26.168  26.836  1.00  0.00     0.022 A 
BRANCH  69  73
ATOM     73  S   UNL A   1      42.564  27.735  25.531  1.00  0.00     0.124 S 
ATOM     74  O   UNL A   1      43.873  27.930  26.151  1.00  0.00    -0.237 OA
ATOM     75  O   UNL A   1      42.444  26.590  24.637  1.00  0.00    -0.237 OA
ATOM     76  O   UNL A   1      41.914  28.961  25.070  1.00  0.00    -0.744 OA
ENDBRANCH  69  73
ENDBRANCH  52  66
BRANCH  53  77
ATOM     77  C   UNL A   1      39.692  33.767  37.167  1.00  0.00     0.023 A 
ATOM     78  C   UNL A   1      40.525  34.871  37.402  1.00  0.00     0.031 A 
ATOM     79  C   UNL A   1      38.718  33.460  38.136  1.00  0.00     0.131 A 
ATOM     80  C   UNL A   1      40.407  35.597  38.598  1.00  0.00     0.055 A 
ATOM     81  C   UNL A   1      38.565  34.221  39.296  1.00  0.00     0.041 A 
ATOM     82  F   UNL A   1      37.892  32.417  37.960  1.00  0.00    -0.206 F 
ATOM     83  C   UNL A   1      39.423  35.289  39.539  1.00  0.00     0.022 A 
BRANCH  80  84
ATOM     84  S   UNL A   1      41.624  36.897  38.948  1.00  0.00     0.124 S 
ATOM     85  O   UNL A   1      40.764  38.016  39.312  1.00  0.00    -0.237 OA
ATOM     86  O   UNL A   1      42.398  36.301  40.031  1.00  0.00    -0.237 OA
ATOM     87  O   UNL A   1      42.338  37.043  37.681  1.00  0.00    -0.744 OA
ENDBRANCH  80  84
ENDBRANCH  53  77
BRANCH  65  88
ATOM     88  C   UNL A   1      44.075  28.595  35.513  1.00  0.00     0.023 A 
ATOM     89  C   UNL A   1      45.387  29.057  35.308  1.00  0.00     0.031 A 
ATOM     90  C   UNL A   1      43.879  27.542  36.425  1.00  0.00     0.131 A 
ATOM     91  C   UNL A   1      46.458  28.428  35.961  1.00  0.00     0.055 A 
ATOM     92  C   UNL A   1      44.940  26.965  37.121  1.00  0.00     0.041 A 
ATOM     93  F   UNL A   1      42.647  27.060  36.658  1.00  0.00    -0.206 F 
ATOM     94  C   UNL A   1      46.241  27.399  36.881  1.00  0.00     0.022 A 
BRANCH  91  95
ATOM     95  S   UNL A   1      48.150  28.910  35.520  1.00  0.00     0.124 S 
ATOM     96  O   UNL A   1      47.979  29.399  34.156  1.00  0.00    -0.237 OA
ATOM     97  O   UNL A   1      48.459  29.921  36.526  1.00  0.00    -0.237 OA
ATOM     98  O   UNL A   1      48.905  27.664  35.643  1.00  0.00    -0.744 OA
ENDBRANCH  91  95
ENDBRANCH  65  88
ENDBRANCH  39  40
ENDBRANCH  31  34
ENDBRANCH  29  30
ENDBRANCH  28  29
ENDBRANCH   1  28
TORSDOF 18
ENDMDL
