MODEL 1
REMARK VINA RESULT:     -12.3      0.000      0.000
REMARK SMILES Cc1cc(=O)n2nc(C[N@@H+](C)CC(=O)NCCCNC(=O)c3ccc(-c4c5nc(c(-c6cc(S(=O)(=O)[O-])ccc6F)c6ccc([nH]6)c(-c6cc(S(=O)(=O)[O-])ccc6F)c6nc(c(-c7cc(S(=O)(=O)[O-])ccc7F)c7ccc4[nH]7)C=C6)C=C5)cc3)sc2n1
REMARK SMILES IDX 17 1 16 2 15 3 13 4 14 5 12 7 10 8 11 9 9 11 8 12 1 13 2 14
REMARK SMILES IDX 3 15 87 16 4 17 86 18 5 19 6 20 85 21 7 22 18 23 19 24 20 25
REMARK SMILES IDX 21 27 22 28 23 29 84 30 24 31 83 32 25 33 26 34 27 35 77 36
REMARK SMILES IDX 28 37 82 38 76 39 78 40 29 41 81 42 75 43 74 44 30 46 62 47
REMARK SMILES IDX 42 48 61 49 43 50 46 51 60 52 79 53 44 54 45 55 59 57 80 58
REMARK SMILES IDX 47 59 31 60 32 61 40 62 33 63 39 64 41 65 38 66 34 67 35 68
REMARK SMILES IDX 36 69 37 70 63 71 64 72 72 73 65 74 71 75 73 76 70 77 66 78
REMARK SMILES IDX 67 79 68 80 69 81 48 82 49 83 57 84 50 85 56 86 58 87 55 88
REMARK SMILES IDX 51 89 52 90 53 91 54 92
REMARK H PARENT 15 6 10 10 19 26 78 45 46 56
REMARK Flexibility Score: inf
ROOT
ATOM      1  C   UNL A   1      34.131  28.816  27.248  1.00  0.00     0.042 C 
ENDROOT
BRANCH   1   2
ATOM      2  C   UNL A   1      33.323  29.763  26.361  1.00  0.00     0.118 C 
BRANCH   2   3
ATOM      3  N   UNL A   1      33.567  29.538  24.948  1.00  0.00    -0.351 N 
ATOM      4  C   UNL A   1      32.720  29.119  23.968  1.00  0.00     0.275 C 
ATOM      5  O   UNL A   1      33.177  28.976  22.832  1.00  0.00    -0.269 OA
ATOM      6  H   UNL A   1      34.489  29.715  24.652  1.00  0.00     0.163 HD
BRANCH   4   7
ATOM      7  C   UNL A   1      31.243  28.854  24.257  1.00  0.00     0.363 C 
BRANCH   7   8
ATOM      8  N   UNL A   1      30.532  28.049  23.253  1.00  0.00    -0.324 N 
ATOM      9  C   UNL A   1      29.558  28.725  22.428  1.00  0.00     0.333 C 
ATOM     10  H   UNL A   1      31.301  27.880  22.604  1.00  0.00     0.348 HD
BRANCH   8  11
ATOM     11  C   UNL A   1      30.106  26.708  23.685  1.00  0.00     0.333 C 
BRANCH  11  12
ATOM     12  C   UNL A   1      31.315  25.815  23.775  1.00  0.00     0.172 A 
ATOM     13  C   UNL A   1      36.507  22.928  23.195  1.00  0.00     0.067 C 
ATOM     14  C   UNL A   1      35.221  23.473  23.742  1.00  0.00     0.046 A 
ATOM     15  C   UNL A   1      34.885  23.317  25.033  1.00  0.00     0.097 A 
ATOM     16  N   UNL A   1      34.444  24.137  22.822  1.00  0.00    -0.224 NA
ATOM     17  C   UNL A   1      33.619  23.899  25.538  1.00  0.00     0.275 A 
ATOM     18  C   UNL A   1      33.352  24.645  23.282  1.00  0.00     0.215 A 
ATOM     19  O   UNL A   1      33.320  23.745  26.717  1.00  0.00    -0.267 OA
ATOM     20  N   UNL A   1      32.909  24.579  24.575  1.00  0.00    -0.167 N 
ATOM     21  S   UNL A   1      32.233  25.525  22.306  1.00  0.00    -0.073 S 
ATOM     22  N   UNL A   1      31.744  25.253  24.860  1.00  0.00    -0.150 NA
ENDBRANCH  11  12
ENDBRANCH   8  11
ENDBRANCH   7   8
ENDBRANCH   4   7
ENDBRANCH   2   3
ENDBRANCH   1   2
BRANCH   1  23
ATOM     23  C   UNL A   1      35.489  29.363  27.623  1.00  0.00     0.118 C 
BRANCH  23  24
ATOM     24  N   UNL A   1      35.606  29.763  29.019  1.00  0.00    -0.352 N 
ATOM     25  C   UNL A   1      36.630  29.425  29.897  1.00  0.00     0.251 C 
ATOM     26  H   UNL A   1      34.885  30.330  29.378  1.00  0.00     0.163 HD
ATOM     27  O   UNL A   1      36.457  29.498  31.099  1.00  0.00    -0.269 OA
BRANCH  25  28
ATOM     28  C   UNL A   1      37.908  28.947  29.321  1.00  0.00     0.039 A 
ATOM     29  C   UNL A   1      38.480  29.544  28.198  1.00  0.00     0.014 A 
ATOM     30  C   UNL A   1      38.572  27.913  29.976  1.00  0.00     0.014 A 
ATOM     31  C   UNL A   1      39.756  29.139  27.807  1.00  0.00     0.010 A 
ATOM     32  C   UNL A   1      39.899  27.681  29.733  1.00  0.00     0.010 A 
ATOM     33  C   UNL A   1      40.477  28.226  28.601  1.00  0.00    -0.014 A 
BRANCH  33  34
ATOM     34  C   UNL A   1      41.866  27.889  28.312  1.00  0.00     0.031 A 
ATOM     35  C   UNL A   1      42.032  26.633  27.553  1.00  0.00     0.074 A 
ATOM     36  C   UNL A   1      42.925  28.687  28.581  1.00  0.00     0.049 A 
ATOM     37  N   UNL A   1      42.249  25.465  28.056  1.00  0.00    -0.248 NA
ATOM     38  C   UNL A   1      41.726  26.611  26.116  1.00  0.00     0.031 C 
ATOM     39  C   UNL A   1      42.922  30.060  29.107  1.00  0.00     0.029 A 
ATOM     40  N   UNL A   1      44.254  28.445  28.388  1.00  0.00    -0.354 N 
ATOM     41  C   UNL A   1      42.421  24.619  26.971  1.00  0.00     0.074 A 
ATOM     42  C   UNL A   1      41.846  25.307  25.846  1.00  0.00     0.031 C 
ATOM     43  C   UNL A   1      44.159  30.595  29.013  1.00  0.00     0.029 A 
ATOM     44  C   UNL A   1      45.076  29.548  28.601  1.00  0.00     0.049 A 
ATOM     45  H   UNL A   1      44.602  27.563  28.122  1.00  0.00     0.167 HD
ATOM     46  C   UNL A   1      43.300  23.583  27.052  1.00  0.00     0.034 A 
ATOM     47  C   UNL A   1      46.432  29.588  28.585  1.00  0.00     0.034 A 
ATOM     48  C   UNL A   1      43.736  23.396  28.421  1.00  0.00     0.049 A 
ATOM     49  C   UNL A   1      46.879  28.231  28.969  1.00  0.00     0.074 A 
ATOM     50  C   UNL A   1      43.172  22.945  29.595  1.00  0.00     0.029 A 
ATOM     51  N   UNL A   1      44.840  24.140  28.764  1.00  0.00    -0.354 N 
ATOM     52  N   UNL A   1      46.626  27.706  30.138  1.00  0.00    -0.248 NA
ATOM     53  C   UNL A   1      47.285  27.286  27.938  1.00  0.00     0.031 C 
ATOM     54  C   UNL A   1      43.824  23.661  30.646  1.00  0.00     0.029 A 
ATOM     55  C   UNL A   1      44.804  24.485  30.092  1.00  0.00     0.049 A 
ATOM     56  H   UNL A   1      45.560  24.392  28.142  1.00  0.00     0.167 HD
ATOM     57  C   UNL A   1      46.415  26.368  29.877  1.00  0.00     0.074 A 
ATOM     58  C   UNL A   1      47.001  26.139  28.561  1.00  0.00     0.031 C 
ATOM     59  C   UNL A   1      45.526  25.637  30.608  1.00  0.00     0.034 A 
BRANCH  46  60
ATOM     60  C   UNL A   1      44.127  23.048  25.902  1.00  0.00     0.023 A 
ATOM     61  C   UNL A   1      44.023  21.672  25.606  1.00  0.00     0.031 A 
ATOM     62  C   UNL A   1      45.197  23.730  25.280  1.00  0.00     0.131 A 
ATOM     63  C   UNL A   1      44.973  21.034  24.786  1.00  0.00     0.055 A 
ATOM     64  C   UNL A   1      46.108  23.103  24.426  1.00  0.00     0.041 A 
ATOM     65  F   UNL A   1      45.486  25.011  25.537  1.00  0.00    -0.206 F 
ATOM     66  C   UNL A   1      46.013  21.744  24.192  1.00  0.00     0.022 A 
BRANCH  63  67
ATOM     67  S   UNL A   1      44.897  19.234  24.599  1.00  0.00     0.124 S 
ATOM     68  O   UNL A   1      44.725  19.087  23.158  1.00  0.00    -0.237 OA
ATOM     69  O   UNL A   1      46.187  18.820  25.141  1.00  0.00    -0.237 OA
ATOM     70  O   UNL A   1      43.738  18.859  25.406  1.00  0.00    -0.744 OA
ENDBRANCH  63  67
ENDBRANCH  46  60
BRANCH  47  71
ATOM     71  C   UNL A   1      47.301  30.583  27.901  1.00  0.00     0.023 A 
ATOM     72  C   UNL A   1      46.750  31.646  27.151  1.00  0.00     0.031 A 
ATOM     73  C   UNL A   1      48.678  30.665  28.200  1.00  0.00     0.131 A 
ATOM     74  C   UNL A   1      47.550  32.749  26.779  1.00  0.00     0.055 A 
ATOM     75  C   UNL A   1      49.464  31.761  27.830  1.00  0.00     0.041 A 
ATOM     76  F   UNL A   1      49.287  29.727  28.940  1.00  0.00    -0.206 F 
ATOM     77  C   UNL A   1      48.898  32.818  27.134  1.00  0.00     0.022 A 
BRANCH  74  78
ATOM     78  S   UNL A   1      46.806  34.186  25.940  1.00  0.00     0.124 S 
ATOM     79  O   UNL A   1      47.859  34.571  25.006  1.00  0.00    -0.237 OA
ATOM     80  O   UNL A   1      45.596  33.622  25.354  1.00  0.00    -0.237 OA
ATOM     81  O   UNL A   1      46.573  35.131  27.033  1.00  0.00    -0.744 OA
ENDBRANCH  74  78
ENDBRANCH  47  71
BRANCH  59  82
ATOM     82  C   UNL A   1      45.204  26.118  32.004  1.00  0.00     0.023 A 
ATOM     83  C   UNL A   1      44.103  26.925  32.369  1.00  0.00     0.031 A 
ATOM     84  C   UNL A   1      46.052  25.664  33.029  1.00  0.00     0.131 A 
ATOM     85  C   UNL A   1      43.890  27.245  33.727  1.00  0.00     0.055 A 
ATOM     86  C   UNL A   1      45.828  25.966  34.369  1.00  0.00     0.041 A 
ATOM     87  F   UNL A   1      47.110  24.887  32.740  1.00  0.00    -0.206 F 
ATOM     88  C   UNL A   1      44.746  26.760  34.724  1.00  0.00     0.022 A 
BRANCH  85  89
ATOM     89  S   UNL A   1      42.485  28.295  34.229  1.00  0.00     0.124 S 
ATOM     90  O   UNL A   1      41.348  27.677  33.556  1.00  0.00    -0.237 OA
ATOM     91  O   UNL A   1      42.504  28.185  35.684  1.00  0.00    -0.237 OA
ATOM     92  O   UNL A   1      42.846  29.619  33.717  1.00  0.00    -0.744 OA
ENDBRANCH  85  89
ENDBRANCH  59  82
ENDBRANCH  33  34
ENDBRANCH  25  28
ENDBRANCH  23  24
ENDBRANCH   1  23
TORSDOF 16
ENDMDL
MODEL 2
REMARK VINA RESULT:     -12.3      3.875      5.605
REMARK SMILES Cc1cc(=O)n2nc(C[N@@H+](C)CC(=O)NCCCNC(=O)c3ccc(-c4c5nc(c(-c6cc(S(=O)(=O)[O-])ccc6F)c6ccc([nH]6)c(-c6cc(S(=O)(=O)[O-])ccc6F)c6nc(c(-c7cc(S(=O)(=O)[O-])ccc7F)c7ccc4[nH]7)C=C6)C=C5)cc3)sc2n1
REMARK SMILES IDX 17 1 16 2 15 3 13 4 14 5 12 7 10 8 11 9 9 11 8 12 1 13 2 14
REMARK SMILES IDX 3 15 87 16 4 17 86 18 5 19 6 20 85 21 7 22 18 23 19 24 20 25
REMARK SMILES IDX 21 27 22 28 23 29 84 30 24 31 83 32 25 33 26 34 27 35 77 36
REMARK SMILES IDX 28 37 82 38 76 39 78 40 29 41 81 42 75 43 74 44 30 46 62 47
REMARK SMILES IDX 42 48 61 49 43 50 46 51 60 52 79 53 44 54 45 55 59 57 80 58
REMARK SMILES IDX 47 59 31 60 32 61 40 62 33 63 39 64 41 65 38 66 34 67 35 68
REMARK SMILES IDX 36 69 37 70 63 71 64 72 72 73 65 74 71 75 73 76 70 77 66 78
REMARK SMILES IDX 67 79 68 80 69 81 48 82 49 83 57 84 50 85 56 86 58 87 55 88
REMARK SMILES IDX 51 89 52 90 53 91 54 92
REMARK H PARENT 15 6 10 10 19 26 78 45 46 56
REMARK Flexibility Score: inf
ROOT
ATOM      1  C   UNL A   1      37.308  33.235  28.771  1.00  0.00     0.042 C 
ENDROOT
BRANCH   1   2
ATOM      2  C   UNL A   1      36.340  34.193  29.465  1.00  0.00     0.118 C 
BRANCH   2   3
ATOM      3  N   UNL A   1      34.963  33.970  29.064  1.00  0.00    -0.351 N 
ATOM      4  C   UNL A   1      33.830  34.640  29.412  1.00  0.00     0.275 C 
ATOM      5  O   UNL A   1      32.758  34.238  28.954  1.00  0.00    -0.269 OA
ATOM      6  H   UNL A   1      34.826  33.218  28.444  1.00  0.00     0.163 HD
BRANCH   4   7
ATOM      7  C   UNL A   1      33.881  35.865  30.324  1.00  0.00     0.363 C 
BRANCH   7   8
ATOM      8  N   UNL A   1      33.440  35.647  31.710  1.00  0.00    -0.324 N 
ATOM      9  C   UNL A   1      32.093  36.043  32.048  1.00  0.00     0.333 C 
ATOM     10  H   UNL A   1      33.382  34.628  31.705  1.00  0.00     0.348 HD
BRANCH   8  11
ATOM     11  C   UNL A   1      34.424  35.960  32.757  1.00  0.00     0.333 C 
BRANCH  11  12
ATOM     12  C   UNL A   1      35.334  34.775  32.947  1.00  0.00     0.172 A 
ATOM     13  C   UNL A   1      38.124  29.499  33.013  1.00  0.00     0.067 C 
ATOM     14  C   UNL A   1      37.824  30.966  33.110  1.00  0.00     0.046 A 
ATOM     15  C   UNL A   1      38.799  31.871  33.297  1.00  0.00     0.097 A 
ATOM     16  N   UNL A   1      36.493  31.287  32.985  1.00  0.00    -0.224 NA
ATOM     17  C   UNL A   1      38.462  33.312  33.356  1.00  0.00     0.275 A 
ATOM     18  C   UNL A   1      36.221  32.546  33.028  1.00  0.00     0.215 A 
ATOM     19  O   UNL A   1      39.359  34.129  33.534  1.00  0.00    -0.267 OA
ATOM     20  N   UNL A   1      37.119  33.566  33.188  1.00  0.00    -0.167 N 
ATOM     21  S   UNL A   1      34.618  33.172  32.883  1.00  0.00    -0.073 S 
ATOM     22  N   UNL A   1      36.613  34.844  33.137  1.00  0.00    -0.150 NA
ENDBRANCH  11  12
ENDBRANCH   8  11
ENDBRANCH   7   8
ENDBRANCH   4   7
ENDBRANCH   2   3
ENDBRANCH   1   2
BRANCH   1  23
ATOM     23  C   UNL A   1      37.668  32.034  29.617  1.00  0.00     0.118 C 
BRANCH  23  24
ATOM     24  N   UNL A   1      36.611  31.036  29.715  1.00  0.00    -0.352 N 
ATOM     25  C   UNL A   1      36.608  29.771  29.138  1.00  0.00     0.251 C 
ATOM     26  H   UNL A   1      35.818  31.283  30.245  1.00  0.00     0.163 HD
ATOM     27  O   UNL A   1      35.561  29.173  28.977  1.00  0.00    -0.269 OA
BRANCH  25  28
ATOM     28  C   UNL A   1      37.905  29.203  28.703  1.00  0.00     0.039 A 
ATOM     29  C   UNL A   1      38.491  29.551  27.487  1.00  0.00     0.014 A 
ATOM     30  C   UNL A   1      38.569  28.349  29.580  1.00  0.00     0.014 A 
ATOM     31  C   UNL A   1      39.781  29.094  27.216  1.00  0.00     0.010 A 
ATOM     32  C   UNL A   1      39.905  28.093  29.416  1.00  0.00     0.010 A 
ATOM     33  C   UNL A   1      40.498  28.389  28.203  1.00  0.00    -0.014 A 
BRANCH  33  34
ATOM     34  C   UNL A   1      41.898  28.023  28.019  1.00  0.00     0.031 A 
ATOM     35  C   UNL A   1      42.093  26.774  27.254  1.00  0.00     0.074 A 
ATOM     36  C   UNL A   1      42.950  28.791  28.383  1.00  0.00     0.049 A 
ATOM     37  N   UNL A   1      42.244  25.594  27.753  1.00  0.00    -0.248 NA
ATOM     38  C   UNL A   1      41.903  26.781  25.798  1.00  0.00     0.031 C 
ATOM     39  C   UNL A   1      42.937  30.155  28.931  1.00  0.00     0.029 A 
ATOM     40  N   UNL A   1      44.284  28.519  28.292  1.00  0.00    -0.354 N 
ATOM     41  C   UNL A   1      42.481  24.760  26.672  1.00  0.00     0.074 A 
ATOM     42  C   UNL A   1      42.013  25.479  25.516  1.00  0.00     0.031 C 
ATOM     43  C   UNL A   1      44.190  30.661  28.943  1.00  0.00     0.029 A 
ATOM     44  C   UNL A   1      45.112  29.598  28.587  1.00  0.00     0.049 A 
ATOM     45  H   UNL A   1      44.631  27.633  28.039  1.00  0.00     0.167 HD
ATOM     46  C   UNL A   1      43.327  23.702  26.805  1.00  0.00     0.034 A 
ATOM     47  C   UNL A   1      46.465  29.605  28.679  1.00  0.00     0.034 A 
ATOM     48  C   UNL A   1      43.649  23.485  28.200  1.00  0.00     0.049 A 
ATOM     49  C   UNL A   1      46.849  28.233  29.074  1.00  0.00     0.074 A 
ATOM     50  C   UNL A   1      42.983  23.030  29.319  1.00  0.00     0.029 A 
ATOM     51  N   UNL A   1      44.739  24.196  28.641  1.00  0.00    -0.354 N 
ATOM     52  N   UNL A   1      46.493  27.697  30.211  1.00  0.00    -0.248 NA
ATOM     53  C   UNL A   1      47.313  27.293  28.063  1.00  0.00     0.031 C 
ATOM     54  C   UNL A   1      43.567  23.714  30.429  1.00  0.00     0.029 A 
ATOM     55  C   UNL A   1      44.606  24.523  29.968  1.00  0.00     0.049 A 
ATOM     56  H   UNL A   1      45.511  24.440  28.082  1.00  0.00     0.167 HD
ATOM     57  C   UNL A   1      46.272  26.368  29.912  1.00  0.00     0.074 A 
ATOM     58  C   UNL A   1      46.955  26.145  28.643  1.00  0.00     0.031 C 
ATOM     59  C   UNL A   1      45.311  25.649  30.559  1.00  0.00     0.034 A 
BRANCH  46  60
ATOM     60  C   UNL A   1      44.230  23.164  25.715  1.00  0.00     0.023 A 
ATOM     61  C   UNL A   1      44.044  21.824  25.314  1.00  0.00     0.031 A 
ATOM     62  C   UNL A   1      45.417  23.782  25.260  1.00  0.00     0.131 A 
ATOM     63  C   UNL A   1      45.022  21.153  24.557  1.00  0.00     0.055 A 
ATOM     64  C   UNL A   1      46.362  23.126  24.465  1.00  0.00     0.041 A 
ATOM     65  F   UNL A   1      45.781  25.013  25.635  1.00  0.00    -0.206 F 
ATOM     66  C   UNL A   1      46.179  21.798  24.128  1.00  0.00     0.022 A 
BRANCH  63  67
ATOM     67  S   UNL A   1      44.817  19.381  24.236  1.00  0.00     0.124 S 
ATOM     68  O   UNL A   1      46.114  18.849  24.637  1.00  0.00    -0.237 OA
ATOM     69  O   UNL A   1      43.687  19.048  25.098  1.00  0.00    -0.237 OA
ATOM     70  O   UNL A   1      44.538  19.327  22.803  1.00  0.00    -0.744 OA
ENDBRANCH  63  67
ENDBRANCH  46  60
BRANCH  47  71
ATOM     71  C   UNL A   1      47.409  30.589  28.082  1.00  0.00     0.023 A 
ATOM     72  C   UNL A   1      46.948  31.647  27.266  1.00  0.00     0.031 A 
ATOM     73  C   UNL A   1      48.746  30.668  28.526  1.00  0.00     0.131 A 
ATOM     74  C   UNL A   1      47.789  32.742  26.971  1.00  0.00     0.055 A 
ATOM     75  C   UNL A   1      49.574  31.756  28.231  1.00  0.00     0.041 A 
ATOM     76  F   UNL A   1      49.267  29.735  29.337  1.00  0.00    -0.206 F 
ATOM     77  C   UNL A   1      49.092  32.808  27.469  1.00  0.00     0.022 A 
BRANCH  74  78
ATOM     78  S   UNL A   1      47.148  34.173  26.043  1.00  0.00     0.124 S 
ATOM     79  O   UNL A   1      45.930  33.631  25.452  1.00  0.00    -0.237 OA
ATOM     80  O   UNL A   1      46.969  35.176  27.087  1.00  0.00    -0.237 OA
ATOM     81  O   UNL A   1      48.220  34.466  25.091  1.00  0.00    -0.744 OA
ENDBRANCH  74  78
ENDBRANCH  47  71
BRANCH  59  82
ATOM     82  C   UNL A   1      44.890  26.117  31.932  1.00  0.00     0.023 A 
ATOM     83  C   UNL A   1      43.758  26.907  32.228  1.00  0.00     0.031 A 
ATOM     84  C   UNL A   1      45.675  25.667  33.009  1.00  0.00     0.131 A 
ATOM     85  C   UNL A   1      43.451  27.216  33.571  1.00  0.00     0.055 A 
ATOM     86  C   UNL A   1      45.359  25.958  34.333  1.00  0.00     0.041 A 
ATOM     87  F   UNL A   1      46.759  24.905  32.787  1.00  0.00    -0.206 F 
ATOM     88  C   UNL A   1      44.245  26.736  34.619  1.00  0.00     0.022 A 
BRANCH  85  89
ATOM     89  S   UNL A   1      42.001  28.245  33.983  1.00  0.00     0.124 S 
ATOM     90  O   UNL A   1      41.126  27.320  34.693  1.00  0.00    -0.237 OA
ATOM     91  O   UNL A   1      42.584  29.317  34.784  1.00  0.00    -0.237 OA
ATOM     92  O   UNL A   1      41.501  28.672  32.674  1.00  0.00    -0.744 OA
ENDBRANCH  85  89
ENDBRANCH  59  82
ENDBRANCH  33  34
ENDBRANCH  25  28
ENDBRANCH  23  24
ENDBRANCH   1  23
TORSDOF 16
ENDMDL
MODEL 3
REMARK VINA RESULT:     -12.1      3.968      6.607
REMARK SMILES Cc1cc(=O)n2nc(C[N@@H+](C)CC(=O)NCCCNC(=O)c3ccc(-c4c5nc(c(-c6cc(S(=O)(=O)[O-])ccc6F)c6ccc([nH]6)c(-c6cc(S(=O)(=O)[O-])ccc6F)c6nc(c(-c7cc(S(=O)(=O)[O-])ccc7F)c7ccc4[nH]7)C=C6)C=C5)cc3)sc2n1
REMARK SMILES IDX 17 1 16 2 15 3 13 4 14 5 12 7 10 8 11 9 9 11 8 12 1 13 2 14
REMARK SMILES IDX 3 15 87 16 4 17 86 18 5 19 6 20 85 21 7 22 18 23 19 24 20 25
REMARK SMILES IDX 21 27 22 28 23 29 84 30 24 31 83 32 25 33 26 34 27 35 77 36
REMARK SMILES IDX 28 37 82 38 76 39 78 40 29 41 81 42 75 43 74 44 30 46 62 47
REMARK SMILES IDX 42 48 61 49 43 50 46 51 60 52 79 53 44 54 45 55 59 57 80 58
REMARK SMILES IDX 47 59 31 60 32 61 40 62 33 63 39 64 41 65 38 66 34 67 35 68
REMARK SMILES IDX 36 69 37 70 63 71 64 72 72 73 65 74 71 75 73 76 70 77 66 78
REMARK SMILES IDX 67 79 68 80 69 81 48 82 49 83 57 84 50 85 56 86 58 87 55 88
REMARK SMILES IDX 51 89 52 90 53 91 54 92
REMARK H PARENT 15 6 10 10 19 26 78 45 46 56
REMARK Flexibility Score: inf
ROOT
ATOM      1  C   UNL A   1      38.229  30.732  32.260  1.00  0.00     0.042 C 
ENDROOT
BRANCH   1   2
ATOM      2  C   UNL A   1      39.209  30.666  33.432  1.00  0.00     0.118 C 
BRANCH   2   3
ATOM      3  N   UNL A   1      38.565  30.252  34.665  1.00  0.00    -0.351 N 
ATOM      4  C   UNL A   1      38.230  30.980  35.766  1.00  0.00     0.275 C 
ATOM      5  O   UNL A   1      37.707  30.388  36.713  1.00  0.00    -0.269 OA
ATOM      6  H   UNL A   1      38.334  29.296  34.714  1.00  0.00     0.163 HD
BRANCH   4   7
ATOM      7  C   UNL A   1      38.473  32.487  35.823  1.00  0.00     0.363 C 
BRANCH   7   8
ATOM      8  N   UNL A   1      37.710  33.293  34.858  1.00  0.00    -0.324 N 
ATOM      9  C   UNL A   1      38.352  34.469  34.320  1.00  0.00     0.333 C 
ATOM     10  H   UNL A   1      37.715  32.649  34.066  1.00  0.00     0.348 HD
BRANCH   8  11
ATOM     11  C   UNL A   1      36.285  33.492  35.168  1.00  0.00     0.333 C 
BRANCH  11  12
ATOM     12  C   UNL A   1      35.619  34.169  33.999  1.00  0.00     0.172 A 
ATOM     13  C   UNL A   1      32.678  35.724  29.044  1.00  0.00     0.067 C 
ATOM     14  C   UNL A   1      33.341  35.756  30.388  1.00  0.00     0.046 A 
ATOM     15  C   UNL A   1      33.254  36.831  31.189  1.00  0.00     0.097 A 
ATOM     16  N   UNL A   1      34.024  34.608  30.716  1.00  0.00    -0.224 NA
ATOM     17  C   UNL A   1      33.900  36.807  32.523  1.00  0.00     0.275 A 
ATOM     18  C   UNL A   1      34.570  34.602  31.884  1.00  0.00     0.215 A 
ATOM     19  O   UNL A   1      33.819  37.796  33.243  1.00  0.00    -0.267 OA
ATOM     20  N   UNL A   1      34.534  35.617  32.801  1.00  0.00    -0.167 N 
ATOM     21  S   UNL A   1      35.466  33.262  32.503  1.00  0.00    -0.073 S 
ATOM     22  N   UNL A   1      35.130  35.369  34.016  1.00  0.00    -0.150 NA
ENDBRANCH  11  12
ENDBRANCH   8  11
ENDBRANCH   7   8
ENDBRANCH   4   7
ENDBRANCH   2   3
ENDBRANCH   1   2
BRANCH   1  23
ATOM     23  C   UNL A   1      37.557  29.409  31.970  1.00  0.00     0.118 C 
BRANCH  23  24
ATOM     24  N   UNL A   1      36.523  29.478  30.946  1.00  0.00    -0.352 N 
ATOM     25  C   UNL A   1      36.717  29.481  29.569  1.00  0.00     0.251 C 
ATOM     26  H   UNL A   1      35.591  29.528  31.262  1.00  0.00     0.163 HD
ATOM     27  O   UNL A   1      35.847  29.898  28.828  1.00  0.00    -0.269 OA
BRANCH  25  28
ATOM     28  C   UNL A   1      38.017  28.997  29.050  1.00  0.00     0.039 A 
ATOM     29  C   UNL A   1      38.648  29.601  27.963  1.00  0.00     0.014 A 
ATOM     30  C   UNL A   1      38.637  27.947  29.723  1.00  0.00     0.014 A 
ATOM     31  C   UNL A   1      39.937  29.187  27.629  1.00  0.00     0.010 A 
ATOM     32  C   UNL A   1      39.972  27.703  29.541  1.00  0.00     0.010 A 
ATOM     33  C   UNL A   1      40.609  28.257  28.445  1.00  0.00    -0.014 A 
BRANCH  33  34
ATOM     34  C   UNL A   1      42.007  27.908  28.220  1.00  0.00     0.031 A 
ATOM     35  C   UNL A   1      42.196  26.667  27.440  1.00  0.00     0.074 A 
ATOM     36  C   UNL A   1      43.060  28.685  28.560  1.00  0.00     0.049 A 
ATOM     37  N   UNL A   1      42.374  25.485  27.925  1.00  0.00    -0.248 NA
ATOM     38  C   UNL A   1      41.964  26.683  25.989  1.00  0.00     0.031 C 
ATOM     39  C   UNL A   1      43.047  30.045  29.119  1.00  0.00     0.029 A 
ATOM     40  N   UNL A   1      44.394  28.430  28.430  1.00  0.00    -0.354 N 
ATOM     41  C   UNL A   1      42.591  24.662  26.831  1.00  0.00     0.074 A 
ATOM     42  C   UNL A   1      42.082  25.384  25.694  1.00  0.00     0.031 C 
ATOM     43  C   UNL A   1      44.294  30.566  29.100  1.00  0.00     0.029 A 
ATOM     44  C   UNL A   1      45.218  29.516  28.710  1.00  0.00     0.049 A 
ATOM     45  H   UNL A   1      44.745  27.550  28.160  1.00  0.00     0.167 HD
ATOM     46  C   UNL A   1      43.452  23.613  26.932  1.00  0.00     0.034 A 
ATOM     47  C   UNL A   1      46.573  29.539  28.764  1.00  0.00     0.034 A 
ATOM     48  C   UNL A   1      43.815  23.389  28.316  1.00  0.00     0.049 A 
ATOM     49  C   UNL A   1      46.983  28.168  29.138  1.00  0.00     0.074 A 
ATOM     50  C   UNL A   1      43.186  22.918  29.449  1.00  0.00     0.029 A 
ATOM     51  N   UNL A   1      44.909  24.110  28.732  1.00  0.00    -0.354 N 
ATOM     52  N   UNL A   1      46.666  27.619  30.280  1.00  0.00    -0.248 NA
ATOM     53  C   UNL A   1      47.430  27.241  28.106  1.00  0.00     0.031 C 
ATOM     54  C   UNL A   1      43.793  23.601  30.548  1.00  0.00     0.029 A 
ATOM     55  C   UNL A   1      44.809  24.425  30.065  1.00  0.00     0.049 A 
ATOM     56  H   UNL A   1      45.662  24.367  28.153  1.00  0.00     0.167 HD
ATOM     57  C   UNL A   1      46.452  26.290  29.976  1.00  0.00     0.074 A 
ATOM     58  C   UNL A   1      47.101  26.084  28.687  1.00  0.00     0.031 C 
ATOM     59  C   UNL A   1      45.517  25.554  30.644  1.00  0.00     0.034 A 
BRANCH  46  60
ATOM     60  C   UNL A   1      44.330  23.094  25.813  1.00  0.00     0.023 A 
ATOM     61  C   UNL A   1      44.181  21.742  25.439  1.00  0.00     0.031 A 
ATOM     62  C   UNL A   1      45.472  23.751  25.300  1.00  0.00     0.131 A 
ATOM     63  C   UNL A   1      45.154  21.097  24.651  1.00  0.00     0.055 A 
ATOM     64  C   UNL A   1      46.408  23.120  24.477  1.00  0.00     0.041 A 
ATOM     65  F   UNL A   1      45.802  25.001  25.643  1.00  0.00    -0.206 F 
ATOM     66  C   UNL A   1      46.265  21.781  24.166  1.00  0.00     0.022 A 
BRANCH  63  67
ATOM     67  S   UNL A   1      45.006  19.315  24.364  1.00  0.00     0.124 S 
ATOM     68  O   UNL A   1      44.099  18.911  25.433  1.00  0.00    -0.237 OA
ATOM     69  O   UNL A   1      44.468  19.271  23.008  1.00  0.00    -0.237 OA
ATOM     70  O   UNL A   1      46.380  18.836  24.500  1.00  0.00    -0.744 OA
ENDBRANCH  63  67
ENDBRANCH  46  60
BRANCH  47  71
ATOM     71  C   UNL A   1      47.488  30.538  28.149  1.00  0.00     0.023 A 
ATOM     72  C   UNL A   1      46.996  31.576  27.326  1.00  0.00     0.031 A 
ATOM     73  C   UNL A   1      48.827  30.652  28.581  1.00  0.00     0.131 A 
ATOM     74  C   UNL A   1      47.809  32.687  27.012  1.00  0.00     0.055 A 
ATOM     75  C   UNL A   1      49.627  31.756  28.267  1.00  0.00     0.041 A 
ATOM     76  F   UNL A   1      49.376  29.740  29.396  1.00  0.00    -0.206 F 
ATOM     77  C   UNL A   1      49.113  32.789  27.498  1.00  0.00     0.022 A 
BRANCH  74  78
ATOM     78  S   UNL A   1      47.126  34.093  26.076  1.00  0.00     0.124 S 
ATOM     79  O   UNL A   1      48.244  34.453  25.210  1.00  0.00    -0.237 OA
ATOM     80  O   UNL A   1      45.964  33.506  25.420  1.00  0.00    -0.237 OA
ATOM     81  O   UNL A   1      46.812  35.072  27.117  1.00  0.00    -0.744 OA
ENDBRANCH  74  78
ENDBRANCH  47  71
BRANCH  59  82
ATOM     82  C   UNL A   1      45.130  26.007  32.032  1.00  0.00     0.023 A 
ATOM     83  C   UNL A   1      43.955  26.711  32.377  1.00  0.00     0.031 A 
ATOM     84  C   UNL A   1      46.000  25.635  33.073  1.00  0.00     0.131 A 
ATOM     85  C   UNL A   1      43.692  27.014  33.731  1.00  0.00     0.055 A 
ATOM     86  C   UNL A   1      45.728  25.919  34.408  1.00  0.00     0.041 A 
ATOM     87  F   UNL A   1      47.129  24.957  32.803  1.00  0.00    -0.206 F 
ATOM     88  C   UNL A   1      44.572  26.611  34.743  1.00  0.00     0.022 A 
BRANCH  85  89
ATOM     89  S   UNL A   1      42.188  27.932  34.206  1.00  0.00     0.124 S 
ATOM     90  O   UNL A   1      42.711  29.060  34.966  1.00  0.00    -0.237 OA
ATOM     91  O   UNL A   1      41.586  28.252  32.916  1.00  0.00    -0.237 OA
ATOM     92  O   UNL A   1      41.432  26.961  35.002  1.00  0.00    -0.744 OA
ENDBRANCH  85  89
ENDBRANCH  59  82
ENDBRANCH  33  34
ENDBRANCH  25  28
ENDBRANCH  23  24
ENDBRANCH   1  23
TORSDOF 16
ENDMDL
