MODEL 1
REMARK VINA RESULT:     -11.2      0.000      0.000
REMARK SMILES COc1cc(/C=C/C(=O)NCCCNC(=O)c2ccc(-c3c4nc(c(-c5cc(S(=O)(=O)[O-])ccc5F)c5ccc([nH]5)c(-c5cc(S(=O)(=O)[O-])ccc5F)c5nc(c(-c6cc(S(=O)(=O)[O-])ccc6F)c6ccc3[nH]6)C=C5)C=C4)cc2)cc(OC)c1O
REMARK SMILES IDX 12 1 11 2 10 3 8 4 9 5 7 7 6 8 5 9 3 10 4 11 84 12 81 13
REMARK SMILES IDX 80 14 2 15 1 16 85 17 82 19 83 20 13 21 14 22 15 23 16 25
REMARK SMILES IDX 17 26 18 27 79 28 19 29 78 30 20 31 21 32 22 33 72 34 23 35
REMARK SMILES IDX 77 36 71 37 73 38 24 39 76 40 70 41 69 42 25 44 57 45 37 46
REMARK SMILES IDX 56 47 38 48 41 49 55 50 74 51 39 52 40 53 54 55 75 56 42 57
REMARK SMILES IDX 26 58 27 59 35 60 28 61 34 62 36 63 33 64 29 65 30 66 31 67
REMARK SMILES IDX 32 68 58 69 59 70 67 71 60 72 66 73 68 74 65 75 61 76 62 77
REMARK SMILES IDX 63 78 64 79 43 80 44 81 52 82 45 83 51 84 53 85 50 86 46 87
REMARK SMILES IDX 47 88 48 89 49 90
REMARK H PARENT 10 6 85 18 14 24 73 43 41 54
REMARK Flexibility Score: inf
ROOT
ATOM      1  C   UNL A   1      38.390  19.862  24.993  1.00  0.00     0.042 C 
ENDROOT
BRANCH   1   2
ATOM      2  C   UNL A   1      37.474  21.056  24.728  1.00  0.00     0.118 C 
BRANCH   2   3
ATOM      3  N   UNL A   1      38.051  22.293  25.226  1.00  0.00    -0.352 N 
ATOM      4  C   UNL A   1      37.468  23.374  25.806  1.00  0.00     0.244 C 
ATOM      5  O   UNL A   1      38.172  24.268  26.273  1.00  0.00    -0.270 OA
ATOM      6  H   UNL A   1      39.029  22.359  25.125  1.00  0.00     0.163 HD
BRANCH   4   7
ATOM      7  C   UNL A   1      36.001  23.448  25.985  1.00  0.00     0.072 C 
ATOM      8  C   UNL A   1      35.223  24.454  25.558  1.00  0.00     0.014 C 
BRANCH   8   9
ATOM      9  C   UNL A   1      33.766  24.488  25.764  1.00  0.00    -0.018 A 
ATOM     10  C   UNL A   1      31.710  25.624  26.389  1.00  0.00     0.165 A 
ATOM     11  C   UNL A   1      33.090  25.645  26.169  1.00  0.00     0.058 A 
ATOM     12  C   UNL A   1      30.989  24.431  26.222  1.00  0.00     0.200 A 
ATOM     13  C   UNL A   1      31.635  23.281  25.756  1.00  0.00     0.165 A 
ATOM     14  C   UNL A   1      33.021  23.324  25.537  1.00  0.00     0.058 A 
BRANCH  10  15
ATOM     15  O   UNL A   1      31.172  26.788  26.879  1.00  0.00    -0.493 OA
ATOM     16  C   UNL A   1      32.059  27.906  26.896  1.00  0.00     0.278 C 
ENDBRANCH  10  15
BRANCH  12  17
ATOM     17  O   UNL A   1      29.677  24.386  26.610  1.00  0.00    -0.502 OA
ATOM     18  H   UNL A   1      29.096  23.761  26.225  1.00  0.00     0.293 HD
ENDBRANCH  12  17
BRANCH  13  19
ATOM     19  O   UNL A   1      31.098  22.040  25.542  1.00  0.00    -0.493 OA
ATOM     20  C   UNL A   1      31.987  20.975  25.235  1.00  0.00     0.278 C 
ENDBRANCH  13  19
ENDBRANCH   8   9
ENDBRANCH   4   7
ENDBRANCH   2   3
ENDBRANCH   1   2
BRANCH   1  21
ATOM     21  C   UNL A   1      39.383  20.089  26.132  1.00  0.00     0.118 C 
BRANCH  21  22
ATOM     22  N   UNL A   1      40.512  19.171  26.066  1.00  0.00    -0.352 N 
ATOM     23  C   UNL A   1      41.858  19.429  26.035  1.00  0.00     0.251 C 
ATOM     24  H   UNL A   1      40.271  18.216  26.041  1.00  0.00     0.163 HD
ATOM     25  O   UNL A   1      42.632  18.512  25.737  1.00  0.00    -0.269 OA
BRANCH  23  26
ATOM     26  C   UNL A   1      42.390  20.775  26.337  1.00  0.00     0.039 A 
ATOM     27  C   UNL A   1      42.737  21.619  25.277  1.00  0.00     0.014 A 
ATOM     28  C   UNL A   1      42.599  21.194  27.654  1.00  0.00     0.014 A 
ATOM     29  C   UNL A   1      43.243  22.896  25.537  1.00  0.00     0.010 A 
ATOM     30  C   UNL A   1      43.038  22.492  27.913  1.00  0.00     0.010 A 
ATOM     31  C   UNL A   1      43.370  23.354  26.858  1.00  0.00    -0.014 A 
BRANCH  31  32
ATOM     32  C   UNL A   1      43.862  24.726  27.154  1.00  0.00     0.031 A 
ATOM     33  C   UNL A   1      42.921  25.764  27.706  1.00  0.00     0.074 A 
ATOM     34  C   UNL A   1      45.138  25.053  26.869  1.00  0.00     0.049 A 
ATOM     35  N   UNL A   1      43.135  27.031  27.954  1.00  0.00    -0.248 NA
ATOM     36  C   UNL A   1      41.547  25.321  27.986  1.00  0.00     0.031 C 
ATOM     37  C   UNL A   1      46.135  24.143  26.301  1.00  0.00     0.029 A 
ATOM     38  N   UNL A   1      45.814  26.239  27.009  1.00  0.00    -0.354 N 
ATOM     39  C   UNL A   1      41.922  27.542  28.403  1.00  0.00     0.074 A 
ATOM     40  C   UNL A   1      40.964  26.458  28.334  1.00  0.00     0.031 C 
ATOM     41  C   UNL A   1      47.299  24.797  26.164  1.00  0.00     0.029 A 
ATOM     42  C   UNL A   1      47.123  26.182  26.588  1.00  0.00     0.049 A 
ATOM     43  H   UNL A   1      45.401  27.054  27.375  1.00  0.00     0.167 HD
ATOM     44  C   UNL A   1      41.638  28.792  28.850  1.00  0.00     0.034 A 
ATOM     45  C   UNL A   1      48.070  27.141  26.538  1.00  0.00     0.034 A 
ATOM     46  C   UNL A   1      42.611  29.857  28.922  1.00  0.00     0.049 A 
ATOM     47  C   UNL A   1      47.726  28.528  27.017  1.00  0.00     0.074 A 
ATOM     48  C   UNL A   1      42.451  31.141  29.410  1.00  0.00     0.029 A 
ATOM     49  N   UNL A   1      43.928  29.762  28.484  1.00  0.00    -0.354 N 
ATOM     50  N   UNL A   1      46.586  28.983  27.486  1.00  0.00    -0.248 NA
ATOM     51  C   UNL A   1      48.800  29.528  26.969  1.00  0.00     0.031 C 
ATOM     52  C   UNL A   1      43.646  31.843  29.207  1.00  0.00     0.029 A 
ATOM     53  C   UNL A   1      44.578  30.975  28.663  1.00  0.00     0.049 A 
ATOM     54  H   UNL A   1      44.338  28.953  28.104  1.00  0.00     0.167 HD
ATOM     55  C   UNL A   1      46.818  30.314  27.819  1.00  0.00     0.074 A 
ATOM     56  C   UNL A   1      48.208  30.583  27.509  1.00  0.00     0.031 C 
ATOM     57  C   UNL A   1      45.962  31.231  28.338  1.00  0.00     0.034 A 
BRANCH  44  58
ATOM     58  C   UNL A   1      40.212  29.075  29.263  1.00  0.00     0.023 A 
ATOM     59  C   UNL A   1      39.814  29.047  30.612  1.00  0.00     0.031 A 
ATOM     60  C   UNL A   1      39.227  29.339  28.295  1.00  0.00     0.131 A 
ATOM     61  C   UNL A   1      38.459  29.193  30.947  1.00  0.00     0.055 A 
ATOM     62  C   UNL A   1      37.894  29.570  28.642  1.00  0.00     0.041 A 
ATOM     63  F   UNL A   1      39.539  29.361  26.990  1.00  0.00    -0.206 F 
ATOM     64  C   UNL A   1      37.500  29.480  29.974  1.00  0.00     0.022 A 
BRANCH  61  65
ATOM     65  S   UNL A   1      37.948  28.845  32.653  1.00  0.00     0.124 S 
ATOM     66  O   UNL A   1      38.950  29.584  33.418  1.00  0.00    -0.237 OA
ATOM     67  O   UNL A   1      36.592  29.377  32.692  1.00  0.00    -0.237 OA
ATOM     68  O   UNL A   1      38.051  27.390  32.751  1.00  0.00    -0.744 OA
ENDBRANCH  61  65
ENDBRANCH  44  58
BRANCH  45  69
ATOM     69  C   UNL A   1      49.431  26.830  26.017  1.00  0.00     0.023 A 
ATOM     70  C   UNL A   1      49.815  27.224  24.726  1.00  0.00     0.031 A 
ATOM     71  C   UNL A   1      50.355  26.101  26.786  1.00  0.00     0.131 A 
ATOM     72  C   UNL A   1      51.070  26.849  24.223  1.00  0.00     0.055 A 
ATOM     73  C   UNL A   1      51.623  25.773  26.302  1.00  0.00     0.041 A 
ATOM     74  F   UNL A   1      50.041  25.705  28.030  1.00  0.00    -0.206 F 
ATOM     75  C   UNL A   1      51.982  26.137  25.007  1.00  0.00     0.022 A 
BRANCH  72  76
ATOM     76  S   UNL A   1      51.464  27.234  22.495  1.00  0.00     0.124 S 
ATOM     77  O   UNL A   1      51.712  28.669  22.559  1.00  0.00    -0.237 OA
ATOM     78  O   UNL A   1      52.629  26.390  22.255  1.00  0.00    -0.237 OA
ATOM     79  O   UNL A   1      50.254  26.840  21.775  1.00  0.00    -0.744 OA
ENDBRANCH  72  76
ENDBRANCH  45  69
BRANCH  57  80
ATOM     80  C   UNL A   1      46.529  32.596  28.646  1.00  0.00     0.023 A 
ATOM     81  C   UNL A   1      46.293  33.703  27.810  1.00  0.00     0.031 A 
ATOM     82  C   UNL A   1      47.334  32.786  29.783  1.00  0.00     0.131 A 
ATOM     83  C   UNL A   1      46.905  34.933  28.092  1.00  0.00     0.055 A 
ATOM     84  C   UNL A   1      47.889  34.028  30.092  1.00  0.00     0.041 A 
ATOM     85  F   UNL A   1      47.594  31.763  30.614  1.00  0.00    -0.206 F 
ATOM     86  C   UNL A   1      47.688  35.107  29.237  1.00  0.00     0.022 A 
BRANCH  83  87
ATOM     87  S   UNL A   1      46.742  36.283  26.891  1.00  0.00     0.124 S 
ATOM     88  O   UNL A   1      47.586  35.816  25.796  1.00  0.00    -0.237 OA
ATOM     89  O   UNL A   1      45.306  36.296  26.628  1.00  0.00    -0.237 OA
ATOM     90  O   UNL A   1      47.251  37.448  27.613  1.00  0.00    -0.744 OA
ENDBRANCH  83  87
ENDBRANCH  57  80
ENDBRANCH  31  32
ENDBRANCH  23  26
ENDBRANCH  21  22
ENDBRANCH   1  21
TORSDOF 17
ENDMDL
MODEL 2
REMARK VINA RESULT:     -11.1      5.909     11.877
REMARK SMILES COc1cc(/C=C/C(=O)NCCCNC(=O)c2ccc(-c3c4nc(c(-c5cc(S(=O)(=O)[O-])ccc5F)c5ccc([nH]5)c(-c5cc(S(=O)(=O)[O-])ccc5F)c5nc(c(-c6cc(S(=O)(=O)[O-])ccc6F)c6ccc3[nH]6)C=C5)C=C4)cc2)cc(OC)c1O
REMARK SMILES IDX 12 1 11 2 10 3 8 4 9 5 7 7 6 8 5 9 3 10 4 11 84 12 81 13
REMARK SMILES IDX 80 14 2 15 1 16 85 17 82 19 83 20 13 21 14 22 15 23 16 25
REMARK SMILES IDX 17 26 18 27 79 28 19 29 78 30 20 31 21 32 22 33 72 34 23 35
REMARK SMILES IDX 77 36 71 37 73 38 24 39 76 40 70 41 69 42 25 44 57 45 37 46
REMARK SMILES IDX 56 47 38 48 41 49 55 50 74 51 39 52 40 53 54 55 75 56 42 57
REMARK SMILES IDX 26 58 27 59 35 60 28 61 34 62 36 63 33 64 29 65 30 66 31 67
REMARK SMILES IDX 32 68 58 69 59 70 67 71 60 72 66 73 68 74 65 75 61 76 62 77
REMARK SMILES IDX 63 78 64 79 43 80 44 81 52 82 45 83 51 84 53 85 50 86 46 87
REMARK SMILES IDX 47 88 48 89 49 90
REMARK H PARENT 10 6 85 18 14 24 73 43 41 54
REMARK Flexibility Score: inf
ROOT
ATOM      1  C   UNL A   1      31.641  31.744  26.524  1.00  0.00     0.042 C 
ENDROOT
BRANCH   1   2
ATOM      2  C   UNL A   1      31.711  30.239  26.268  1.00  0.00     0.118 C 
BRANCH   2   3
ATOM      3  N   UNL A   1      31.651  29.936  24.849  1.00  0.00    -0.352 N 
ATOM      4  C   UNL A   1      31.759  28.753  24.188  1.00  0.00     0.244 C 
ATOM      5  O   UNL A   1      31.547  28.711  22.978  1.00  0.00    -0.270 OA
ATOM      6  H   UNL A   1      31.507  30.718  24.267  1.00  0.00     0.163 HD
BRANCH   4   7
ATOM      7  C   UNL A   1      32.023  27.493  24.915  1.00  0.00     0.072 C 
ATOM      8  C   UNL A   1      33.119  26.733  24.769  1.00  0.00     0.014 C 
BRANCH   8   9
ATOM      9  C   UNL A   1      33.337  25.480  25.510  1.00  0.00    -0.018 A 
ATOM     10  C   UNL A   1      34.714  23.598  26.192  1.00  0.00     0.165 A 
ATOM     11  C   UNL A   1      34.562  24.805  25.504  1.00  0.00     0.058 A 
ATOM     12  C   UNL A   1      33.627  23.041  26.885  1.00  0.00     0.200 A 
ATOM     13  C   UNL A   1      32.413  23.732  26.956  1.00  0.00     0.165 A 
ATOM     14  C   UNL A   1      32.282  24.946  26.262  1.00  0.00     0.058 A 
BRANCH  10  15
ATOM     15  O   UNL A   1      35.927  22.975  26.033  1.00  0.00    -0.493 OA
ATOM     16  C   UNL A   1      36.969  23.802  25.514  1.00  0.00     0.278 C 
ENDBRANCH  10  15
BRANCH  12  17
ATOM     17  O   UNL A   1      33.743  21.779  27.402  1.00  0.00    -0.502 OA
ATOM     18  H   UNL A   1      34.461  21.568  27.965  1.00  0.00     0.293 HD
ENDBRANCH  12  17
BRANCH  13  19
ATOM     19  O   UNL A   1      31.256  23.343  27.576  1.00  0.00    -0.493 OA
ATOM     20  C   UNL A   1      30.108  23.132  26.766  1.00  0.00     0.278 C 
ENDBRANCH  13  19
ENDBRANCH   8   9
ENDBRANCH   4   7
ENDBRANCH   2   3
ENDBRANCH   1   2
BRANCH   1  21
ATOM     21  C   UNL A   1      32.901  32.317  27.169  1.00  0.00     0.118 C 
BRANCH  21  22
ATOM     22  N   UNL A   1      32.724  33.703  27.582  1.00  0.00    -0.352 N 
ATOM     23  C   UNL A   1      33.306  34.399  28.610  1.00  0.00     0.251 C 
ATOM     24  H   UNL A   1      32.087  34.221  27.038  1.00  0.00     0.163 HD
ATOM     25  O   UNL A   1      32.833  35.495  28.928  1.00  0.00    -0.269 OA
BRANCH  23  26
ATOM     26  C   UNL A   1      34.470  33.856  29.343  1.00  0.00     0.039 A 
ATOM     27  C   UNL A   1      34.258  32.888  30.328  1.00  0.00     0.014 A 
ATOM     28  C   UNL A   1      35.763  34.331  29.104  1.00  0.00     0.014 A 
ATOM     29  C   UNL A   1      35.342  32.360  31.035  1.00  0.00     0.010 A 
ATOM     30  C   UNL A   1      36.850  33.755  29.760  1.00  0.00     0.010 A 
ATOM     31  C   UNL A   1      36.651  32.769  30.737  1.00  0.00    -0.014 A 
BRANCH  31  32
ATOM     32  C   UNL A   1      37.822  32.185  31.445  1.00  0.00     0.031 A 
ATOM     33  C   UNL A   1      38.625  31.087  30.800  1.00  0.00     0.074 A 
ATOM     34  C   UNL A   1      38.124  32.603  32.690  1.00  0.00     0.049 A 
ATOM     35  N   UNL A   1      39.626  30.397  31.285  1.00  0.00    -0.248 NA
ATOM     36  C   UNL A   1      38.226  30.693  29.441  1.00  0.00     0.031 C 
ATOM     37  C   UNL A   1      37.399  33.637  33.432  1.00  0.00     0.029 A 
ATOM     38  N   UNL A   1      39.111  32.205  33.557  1.00  0.00    -0.354 N 
ATOM     39  C   UNL A   1      39.967  29.476  30.298  1.00  0.00     0.074 A 
ATOM     40  C   UNL A   1      39.024  29.661  29.215  1.00  0.00     0.031 C 
ATOM     41  C   UNL A   1      37.981  33.808  34.630  1.00  0.00     0.029 A 
ATOM     42  C   UNL A   1      39.088  32.866  34.763  1.00  0.00     0.049 A 
ATOM     43  H   UNL A   1      39.773  31.511  33.336  1.00  0.00     0.167 HD
ATOM     44  C   UNL A   1      40.983  28.577  30.289  1.00  0.00     0.034 A 
ATOM     45  C   UNL A   1      39.863  32.722  35.857  1.00  0.00     0.034 A 
ATOM     46  C   UNL A   1      41.921  28.417  31.375  1.00  0.00     0.049 A 
ATOM     47  C   UNL A   1      40.970  31.699  35.832  1.00  0.00     0.074 A 
ATOM     48  C   UNL A   1      43.021  27.580  31.450  1.00  0.00     0.029 A 
ATOM     49  N   UNL A   1      41.864  29.103  32.583  1.00  0.00    -0.354 N 
ATOM     50  N   UNL A   1      41.311  30.870  34.873  1.00  0.00    -0.248 NA
ATOM     51  C   UNL A   1      41.804  31.601  37.038  1.00  0.00     0.031 C 
ATOM     52  C   UNL A   1      43.588  27.711  32.724  1.00  0.00     0.029 A 
ATOM     53  C   UNL A   1      42.891  28.686  33.418  1.00  0.00     0.049 A 
ATOM     54  H   UNL A   1      41.195  29.787  32.811  1.00  0.00     0.167 HD
ATOM     55  C   UNL A   1      42.419  30.176  35.348  1.00  0.00     0.074 A 
ATOM     56  C   UNL A   1      42.696  30.693  36.672  1.00  0.00     0.031 C 
ATOM     57  C   UNL A   1      43.146  29.202  34.742  1.00  0.00     0.034 A 
BRANCH  44  58
ATOM     58  C   UNL A   1      41.106  27.681  29.078  1.00  0.00     0.023 A 
ATOM     59  C   UNL A   1      42.108  27.879  28.110  1.00  0.00     0.031 A 
ATOM     60  C   UNL A   1      40.189  26.637  28.865  1.00  0.00     0.131 A 
ATOM     61  C   UNL A   1      42.115  27.106  26.939  1.00  0.00     0.055 A 
ATOM     62  C   UNL A   1      40.255  25.813  27.739  1.00  0.00     0.041 A 
ATOM     63  F   UNL A   1      39.199  26.408  29.742  1.00  0.00    -0.206 F 
ATOM     64  C   UNL A   1      41.211  26.057  26.758  1.00  0.00     0.022 A 
BRANCH  61  65
ATOM     65  S   UNL A   1      43.222  27.595  25.587  1.00  0.00     0.124 S 
ATOM     66  O   UNL A   1      44.048  28.612  26.236  1.00  0.00    -0.237 OA
ATOM     67  O   UNL A   1      43.891  26.343  25.257  1.00  0.00    -0.237 OA
ATOM     68  O   UNL A   1      42.310  28.106  24.565  1.00  0.00    -0.744 OA
ENDBRANCH  61  65
ENDBRANCH  44  58
BRANCH  45  69
ATOM     69  C   UNL A   1      39.625  33.559  37.066  1.00  0.00     0.023 A 
ATOM     70  C   UNL A   1      38.914  33.052  38.165  1.00  0.00     0.031 A 
ATOM     71  C   UNL A   1      40.069  34.892  37.126  1.00  0.00     0.131 A 
ATOM     72  C   UNL A   1      38.628  33.884  39.258  1.00  0.00     0.055 A 
ATOM     73  C   UNL A   1      39.827  35.701  38.238  1.00  0.00     0.041 A 
ATOM     74  F   UNL A   1      40.758  35.425  36.105  1.00  0.00    -0.206 F 
ATOM     75  C   UNL A   1      39.091  35.201  39.308  1.00  0.00     0.022 A 
BRANCH  72  76
ATOM     76  S   UNL A   1      37.568  33.242  40.583  1.00  0.00     0.124 S 
ATOM     77  O   UNL A   1      37.359  34.432  41.399  1.00  0.00    -0.237 OA
ATOM     78  O   UNL A   1      36.410  32.762  39.837  1.00  0.00    -0.237 OA
ATOM     79  O   UNL A   1      38.387  32.198  41.198  1.00  0.00    -0.744 OA
ENDBRANCH  72  76
ENDBRANCH  45  69
BRANCH  57  80
ATOM     80  C   UNL A   1      44.341  28.672  35.499  1.00  0.00     0.023 A 
ATOM     81  C   UNL A   1      44.226  27.617  36.422  1.00  0.00     0.031 A 
ATOM     82  C   UNL A   1      45.610  29.248  35.307  1.00  0.00     0.131 A 
ATOM     83  C   UNL A   1      45.348  27.211  37.160  1.00  0.00     0.055 A 
ATOM     84  C   UNL A   1      46.734  28.797  35.999  1.00  0.00     0.041 A 
ATOM     85  F   UNL A   1      45.777  30.260  34.440  1.00  0.00    -0.206 F 
ATOM     86  C   UNL A   1      46.604  27.783  36.943  1.00  0.00     0.022 A 
BRANCH  83  87
ATOM     87  S   UNL A   1      45.124  25.987  38.481  1.00  0.00     0.124 S 
ATOM     88  O   UNL A   1      46.491  25.803  38.957  1.00  0.00    -0.237 OA
ATOM     89  O   UNL A   1      44.217  26.675  39.394  1.00  0.00    -0.237 OA
ATOM     90  O   UNL A   1      44.549  24.836  37.787  1.00  0.00    -0.744 OA
ENDBRANCH  83  87
ENDBRANCH  57  80
ENDBRANCH  31  32
ENDBRANCH  23  26
ENDBRANCH  21  22
ENDBRANCH   1  21
TORSDOF 17
ENDMDL
MODEL 3
REMARK VINA RESULT:     -11.0      2.559      3.941
REMARK SMILES COc1cc(/C=C/C(=O)NCCCNC(=O)c2ccc(-c3c4nc(c(-c5cc(S(=O)(=O)[O-])ccc5F)c5ccc([nH]5)c(-c5cc(S(=O)(=O)[O-])ccc5F)c5nc(c(-c6cc(S(=O)(=O)[O-])ccc6F)c6ccc3[nH]6)C=C5)C=C4)cc2)cc(OC)c1O
REMARK SMILES IDX 12 1 11 2 10 3 8 4 9 5 7 7 6 8 5 9 3 10 4 11 84 12 81 13
REMARK SMILES IDX 80 14 2 15 1 16 85 17 82 19 83 20 13 21 14 22 15 23 16 25
REMARK SMILES IDX 17 26 18 27 79 28 19 29 78 30 20 31 21 32 22 33 72 34 23 35
REMARK SMILES IDX 77 36 71 37 73 38 24 39 76 40 70 41 69 42 25 44 57 45 37 46
REMARK SMILES IDX 56 47 38 48 41 49 55 50 74 51 39 52 40 53 54 55 75 56 42 57
REMARK SMILES IDX 26 58 27 59 35 60 28 61 34 62 36 63 33 64 29 65 30 66 31 67
REMARK SMILES IDX 32 68 58 69 59 70 67 71 60 72 66 73 68 74 65 75 61 76 62 77
REMARK SMILES IDX 63 78 64 79 43 80 44 81 52 82 45 83 51 84 53 85 50 86 46 87
REMARK SMILES IDX 47 88 48 89 49 90
REMARK H PARENT 10 6 85 18 14 24 73 43 41 54
REMARK Flexibility Score: inf
ROOT
ATOM      1  C   UNL A   1      34.587  22.033  26.695  1.00  0.00     0.042 C 
ENDROOT
BRANCH   1   2
ATOM      2  C   UNL A   1      33.259  21.789  25.981  1.00  0.00     0.118 C 
BRANCH   2   3
ATOM      3  N   UNL A   1      32.128  22.024  26.861  1.00  0.00    -0.352 N 
ATOM      4  C   UNL A   1      31.166  22.982  26.834  1.00  0.00     0.244 C 
ATOM      5  O   UNL A   1      30.217  22.914  27.614  1.00  0.00    -0.270 OA
ATOM      6  H   UNL A   1      32.044  21.380  27.602  1.00  0.00     0.163 HD
BRANCH   4   7
ATOM      7  C   UNL A   1      31.179  24.051  25.812  1.00  0.00     0.072 C 
ATOM      8  C   UNL A   1      31.365  25.355  26.062  1.00  0.00     0.014 C 
BRANCH   8   9
ATOM      9  C   UNL A   1      31.363  26.386  25.011  1.00  0.00    -0.018 A 
ATOM     10  C   UNL A   1      31.360  27.081  22.682  1.00  0.00     0.165 A 
ATOM     11  C   UNL A   1      31.322  26.072  23.648  1.00  0.00     0.058 A 
ATOM     12  C   UNL A   1      31.457  28.426  23.073  1.00  0.00     0.200 A 
ATOM     13  C   UNL A   1      31.435  28.765  24.431  1.00  0.00     0.165 A 
ATOM     14  C   UNL A   1      31.392  27.736  25.385  1.00  0.00     0.058 A 
BRANCH  10  15
ATOM     15  O   UNL A   1      31.415  26.652  21.380  1.00  0.00    -0.493 OA
ATOM     16  C   UNL A   1      32.571  25.883  21.043  1.00  0.00     0.278 C 
ENDBRANCH  10  15
BRANCH  12  17
ATOM     17  O   UNL A   1      31.670  29.383  22.119  1.00  0.00    -0.502 OA
ATOM     18  H   UNL A   1      30.979  29.624  21.535  1.00  0.00     0.293 HD
ENDBRANCH  12  17
BRANCH  13  19
ATOM     19  O   UNL A   1      31.526  30.010  24.991  1.00  0.00    -0.493 OA
ATOM     20  C   UNL A   1      32.326  30.158  26.156  1.00  0.00     0.278 C 
ENDBRANCH  13  19
ENDBRANCH   8   9
ENDBRANCH   4   7
ENDBRANCH   2   3
ENDBRANCH   1   2
BRANCH   1  21
ATOM     21  C   UNL A   1      35.749  22.332  25.749  1.00  0.00     0.118 C 
BRANCH  21  22
ATOM     22  N   UNL A   1      36.701  21.232  25.685  1.00  0.00    -0.352 N 
ATOM     23  C   UNL A   1      38.071  21.246  25.733  1.00  0.00     0.251 C 
ATOM     24  H   UNL A   1      36.297  20.338  25.593  1.00  0.00     0.163 HD
ATOM     25  O   UNL A   1      38.687  20.221  25.420  1.00  0.00    -0.269 OA
BRANCH  23  26
ATOM     26  C   UNL A   1      38.813  22.459  26.137  1.00  0.00     0.039 A 
ATOM     27  C   UNL A   1      39.957  22.320  26.929  1.00  0.00     0.014 A 
ATOM     28  C   UNL A   1      38.362  23.736  25.788  1.00  0.00     0.014 A 
ATOM     29  C   UNL A   1      40.674  23.452  27.326  1.00  0.00     0.010 A 
ATOM     30  C   UNL A   1      39.116  24.858  26.125  1.00  0.00     0.010 A 
ATOM     31  C   UNL A   1      40.276  24.730  26.903  1.00  0.00    -0.014 A 
BRANCH  31  32
ATOM     32  C   UNL A   1      41.053  25.942  27.276  1.00  0.00     0.031 A 
ATOM     33  C   UNL A   1      40.425  27.012  28.128  1.00  0.00     0.074 A 
ATOM     34  C   UNL A   1      42.303  26.105  26.797  1.00  0.00     0.049 A 
ATOM     35  N   UNL A   1      40.907  28.172  28.493  1.00  0.00    -0.248 NA
ATOM     36  C   UNL A   1      39.059  26.751  28.606  1.00  0.00     0.031 C 
ATOM     37  C   UNL A   1      43.007  25.153  25.935  1.00  0.00     0.029 A 
ATOM     38  N   UNL A   1      43.199  27.132  26.958  1.00  0.00    -0.354 N 
ATOM     39  C   UNL A   1      39.900  28.789  29.229  1.00  0.00     0.074 A 
ATOM     40  C   UNL A   1      38.761  27.895  29.205  1.00  0.00     0.031 C 
ATOM     41  C   UNL A   1      44.232  25.629  25.664  1.00  0.00     0.029 A 
ATOM     42  C   UNL A   1      44.387  26.939  26.290  1.00  0.00     0.049 A 
ATOM     43  H   UNL A   1      43.010  27.931  27.499  1.00  0.00     0.167 HD
ATOM     44  C   UNL A   1      39.929  29.979  29.881  1.00  0.00     0.034 A 
ATOM     45  C   UNL A   1      45.473  27.731  26.185  1.00  0.00     0.034 A 
ATOM     46  C   UNL A   1      41.080  30.851  29.903  1.00  0.00     0.049 A 
ATOM     47  C   UNL A   1      45.474  29.060  26.898  1.00  0.00     0.074 A 
ATOM     48  C   UNL A   1      41.242  32.050  30.577  1.00  0.00     0.029 A 
ATOM     49  N   UNL A   1      42.265  30.623  29.213  1.00  0.00    -0.354 N 
ATOM     50  N   UNL A   1      44.531  29.606  27.631  1.00  0.00    -0.248 NA
ATOM     51  C   UNL A   1      46.690  29.873  26.775  1.00  0.00     0.031 C 
ATOM     52  C   UNL A   1      42.495  32.578  30.241  1.00  0.00     0.029 A 
ATOM     53  C   UNL A   1      43.148  31.673  29.420  1.00  0.00     0.049 A 
ATOM     54  H   UNL A   1      42.451  29.831  28.660  1.00  0.00     0.167 HD
ATOM     55  C   UNL A   1      45.057  30.813  28.084  1.00  0.00     0.074 A 
ATOM     56  C   UNL A   1      46.401  30.906  27.552  1.00  0.00     0.031 C 
ATOM     57  C   UNL A   1      44.482  31.757  28.872  1.00  0.00     0.034 A 
BRANCH  44  58
ATOM     58  C   UNL A   1      38.669  30.412  30.593  1.00  0.00     0.023 A 
ATOM     59  C   UNL A   1      37.624  31.067  29.916  1.00  0.00     0.031 A 
ATOM     60  C   UNL A   1      38.522  30.203  31.976  1.00  0.00     0.131 A 
ATOM     61  C   UNL A   1      36.524  31.564  30.633  1.00  0.00     0.055 A 
ATOM     62  C   UNL A   1      37.384  30.622  32.670  1.00  0.00     0.041 A 
ATOM     63  F   UNL A   1      39.491  29.600  32.683  1.00  0.00    -0.206 F 
ATOM     64  C   UNL A   1      36.385  31.323  32.001  1.00  0.00     0.022 A 
BRANCH  61  65
ATOM     65  S   UNL A   1      35.361  32.664  29.780  1.00  0.00     0.124 S 
ATOM     66  O   UNL A   1      34.871  31.800  28.708  1.00  0.00    -0.237 OA
ATOM     67  O   UNL A   1      34.404  32.987  30.830  1.00  0.00    -0.237 OA
ATOM     68  O   UNL A   1      36.202  33.774  29.337  1.00  0.00    -0.744 OA
ENDBRANCH  61  65
ENDBRANCH  44  58
BRANCH  45  69
ATOM     69  C   UNL A   1      46.647  27.299  25.377  1.00  0.00     0.023 A 
ATOM     70  C   UNL A   1      46.863  27.810  24.088  1.00  0.00     0.031 A 
ATOM     71  C   UNL A   1      47.551  26.338  25.865  1.00  0.00     0.131 A 
ATOM     72  C   UNL A   1      47.927  27.327  23.311  1.00  0.00     0.055 A 
ATOM     73  C   UNL A   1      48.639  25.898  25.108  1.00  0.00     0.041 A 
ATOM     74  F   UNL A   1      47.395  25.821  27.094  1.00  0.00    -0.206 F 
ATOM     75  C   UNL A   1      48.824  26.384  23.817  1.00  0.00     0.022 A 
BRANCH  72  76
ATOM     76  S   UNL A   1      48.073  27.891  21.593  1.00  0.00     0.124 S 
ATOM     77  O   UNL A   1      49.247  28.753  21.662  1.00  0.00    -0.237 OA
ATOM     78  O   UNL A   1      48.241  26.632  20.876  1.00  0.00    -0.237 OA
ATOM     79  O   UNL A   1      46.806  28.578  21.352  1.00  0.00    -0.744 OA
ENDBRANCH  72  76
ENDBRANCH  45  69
BRANCH  57  80
ATOM     80  C   UNL A   1      45.333  32.949  29.241  1.00  0.00     0.023 A 
ATOM     81  C   UNL A   1      45.338  34.125  28.470  1.00  0.00     0.031 A 
ATOM     82  C   UNL A   1      46.168  32.896  30.372  1.00  0.00     0.131 A 
ATOM     83  C   UNL A   1      46.204  35.176  28.805  1.00  0.00     0.055 A 
ATOM     84  C   UNL A   1      46.981  33.970  30.735  1.00  0.00     0.041 A 
ATOM     85  F   UNL A   1      46.206  31.797  31.143  1.00  0.00    -0.206 F 
ATOM     86  C   UNL A   1      47.013  35.113  29.942  1.00  0.00     0.022 A 
BRANCH  83  87
ATOM     87  S   UNL A   1      46.330  36.594  27.679  1.00  0.00     0.124 S 
ATOM     88  O   UNL A   1      47.719  36.510  27.242  1.00  0.00    -0.237 OA
ATOM     89  O   UNL A   1      45.323  36.280  26.669  1.00  0.00    -0.237 OA
ATOM     90  O   UNL A   1      46.016  37.738  28.533  1.00  0.00    -0.744 OA
ENDBRANCH  83  87
ENDBRANCH  57  80
ENDBRANCH  31  32
ENDBRANCH  23  26
ENDBRANCH  21  22
ENDBRANCH   1  21
TORSDOF 17
ENDMDL
