MODEL 1
REMARK VINA RESULT:     -13.0      0.000      0.000
REMARK SMILES O=C(NCCCNC(=O)c1ccc2c(=O)n(CCC[NH+]3CCOCC3)c(=O)[nH]c2c1)c1ccc(-c2c3nc(c(-c4cc(S(=O)(=O)[O-])ccc4F)c4ccc([nH]4)c(-c4cc(S(=O)(=O)[O-])ccc4F)c4nc(c(-c5cc(S(=O)(=O)[O-])ccc5F)c5ccc2[nH]5)C=C4)C=C3)cc1
REMARK SMILES IDX 5 1 4 2 3 3 1 4 2 5 31 7 32 8 93 9 33 10 92 11 34 12 35 13
REMARK SMILES IDX 36 14 86 15 37 16 91 17 85 18 87 19 38 20 90 21 84 22 83 23
REMARK SMILES IDX 39 25 71 26 51 27 70 28 52 29 55 30 69 31 88 32 53 33 54 34
REMARK SMILES IDX 68 36 89 37 56 38 40 39 41 40 49 41 42 42 48 43 50 44 47 45
REMARK SMILES IDX 43 46 44 47 45 48 46 49 72 50 73 51 81 52 74 53 80 54 82 55
REMARK SMILES IDX 79 56 75 57 76 58 77 59 78 60 57 61 58 62 66 63 59 64 65 65
REMARK SMILES IDX 67 66 64 67 60 68 61 69 62 70 63 71 6 72 7 73 8 74 9 76
REMARK SMILES IDX 10 77 11 78 30 79 12 80 29 81 13 82 28 83 14 84 26 85 15 87
REMARK SMILES IDX 16 88 27 89 17 90 18 91 19 92 20 93 21 94 25 95 22 97 24 98
REMARK SMILES IDX 23 99
REMARK H PARENT 3 6 87 24 55 35 7 75 28 86 20 96
REMARK Flexibility Score: inf
ROOT
ATOM      1  C   UNL A   1      31.486  31.660  26.538  1.00  0.00     0.042 C 
ENDROOT
BRANCH   1   2
ATOM      2  C   UNL A   1      32.735  32.247  27.180  1.00  0.00     0.118 C 
BRANCH   2   3
ATOM      3  N   UNL A   1      32.585  33.661  27.488  1.00  0.00    -0.352 N 
ATOM      4  O   UNL A   1      32.750  35.546  28.696  1.00  0.00    -0.269 OA
ATOM      5  C   UNL A   1      33.179  34.417  28.466  1.00  0.00     0.251 C 
ATOM      6  H   UNL A   1      31.963  34.152  26.902  1.00  0.00     0.163 HD
BRANCH   5   7
ATOM      7  C   UNL A   1      34.323  33.885  29.237  1.00  0.00     0.039 A 
ATOM      8  C   UNL A   1      35.618  34.260  28.870  1.00  0.00     0.014 A 
ATOM      9  C   UNL A   1      34.130  32.976  30.281  1.00  0.00     0.014 A 
ATOM     10  C   UNL A   1      36.713  33.734  29.557  1.00  0.00     0.010 A 
ATOM     11  C   UNL A   1      35.214  32.531  31.027  1.00  0.00     0.010 A 
ATOM     12  C   UNL A   1      36.519  32.870  30.648  1.00  0.00    -0.014 A 
BRANCH  12  13
ATOM     13  C   UNL A   1      37.665  32.247  31.357  1.00  0.00     0.031 A 
ATOM     14  C   UNL A   1      38.398  31.096  30.724  1.00  0.00     0.074 A 
ATOM     15  C   UNL A   1      38.017  32.683  32.581  1.00  0.00     0.049 A 
ATOM     16  N   UNL A   1      39.386  30.385  31.200  1.00  0.00    -0.248 NA
ATOM     17  C   UNL A   1      37.942  30.668  29.391  1.00  0.00     0.031 C 
ATOM     18  C   UNL A   1      37.356  33.766  33.305  1.00  0.00     0.029 A 
ATOM     19  N   UNL A   1      39.010  32.266  33.432  1.00  0.00    -0.354 N 
ATOM     20  C   UNL A   1      39.653  29.417  30.239  1.00  0.00     0.074 A 
ATOM     21  C   UNL A   1      38.679  29.587  29.185  1.00  0.00     0.031 C 
ATOM     22  C   UNL A   1      37.979  33.950  34.479  1.00  0.00     0.029 A 
ATOM     23  C   UNL A   1      39.051  32.965  34.616  1.00  0.00     0.049 A 
ATOM     24  H   UNL A   1      39.634  31.536  33.216  1.00  0.00     0.167 HD
ATOM     25  C   UNL A   1      40.641  28.493  30.221  1.00  0.00     0.034 A 
ATOM     26  C   UNL A   1      39.853  32.827  35.693  1.00  0.00     0.034 A 
ATOM     27  C   UNL A   1      41.624  28.364  31.266  1.00  0.00     0.049 A 
ATOM     28  C   UNL A   1      40.946  31.789  35.660  1.00  0.00     0.074 A 
ATOM     29  C   UNL A   1      42.713  27.513  31.308  1.00  0.00     0.029 A 
ATOM     30  N   UNL A   1      41.642  29.096  32.445  1.00  0.00    -0.354 N 
ATOM     31  N   UNL A   1      41.249  30.943  34.702  1.00  0.00    -0.248 NA
ATOM     32  C   UNL A   1      41.813  31.687  36.841  1.00  0.00     0.031 C 
ATOM     33  C   UNL A   1      43.336  27.667  32.546  1.00  0.00     0.029 A 
ATOM     34  C   UNL A   1      42.698  28.684  33.240  1.00  0.00     0.049 A 
ATOM     35  H   UNL A   1      40.998  29.803  32.681  1.00  0.00     0.167 HD
ATOM     36  C   UNL A   1      42.353  30.226  35.154  1.00  0.00     0.074 A 
ATOM     37  C   UNL A   1      42.679  30.754  36.463  1.00  0.00     0.031 C 
ATOM     38  C   UNL A   1      43.028  29.219  34.542  1.00  0.00     0.034 A 
BRANCH  25  39
ATOM     39  C   UNL A   1      40.737  27.554  29.041  1.00  0.00     0.023 A 
ATOM     40  C   UNL A   1      41.673  27.806  28.021  1.00  0.00     0.031 A 
ATOM     41  C   UNL A   1      39.832  26.492  28.862  1.00  0.00     0.131 A 
ATOM     42  C   UNL A   1      41.662  27.030  26.856  1.00  0.00     0.055 A 
ATOM     43  C   UNL A   1      39.862  25.684  27.724  1.00  0.00     0.041 A 
ATOM     44  F   UNL A   1      38.913  26.211  29.799  1.00  0.00    -0.206 F 
ATOM     45  C   UNL A   1      40.770  25.963  26.707  1.00  0.00     0.022 A 
BRANCH  42  46
ATOM     46  S   UNL A   1      42.743  27.425  25.457  1.00  0.00     0.124 S 
ATOM     47  O   UNL A   1      44.008  27.719  26.129  1.00  0.00    -0.237 OA
ATOM     48  O   UNL A   1      42.719  26.181  24.691  1.00  0.00    -0.237 OA
ATOM     49  O   UNL A   1      42.096  28.569  24.823  1.00  0.00    -0.744 OA
ENDBRANCH  42  46
ENDBRANCH  25  39
BRANCH  26  50
ATOM     50  C   UNL A   1      39.671  33.761  36.843  1.00  0.00     0.023 A 
ATOM     51  C   UNL A   1      40.544  34.848  37.033  1.00  0.00     0.031 A 
ATOM     52  C   UNL A   1      38.726  33.488  37.845  1.00  0.00     0.131 A 
ATOM     53  C   UNL A   1      40.519  35.558  38.241  1.00  0.00     0.055 A 
ATOM     54  C   UNL A   1      38.650  34.250  39.012  1.00  0.00     0.041 A 
ATOM     55  F   UNL A   1      37.881  32.455  37.715  1.00  0.00    -0.206 F 
ATOM     56  C   UNL A   1      39.566  35.278  39.225  1.00  0.00     0.022 A 
BRANCH  53  57
ATOM     57  S   UNL A   1      41.823  36.755  38.639  1.00  0.00     0.124 S 
ATOM     58  O   UNL A   1      42.695  35.981  39.516  1.00  0.00    -0.237 OA
ATOM     59  O   UNL A   1      42.364  37.053  37.314  1.00  0.00    -0.237 OA
ATOM     60  O   UNL A   1      41.103  37.853  39.274  1.00  0.00    -0.744 OA
ENDBRANCH  53  57
ENDBRANCH  26  50
BRANCH  38  61
ATOM     61  C   UNL A   1      44.202  28.586  35.252  1.00  0.00     0.023 A 
ATOM     62  C   UNL A   1      43.987  27.535  36.166  1.00  0.00     0.031 A 
ATOM     63  C   UNL A   1      45.492  29.140  35.172  1.00  0.00     0.131 A 
ATOM     64  C   UNL A   1      45.026  27.115  37.006  1.00  0.00     0.055 A 
ATOM     65  C   UNL A   1      46.539  28.677  35.969  1.00  0.00     0.041 A 
ATOM     66  F   UNL A   1      45.747  30.152  34.327  1.00  0.00    -0.206 F 
ATOM     67  C   UNL A   1      46.304  27.673  36.905  1.00  0.00     0.022 A 
BRANCH  64  68
ATOM     68  S   UNL A   1      44.729  25.915  38.333  1.00  0.00     0.124 S 
ATOM     69  O   UNL A   1      46.084  25.462  38.641  1.00  0.00    -0.237 OA
ATOM     70  O   UNL A   1      44.100  26.741  39.360  1.00  0.00    -0.237 OA
ATOM     71  O   UNL A   1      43.865  24.914  37.717  1.00  0.00    -0.744 OA
ENDBRANCH  64  68
ENDBRANCH  38  61
ENDBRANCH  12  13
ENDBRANCH   5   7
ENDBRANCH   2   3
ENDBRANCH   1   2
BRANCH   1  72
ATOM     72  C   UNL A   1      31.671  30.241  26.018  1.00  0.00     0.118 C 
BRANCH  72  73
ATOM     73  N   UNL A   1      31.113  30.075  24.683  1.00  0.00    -0.352 N 
ATOM     74  C   UNL A   1      31.216  29.000  23.845  1.00  0.00     0.251 C 
ATOM     75  H   UNL A   1      30.593  30.837  24.339  1.00  0.00     0.163 HD
ATOM     76  O   UNL A   1      30.871  29.064  22.668  1.00  0.00    -0.269 OA
BRANCH  74  77
ATOM     77  C   UNL A   1      31.741  27.736  24.378  1.00  0.00     0.041 A 
ATOM     78  C   UNL A   1      33.125  27.514  24.376  1.00  0.00     0.015 A 
ATOM     79  C   UNL A   1      30.846  26.779  24.867  1.00  0.00     0.040 A 
ATOM     80  C   UNL A   1      33.623  26.313  24.862  1.00  0.00     0.017 A 
ATOM     81  C   UNL A   1      31.354  25.564  25.313  1.00  0.00     0.056 A 
ATOM     82  C   UNL A   1      32.729  25.351  25.337  1.00  0.00     0.064 A 
ATOM     83  N   UNL A   1      30.498  24.535  25.701  1.00  0.00    -0.307 N 
ATOM     84  C   UNL A   1      33.225  24.083  25.877  1.00  0.00     0.264 A 
ATOM     85  C   UNL A   1      30.926  23.264  25.982  1.00  0.00     0.328 A 
ATOM     86  H   UNL A   1      29.537  24.732  25.777  1.00  0.00     0.171 HD
ATOM     87  O   UNL A   1      34.395  24.015  26.241  1.00  0.00    -0.268 OA
ATOM     88  N   UNL A   1      32.298  23.053  25.964  1.00  0.00    -0.260 N 
ATOM     89  O   UNL A   1      30.096  22.394  26.242  1.00  0.00    -0.248 OA
BRANCH  88  90
ATOM     90  C   UNL A   1      32.812  21.712  26.188  1.00  0.00     0.137 C 
BRANCH  90  91
ATOM     91  C   UNL A   1      32.569  20.771  24.998  1.00  0.00     0.083 C 
BRANCH  91  92
ATOM     92  C   UNL A   1      33.168  19.354  25.071  1.00  0.00     0.264 C 
BRANCH  92  93
ATOM     93  N   UNL A   1      32.411  18.230  24.505  1.00  0.00    -0.331 N 
ATOM     94  C   UNL A   1      32.415  17.063  25.420  1.00  0.00     0.291 C 
ATOM     95  C   UNL A   1      32.822  17.759  23.173  1.00  0.00     0.291 C 
ATOM     96  H   UNL A   1      31.479  18.629  24.392  1.00  0.00     0.348 HD
ATOM     97  C   UNL A   1      33.734  16.262  25.385  1.00  0.00     0.221 C 
ATOM     98  C   UNL A   1      34.142  16.982  23.177  1.00  0.00     0.221 C 
ATOM     99  O   UNL A   1      34.071  15.850  24.052  1.00  0.00    -0.370 OA
ENDBRANCH  92  93
ENDBRANCH  91  92
ENDBRANCH  90  91
ENDBRANCH  88  90
ENDBRANCH  74  77
ENDBRANCH  72  73
ENDBRANCH   1  72
TORSDOF 17
ENDMDL
MODEL 2
REMARK VINA RESULT:     -12.8      1.978      7.627
REMARK SMILES O=C(NCCCNC(=O)c1ccc2c(=O)n(CCC[NH+]3CCOCC3)c(=O)[nH]c2c1)c1ccc(-c2c3nc(c(-c4cc(S(=O)(=O)[O-])ccc4F)c4ccc([nH]4)c(-c4cc(S(=O)(=O)[O-])ccc4F)c4nc(c(-c5cc(S(=O)(=O)[O-])ccc5F)c5ccc2[nH]5)C=C4)C=C3)cc1
REMARK SMILES IDX 5 1 4 2 3 3 1 4 2 5 31 7 32 8 93 9 33 10 92 11 34 12 35 13
REMARK SMILES IDX 36 14 86 15 37 16 91 17 85 18 87 19 38 20 90 21 84 22 83 23
REMARK SMILES IDX 39 25 71 26 51 27 70 28 52 29 55 30 69 31 88 32 53 33 54 34
REMARK SMILES IDX 68 36 89 37 56 38 40 39 41 40 49 41 42 42 48 43 50 44 47 45
REMARK SMILES IDX 43 46 44 47 45 48 46 49 72 50 73 51 81 52 74 53 80 54 82 55
REMARK SMILES IDX 79 56 75 57 76 58 77 59 78 60 57 61 58 62 66 63 59 64 65 65
REMARK SMILES IDX 67 66 64 67 60 68 61 69 62 70 63 71 6 72 7 73 8 74 9 76
REMARK SMILES IDX 10 77 11 78 30 79 12 80 29 81 13 82 28 83 14 84 26 85 15 87
REMARK SMILES IDX 16 88 27 89 17 90 18 91 19 92 20 93 21 94 25 95 22 97 24 98
REMARK SMILES IDX 23 99
REMARK H PARENT 3 6 87 24 55 35 7 75 28 86 20 96
REMARK Flexibility Score: inf
ROOT
ATOM      1  C   UNL A   1      31.378  31.670  26.270  1.00  0.00     0.042 C 
ENDROOT
BRANCH   1   2
ATOM      2  C   UNL A   1      32.683  32.156  26.884  1.00  0.00     0.118 C 
BRANCH   2   3
ATOM      3  N   UNL A   1      32.602  33.539  27.331  1.00  0.00    -0.352 N 
ATOM      4  O   UNL A   1      32.895  35.291  28.701  1.00  0.00    -0.269 OA
ATOM      5  C   UNL A   1      33.269  34.176  28.345  1.00  0.00     0.251 C 
ATOM      6  H   UNL A   1      31.972  34.103  26.826  1.00  0.00     0.163 HD
BRANCH   5   7
ATOM      7  C   UNL A   1      34.427  33.534  29.004  1.00  0.00     0.039 A 
ATOM      8  C   UNL A   1      35.717  33.939  28.648  1.00  0.00     0.014 A 
ATOM      9  C   UNL A   1      34.251  32.499  29.926  1.00  0.00     0.014 A 
ATOM     10  C   UNL A   1      36.824  33.314  29.226  1.00  0.00     0.010 A 
ATOM     11  C   UNL A   1      35.350  31.947  30.573  1.00  0.00     0.010 A 
ATOM     12  C   UNL A   1      36.648  32.317  30.200  1.00  0.00    -0.014 A 
BRANCH  12  13
ATOM     13  C   UNL A   1      37.805  31.594  30.786  1.00  0.00     0.031 A 
ATOM     14  C   UNL A   1      38.250  31.911  32.188  1.00  0.00     0.074 A 
ATOM     15  C   UNL A   1      38.479  30.693  30.049  1.00  0.00     0.049 A 
ATOM     16  N   UNL A   1      39.264  31.432  32.859  1.00  0.00    -0.248 NA
ATOM     17  C   UNL A   1      37.471  32.922  32.922  1.00  0.00     0.031 C 
ATOM     18  C   UNL A   1      38.159  30.332  28.670  1.00  0.00     0.029 A 
ATOM     19  N   UNL A   1      39.573  29.921  30.353  1.00  0.00    -0.354 N 
ATOM     20  C   UNL A   1      39.256  32.097  34.081  1.00  0.00     0.074 A 
ATOM     21  C   UNL A   1      38.181  33.061  34.031  1.00  0.00     0.031 C 
ATOM     22  C   UNL A   1      39.017  29.388  28.255  1.00  0.00     0.029 A 
ATOM     23  C   UNL A   1      39.981  29.112  29.319  1.00  0.00     0.049 A 
ATOM     24  H   UNL A   1      40.022  29.944  31.229  1.00  0.00     0.167 HD
ATOM     25  C   UNL A   1      40.051  31.897  35.157  1.00  0.00     0.034 A 
ATOM     26  C   UNL A   1      41.017  28.250  29.231  1.00  0.00     0.034 A 
ATOM     27  C   UNL A   1      41.094  30.905  35.198  1.00  0.00     0.049 A 
ATOM     28  C   UNL A   1      41.898  28.043  30.438  1.00  0.00     0.074 A 
ATOM     29  C   UNL A   1      41.905  30.568  36.266  1.00  0.00     0.029 A 
ATOM     30  N   UNL A   1      41.473  30.095  34.136  1.00  0.00    -0.354 N 
ATOM     31  N   UNL A   1      41.818  28.608  31.621  1.00  0.00    -0.248 NA
ATOM     32  C   UNL A   1      42.998  27.078  30.309  1.00  0.00     0.031 C 
ATOM     33  C   UNL A   1      42.829  29.620  35.827  1.00  0.00     0.029 A 
ATOM     34  C   UNL A   1      42.536  29.291  34.512  1.00  0.00     0.049 A 
ATOM     35  H   UNL A   1      41.049  30.094  33.248  1.00  0.00     0.167 HD
ATOM     36  C   UNL A   1      42.843  28.052  32.383  1.00  0.00     0.074 A 
ATOM     37  C   UNL A   1      43.513  27.089  31.533  1.00  0.00     0.031 C 
ATOM     38  C   UNL A   1      43.197  28.323  33.666  1.00  0.00     0.034 A 
BRANCH  25  39
ATOM     39  C   UNL A   1      39.830  32.741  36.390  1.00  0.00     0.023 A 
ATOM     40  C   UNL A   1      38.921  32.315  37.376  1.00  0.00     0.031 A 
ATOM     41  C   UNL A   1      40.416  34.012  36.535  1.00  0.00     0.131 A 
ATOM     42  C   UNL A   1      38.599  33.163  38.442  1.00  0.00     0.055 A 
ATOM     43  C   UNL A   1      40.135  34.830  37.631  1.00  0.00     0.041 A 
ATOM     44  F   UNL A   1      41.285  34.473  35.621  1.00  0.00    -0.206 F 
ATOM     45  C   UNL A   1      39.210  34.413  38.582  1.00  0.00     0.022 A 
BRANCH  42  46
ATOM     46  S   UNL A   1      37.316  32.714  39.641  1.00  0.00     0.124 S 
ATOM     47  O   UNL A   1      37.778  31.406  40.100  1.00  0.00    -0.237 OA
ATOM     48  O   UNL A   1      37.425  33.792  40.622  1.00  0.00    -0.237 OA
ATOM     49  O   UNL A   1      36.088  32.700  38.855  1.00  0.00    -0.744 OA
ENDBRANCH  42  46
ENDBRANCH  25  39
BRANCH  26  50
ATOM     50  C   UNL A   1      41.202  27.483  27.964  1.00  0.00     0.023 A 
ATOM     51  C   UNL A   1      40.865  26.119  27.893  1.00  0.00     0.031 A 
ATOM     52  C   UNL A   1      41.861  28.061  26.866  1.00  0.00     0.131 A 
ATOM     53  C   UNL A   1      41.275  25.357  26.791  1.00  0.00     0.055 A 
ATOM     54  C   UNL A   1      42.195  27.315  25.734  1.00  0.00     0.041 A 
ATOM     55  F   UNL A   1      42.214  29.354  26.893  1.00  0.00    -0.206 F 
ATOM     56  C   UNL A   1      41.923  25.950  25.702  1.00  0.00     0.022 A 
BRANCH  53  57
ATOM     57  S   UNL A   1      41.127  23.548  26.808  1.00  0.00     0.124 S 
ATOM     58  O   UNL A   1      39.714  23.353  26.501  1.00  0.00    -0.237 OA
ATOM     59  O   UNL A   1      42.061  23.166  25.752  1.00  0.00    -0.237 OA
ATOM     60  O   UNL A   1      41.536  23.181  28.159  1.00  0.00    -0.744 OA
ENDBRANCH  53  57
ENDBRANCH  26  50
BRANCH  38  61
ATOM     61  C   UNL A   1      44.367  27.585  34.274  1.00  0.00     0.023 A 
ATOM     62  C   UNL A   1      44.173  26.310  34.844  1.00  0.00     0.031 A 
ATOM     63  C   UNL A   1      45.612  28.210  34.459  1.00  0.00     0.131 A 
ATOM     64  C   UNL A   1      45.183  25.732  35.622  1.00  0.00     0.055 A 
ATOM     65  C   UNL A   1      46.636  27.602  35.186  1.00  0.00     0.041 A 
ATOM     66  F   UNL A   1      45.844  29.430  33.948  1.00  0.00    -0.206 F 
ATOM     67  C   UNL A   1      46.418  26.366  35.788  1.00  0.00     0.022 A 
BRANCH  64  68
ATOM     68  S   UNL A   1      44.891  24.194  36.541  1.00  0.00     0.124 S 
ATOM     69  O   UNL A   1      44.658  24.690  37.895  1.00  0.00    -0.237 OA
ATOM     70  O   UNL A   1      43.717  23.651  35.865  1.00  0.00    -0.237 OA
ATOM     71  O   UNL A   1      46.126  23.437  36.361  1.00  0.00    -0.744 OA
ENDBRANCH  64  68
ENDBRANCH  38  61
ENDBRANCH  12  13
ENDBRANCH   5   7
ENDBRANCH   2   3
ENDBRANCH   1   2
BRANCH   1  72
ATOM     72  C   UNL A   1      31.416  30.217  25.815  1.00  0.00     0.118 C 
BRANCH  72  73
ATOM     73  N   UNL A   1      30.777  30.038  24.518  1.00  0.00    -0.352 N 
ATOM     74  C   UNL A   1      30.860  28.970  23.669  1.00  0.00     0.251 C 
ATOM     75  H   UNL A   1      30.211  30.784  24.213  1.00  0.00     0.163 HD
ATOM     76  O   UNL A   1      30.436  29.027  22.518  1.00  0.00    -0.269 OA
BRANCH  74  77
ATOM     77  C   UNL A   1      31.460  27.722  24.159  1.00  0.00     0.041 A 
ATOM     78  C   UNL A   1      32.842  27.530  24.029  1.00  0.00     0.015 A 
ATOM     79  C   UNL A   1      30.635  26.750  24.736  1.00  0.00     0.040 A 
ATOM     80  C   UNL A   1      33.410  26.344  24.474  1.00  0.00     0.017 A 
ATOM     81  C   UNL A   1      31.209  25.550  25.140  1.00  0.00     0.056 A 
ATOM     82  C   UNL A   1      32.585  25.367  25.037  1.00  0.00     0.064 A 
ATOM     83  N   UNL A   1      30.417  24.507  25.614  1.00  0.00    -0.307 N 
ATOM     84  C   UNL A   1      33.157  24.115  25.536  1.00  0.00     0.264 A 
ATOM     85  C   UNL A   1      30.897  23.248  25.862  1.00  0.00     0.328 A 
ATOM     86  H   UNL A   1      29.463  24.683  25.778  1.00  0.00     0.171 HD
ATOM     87  O   UNL A   1      34.357  24.075  25.790  1.00  0.00    -0.268 OA
ATOM     88  N   UNL A   1      32.265  23.066  25.717  1.00  0.00    -0.260 N 
ATOM     89  O   UNL A   1      30.115  22.362  26.204  1.00  0.00    -0.248 OA
BRANCH  88  90
ATOM     90  C   UNL A   1      32.827  21.738  25.900  1.00  0.00     0.137 C 
BRANCH  90  91
ATOM     91  C   UNL A   1      33.202  21.058  24.575  1.00  0.00     0.083 C 
BRANCH  91  92
ATOM     92  C   UNL A   1      33.636  19.581  24.625  1.00  0.00     0.264 C 
BRANCH  92  93
ATOM     93  N   UNL A   1      32.652  18.539  24.303  1.00  0.00    -0.331 N 
ATOM     94  C   UNL A   1      32.528  17.555  25.406  1.00  0.00     0.291 C 
ATOM     95  C   UNL A   1      32.867  17.790  23.054  1.00  0.00     0.291 C 
ATOM     96  H   UNL A   1      31.797  19.078  24.169  1.00  0.00     0.348 HD
ATOM     97  C   UNL A   1      33.681  16.530  25.445  1.00  0.00     0.221 C 
ATOM     98  C   UNL A   1      34.028  16.793  23.128  1.00  0.00     0.221 C 
ATOM     99  O   UNL A   1      33.833  15.852  24.189  1.00  0.00    -0.370 OA
ENDBRANCH  92  93
ENDBRANCH  91  92
ENDBRANCH  90  91
ENDBRANCH  88  90
ENDBRANCH  74  77
ENDBRANCH  72  73
ENDBRANCH   1  72
TORSDOF 17
ENDMDL
MODEL 3
REMARK VINA RESULT:     -12.7      1.868      2.111
REMARK SMILES O=C(NCCCNC(=O)c1ccc2c(=O)n(CCC[NH+]3CCOCC3)c(=O)[nH]c2c1)c1ccc(-c2c3nc(c(-c4cc(S(=O)(=O)[O-])ccc4F)c4ccc([nH]4)c(-c4cc(S(=O)(=O)[O-])ccc4F)c4nc(c(-c5cc(S(=O)(=O)[O-])ccc5F)c5ccc2[nH]5)C=C4)C=C3)cc1
REMARK SMILES IDX 5 1 4 2 3 3 1 4 2 5 31 7 32 8 93 9 33 10 92 11 34 12 35 13
REMARK SMILES IDX 36 14 86 15 37 16 91 17 85 18 87 19 38 20 90 21 84 22 83 23
REMARK SMILES IDX 39 25 71 26 51 27 70 28 52 29 55 30 69 31 88 32 53 33 54 34
REMARK SMILES IDX 68 36 89 37 56 38 40 39 41 40 49 41 42 42 48 43 50 44 47 45
REMARK SMILES IDX 43 46 44 47 45 48 46 49 72 50 73 51 81 52 74 53 80 54 82 55
REMARK SMILES IDX 79 56 75 57 76 58 77 59 78 60 57 61 58 62 66 63 59 64 65 65
REMARK SMILES IDX 67 66 64 67 60 68 61 69 62 70 63 71 6 72 7 73 8 74 9 76
REMARK SMILES IDX 10 77 11 78 30 79 12 80 29 81 13 82 28 83 14 84 26 85 15 87
REMARK SMILES IDX 16 88 27 89 17 90 18 91 19 92 20 93 21 94 25 95 22 97 24 98
REMARK SMILES IDX 23 99
REMARK H PARENT 3 6 87 24 55 35 7 75 28 86 20 96
REMARK Flexibility Score: inf
ROOT
ATOM      1  C   UNL A   1      31.606  31.636  26.664  1.00  0.00     0.042 C 
ENDROOT
BRANCH   1   2
ATOM      2  C   UNL A   1      32.876  32.248  27.236  1.00  0.00     0.118 C 
BRANCH   2   3
ATOM      3  N   UNL A   1      32.697  33.642  27.614  1.00  0.00    -0.352 N 
ATOM      4  O   UNL A   1      32.817  35.466  28.915  1.00  0.00    -0.269 OA
ATOM      5  C   UNL A   1      33.270  34.359  28.632  1.00  0.00     0.251 C 
ATOM      6  H   UNL A   1      32.067  34.149  27.050  1.00  0.00     0.163 HD
BRANCH   5   7
ATOM      7  C   UNL A   1      34.422  33.813  29.381  1.00  0.00     0.039 A 
ATOM      8  C   UNL A   1      35.710  34.234  29.041  1.00  0.00     0.014 A 
ATOM      9  C   UNL A   1      34.243  32.847  30.376  1.00  0.00     0.014 A 
ATOM     10  C   UNL A   1      36.813  33.696  29.707  1.00  0.00     0.010 A 
ATOM     11  C   UNL A   1      35.333  32.388  31.104  1.00  0.00     0.010 A 
ATOM     12  C   UNL A   1      36.632  32.773  30.750  1.00  0.00    -0.014 A 
BRANCH  12  13
ATOM     13  C   UNL A   1      37.788  32.140  31.434  1.00  0.00     0.031 A 
ATOM     14  C   UNL A   1      38.515  31.002  30.770  1.00  0.00     0.074 A 
ATOM     15  C   UNL A   1      38.155  32.553  32.661  1.00  0.00     0.049 A 
ATOM     16  N   UNL A   1      39.510  30.284  31.221  1.00  0.00    -0.248 NA
ATOM     17  C   UNL A   1      38.043  30.598  29.435  1.00  0.00     0.031 C 
ATOM     18  C   UNL A   1      37.501  33.621  33.414  1.00  0.00     0.029 A 
ATOM     19  N   UNL A   1      39.159  32.122  33.492  1.00  0.00    -0.354 N 
ATOM     20  C   UNL A   1      39.766  29.334  30.238  1.00  0.00     0.074 A 
ATOM     21  C   UNL A   1      38.779  29.522  29.200  1.00  0.00     0.031 C 
ATOM     22  C   UNL A   1      38.140  33.785  34.582  1.00  0.00     0.029 A 
ATOM     23  C   UNL A   1      39.214  32.799  34.687  1.00  0.00     0.049 A 
ATOM     24  H   UNL A   1      39.781  31.397  33.254  1.00  0.00     0.167 HD
ATOM     25  C   UNL A   1      40.755  28.412  30.191  1.00  0.00     0.034 A 
ATOM     26  C   UNL A   1      40.030  32.642  35.751  1.00  0.00     0.034 A 
ATOM     27  C   UNL A   1      41.751  28.265  31.220  1.00  0.00     0.049 A 
ATOM     28  C   UNL A   1      41.124  31.606  35.685  1.00  0.00     0.074 A 
ATOM     29  C   UNL A   1      42.841  27.415  31.232  1.00  0.00     0.029 A 
ATOM     30  N   UNL A   1      41.782  28.975  32.412  1.00  0.00    -0.354 N 
ATOM     31  N   UNL A   1      41.416  30.780  34.708  1.00  0.00    -0.248 NA
ATOM     32  C   UNL A   1      42.006  31.485  36.853  1.00  0.00     0.031 C 
ATOM     33  C   UNL A   1      43.480  27.548  32.465  1.00  0.00     0.029 A 
ATOM     34  C   UNL A   1      42.849  28.550  33.187  1.00  0.00     0.049 A 
ATOM     35  H   UNL A   1      41.141  29.677  32.669  1.00  0.00     0.167 HD
ATOM     36  C   UNL A   1      42.527  30.055  35.133  1.00  0.00     0.074 A 
ATOM     37  C   UNL A   1      42.868  30.560  36.447  1.00  0.00     0.031 C 
ATOM     38  C   UNL A   1      43.195  29.061  34.494  1.00  0.00     0.034 A 
BRANCH  25  39
ATOM     39  C   UNL A   1      40.837  27.496  28.992  1.00  0.00     0.023 A 
ATOM     40  C   UNL A   1      41.779  27.752  27.979  1.00  0.00     0.031 A 
ATOM     41  C   UNL A   1      39.914  26.453  28.790  1.00  0.00     0.131 A 
ATOM     42  C   UNL A   1      41.757  26.999  26.799  1.00  0.00     0.055 A 
ATOM     43  C   UNL A   1      39.933  25.668  27.636  1.00  0.00     0.041 A 
ATOM     44  F   UNL A   1      38.988  26.169  29.720  1.00  0.00    -0.206 F 
ATOM     45  C   UNL A   1      40.848  25.951  26.627  1.00  0.00     0.022 A 
BRANCH  42  46
ATOM     46  S   UNL A   1      42.849  27.404  25.409  1.00  0.00     0.124 S 
ATOM     47  O   UNL A   1      44.079  27.790  26.097  1.00  0.00    -0.237 OA
ATOM     48  O   UNL A   1      42.910  26.134  24.690  1.00  0.00    -0.237 OA
ATOM     49  O   UNL A   1      42.156  28.487  24.720  1.00  0.00    -0.744 OA
ENDBRANCH  42  46
ENDBRANCH  25  39
BRANCH  26  50
ATOM     50  C   UNL A   1      39.861  33.554  36.921  1.00  0.00     0.023 A 
ATOM     51  C   UNL A   1      39.265  33.096  38.110  1.00  0.00     0.031 A 
ATOM     52  C   UNL A   1      40.146  34.925  36.809  1.00  0.00     0.131 A 
ATOM     53  C   UNL A   1      38.883  34.015  39.097  1.00  0.00     0.055 A 
ATOM     54  C   UNL A   1      39.839  35.826  37.830  1.00  0.00     0.041 A 
ATOM     55  F   UNL A   1      40.703  35.411  35.689  1.00  0.00    -0.206 F 
ATOM     56  C   UNL A   1      39.183  35.376  38.973  1.00  0.00     0.022 A 
BRANCH  53  57
ATOM     57  S   UNL A   1      37.845  33.498  40.493  1.00  0.00     0.124 S 
ATOM     58  O   UNL A   1      36.631  33.045  39.822  1.00  0.00    -0.237 OA
ATOM     59  O   UNL A   1      38.664  32.448  41.095  1.00  0.00    -0.237 OA
ATOM     60  O   UNL A   1      37.710  34.712  41.291  1.00  0.00    -0.744 OA
ENDBRANCH  53  57
ENDBRANCH  26  50
BRANCH  38  61
ATOM     61  C   UNL A   1      44.379  28.417  35.177  1.00  0.00     0.023 A 
ATOM     62  C   UNL A   1      45.684  28.872  34.897  1.00  0.00     0.031 A 
ATOM     63  C   UNL A   1      44.236  27.249  35.945  1.00  0.00     0.131 A 
ATOM     64  C   UNL A   1      46.790  28.129  35.327  1.00  0.00     0.055 A 
ATOM     65  C   UNL A   1      45.343  26.545  36.422  1.00  0.00     0.041 A 
ATOM     66  F   UNL A   1      43.016  26.765  36.229  1.00  0.00    -0.206 F 
ATOM     67  C   UNL A   1      46.627  26.974  36.097  1.00  0.00     0.022 A 
BRANCH  64  68
ATOM     68  S   UNL A   1      48.472  28.570  34.807  1.00  0.00     0.124 S 
ATOM     69  O   UNL A   1      49.222  27.366  35.159  1.00  0.00    -0.237 OA
ATOM     70  O   UNL A   1      48.300  28.800  33.375  1.00  0.00    -0.237 OA
ATOM     71  O   UNL A   1      48.788  29.753  35.600  1.00  0.00    -0.744 OA
ENDBRANCH  64  68
ENDBRANCH  38  61
ENDBRANCH  12  13
ENDBRANCH   5   7
ENDBRANCH   2   3
ENDBRANCH   1   2
BRANCH   1  72
ATOM     72  C   UNL A   1      31.801  30.238  26.091  1.00  0.00     0.118 C 
BRANCH  72  73
ATOM     73  N   UNL A   1      31.145  30.085  24.800  1.00  0.00    -0.352 N 
ATOM     74  C   UNL A   1      31.170  29.009  23.955  1.00  0.00     0.251 C 
ATOM     75  H   UNL A   1      30.615  30.856  24.495  1.00  0.00     0.163 HD
ATOM     76  O   UNL A   1      30.741  29.082  22.807  1.00  0.00    -0.269 OA
BRANCH  74  77
ATOM     77  C   UNL A   1      31.711  27.736  24.448  1.00  0.00     0.041 A 
ATOM     78  C   UNL A   1      33.096  27.524  24.420  1.00  0.00     0.015 A 
ATOM     79  C   UNL A   1      30.829  26.760  24.925  1.00  0.00     0.040 A 
ATOM     80  C   UNL A   1      33.609  26.315  24.868  1.00  0.00     0.017 A 
ATOM     81  C   UNL A   1      31.352  25.538  25.332  1.00  0.00     0.056 A 
ATOM     82  C   UNL A   1      32.729  25.335  25.330  1.00  0.00     0.064 A 
ATOM     83  N   UNL A   1      30.510  24.493  25.706  1.00  0.00    -0.307 N 
ATOM     84  C   UNL A   1      33.242  24.057  25.830  1.00  0.00     0.264 A 
ATOM     85  C   UNL A   1      30.951  23.218  25.948  1.00  0.00     0.328 A 
ATOM     86  H   UNL A   1      29.548  24.681  25.801  1.00  0.00     0.171 HD
ATOM     87  O   UNL A   1      34.417  23.988  26.176  1.00  0.00    -0.268 OA
ATOM     88  N   UNL A   1      32.323  23.018  25.904  1.00  0.00    -0.260 N 
ATOM     89  O   UNL A   1      30.131  22.336  26.197  1.00  0.00    -0.248 OA
BRANCH  88  90
ATOM     90  C   UNL A   1      32.849  21.676  26.086  1.00  0.00     0.137 C 
BRANCH  90  91
ATOM     91  C   UNL A   1      33.315  21.032  24.771  1.00  0.00     0.083 C 
BRANCH  91  92
ATOM     92  C   UNL A   1      33.702  19.541  24.801  1.00  0.00     0.264 C 
BRANCH  92  93
ATOM     93  N   UNL A   1      32.680  18.534  24.487  1.00  0.00    -0.331 N 
ATOM     94  C   UNL A   1      32.615  17.487  25.536  1.00  0.00     0.291 C 
ATOM     95  C   UNL A   1      32.794  17.859  23.184  1.00  0.00     0.291 C 
ATOM     96  H   UNL A   1      31.828  19.092  24.446  1.00  0.00     0.348 HD
ATOM     97  C   UNL A   1      33.750  16.446  25.433  1.00  0.00     0.221 C 
ATOM     98  C   UNL A   1      33.940  16.844  23.117  1.00  0.00     0.221 C 
ATOM     99  O   UNL A   1      33.802  15.843  24.132  1.00  0.00    -0.370 OA
ENDBRANCH  92  93
ENDBRANCH  91  92
ENDBRANCH  90  91
ENDBRANCH  88  90
ENDBRANCH  74  77
ENDBRANCH  72  73
ENDBRANCH   1  72
TORSDOF 17
ENDMDL
