MODEL 1
REMARK VINA RESULT:     -11.5      0.000      0.000
REMARK SMILES CC(C)[C@H](C[C@H]1Cc2ccccc21)C(=O)NCCCNC(=O)c1ccc(-c2c3nc(c(-c4cc(S(=O)(=O)[O-])ccc4F)c4ccc([nH]4)c(-c4cc(S(=O)(=O)[O-])ccc4F)c4nc(c(-c5cc(S(=O)(=O)[O-])ccc5F)c5ccc2[nH]5)C=C4)C=C3)cc1
REMARK SMILES IDX 18 1 17 2 16 3 14 4 15 5 4 7 2 8 1 9 3 10 5 11 6 12 7 13
REMARK SMILES IDX 13 14 8 15 12 16 9 17 11 18 10 19 19 20 20 21 21 22 22 24
REMARK SMILES IDX 23 25 24 26 85 27 25 28 84 29 26 30 27 31 28 32 78 33 29 34
REMARK SMILES IDX 83 35 77 36 79 37 30 38 82 39 76 40 75 41 31 43 63 44 43 45
REMARK SMILES IDX 62 46 44 47 47 48 61 49 80 50 45 51 46 52 60 54 81 55 48 56
REMARK SMILES IDX 32 57 33 58 41 59 34 60 40 61 42 62 39 63 35 64 36 65 37 66
REMARK SMILES IDX 38 67 64 68 65 69 73 70 66 71 72 72 74 73 71 74 67 75 68 76
REMARK SMILES IDX 69 77 70 78 49 79 50 80 58 81 51 82 57 83 59 84 56 85 52 86
REMARK SMILES IDX 53 87 54 88 55 89
REMARK H PARENT 16 6 20 23 79 42 47 53
REMARK Flexibility Score: inf
ROOT
ATOM      1  C   UNL A   1      32.925  27.835  26.078  1.00  0.00     0.042 C 
ENDROOT
BRANCH   1   2
ATOM      2  C   UNL A   1      33.181  26.464  25.488  1.00  0.00     0.117 C 
BRANCH   2   3
ATOM      3  N   UNL A   1      33.439  26.495  24.066  1.00  0.00    -0.356 N 
ATOM      4  C   UNL A   1      33.840  25.505  23.232  1.00  0.00     0.223 C 
ATOM      5  O   UNL A   1      33.938  25.775  22.031  1.00  0.00    -0.275 OA
ATOM      6  H   UNL A   1      33.302  27.370  23.638  1.00  0.00     0.163 HD
BRANCH   4   7
ATOM      7  C   UNL A   1      34.172  24.100  23.735  1.00  0.00     0.081 C 
BRANCH   7   8
ATOM      8  C   UNL A   1      35.573  23.921  24.396  1.00  0.00    -0.005 C 
ATOM      9  C   UNL A   1      35.653  23.429  25.843  1.00  0.00     0.008 C 
ATOM     10  C   UNL A   1      36.501  23.057  23.529  1.00  0.00     0.008 C 
ENDBRANCH   7   8
BRANCH   7  11
ATOM     11  C   UNL A   1      33.685  23.035  22.725  1.00  0.00     0.022 C 
BRANCH  11  12
ATOM     12  C   UNL A   1      32.628  22.118  23.343  1.00  0.00     0.025 C 
ATOM     13  C   UNL A   1      31.751  21.253  22.355  1.00  0.00     0.044 C 
ATOM     14  C   UNL A   1      33.167  20.792  23.838  1.00  0.00    -0.041 A 
ATOM     15  C   UNL A   1      32.354  20.051  23.015  1.00  0.00    -0.044 A 
ATOM     16  C   UNL A   1      34.053  20.194  24.704  1.00  0.00     0.004 A 
ATOM     17  C   UNL A   1      32.360  18.675  23.012  1.00  0.00     0.004 A 
ATOM     18  C   UNL A   1      34.087  18.794  24.723  1.00  0.00     0.000 A 
ATOM     19  C   UNL A   1      33.241  18.040  23.887  1.00  0.00     0.000 A 
ENDBRANCH  11  12
ENDBRANCH   7  11
ENDBRANCH   4   7
ENDBRANCH   2   3
ENDBRANCH   1   2
BRANCH   1  20
ATOM     20  C   UNL A   1      34.166  28.705  26.181  1.00  0.00     0.118 C 
BRANCH  20  21
ATOM     21  N   UNL A   1      33.867  30.073  26.585  1.00  0.00    -0.352 N 
ATOM     22  C   UNL A   1      34.469  30.879  27.526  1.00  0.00     0.251 C 
ATOM     23  H   UNL A   1      33.113  30.488  26.108  1.00  0.00     0.163 HD
ATOM     24  O   UNL A   1      33.934  31.931  27.845  1.00  0.00    -0.269 OA
BRANCH  22  25
ATOM     25  C   UNL A   1      35.734  30.452  28.167  1.00  0.00     0.039 A 
ATOM     26  C   UNL A   1      35.682  29.771  29.386  1.00  0.00     0.014 A 
ATOM     27  C   UNL A   1      36.966  30.715  27.569  1.00  0.00     0.014 A 
ATOM     28  C   UNL A   1      36.861  29.282  29.956  1.00  0.00     0.010 A 
ATOM     29  C   UNL A   1      38.119  30.126  28.072  1.00  0.00     0.010 A 
ATOM     30  C   UNL A   1      38.084  29.413  29.279  1.00  0.00    -0.014 A 
BRANCH  30  31
ATOM     31  C   UNL A   1      39.341  28.831  29.816  1.00  0.00     0.031 A 
ATOM     32  C   UNL A   1      40.033  29.484  30.985  1.00  0.00     0.074 A 
ATOM     33  C   UNL A   1      39.907  27.775  29.199  1.00  0.00     0.049 A 
ATOM     34  N   UNL A   1      41.184  29.198  31.535  1.00  0.00    -0.248 NA
ATOM     35  C   UNL A   1      39.357  30.647  31.580  1.00  0.00     0.031 C 
ATOM     36  C   UNL A   1      39.371  27.101  28.014  1.00  0.00     0.029 A 
ATOM     37  N   UNL A   1      41.067  27.094  29.470  1.00  0.00    -0.354 N 
ATOM     38  C   UNL A   1      41.384  30.162  32.517  1.00  0.00     0.074 A 
ATOM     39  C   UNL A   1      40.271  31.082  32.431  1.00  0.00     0.031 C 
ATOM     40  C   UNL A   1      40.185  26.088  27.679  1.00  0.00     0.029 A 
ATOM     41  C   UNL A   1      41.322  26.067  28.592  1.00  0.00     0.049 A 
ATOM     42  H   UNL A   1      41.660  27.318  30.224  1.00  0.00     0.167 HD
ATOM     43  C   UNL A   1      42.388  30.255  33.426  1.00  0.00     0.034 A 
ATOM     44  C   UNL A   1      42.362  25.213  28.521  1.00  0.00     0.034 A 
ATOM     45  C   UNL A   1      43.474  29.309  33.510  1.00  0.00     0.049 A 
ATOM     46  C   UNL A   1      43.458  25.317  29.549  1.00  0.00     0.074 A 
ATOM     47  C   UNL A   1      44.496  29.249  34.441  1.00  0.00     0.029 A 
ATOM     48  N   UNL A   1      43.685  28.261  32.621  1.00  0.00    -0.354 N 
ATOM     49  N   UNL A   1      43.597  26.188  30.523  1.00  0.00    -0.248 NA
ATOM     50  C   UNL A   1      44.528  24.315  29.478  1.00  0.00     0.031 C 
ATOM     51  C   UNL A   1      45.360  28.210  34.074  1.00  0.00     0.029 A 
ATOM     52  C   UNL A   1      44.839  27.570  32.962  1.00  0.00     0.049 A 
ATOM     53  H   UNL A   1      43.100  28.040  31.861  1.00  0.00     0.167 HD
ATOM     54  C   UNL A   1      44.761  25.825  31.193  1.00  0.00     0.074 A 
ATOM     55  C   UNL A   1      45.273  24.646  30.522  1.00  0.00     0.031 C 
ATOM     56  C   UNL A   1      45.350  26.410  32.268  1.00  0.00     0.034 A 
BRANCH  43  57
ATOM     57  C   UNL A   1      42.359  31.436  34.372  1.00  0.00     0.023 A 
ATOM     58  C   UNL A   1      41.518  31.461  35.500  1.00  0.00     0.031 A 
ATOM     59  C   UNL A   1      43.135  32.578  34.111  1.00  0.00     0.131 A 
ATOM     60  C   UNL A   1      41.392  32.635  36.257  1.00  0.00     0.055 A 
ATOM     61  C   UNL A   1      43.079  33.711  34.927  1.00  0.00     0.041 A 
ATOM     62  F   UNL A   1      43.945  32.627  33.041  1.00  0.00    -0.206 F 
ATOM     63  C   UNL A   1      42.186  33.753  35.995  1.00  0.00     0.022 A 
BRANCH  60  64
ATOM     64  S   UNL A   1      40.044  32.742  37.467  1.00  0.00     0.124 S 
ATOM     65  O   UNL A   1      40.763  32.559  38.726  1.00  0.00    -0.237 OA
ATOM     66  O   UNL A   1      39.509  34.076  37.225  1.00  0.00    -0.237 OA
ATOM     67  O   UNL A   1      39.163  31.636  37.097  1.00  0.00    -0.744 OA
ENDBRANCH  60  64
ENDBRANCH  43  57
BRANCH  44  68
ATOM     68  C   UNL A   1      42.416  24.191  27.438  1.00  0.00     0.023 A 
ATOM     69  C   UNL A   1      41.808  22.935  27.592  1.00  0.00     0.031 A 
ATOM     70  C   UNL A   1      43.076  24.462  26.225  1.00  0.00     0.131 A 
ATOM     71  C   UNL A   1      41.899  21.983  26.565  1.00  0.00     0.055 A 
ATOM     72  C   UNL A   1      43.126  23.528  25.190  1.00  0.00     0.041 A 
ATOM     73  F   UNL A   1      43.661  25.652  26.023  1.00  0.00    -0.206 F 
ATOM     74  C   UNL A   1      42.543  22.276  25.360  1.00  0.00     0.022 A 
BRANCH  71  75
ATOM     75  S   UNL A   1      41.203  20.332  26.843  1.00  0.00     0.124 S 
ATOM     76  O   UNL A   1      42.321  19.471  26.478  1.00  0.00    -0.237 OA
ATOM     77  O   UNL A   1      40.867  20.380  28.261  1.00  0.00    -0.237 OA
ATOM     78  O   UNL A   1      40.057  20.288  25.936  1.00  0.00    -0.744 OA
ENDBRANCH  71  75
ENDBRANCH  44  68
BRANCH  56  79
ATOM     79  C   UNL A   1      46.602  25.756  32.799  1.00  0.00     0.023 A 
ATOM     80  C   UNL A   1      47.848  25.921  32.168  1.00  0.00     0.031 A 
ATOM     81  C   UNL A   1      46.545  24.945  33.947  1.00  0.00     0.131 A 
ATOM     82  C   UNL A   1      48.973  25.240  32.656  1.00  0.00     0.055 A 
ATOM     83  C   UNL A   1      47.680  24.321  34.464  1.00  0.00     0.041 A 
ATOM     84  F   UNL A   1      45.380  24.750  34.588  1.00  0.00    -0.206 F 
ATOM     85  C   UNL A   1      48.901  24.455  33.810  1.00  0.00     0.022 A 
BRANCH  82  86
ATOM     86  S   UNL A   1      50.516  25.313  31.704  1.00  0.00     0.124 S 
ATOM     87  O   UNL A   1      50.061  25.862  30.431  1.00  0.00    -0.237 OA
ATOM     88  O   UNL A   1      51.343  26.196  32.519  1.00  0.00    -0.237 OA
ATOM     89  O   UNL A   1      50.956  23.920  31.657  1.00  0.00    -0.744 OA
ENDBRANCH  82  86
ENDBRANCH  56  79
ENDBRANCH  30  31
ENDBRANCH  22  25
ENDBRANCH  20  21
ENDBRANCH   1  20
TORSDOF 16
ENDMDL
MODEL 2
REMARK VINA RESULT:     -11.4      3.058      8.787
REMARK SMILES CC(C)[C@H](C[C@H]1Cc2ccccc21)C(=O)NCCCNC(=O)c1ccc(-c2c3nc(c(-c4cc(S(=O)(=O)[O-])ccc4F)c4ccc([nH]4)c(-c4cc(S(=O)(=O)[O-])ccc4F)c4nc(c(-c5cc(S(=O)(=O)[O-])ccc5F)c5ccc2[nH]5)C=C4)C=C3)cc1
REMARK SMILES IDX 18 1 17 2 16 3 14 4 15 5 4 7 2 8 1 9 3 10 5 11 6 12 7 13
REMARK SMILES IDX 13 14 8 15 12 16 9 17 11 18 10 19 19 20 20 21 21 22 22 24
REMARK SMILES IDX 23 25 24 26 85 27 25 28 84 29 26 30 27 31 28 32 78 33 29 34
REMARK SMILES IDX 83 35 77 36 79 37 30 38 82 39 76 40 75 41 31 43 63 44 43 45
REMARK SMILES IDX 62 46 44 47 47 48 61 49 80 50 45 51 46 52 60 54 81 55 48 56
REMARK SMILES IDX 32 57 33 58 41 59 34 60 40 61 42 62 39 63 35 64 36 65 37 66
REMARK SMILES IDX 38 67 64 68 65 69 73 70 66 71 72 72 74 73 71 74 67 75 68 76
REMARK SMILES IDX 69 77 70 78 49 79 50 80 58 81 51 82 57 83 59 84 56 85 52 86
REMARK SMILES IDX 53 87 54 88 55 89
REMARK H PARENT 16 6 20 23 79 42 47 53
REMARK Flexibility Score: inf
ROOT
ATOM      1  C   UNL A   1      31.035  31.469  25.787  1.00  0.00     0.042 C 
ENDROOT
BRANCH   1   2
ATOM      2  C   UNL A   1      31.122  30.074  25.202  1.00  0.00     0.117 C 
BRANCH   2   3
ATOM      3  N   UNL A   1      32.279  29.884  24.357  1.00  0.00    -0.356 N 
ATOM      4  C   UNL A   1      33.167  28.861  24.313  1.00  0.00     0.223 C 
ATOM      5  O   UNL A   1      34.050  28.908  23.451  1.00  0.00    -0.275 OA
ATOM      6  H   UNL A   1      32.447  30.610  23.714  1.00  0.00     0.163 HD
BRANCH   4   7
ATOM      7  C   UNL A   1      33.103  27.685  25.287  1.00  0.00     0.081 C 
BRANCH   7   8
ATOM      8  C   UNL A   1      33.562  27.978  26.749  1.00  0.00    -0.005 C 
ATOM      9  C   UNL A   1      34.624  29.053  26.990  1.00  0.00     0.008 C 
ATOM     10  C   UNL A   1      32.366  28.248  27.674  1.00  0.00     0.008 C 
ENDBRANCH   7   8
BRANCH   7  11
ATOM     11  C   UNL A   1      33.591  26.388  24.601  1.00  0.00     0.022 C 
BRANCH  11  12
ATOM     12  C   UNL A   1      34.140  25.387  25.620  1.00  0.00     0.025 C 
ATOM     13  C   UNL A   1      33.139  24.309  26.191  1.00  0.00     0.044 C 
ATOM     14  C   UNL A   1      34.871  24.212  25.007  1.00  0.00    -0.041 A 
ATOM     15  C   UNL A   1      34.026  23.280  25.560  1.00  0.00    -0.044 A 
ATOM     16  C   UNL A   1      35.933  23.839  24.215  1.00  0.00     0.004 A 
ATOM     17  C   UNL A   1      34.190  21.928  25.373  1.00  0.00     0.004 A 
ATOM     18  C   UNL A   1      36.127  22.469  24.001  1.00  0.00     0.000 A 
ATOM     19  C   UNL A   1      35.265  21.519  24.582  1.00  0.00     0.000 A 
ENDBRANCH  11  12
ENDBRANCH   7  11
ENDBRANCH   4   7
ENDBRANCH   2   3
ENDBRANCH   1   2
BRANCH   1  20
ATOM     20  C   UNL A   1      32.204  31.837  26.684  1.00  0.00     0.118 C 
BRANCH  20  21
ATOM     21  N   UNL A   1      32.200  33.242  27.072  1.00  0.00    -0.352 N 
ATOM     22  C   UNL A   1      33.020  33.933  27.936  1.00  0.00     0.251 C 
ATOM     23  H   UNL A   1      31.497  33.785  26.646  1.00  0.00     0.163 HD
ATOM     24  O   UNL A   1      32.719  35.071  28.268  1.00  0.00    -0.269 OA
BRANCH  22  25
ATOM     25  C   UNL A   1      34.234  33.286  28.483  1.00  0.00     0.039 A 
ATOM     26  C   UNL A   1      35.457  33.954  28.399  1.00  0.00     0.014 A 
ATOM     27  C   UNL A   1      34.168  32.027  29.082  1.00  0.00     0.014 A 
ATOM     28  C   UNL A   1      36.593  33.396  28.993  1.00  0.00     0.010 A 
ATOM     29  C   UNL A   1      35.266  31.533  29.774  1.00  0.00     0.010 A 
ATOM     30  C   UNL A   1      36.496  32.204  29.728  1.00  0.00    -0.014 A 
BRANCH  30  31
ATOM     31  C   UNL A   1      37.665  31.628  30.442  1.00  0.00     0.031 A 
ATOM     32  C   UNL A   1      38.534  30.605  29.759  1.00  0.00     0.074 A 
ATOM     33  C   UNL A   1      37.890  31.955  31.730  1.00  0.00     0.049 A 
ATOM     34  N   UNL A   1      39.532  29.909  30.239  1.00  0.00    -0.248 NA
ATOM     35  C   UNL A   1      38.200  30.288  28.362  1.00  0.00     0.031 C 
ATOM     36  C   UNL A   1      37.076  32.879  32.523  1.00  0.00     0.029 A 
ATOM     37  N   UNL A   1      38.860  31.536  32.605  1.00  0.00    -0.354 N 
ATOM     38  C   UNL A   1      39.923  29.052  29.214  1.00  0.00     0.074 A 
ATOM     39  C   UNL A   1      39.003  29.266  28.118  1.00  0.00     0.031 C 
ATOM     40  C   UNL A   1      37.596  32.976  33.757  1.00  0.00     0.029 A 
ATOM     41  C   UNL A   1      38.750  32.090  33.859  1.00  0.00     0.049 A 
ATOM     42  H   UNL A   1      39.570  30.899  32.359  1.00  0.00     0.167 HD
ATOM     43  C   UNL A   1      40.970  28.189  29.180  1.00  0.00     0.034 A 
ATOM     44  C   UNL A   1      39.486  31.896  34.971  1.00  0.00     0.034 A 
ATOM     45  C   UNL A   1      41.890  28.013  30.276  1.00  0.00     0.049 A 
ATOM     46  C   UNL A   1      40.655  30.949  34.911  1.00  0.00     0.074 A 
ATOM     47  C   UNL A   1      43.035  27.237  30.325  1.00  0.00     0.029 A 
ATOM     48  N   UNL A   1      41.766  28.615  31.523  1.00  0.00    -0.354 N 
ATOM     49  N   UNL A   1      41.062  30.202  33.910  1.00  0.00    -0.248 NA
ATOM     50  C   UNL A   1      41.475  30.833  36.123  1.00  0.00     0.031 C 
ATOM     51  C   UNL A   1      43.561  27.316  31.621  1.00  0.00     0.029 A 
ATOM     52  C   UNL A   1      42.793  28.201  32.359  1.00  0.00     0.049 A 
ATOM     53  H   UNL A   1      41.053  29.244  31.776  1.00  0.00     0.167 HD
ATOM     54  C   UNL A   1      42.197  29.540  34.367  1.00  0.00     0.074 A 
ATOM     55  C   UNL A   1      42.419  29.993  35.726  1.00  0.00     0.031 C 
ATOM     56  C   UNL A   1      42.987  28.644  33.721  1.00  0.00     0.034 A 
BRANCH  43  57
ATOM     57  C   UNL A   1      41.143  27.360  27.926  1.00  0.00     0.023 A 
ATOM     58  C   UNL A   1      40.789  25.999  27.882  1.00  0.00     0.031 A 
ATOM     59  C   UNL A   1      41.726  27.920  26.775  1.00  0.00     0.131 A 
ATOM     60  C   UNL A   1      41.118  25.222  26.762  1.00  0.00     0.055 A 
ATOM     61  C   UNL A   1      41.962  27.163  25.625  1.00  0.00     0.041 A 
ATOM     62  F   UNL A   1      42.102  29.208  26.757  1.00  0.00    -0.206 F 
ATOM     63  C   UNL A   1      41.678  25.800  25.621  1.00  0.00     0.022 A 
BRANCH  60  64
ATOM     64  S   UNL A   1      40.976  23.417  26.890  1.00  0.00     0.124 S 
ATOM     65  O   UNL A   1      39.560  23.212  26.595  1.00  0.00    -0.237 OA
ATOM     66  O   UNL A   1      41.914  22.955  25.874  1.00  0.00    -0.237 OA
ATOM     67  O   UNL A   1      41.362  23.140  28.272  1.00  0.00    -0.744 OA
ENDBRANCH  60  64
ENDBRANCH  43  57
BRANCH  44  68
ATOM     68  C   UNL A   1      39.135  32.609  36.231  1.00  0.00     0.023 A 
ATOM     69  C   UNL A   1      39.622  33.899  36.496  1.00  0.00     0.031 A 
ATOM     70  C   UNL A   1      38.302  32.007  37.192  1.00  0.00     0.131 A 
ATOM     71  C   UNL A   1      39.297  34.535  37.705  1.00  0.00     0.055 A 
ATOM     72  C   UNL A   1      37.947  32.661  38.372  1.00  0.00     0.041 A 
ATOM     73  F   UNL A   1      37.801  30.780  36.980  1.00  0.00    -0.206 F 
ATOM     74  C   UNL A   1      38.453  33.929  38.638  1.00  0.00     0.022 A 
BRANCH  71  75
ATOM     75  S   UNL A   1      40.034  36.152  38.064  1.00  0.00     0.124 S 
ATOM     76  O   UNL A   1      39.078  36.713  39.010  1.00  0.00    -0.237 OA
ATOM     77  O   UNL A   1      41.334  35.778  38.611  1.00  0.00    -0.237 OA
ATOM     78  O   UNL A   1      40.077  36.805  36.756  1.00  0.00    -0.744 OA
ENDBRANCH  71  75
ENDBRANCH  44  68
BRANCH  56  79
ATOM     79  C   UNL A   1      44.184  28.121  34.477  1.00  0.00     0.023 A 
ATOM     80  C   UNL A   1      44.111  26.961  35.269  1.00  0.00     0.031 A 
ATOM     81  C   UNL A   1      45.414  28.800  34.412  1.00  0.00     0.131 A 
ATOM     82  C   UNL A   1      45.229  26.549  36.008  1.00  0.00     0.055 A 
ATOM     83  C   UNL A   1      46.541  28.349  35.100  1.00  0.00     0.041 A 
ATOM     84  F   UNL A   1      45.540  29.915  33.674  1.00  0.00    -0.206 F 
ATOM     85  C   UNL A   1      46.448  27.225  35.916  1.00  0.00     0.022 A 
BRANCH  82  86
ATOM     86  S   UNL A   1      45.043  25.171  37.173  1.00  0.00     0.124 S 
ATOM     87  O   UNL A   1      43.624  24.854  37.044  1.00  0.00    -0.237 OA
ATOM     88  O   UNL A   1      45.968  24.180  36.634  1.00  0.00    -0.237 OA
ATOM     89  O   UNL A   1      45.435  25.751  38.456  1.00  0.00    -0.744 OA
ENDBRANCH  82  86
ENDBRANCH  56  79
ENDBRANCH  30  31
ENDBRANCH  22  25
ENDBRANCH  20  21
ENDBRANCH   1  20
TORSDOF 16
ENDMDL
MODEL 3
REMARK VINA RESULT:     -11.3      4.560      9.604
REMARK SMILES CC(C)[C@H](C[C@H]1Cc2ccccc21)C(=O)NCCCNC(=O)c1ccc(-c2c3nc(c(-c4cc(S(=O)(=O)[O-])ccc4F)c4ccc([nH]4)c(-c4cc(S(=O)(=O)[O-])ccc4F)c4nc(c(-c5cc(S(=O)(=O)[O-])ccc5F)c5ccc2[nH]5)C=C4)C=C3)cc1
REMARK SMILES IDX 18 1 17 2 16 3 14 4 15 5 4 7 2 8 1 9 3 10 5 11 6 12 7 13
REMARK SMILES IDX 13 14 8 15 12 16 9 17 11 18 10 19 19 20 20 21 21 22 22 24
REMARK SMILES IDX 23 25 24 26 85 27 25 28 84 29 26 30 27 31 28 32 78 33 29 34
REMARK SMILES IDX 83 35 77 36 79 37 30 38 82 39 76 40 75 41 31 43 63 44 43 45
REMARK SMILES IDX 62 46 44 47 47 48 61 49 80 50 45 51 46 52 60 54 81 55 48 56
REMARK SMILES IDX 32 57 33 58 41 59 34 60 40 61 42 62 39 63 35 64 36 65 37 66
REMARK SMILES IDX 38 67 64 68 65 69 73 70 66 71 72 72 74 73 71 74 67 75 68 76
REMARK SMILES IDX 69 77 70 78 49 79 50 80 58 81 51 82 57 83 59 84 56 85 52 86
REMARK SMILES IDX 53 87 54 88 55 89
REMARK H PARENT 16 6 20 23 79 42 47 53
REMARK Flexibility Score: inf
ROOT
ATOM      1  C   UNL A   1      35.231  23.235  26.410  1.00  0.00     0.042 C 
ENDROOT
BRANCH   1   2
ATOM      2  C   UNL A   1      34.087  24.055  25.850  1.00  0.00     0.117 C 
BRANCH   2   3
ATOM      3  N   UNL A   1      32.821  23.774  26.488  1.00  0.00    -0.356 N 
ATOM      4  C   UNL A   1      31.712  24.544  26.599  1.00  0.00     0.223 C 
ATOM      5  O   UNL A   1      30.726  24.049  27.152  1.00  0.00    -0.275 OA
ATOM      6  H   UNL A   1      32.755  22.886  26.908  1.00  0.00     0.163 HD
BRANCH   4   7
ATOM      7  C   UNL A   1      31.660  25.978  26.072  1.00  0.00     0.081 C 
BRANCH   7   8
ATOM      8  C   UNL A   1      32.445  27.043  26.900  1.00  0.00    -0.005 C 
ATOM      9  C   UNL A   1      33.679  27.702  26.279  1.00  0.00     0.008 C 
ATOM     10  C   UNL A   1      31.515  28.141  27.436  1.00  0.00     0.008 C 
ENDBRANCH   7   8
BRANCH   7  11
ATOM     11  C   UNL A   1      30.235  26.323  25.581  1.00  0.00     0.022 C 
BRANCH  11  12
ATOM     12  C   UNL A   1      30.254  26.889  24.160  1.00  0.00     0.025 C 
ATOM     13  C   UNL A   1      30.437  28.449  24.002  1.00  0.00     0.044 C 
ATOM     14  C   UNL A   1      31.594  26.780  23.463  1.00  0.00    -0.041 A 
ATOM     15  C   UNL A   1      31.711  28.137  23.280  1.00  0.00    -0.044 A 
ATOM     16  C   UNL A   1      32.562  25.908  23.024  1.00  0.00     0.004 A 
ATOM     17  C   UNL A   1      32.786  28.707  22.638  1.00  0.00     0.004 A 
ATOM     18  C   UNL A   1      33.673  26.455  22.370  1.00  0.00     0.000 A 
ATOM     19  C   UNL A   1      33.781  27.846  22.173  1.00  0.00     0.000 A 
ENDBRANCH  11  12
ENDBRANCH   7  11
ENDBRANCH   4   7
ENDBRANCH   2   3
ENDBRANCH   1   2
BRANCH   1  20
ATOM     20  C   UNL A   1      36.602  23.674  25.923  1.00  0.00     0.118 C 
BRANCH  20  21
ATOM     21  N   UNL A   1      37.601  22.617  26.015  1.00  0.00    -0.352 N 
ATOM     22  C   UNL A   1      38.942  22.680  26.320  1.00  0.00     0.251 C 
ATOM     23  H   UNL A   1      37.262  21.711  25.830  1.00  0.00     0.163 HD
ATOM     24  O   UNL A   1      39.643  21.692  26.151  1.00  0.00    -0.269 OA
BRANCH  22  25
ATOM     25  C   UNL A   1      39.532  23.945  26.814  1.00  0.00     0.039 A 
ATOM     26  C   UNL A   1      40.073  24.847  25.894  1.00  0.00     0.014 A 
ATOM     27  C   UNL A   1      39.549  24.246  28.176  1.00  0.00     0.014 A 
ATOM     28  C   UNL A   1      40.548  26.085  26.337  1.00  0.00     0.010 A 
ATOM     29  C   UNL A   1      39.909  25.519  28.598  1.00  0.00     0.010 A 
ATOM     30  C   UNL A   1      40.425  26.451  27.687  1.00  0.00    -0.014 A 
BRANCH  30  31
ATOM     31  C   UNL A   1      40.844  27.790  28.175  1.00  0.00     0.031 A 
ATOM     32  C   UNL A   1      42.308  28.126  28.286  1.00  0.00     0.074 A 
ATOM     33  C   UNL A   1      39.914  28.667  28.603  1.00  0.00     0.049 A 
ATOM     34  N   UNL A   1      42.880  29.193  28.783  1.00  0.00    -0.248 NA
ATOM     35  C   UNL A   1      43.254  27.101  27.821  1.00  0.00     0.031 C 
ATOM     36  C   UNL A   1      38.469  28.429  28.614  1.00  0.00     0.029 A 
ATOM     37  N   UNL A   1      40.045  29.928  29.128  1.00  0.00    -0.354 N 
ATOM     38  C   UNL A   1      44.249  28.952  28.718  1.00  0.00     0.074 A 
ATOM     39  C   UNL A   1      44.413  27.609  28.205  1.00  0.00     0.031 C 
ATOM     40  C   UNL A   1      37.847  29.517  29.094  1.00  0.00     0.029 A 
ATOM     41  C   UNL A   1      38.847  30.512  29.469  1.00  0.00     0.049 A 
ATOM     42  H   UNL A   1      40.914  30.374  29.249  1.00  0.00     0.167 HD
ATOM     43  C   UNL A   1      45.275  29.785  29.029  1.00  0.00     0.034 A 
ATOM     44  C   UNL A   1      38.583  31.707  30.031  1.00  0.00     0.034 A 
ATOM     45  C   UNL A   1      45.087  31.130  29.512  1.00  0.00     0.049 A 
ATOM     46  C   UNL A   1      39.731  32.627  30.352  1.00  0.00     0.074 A 
ATOM     47  C   UNL A   1      46.044  32.095  29.775  1.00  0.00     0.029 A 
ATOM     48  N   UNL A   1      43.856  31.701  29.817  1.00  0.00    -0.354 N 
ATOM     49  N   UNL A   1      41.021  32.417  30.213  1.00  0.00    -0.248 NA
ATOM     50  C   UNL A   1      39.389  33.949  30.890  1.00  0.00     0.031 C 
ATOM     51  C   UNL A   1      45.398  33.220  30.303  1.00  0.00     0.029 A 
ATOM     52  C   UNL A   1      44.032  32.991  30.296  1.00  0.00     0.049 A 
ATOM     53  H   UNL A   1      42.986  31.255  29.706  1.00  0.00     0.167 HD
ATOM     54  C   UNL A   1      41.643  33.590  30.629  1.00  0.00     0.074 A 
ATOM     55  C   UNL A   1      40.585  34.508  31.005  1.00  0.00     0.031 C 
ATOM     56  C   UNL A   1      42.967  33.885  30.690  1.00  0.00     0.034 A 
BRANCH  43  57
ATOM     57  C   UNL A   1      46.679  29.241  28.877  1.00  0.00     0.023 A 
ATOM     58  C   UNL A   1      47.318  29.180  27.625  1.00  0.00     0.031 A 
ATOM     59  C   UNL A   1      47.366  28.719  29.987  1.00  0.00     0.131 A 
ATOM     60  C   UNL A   1      48.548  28.517  27.495  1.00  0.00     0.055 A 
ATOM     61  C   UNL A   1      48.635  28.147  29.867  1.00  0.00     0.041 A 
ATOM     62  F   UNL A   1      46.805  28.729  31.206  1.00  0.00    -0.206 F 
ATOM     63  C   UNL A   1      49.224  28.023  28.612  1.00  0.00     0.022 A 
BRANCH  60  64
ATOM     64  S   UNL A   1      49.157  28.146  25.826  1.00  0.00     0.124 S 
ATOM     65  O   UNL A   1      47.964  28.387  25.017  1.00  0.00    -0.237 OA
ATOM     66  O   UNL A   1      50.241  29.106  25.667  1.00  0.00    -0.237 OA
ATOM     67  O   UNL A   1      49.567  26.746  25.914  1.00  0.00    -0.744 OA
ENDBRANCH  60  64
ENDBRANCH  43  57
BRANCH  44  68
ATOM     68  C   UNL A   1      37.176  32.097  30.329  1.00  0.00     0.023 A 
ATOM     69  C   UNL A   1      36.309  32.522  29.310  1.00  0.00     0.031 A 
ATOM     70  C   UNL A   1      36.678  32.047  31.643  1.00  0.00     0.131 A 
ATOM     71  C   UNL A   1      34.997  32.910  29.625  1.00  0.00     0.055 A 
ATOM     72  C   UNL A   1      35.360  32.392  31.945  1.00  0.00     0.041 A 
ATOM     73  F   UNL A   1      37.463  31.635  32.651  1.00  0.00    -0.206 F 
ATOM     74  C   UNL A   1      34.513  32.835  30.933  1.00  0.00     0.022 A 
BRANCH  71  75
ATOM     75  S   UNL A   1      33.940  33.561  28.303  1.00  0.00     0.124 S 
ATOM     76  O   UNL A   1      33.475  32.337  27.662  1.00  0.00    -0.237 OA
ATOM     77  O   UNL A   1      32.940  34.310  29.056  1.00  0.00    -0.237 OA
ATOM     78  O   UNL A   1      34.855  34.376  27.506  1.00  0.00    -0.744 OA
ENDBRANCH  71  75
ENDBRANCH  44  68
BRANCH  56  79
ATOM     79  C   UNL A   1      43.336  35.273  31.154  1.00  0.00     0.023 A 
ATOM     80  C   UNL A   1      43.499  36.337  30.250  1.00  0.00     0.031 A 
ATOM     81  C   UNL A   1      43.540  35.531  32.522  1.00  0.00     0.131 A 
ATOM     82  C   UNL A   1      43.909  37.595  30.718  1.00  0.00     0.055 A 
ATOM     83  C   UNL A   1      43.886  36.799  32.988  1.00  0.00     0.041 A 
ATOM     84  F   UNL A   1      43.402  34.550  33.430  1.00  0.00    -0.206 F 
ATOM     85  C   UNL A   1      44.087  37.837  32.082  1.00  0.00     0.022 A 
BRANCH  82  86
ATOM     86  S   UNL A   1      44.304  38.887  29.508  1.00  0.00     0.124 S 
ATOM     87  O   UNL A   1      43.186  38.782  28.575  1.00  0.00    -0.237 OA
ATOM     88  O   UNL A   1      44.333  40.089  30.335  1.00  0.00    -0.237 OA
ATOM     89  O   UNL A   1      45.599  38.472  28.973  1.00  0.00    -0.744 OA
ENDBRANCH  82  86
ENDBRANCH  56  79
ENDBRANCH  30  31
ENDBRANCH  22  25
ENDBRANCH  20  21
ENDBRANCH   1  20
TORSDOF 16
ENDMDL
