MODEL 1
REMARK VINA RESULT:     -11.8      0.000      0.000
REMARK SMILES Nc1nc(CC(=O)NC2(CC(=O)NCCCNC(=O)c3ccc(-c4c5nc(c(-c6cc(S(=O)(=O)[O-])ccc6F)c6ccc([nH]6)c(-c6cc(S(=O)(=O)[O-])ccc6F)c6nc(c(-c7cc(S(=O)(=O)[O-])ccc7F)c7ccc4[nH]7)C=C6)C=C5)cc3)CCC2)cs1
REMARK SMILES IDX 14 1 13 2 11 3 12 4 10 6 9 7 83 8 85 9 84 10 8 11 6 12 7 13
REMARK SMILES IDX 5 15 4 16 2 17 3 18 87 19 86 20 1 21 15 24 16 25 17 26 18 27
REMARK SMILES IDX 19 29 20 30 21 31 82 32 22 33 81 34 23 35 24 36 25 37 75 38
REMARK SMILES IDX 26 39 80 40 74 41 76 42 27 43 79 44 73 45 72 46 28 48 60 49
REMARK SMILES IDX 40 50 59 51 41 52 44 53 58 54 77 55 42 56 43 57 57 59 78 60
REMARK SMILES IDX 45 61 29 62 30 63 38 64 31 65 37 66 39 67 36 68 32 69 33 70
REMARK SMILES IDX 34 71 35 72 61 73 62 74 70 75 63 76 69 77 71 78 68 79 64 80
REMARK SMILES IDX 65 81 66 82 67 83 46 84 47 85 55 86 48 87 54 88 56 89 53 90
REMARK SMILES IDX 49 91 50 92 51 93 52 94
REMARK H PARENT 13 5 8 14 1 22 1 23 17 28 76 47 44 58
REMARK Flexibility Score: inf
ROOT
ATOM      1  C   UNL A   1      31.618  30.732  26.076  1.00  0.00     0.117 C 
ENDROOT
BRANCH   1   2
ATOM      2  N   UNL A   1      32.002  29.734  27.054  1.00  0.00    -0.356 N 
ATOM      3  C   UNL A   1      31.626  28.425  27.078  1.00  0.00     0.222 C 
ATOM      4  O   UNL A   1      31.471  27.894  28.176  1.00  0.00    -0.275 OA
ATOM      5  H   UNL A   1      32.598  30.034  27.778  1.00  0.00     0.163 HD
BRANCH   3   6
ATOM      6  C   UNL A   1      31.547  27.668  25.778  1.00  0.00     0.128 C 
BRANCH   6   7
ATOM      7  C   UNL A   1      32.080  26.236  25.728  1.00  0.00     0.049 C 
ATOM      8  C   UNL A   1      33.642  26.121  25.830  1.00  0.00     0.029 C 
ATOM      9  C   UNL A   1      32.266  25.680  24.268  1.00  0.00     0.029 C 
ATOM     10  C   UNL A   1      33.714  26.190  24.297  1.00  0.00     0.005 C 
BRANCH   7  11
ATOM     11  N   UNL A   1      31.397  25.240  26.588  1.00  0.00    -0.350 N 
ATOM     12  C   UNL A   1      31.688  23.951  26.939  1.00  0.00     0.226 C 
ATOM     13  O   UNL A   1      30.780  23.302  27.475  1.00  0.00    -0.275 OA
ATOM     14  H   UNL A   1      30.562  25.576  26.988  1.00  0.00     0.164 HD
BRANCH  12  15
ATOM     15  C   UNL A   1      33.046  23.321  26.730  1.00  0.00     0.157 C 
BRANCH  15  16
ATOM     16  C   UNL A   1      33.039  22.124  25.846  1.00  0.00     0.063 A 
ATOM     17  C   UNL A   1      33.982  20.265  25.085  1.00  0.00     0.180 A 
ATOM     18  N   UNL A   1      34.088  21.224  25.964  1.00  0.00    -0.225 NA
ATOM     19  S   UNL A   1      32.552  20.304  24.141  1.00  0.00    -0.106 S 
ATOM     20  C   UNL A   1      32.079  21.755  24.926  1.00  0.00     0.093 A 
BRANCH  17  21
ATOM     21  N   UNL A   1      34.933  19.342  24.919  1.00  0.00    -0.375 N 
ATOM     22  H   UNL A   1      34.921  18.521  25.461  1.00  0.00     0.159 HD
ATOM     23  H   UNL A   1      35.646  19.484  24.254  1.00  0.00     0.159 HD
ENDBRANCH  17  21
ENDBRANCH  15  16
ENDBRANCH  12  15
ENDBRANCH   7  11
ENDBRANCH   6   7
ENDBRANCH   3   6
ENDBRANCH   1   2
BRANCH   1  24
ATOM     24  C   UNL A   1      31.437  32.086  26.755  1.00  0.00     0.042 C 
BRANCH  24  25
ATOM     25  C   UNL A   1      32.721  32.626  27.372  1.00  0.00     0.118 C 
BRANCH  25  26
ATOM     26  N   UNL A   1      32.622  34.049  27.645  1.00  0.00    -0.352 N 
ATOM     27  C   UNL A   1      33.165  34.771  28.676  1.00  0.00     0.251 C 
ATOM     28  H   UNL A   1      32.089  34.567  27.000  1.00  0.00     0.163 HD
ATOM     29  O   UNL A   1      32.697  35.871  28.948  1.00  0.00    -0.269 OA
BRANCH  27  30
ATOM     30  C   UNL A   1      34.297  34.219  29.453  1.00  0.00     0.039 A 
ATOM     31  C   UNL A   1      35.596  34.373  28.962  1.00  0.00     0.014 A 
ATOM     32  C   UNL A   1      34.078  33.497  30.630  1.00  0.00     0.014 A 
ATOM     33  C   UNL A   1      36.669  33.819  29.660  1.00  0.00     0.010 A 
ATOM     34  C   UNL A   1      35.154  33.036  31.377  1.00  0.00     0.010 A 
ATOM     35  C   UNL A   1      36.459  33.154  30.879  1.00  0.00    -0.014 A 
BRANCH  35  36
ATOM     36  C   UNL A   1      37.575  32.490  31.599  1.00  0.00     0.031 A 
ATOM     37  C   UNL A   1      38.342  31.384  30.917  1.00  0.00     0.074 A 
ATOM     38  C   UNL A   1      37.863  32.845  32.867  1.00  0.00     0.049 A 
ATOM     39  N   UNL A   1      39.297  30.625  31.387  1.00  0.00    -0.248 NA
ATOM     40  C   UNL A   1      37.954  31.063  29.533  1.00  0.00     0.031 C 
ATOM     41  C   UNL A   1      37.152  33.861  33.645  1.00  0.00     0.029 A 
ATOM     42  N   UNL A   1      38.824  32.382  33.729  1.00  0.00    -0.354 N 
ATOM     43  C   UNL A   1      39.596  29.718  30.375  1.00  0.00     0.074 A 
ATOM     44  C   UNL A   1      38.684  29.987  29.286  1.00  0.00     0.031 C 
ATOM     45  C   UNL A   1      37.715  33.960  34.860  1.00  0.00     0.029 A 
ATOM     46  C   UNL A   1      38.802  32.992  34.962  1.00  0.00     0.049 A 
ATOM     47  H   UNL A   1      39.470  31.680  33.488  1.00  0.00     0.167 HD
ATOM     48  C   UNL A   1      40.558  28.764  30.347  1.00  0.00     0.034 A 
ATOM     49  C   UNL A   1      39.570  32.788  36.051  1.00  0.00     0.034 A 
ATOM     50  C   UNL A   1      41.494  28.549  31.422  1.00  0.00     0.049 A 
ATOM     51  C   UNL A   1      40.676  31.765  35.969  1.00  0.00     0.074 A 
ATOM     52  C   UNL A   1      42.556  27.665  31.476  1.00  0.00     0.029 A 
ATOM     53  N   UNL A   1      41.483  29.234  32.629  1.00  0.00    -0.354 N 
ATOM     54  N   UNL A   1      40.985  30.958  34.979  1.00  0.00    -0.248 NA
ATOM     55  C   UNL A   1      41.555  31.645  37.138  1.00  0.00     0.031 C 
ATOM     56  C   UNL A   1      43.156  27.779  32.735  1.00  0.00     0.029 A 
ATOM     57  C   UNL A   1      42.512  28.784  33.439  1.00  0.00     0.049 A 
ATOM     58  H   UNL A   1      40.840  29.938  32.873  1.00  0.00     0.167 HD
ATOM     59  C   UNL A   1      42.118  30.265  35.395  1.00  0.00     0.074 A 
ATOM     60  C   UNL A   1      42.447  30.762  36.715  1.00  0.00     0.031 C 
ATOM     61  C   UNL A   1      42.827  29.303  34.749  1.00  0.00     0.034 A 
BRANCH  48  62
ATOM     62  C   UNL A   1      40.632  27.875  29.129  1.00  0.00     0.023 A 
ATOM     63  C   UNL A   1      41.559  28.105  28.096  1.00  0.00     0.031 A 
ATOM     64  C   UNL A   1      39.757  26.783  28.997  1.00  0.00     0.131 A 
ATOM     65  C   UNL A   1      41.545  27.294  26.950  1.00  0.00     0.055 A 
ATOM     66  C   UNL A   1      39.799  25.934  27.890  1.00  0.00     0.041 A 
ATOM     67  F   UNL A   1      38.837  26.526  29.941  1.00  0.00    -0.206 F 
ATOM     68  C   UNL A   1      40.689  26.194  26.851  1.00  0.00     0.022 A 
BRANCH  65  69
ATOM     69  S   UNL A   1      42.586  27.763  25.541  1.00  0.00     0.124 S 
ATOM     70  O   UNL A   1      42.484  26.576  24.695  1.00  0.00    -0.237 OA
ATOM     71  O   UNL A   1      41.923  28.962  25.042  1.00  0.00    -0.237 OA
ATOM     72  O   UNL A   1      43.899  27.981  26.143  1.00  0.00    -0.744 OA
ENDBRANCH  65  69
ENDBRANCH  48  62
BRANCH  49  73
ATOM     73  C   UNL A   1      39.335  33.558  37.306  1.00  0.00     0.023 A 
ATOM     74  C   UNL A   1      39.967  34.793  37.527  1.00  0.00     0.031 A 
ATOM     75  C   UNL A   1      38.523  33.042  38.331  1.00  0.00     0.131 A 
ATOM     76  C   UNL A   1      39.830  35.437  38.767  1.00  0.00     0.055 A 
ATOM     77  C   UNL A   1      38.344  33.715  39.542  1.00  0.00     0.041 A 
ATOM     78  F   UNL A   1      37.886  31.870  38.169  1.00  0.00    -0.206 F 
ATOM     79  C   UNL A   1      39.016  34.912  39.772  1.00  0.00     0.022 A 
BRANCH  76  80
ATOM     80  S   UNL A   1      40.827  36.919  39.088  1.00  0.00     0.124 S 
ATOM     81  O   UNL A   1      41.460  36.584  40.358  1.00  0.00    -0.237 OA
ATOM     82  O   UNL A   1      41.703  36.948  37.922  1.00  0.00    -0.237 OA
ATOM     83  O   UNL A   1      39.834  37.989  39.146  1.00  0.00    -0.744 OA
ENDBRANCH  76  80
ENDBRANCH  49  73
BRANCH  61  84
ATOM     84  C   UNL A   1      44.061  28.784  35.440  1.00  0.00     0.023 A 
ATOM     85  C   UNL A   1      44.008  27.704  36.338  1.00  0.00     0.031 A 
ATOM     86  C   UNL A   1      45.305  29.399  35.213  1.00  0.00     0.131 A 
ATOM     87  C   UNL A   1      45.165  27.314  37.027  1.00  0.00     0.055 A 
ATOM     88  C   UNL A   1      46.465  28.965  35.854  1.00  0.00     0.041 A 
ATOM     89  F   UNL A   1      45.412  30.433  34.364  1.00  0.00    -0.206 F 
ATOM     90  C   UNL A   1      46.397  27.928  36.780  1.00  0.00     0.022 A 
BRANCH  87  91
ATOM     91  S   UNL A   1      45.017  26.066  38.335  1.00  0.00     0.124 S 
ATOM     92  O   UNL A   1      46.292  26.201  39.030  1.00  0.00    -0.237 OA
ATOM     93  O   UNL A   1      43.841  26.521  39.067  1.00  0.00    -0.237 OA
ATOM     94  O   UNL A   1      44.841  24.816  37.597  1.00  0.00    -0.744 OA
ENDBRANCH  87  91
ENDBRANCH  61  84
ENDBRANCH  35  36
ENDBRANCH  27  30
ENDBRANCH  25  26
ENDBRANCH  24  25
ENDBRANCH   1  24
TORSDOF 18
ENDMDL
MODEL 2
REMARK VINA RESULT:     -11.7      1.524      1.850
REMARK SMILES Nc1nc(CC(=O)NC2(CC(=O)NCCCNC(=O)c3ccc(-c4c5nc(c(-c6cc(S(=O)(=O)[O-])ccc6F)c6ccc([nH]6)c(-c6cc(S(=O)(=O)[O-])ccc6F)c6nc(c(-c7cc(S(=O)(=O)[O-])ccc7F)c7ccc4[nH]7)C=C6)C=C5)cc3)CCC2)cs1
REMARK SMILES IDX 14 1 13 2 11 3 12 4 10 6 9 7 83 8 85 9 84 10 8 11 6 12 7 13
REMARK SMILES IDX 5 15 4 16 2 17 3 18 87 19 86 20 1 21 15 24 16 25 17 26 18 27
REMARK SMILES IDX 19 29 20 30 21 31 82 32 22 33 81 34 23 35 24 36 25 37 75 38
REMARK SMILES IDX 26 39 80 40 74 41 76 42 27 43 79 44 73 45 72 46 28 48 60 49
REMARK SMILES IDX 40 50 59 51 41 52 44 53 58 54 77 55 42 56 43 57 57 59 78 60
REMARK SMILES IDX 45 61 29 62 30 63 38 64 31 65 37 66 39 67 36 68 32 69 33 70
REMARK SMILES IDX 34 71 35 72 61 73 62 74 70 75 63 76 69 77 71 78 68 79 64 80
REMARK SMILES IDX 65 81 66 82 67 83 46 84 47 85 55 86 48 87 54 88 56 89 53 90
REMARK SMILES IDX 49 91 50 92 51 93 52 94
REMARK H PARENT 13 5 8 14 1 22 1 23 17 28 76 47 44 58
REMARK Flexibility Score: inf
ROOT
ATOM      1  C   UNL A   1      31.624  30.335  26.316  1.00  0.00     0.117 C 
ENDROOT
BRANCH   1   2
ATOM      2  N   UNL A   1      32.076  30.091  24.961  1.00  0.00    -0.356 N 
ATOM      3  C   UNL A   1      32.551  28.919  24.456  1.00  0.00     0.222 C 
ATOM      4  O   UNL A   1      33.431  28.979  23.599  1.00  0.00    -0.275 OA
ATOM      5  H   UNL A   1      32.036  30.854  24.340  1.00  0.00     0.163 HD
BRANCH   3   6
ATOM      6  C   UNL A   1      31.892  27.630  24.870  1.00  0.00     0.128 C 
BRANCH   6   7
ATOM      7  C   UNL A   1      31.171  26.798  23.809  1.00  0.00     0.049 C 
ATOM      8  C   UNL A   1      29.723  27.296  23.466  1.00  0.00     0.029 C 
ATOM      9  C   UNL A   1      30.454  25.521  24.383  1.00  0.00     0.029 C 
ATOM     10  C   UNL A   1      29.178  26.360  24.555  1.00  0.00     0.005 C 
BRANCH   7  11
ATOM     11  N   UNL A   1      31.943  26.464  22.587  1.00  0.00    -0.350 N 
ATOM     12  C   UNL A   1      33.120  25.801  22.377  1.00  0.00     0.226 C 
ATOM     13  O   UNL A   1      33.627  25.910  21.253  1.00  0.00    -0.275 OA
ATOM     14  H   UNL A   1      31.521  26.786  21.758  1.00  0.00     0.164 HD
BRANCH  12  15
ATOM     15  C   UNL A   1      33.788  24.942  23.427  1.00  0.00     0.157 C 
BRANCH  15  16
ATOM     16  C   UNL A   1      33.254  23.556  23.517  1.00  0.00     0.063 A 
ATOM     17  C   UNL A   1      32.293  21.781  22.596  1.00  0.00     0.180 A 
ATOM     18  N   UNL A   1      32.788  22.964  22.352  1.00  0.00    -0.225 NA
ATOM     19  S   UNL A   1      32.466  21.243  24.214  1.00  0.00    -0.106 S 
ATOM     20  C   UNL A   1      33.197  22.739  24.628  1.00  0.00     0.093 A 
BRANCH  17  21
ATOM     21  N   UNL A   1      31.673  21.061  21.657  1.00  0.00    -0.375 N 
ATOM     22  H   UNL A   1      30.691  20.990  21.660  1.00  0.00     0.159 HD
ATOM     23  H   UNL A   1      32.198  20.603  20.960  1.00  0.00     0.159 HD
ENDBRANCH  17  21
ENDBRANCH  15  16
ENDBRANCH  12  15
ENDBRANCH   7  11
ENDBRANCH   6   7
ENDBRANCH   3   6
ENDBRANCH   1   2
BRANCH   1  24
ATOM     24  C   UNL A   1      31.552  31.835  26.581  1.00  0.00     0.042 C 
BRANCH  24  25
ATOM     25  C   UNL A   1      32.785  32.380  27.292  1.00  0.00     0.118 C 
BRANCH  25  26
ATOM     26  N   UNL A   1      32.680  33.811  27.516  1.00  0.00    -0.352 N 
ATOM     27  C   UNL A   1      33.210  34.569  28.528  1.00  0.00     0.251 C 
ATOM     28  H   UNL A   1      32.154  34.306  26.847  1.00  0.00     0.163 HD
ATOM     29  O   UNL A   1      32.737  35.677  28.758  1.00  0.00    -0.269 OA
BRANCH  27  30
ATOM     30  C   UNL A   1      34.333  34.046  29.337  1.00  0.00     0.039 A 
ATOM     31  C   UNL A   1      35.642  34.359  28.963  1.00  0.00     0.014 A 
ATOM     32  C   UNL A   1      34.103  33.197  30.424  1.00  0.00     0.014 A 
ATOM     33  C   UNL A   1      36.713  33.835  29.688  1.00  0.00     0.010 A 
ATOM     34  C   UNL A   1      35.164  32.762  31.207  1.00  0.00     0.010 A 
ATOM     35  C   UNL A   1      36.483  33.040  30.823  1.00  0.00    -0.014 A 
BRANCH  35  36
ATOM     36  C   UNL A   1      37.605  32.410  31.564  1.00  0.00     0.031 A 
ATOM     37  C   UNL A   1      38.430  31.342  30.889  1.00  0.00     0.074 A 
ATOM     38  C   UNL A   1      37.847  32.760  32.843  1.00  0.00     0.049 A 
ATOM     39  N   UNL A   1      39.401  30.613  31.376  1.00  0.00    -0.248 NA
ATOM     40  C   UNL A   1      38.089  31.023  29.493  1.00  0.00     0.031 C 
ATOM     41  C   UNL A   1      37.079  33.740  33.613  1.00  0.00     0.029 A 
ATOM     42  N   UNL A   1      38.803  32.323  33.724  1.00  0.00    -0.354 N 
ATOM     43  C   UNL A   1      39.758  29.730  30.361  1.00  0.00     0.074 A 
ATOM     44  C   UNL A   1      38.864  29.978  29.253  1.00  0.00     0.031 C 
ATOM     45  C   UNL A   1      37.607  33.845  34.844  1.00  0.00     0.029 A 
ATOM     46  C   UNL A   1      38.727  32.918  34.962  1.00  0.00     0.049 A 
ATOM     47  H   UNL A   1      39.481  31.649  33.492  1.00  0.00     0.167 HD
ATOM     48  C   UNL A   1      40.756  28.813  30.348  1.00  0.00     0.034 A 
ATOM     49  C   UNL A   1      39.475  32.729  36.068  1.00  0.00     0.034 A 
ATOM     50  C   UNL A   1      41.672  28.621  31.444  1.00  0.00     0.049 A 
ATOM     51  C   UNL A   1      40.621  31.749  36.004  1.00  0.00     0.074 A 
ATOM     52  C   UNL A   1      42.765  27.775  31.516  1.00  0.00     0.029 A 
ATOM     53  N   UNL A   1      41.606  29.290  32.658  1.00  0.00    -0.354 N 
ATOM     54  N   UNL A   1      40.984  30.967  35.013  1.00  0.00    -0.248 NA
ATOM     55  C   UNL A   1      41.474  31.648  37.193  1.00  0.00     0.031 C 
ATOM     56  C   UNL A   1      43.329  27.897  32.791  1.00  0.00     0.029 A 
ATOM     57  C   UNL A   1      42.630  28.869  33.489  1.00  0.00     0.049 A 
ATOM     58  H   UNL A   1      40.930  29.967  32.893  1.00  0.00     0.167 HD
ATOM     59  C   UNL A   1      42.132  30.311  35.450  1.00  0.00     0.074 A 
ATOM     60  C   UNL A   1      42.408  30.805  36.783  1.00  0.00     0.031 C 
ATOM     61  C   UNL A   1      42.892  29.384  34.811  1.00  0.00     0.034 A 
BRANCH  48  62
ATOM     62  C   UNL A   1      40.894  27.942  29.123  1.00  0.00     0.023 A 
ATOM     63  C   UNL A   1      41.924  28.135  28.185  1.00  0.00     0.031 A 
ATOM     64  C   UNL A   1      39.976  26.904  28.887  1.00  0.00     0.131 A 
ATOM     65  C   UNL A   1      41.972  27.346  27.025  1.00  0.00     0.055 A 
ATOM     66  C   UNL A   1      40.074  26.073  27.769  1.00  0.00     0.041 A 
ATOM     67  F   UNL A   1      38.959  26.684  29.736  1.00  0.00    -0.206 F 
ATOM     68  C   UNL A   1      41.070  26.299  26.823  1.00  0.00     0.022 A 
BRANCH  65  69
ATOM     69  S   UNL A   1      43.165  27.778  25.729  1.00  0.00     0.124 S 
ATOM     70  O   UNL A   1      42.291  27.938  24.568  1.00  0.00    -0.237 OA
ATOM     71  O   UNL A   1      43.767  29.001  26.246  1.00  0.00    -0.237 OA
ATOM     72  O   UNL A   1      44.052  26.619  25.679  1.00  0.00    -0.744 OA
ENDBRANCH  65  69
ENDBRANCH  48  62
BRANCH  49  73
ATOM     73  C   UNL A   1      39.180  33.476  37.325  1.00  0.00     0.023 A 
ATOM     74  C   UNL A   1      39.741  34.740  37.566  1.00  0.00     0.031 A 
ATOM     75  C   UNL A   1      38.381  32.908  38.333  1.00  0.00     0.131 A 
ATOM     76  C   UNL A   1      39.552  35.366  38.808  1.00  0.00     0.055 A 
ATOM     77  C   UNL A   1      38.148  33.560  39.546  1.00  0.00     0.041 A 
ATOM     78  F   UNL A   1      37.810  31.706  38.152  1.00  0.00    -0.206 F 
ATOM     79  C   UNL A   1      38.751  34.790  39.796  1.00  0.00     0.022 A 
BRANCH  76  80
ATOM     80  S   UNL A   1      40.463  36.896  39.156  1.00  0.00     0.124 S 
ATOM     81  O   UNL A   1      41.050  36.604  40.458  1.00  0.00    -0.237 OA
ATOM     82  O   UNL A   1      41.391  36.954  38.031  1.00  0.00    -0.237 OA
ATOM     83  O   UNL A   1      39.420  37.919  39.155  1.00  0.00    -0.744 OA
ENDBRANCH  76  80
ENDBRANCH  49  73
BRANCH  61  84
ATOM     84  C   UNL A   1      44.127  28.903  35.529  1.00  0.00     0.023 A 
ATOM     85  C   UNL A   1      44.096  27.801  36.400  1.00  0.00     0.031 A 
ATOM     86  C   UNL A   1      45.349  29.577  35.353  1.00  0.00     0.131 A 
ATOM     87  C   UNL A   1      45.248  27.446  37.115  1.00  0.00     0.055 A 
ATOM     88  C   UNL A   1      46.508  29.179  36.020  1.00  0.00     0.041 A 
ATOM     89  F   UNL A   1      45.435  30.635  34.531  1.00  0.00    -0.206 F 
ATOM     90  C   UNL A   1      46.458  28.118  36.920  1.00  0.00     0.022 A 
BRANCH  87  91
ATOM     91  S   UNL A   1      45.117  26.162  38.389  1.00  0.00     0.124 S 
ATOM     92  O   UNL A   1      44.928  24.957  37.589  1.00  0.00    -0.237 OA
ATOM     93  O   UNL A   1      46.398  26.275  39.077  1.00  0.00    -0.237 OA
ATOM     94  O   UNL A   1      43.954  26.574  39.174  1.00  0.00    -0.744 OA
ENDBRANCH  87  91
ENDBRANCH  61  84
ENDBRANCH  35  36
ENDBRANCH  27  30
ENDBRANCH  25  26
ENDBRANCH  24  25
ENDBRANCH   1  24
TORSDOF 18
ENDMDL
MODEL 3
REMARK VINA RESULT:     -11.6      3.521      8.942
REMARK SMILES Nc1nc(CC(=O)NC2(CC(=O)NCCCNC(=O)c3ccc(-c4c5nc(c(-c6cc(S(=O)(=O)[O-])ccc6F)c6ccc([nH]6)c(-c6cc(S(=O)(=O)[O-])ccc6F)c6nc(c(-c7cc(S(=O)(=O)[O-])ccc7F)c7ccc4[nH]7)C=C6)C=C5)cc3)CCC2)cs1
REMARK SMILES IDX 14 1 13 2 11 3 12 4 10 6 9 7 83 8 85 9 84 10 8 11 6 12 7 13
REMARK SMILES IDX 5 15 4 16 2 17 3 18 87 19 86 20 1 21 15 24 16 25 17 26 18 27
REMARK SMILES IDX 19 29 20 30 21 31 82 32 22 33 81 34 23 35 24 36 25 37 75 38
REMARK SMILES IDX 26 39 80 40 74 41 76 42 27 43 79 44 73 45 72 46 28 48 60 49
REMARK SMILES IDX 40 50 59 51 41 52 44 53 58 54 77 55 42 56 43 57 57 59 78 60
REMARK SMILES IDX 45 61 29 62 30 63 38 64 31 65 37 66 39 67 36 68 32 69 33 70
REMARK SMILES IDX 34 71 35 72 61 73 62 74 70 75 63 76 69 77 71 78 68 79 64 80
REMARK SMILES IDX 65 81 66 82 67 83 46 84 47 85 55 86 48 87 54 88 56 89 53 90
REMARK SMILES IDX 49 91 50 92 51 93 52 94
REMARK H PARENT 13 5 8 14 1 22 1 23 17 28 76 47 44 58
REMARK Flexibility Score: inf
ROOT
ATOM      1  C   UNL A   1      33.892  26.645  24.561  1.00  0.00     0.117 C 
ENDROOT
BRANCH   1   2
ATOM      2  N   UNL A   1      32.912  25.861  25.286  1.00  0.00    -0.356 N 
ATOM      3  C   UNL A   1      32.854  24.503  25.375  1.00  0.00     0.222 C 
ATOM      4  O   UNL A   1      31.743  23.980  25.438  1.00  0.00    -0.275 OA
ATOM      5  H   UNL A   1      32.214  26.364  25.765  1.00  0.00     0.163 HD
BRANCH   3   6
ATOM      6  C   UNL A   1      34.138  23.730  25.522  1.00  0.00     0.128 C 
BRANCH   6   7
ATOM      7  C   UNL A   1      34.546  22.764  24.410  1.00  0.00     0.049 C 
ATOM      8  C   UNL A   1      35.598  21.683  24.842  1.00  0.00     0.029 C 
ATOM      9  C   UNL A   1      35.688  23.313  23.478  1.00  0.00     0.029 C 
ATOM     10  C   UNL A   1      36.715  22.642  24.403  1.00  0.00     0.005 C 
BRANCH   7  11
ATOM     11  N   UNL A   1      33.449  22.173  23.606  1.00  0.00    -0.350 N 
ATOM     12  C   UNL A   1      32.694  21.041  23.742  1.00  0.00     0.226 C 
ATOM     13  O   UNL A   1      32.025  20.696  22.759  1.00  0.00    -0.275 OA
ATOM     14  H   UNL A   1      33.217  22.704  22.810  1.00  0.00     0.164 HD
BRANCH  12  15
ATOM     15  C   UNL A   1      32.626  20.238  25.022  1.00  0.00     0.157 C 
BRANCH  15  16
ATOM     16  C   UNL A   1      33.058  18.821  24.881  1.00  0.00     0.063 A 
ATOM     17  C   UNL A   1      32.706  16.647  25.155  1.00  0.00     0.180 A 
ATOM     18  N   UNL A   1      32.169  17.831  25.273  1.00  0.00    -0.225 NA
ATOM     19  S   UNL A   1      34.268  16.628  24.448  1.00  0.00    -0.106 S 
ATOM     20  C   UNL A   1      34.243  18.343  24.360  1.00  0.00     0.093 A 
BRANCH  17  21
ATOM     21  N   UNL A   1      32.093  15.540  25.582  1.00  0.00    -0.375 N 
ATOM     22  H   UNL A   1      31.731  15.501  26.496  1.00  0.00     0.159 HD
ATOM     23  H   UNL A   1      32.001  14.765  24.981  1.00  0.00     0.159 HD
ENDBRANCH  17  21
ENDBRANCH  15  16
ENDBRANCH  12  15
ENDBRANCH   7  11
ENDBRANCH   6   7
ENDBRANCH   3   6
ENDBRANCH   1   2
BRANCH   1  24
ATOM     24  C   UNL A   1      33.696  28.128  24.856  1.00  0.00     0.042 C 
BRANCH  24  25
ATOM     25  C   UNL A   1      33.912  28.483  26.323  1.00  0.00     0.118 C 
BRANCH  25  26
ATOM     26  N   UNL A   1      33.815  29.915  26.543  1.00  0.00    -0.352 N 
ATOM     27  C   UNL A   1      34.504  30.702  27.430  1.00  0.00     0.251 C 
ATOM     28  H   UNL A   1      33.163  30.387  25.977  1.00  0.00     0.163 HD
ATOM     29  O   UNL A   1      34.054  31.804  27.728  1.00  0.00    -0.269 OA
BRANCH  27  30
ATOM     30  C   UNL A   1      35.770  30.218  28.023  1.00  0.00     0.039 A 
ATOM     31  C   UNL A   1      36.954  30.349  27.295  1.00  0.00     0.014 A 
ATOM     32  C   UNL A   1      35.783  29.580  29.267  1.00  0.00     0.014 A 
ATOM     33  C   UNL A   1      38.148  29.856  27.822  1.00  0.00     0.010 A 
ATOM     34  C   UNL A   1      36.987  29.184  29.836  1.00  0.00     0.010 A 
ATOM     35  C   UNL A   1      38.177  29.278  29.102  1.00  0.00    -0.014 A 
BRANCH  35  36
ATOM     36  C   UNL A   1      39.420  28.678  29.650  1.00  0.00     0.031 A 
ATOM     37  C   UNL A   1      40.029  29.255  30.904  1.00  0.00     0.074 A 
ATOM     38  C   UNL A   1      40.019  27.660  29.002  1.00  0.00     0.049 A 
ATOM     39  N   UNL A   1      41.144  28.935  31.508  1.00  0.00    -0.248 NA
ATOM     40  C   UNL A   1      39.306  30.369  31.542  1.00  0.00     0.031 C 
ATOM     41  C   UNL A   1      39.549  27.059  27.751  1.00  0.00     0.029 A 
ATOM     42  N   UNL A   1      41.157  26.956  29.299  1.00  0.00    -0.354 N 
ATOM     43  C   UNL A   1      41.272  29.828  32.567  1.00  0.00     0.074 A 
ATOM     44  C   UNL A   1      40.150  30.736  32.491  1.00  0.00     0.031 C 
ATOM     45  C   UNL A   1      40.382  26.064  27.401  1.00  0.00     0.029 A 
ATOM     46  C   UNL A   1      41.460  25.978  28.380  1.00  0.00     0.049 A 
ATOM     47  H   UNL A   1      41.707  27.133  30.096  1.00  0.00     0.167 HD
ATOM     48  C   UNL A   1      42.226  29.871  33.528  1.00  0.00     0.034 A 
ATOM     49  C   UNL A   1      42.495  25.115  28.333  1.00  0.00     0.034 A 
ATOM     50  C   UNL A   1      43.307  28.921  33.618  1.00  0.00     0.049 A 
ATOM     51  C   UNL A   1      43.506  25.142  29.452  1.00  0.00     0.074 A 
ATOM     52  C   UNL A   1      44.288  28.821  34.588  1.00  0.00     0.029 A 
ATOM     53  N   UNL A   1      43.541  27.901  32.707  1.00  0.00    -0.354 N 
ATOM     54  N   UNL A   1      43.577  25.954  30.482  1.00  0.00    -0.248 NA
ATOM     55  C   UNL A   1      44.559  24.119  29.419  1.00  0.00     0.031 C 
ATOM     56  C   UNL A   1      45.145  27.772  34.236  1.00  0.00     0.029 A 
ATOM     57  C   UNL A   1      44.658  27.175  33.085  1.00  0.00     0.049 A 
ATOM     58  H   UNL A   1      42.994  27.720  31.909  1.00  0.00     0.167 HD
ATOM     59  C   UNL A   1      44.659  25.512  31.238  1.00  0.00     0.074 A 
ATOM     60  C   UNL A   1      45.197  24.354  30.555  1.00  0.00     0.031 C 
ATOM     61  C   UNL A   1      45.168  26.016  32.392  1.00  0.00     0.034 A 
BRANCH  48  62
ATOM     62  C   UNL A   1      42.153  30.988  34.542  1.00  0.00     0.023 A 
ATOM     63  C   UNL A   1      42.810  32.216  34.346  1.00  0.00     0.031 A 
ATOM     64  C   UNL A   1      41.419  30.817  35.729  1.00  0.00     0.131 A 
ATOM     65  C   UNL A   1      42.772  33.198  35.347  1.00  0.00     0.055 A 
ATOM     66  C   UNL A   1      41.322  31.828  36.688  1.00  0.00     0.041 A 
ATOM     67  F   UNL A   1      40.788  29.659  35.982  1.00  0.00    -0.206 F 
ATOM     68  C   UNL A   1      42.011  33.024  36.505  1.00  0.00     0.022 A 
BRANCH  65  69
ATOM     69  S   UNL A   1      43.821  34.667  35.164  1.00  0.00     0.124 S 
ATOM     70  O   UNL A   1      44.943  34.132  34.397  1.00  0.00    -0.237 OA
ATOM     71  O   UNL A   1      42.947  35.594  34.455  1.00  0.00    -0.237 OA
ATOM     72  O   UNL A   1      44.136  35.037  36.542  1.00  0.00    -0.744 OA
ENDBRANCH  65  69
ENDBRANCH  48  62
BRANCH  49  73
ATOM     73  C   UNL A   1      42.633  24.151  27.203  1.00  0.00     0.023 A 
ATOM     74  C   UNL A   1      41.995  22.900  27.234  1.00  0.00     0.031 A 
ATOM     75  C   UNL A   1      43.457  24.442  26.101  1.00  0.00     0.131 A 
ATOM     76  C   UNL A   1      42.243  21.962  26.220  1.00  0.00     0.055 A 
ATOM     77  C   UNL A   1      43.655  23.526  25.065  1.00  0.00     0.041 A 
ATOM     78  F   UNL A   1      44.083  25.627  26.014  1.00  0.00    -0.206 F 
ATOM     79  C   UNL A   1      43.060  22.269  25.131  1.00  0.00     0.022 A 
BRANCH  76  80
ATOM     80  S   UNL A   1      41.568  20.288  26.405  1.00  0.00     0.124 S 
ATOM     81  O   UNL A   1      41.973  19.951  27.765  1.00  0.00    -0.237 OA
ATOM     82  O   UNL A   1      40.142  20.515  26.198  1.00  0.00    -0.237 OA
ATOM     83  O   UNL A   1      42.238  19.534  25.348  1.00  0.00    -0.744 OA
ENDBRANCH  76  80
ENDBRANCH  49  73
BRANCH  61  84
ATOM     84  C   UNL A   1      46.320  25.268  33.014  1.00  0.00     0.023 A 
ATOM     85  C   UNL A   1      46.116  24.209  33.915  1.00  0.00     0.031 A 
ATOM     86  C   UNL A   1      47.643  25.641  32.715  1.00  0.00     0.131 A 
ATOM     87  C   UNL A   1      47.216  23.603  34.538  1.00  0.00     0.055 A 
ATOM     88  C   UNL A   1      48.735  24.991  33.290  1.00  0.00     0.041 A 
ATOM     89  F   UNL A   1      47.894  26.645  31.860  1.00  0.00    -0.206 F 
ATOM     90  C   UNL A   1      48.525  23.977  34.221  1.00  0.00     0.022 A 
BRANCH  87  91
ATOM     91  S   UNL A   1      46.909  22.392  35.853  1.00  0.00     0.124 S 
ATOM     92  O   UNL A   1      47.662  21.235  35.383  1.00  0.00    -0.237 OA
ATOM     93  O   UNL A   1      47.448  23.068  37.028  1.00  0.00    -0.237 OA
ATOM     94  O   UNL A   1      45.456  22.234  35.841  1.00  0.00    -0.744 OA
ENDBRANCH  87  91
ENDBRANCH  61  84
ENDBRANCH  35  36
ENDBRANCH  27  30
ENDBRANCH  25  26
ENDBRANCH  24  25
ENDBRANCH   1  24
TORSDOF 18
ENDMDL
