MODEL 1
REMARK VINA RESULT:     -13.8      0.000      0.000
REMARK SMILES Cc1cccc(-c2ncc(C[NH+]3CCC4(CC3)NC(=O)C[C@H]4C(=O)NCCCNC(=O)c3ccc(-c4c5nc(c(-c6cc(S(=O)(=O)[O-])ccc6F)c6ccc([nH]6)c(-c6cc(S(=O)(=O)[O-])ccc6F)c6nc(c(-c7cc(S(=O)(=O)[O-])ccc7F)c7ccc4[nH]7)C=C6)C=C5)cc3)cn2)c1
REMARK SMILES IDX 27 1 26 2 25 3 23 4 24 5 22 7 12 8 13 9 17 10 14 12 16 13
REMARK SMILES IDX 15 14 18 15 19 16 21 18 20 19 11 20 10 21 7 22 8 23 96 24
REMARK SMILES IDX 9 25 95 26 6 27 1 28 2 29 3 30 97 31 4 32 5 33 28 34 29 35
REMARK SMILES IDX 30 36 31 38 32 39 33 40 94 41 34 42 93 43 35 44 36 45 37 46
REMARK SMILES IDX 87 47 38 48 92 49 86 50 88 51 39 52 91 53 85 54 84 55 40 57
REMARK SMILES IDX 72 58 52 59 71 60 53 61 56 62 70 63 89 64 54 65 55 66 69 68
REMARK SMILES IDX 90 69 57 70 41 71 42 72 50 73 43 74 49 75 51 76 48 77 44 78
REMARK SMILES IDX 45 79 46 80 47 81 73 82 74 83 82 84 75 85 81 86 83 87 80 88
REMARK SMILES IDX 76 89 77 90 78 91 79 92 58 93 59 94 67 95 60 96 66 97 68 98
REMARK SMILES IDX 65 99 61 100 62 101 63 102 64 103
REMARK H PARENT 25 6 12 11 18 17 29 37 88 56 56 67
REMARK Flexibility Score: inf
ROOT
ATOM      1  C   UNL A   1      38.877  23.353  26.909  1.00  0.00     0.042 C 
ENDROOT
BRANCH   1   2
ATOM      2  C   UNL A   1      37.897  24.193  26.094  1.00  0.00     0.117 C 
BRANCH   2   3
ATOM      3  N   UNL A   1      37.502  23.643  24.796  1.00  0.00    -0.356 N 
ATOM      4  C   UNL A   1      36.467  22.861  24.369  1.00  0.00     0.226 C 
ATOM      5  O   UNL A   1      36.414  22.563  23.169  1.00  0.00    -0.275 OA
ATOM      6  H   UNL A   1      38.120  23.891  24.071  1.00  0.00     0.163 HD
BRANCH   4   7
ATOM      7  C   UNL A   1      35.386  22.260  25.295  1.00  0.00     0.114 C 
ATOM      8  N   UNL A   1      32.212  24.958  25.339  1.00  0.00    -0.331 N 
ATOM      9  C   UNL A   1      32.358  24.009  26.432  1.00  0.00     0.264 C 
ATOM     10  C   UNL A   1      33.433  25.020  24.559  1.00  0.00     0.264 C 
ATOM     11  H   UNL A   1      32.073  25.848  25.819  1.00  0.00     0.348 HD
ATOM     12  C   UNL A   1      32.887  22.616  26.072  1.00  0.00     0.091 C 
ATOM     13  C   UNL A   1      33.774  23.682  23.932  1.00  0.00     0.091 C 
ATOM     14  C   UNL A   1      33.912  22.505  24.901  1.00  0.00     0.063 C 
ATOM     15  N   UNL A   1      33.577  21.224  24.293  1.00  0.00    -0.349 N 
ATOM     16  C   UNL A   1      34.379  20.176  24.699  1.00  0.00     0.221 C 
ATOM     17  H   UNL A   1      32.840  21.115  23.647  1.00  0.00     0.164 HD
ATOM     18  C   UNL A   1      35.567  20.745  25.427  1.00  0.00     0.116 C 
ATOM     19  O   UNL A   1      34.150  19.005  24.497  1.00  0.00    -0.275 OA
BRANCH   8  20
ATOM     20  C   UNL A   1      30.950  25.034  24.579  1.00  0.00     0.302 C 
BRANCH  20  21
ATOM     21  C   UNL A   1      30.324  26.389  24.384  1.00  0.00     0.043 A 
ATOM     22  C   UNL A   1      29.381  28.783  23.487  1.00  0.00     0.159 A 
ATOM     23  N   UNL A   1      28.584  27.701  23.363  1.00  0.00    -0.236 NA
ATOM     24  N   UNL A   1      30.563  28.784  24.132  1.00  0.00    -0.236 NA
ATOM     25  C   UNL A   1      29.062  26.540  23.856  1.00  0.00     0.124 A 
ATOM     26  C   UNL A   1      31.011  27.580  24.564  1.00  0.00     0.124 A 
BRANCH  22  27
ATOM     27  C   UNL A   1      28.974  29.998  22.767  1.00  0.00     0.019 A 
ATOM     28  C   UNL A   1      29.038  33.804  23.271  1.00  0.00     0.044 C 
ATOM     29  C   UNL A   1      28.824  32.455  22.643  1.00  0.00    -0.050 A 
ATOM     30  C   UNL A   1      28.206  32.348  21.397  1.00  0.00     0.003 A 
ATOM     31  C   UNL A   1      29.222  31.281  23.299  1.00  0.00     0.015 A 
ATOM     32  C   UNL A   1      27.955  31.091  20.844  1.00  0.00     0.001 A 
ATOM     33  C   UNL A   1      28.319  29.927  21.531  1.00  0.00     0.012 A 
ENDBRANCH  22  27
ENDBRANCH  20  21
ENDBRANCH   8  20
ENDBRANCH   4   7
ENDBRANCH   2   3
ENDBRANCH   1   2
BRANCH   1  34
ATOM     34  C   UNL A   1      40.343  23.483  26.532  1.00  0.00     0.118 C 
BRANCH  34  35
ATOM     35  N   UNL A   1      40.865  22.236  25.956  1.00  0.00    -0.352 N 
ATOM     36  C   UNL A   1      42.121  21.656  25.976  1.00  0.00     0.251 C 
ATOM     37  H   UNL A   1      40.193  21.714  25.461  1.00  0.00     0.163 HD
ATOM     38  O   UNL A   1      42.380  20.622  25.365  1.00  0.00    -0.269 OA
BRANCH  36  39
ATOM     39  C   UNL A   1      43.122  22.177  26.930  1.00  0.00     0.039 A 
ATOM     40  C   UNL A   1      42.793  21.967  28.279  1.00  0.00     0.014 A 
ATOM     41  C   UNL A   1      43.934  23.229  26.536  1.00  0.00     0.014 A 
ATOM     42  C   UNL A   1      42.934  23.019  29.162  1.00  0.00     0.010 A 
ATOM     43  C   UNL A   1      43.952  24.319  27.369  1.00  0.00     0.010 A 
ATOM     44  C   UNL A   1      43.370  24.228  28.640  1.00  0.00    -0.014 A 
BRANCH  44  45
ATOM     45  C   UNL A   1      43.312  25.475  29.364  1.00  0.00     0.031 A 
ATOM     46  C   UNL A   1      42.111  26.283  29.138  1.00  0.00     0.074 A 
ATOM     47  C   UNL A   1      44.279  25.767  30.261  1.00  0.00     0.049 A 
ATOM     48  N   UNL A   1      42.042  27.551  29.302  1.00  0.00    -0.248 NA
ATOM     49  C   UNL A   1      40.874  25.707  28.609  1.00  0.00     0.031 C 
ATOM     50  C   UNL A   1      44.287  26.814  31.278  1.00  0.00     0.029 A 
ATOM     51  N   UNL A   1      45.585  25.272  30.269  1.00  0.00    -0.354 N 
ATOM     52  C   UNL A   1      40.709  27.892  29.241  1.00  0.00     0.074 A 
ATOM     53  C   UNL A   1      40.043  26.745  28.687  1.00  0.00     0.031 C 
ATOM     54  C   UNL A   1      45.562  27.082  31.614  1.00  0.00     0.029 A 
ATOM     55  C   UNL A   1      46.413  26.324  30.711  1.00  0.00     0.049 A 
ATOM     56  H   UNL A   1      45.872  24.365  30.015  1.00  0.00     0.167 HD
ATOM     57  C   UNL A   1      40.316  29.044  29.845  1.00  0.00     0.034 A 
ATOM     58  C   UNL A   1      47.330  26.872  29.859  1.00  0.00     0.034 A 
ATOM     59  C   UNL A   1      41.485  29.745  30.374  1.00  0.00     0.049 A 
ATOM     60  C   UNL A   1      47.005  28.309  29.531  1.00  0.00     0.074 A 
ATOM     61  C   UNL A   1      42.071  29.766  31.629  1.00  0.00     0.029 A 
ATOM     62  N   UNL A   1      42.438  30.217  29.483  1.00  0.00    -0.354 N 
ATOM     63  N   UNL A   1      45.808  28.828  29.606  1.00  0.00    -0.248 NA
ATOM     64  C   UNL A   1      48.020  29.288  29.163  1.00  0.00     0.031 C 
ATOM     65  C   UNL A   1      43.417  30.193  31.468  1.00  0.00     0.029 A 
ATOM     66  C   UNL A   1      43.632  30.462  30.127  1.00  0.00     0.049 A 
ATOM     67  H   UNL A   1      42.281  30.357  28.522  1.00  0.00     0.167 HD
ATOM     68  C   UNL A   1      45.874  30.175  29.346  1.00  0.00     0.074 A 
ATOM     69  C   UNL A   1      47.284  30.409  29.080  1.00  0.00     0.031 C 
ATOM     70  C   UNL A   1      44.768  30.985  29.382  1.00  0.00     0.034 A 
BRANCH  57  71
ATOM     71  C   UNL A   1      38.902  29.373  30.247  1.00  0.00     0.023 A 
ATOM     72  C   UNL A   1      38.237  30.389  29.533  1.00  0.00     0.031 A 
ATOM     73  C   UNL A   1      38.167  28.793  31.299  1.00  0.00     0.131 A 
ATOM     74  C   UNL A   1      36.961  30.840  29.904  1.00  0.00     0.055 A 
ATOM     75  C   UNL A   1      36.906  29.265  31.694  1.00  0.00     0.041 A 
ATOM     76  F   UNL A   1      38.604  27.717  31.963  1.00  0.00    -0.206 F 
ATOM     77  C   UNL A   1      36.297  30.299  30.999  1.00  0.00     0.022 A 
BRANCH  74  78
ATOM     78  S   UNL A   1      36.187  32.147  28.918  1.00  0.00     0.124 S 
ATOM     79  O   UNL A   1      34.965  32.416  29.671  1.00  0.00    -0.237 OA
ATOM     80  O   UNL A   1      37.203  33.194  28.938  1.00  0.00    -0.237 OA
ATOM     81  O   UNL A   1      35.983  31.511  27.617  1.00  0.00    -0.744 OA
ENDBRANCH  74  78
ENDBRANCH  57  71
BRANCH  58  82
ATOM     82  C   UNL A   1      47.927  25.852  28.940  1.00  0.00     0.023 A 
ATOM     83  C   UNL A   1      47.376  25.799  27.641  1.00  0.00     0.031 A 
ATOM     84  C   UNL A   1      49.233  25.377  29.113  1.00  0.00     0.131 A 
ATOM     85  C   UNL A   1      48.201  25.531  26.539  1.00  0.00     0.055 A 
ATOM     86  C   UNL A   1      50.023  25.012  28.013  1.00  0.00     0.041 A 
ATOM     87  F   UNL A   1      49.817  25.403  30.321  1.00  0.00    -0.206 F 
ATOM     88  C   UNL A   1      49.531  25.156  26.714  1.00  0.00     0.022 A 
BRANCH  85  89
ATOM     89  S   UNL A   1      47.603  26.036  24.904  1.00  0.00     0.124 S 
ATOM     90  O   UNL A   1      46.408  25.220  24.736  1.00  0.00    -0.237 OA
ATOM     91  O   UNL A   1      47.380  27.471  25.091  1.00  0.00    -0.237 OA
ATOM     92  O   UNL A   1      48.713  25.721  24.007  1.00  0.00    -0.744 OA
ENDBRANCH  85  89
ENDBRANCH  58  82
BRANCH  70  93
ATOM     93  C   UNL A   1      44.663  32.382  28.798  1.00  0.00     0.023 A 
ATOM     94  C   UNL A   1      44.401  32.623  27.447  1.00  0.00     0.031 A 
ATOM     95  C   UNL A   1      44.748  33.546  29.608  1.00  0.00     0.131 A 
ATOM     96  C   UNL A   1      44.342  33.927  26.930  1.00  0.00     0.055 A 
ATOM     97  C   UNL A   1      44.580  34.843  29.113  1.00  0.00     0.041 A 
ATOM     98  F   UNL A   1      44.984  33.491  30.926  1.00  0.00    -0.206 F 
ATOM     99  C   UNL A   1      44.400  35.043  27.757  1.00  0.00     0.022 A 
BRANCH  96 100
ATOM    100  S   UNL A   1      44.286  34.110  25.133  1.00  0.00     0.124 S 
ATOM    101  O   UNL A   1      43.104  34.950  24.957  1.00  0.00    -0.237 OA
ATOM    102  O   UNL A   1      45.565  34.751  24.843  1.00  0.00    -0.237 OA
ATOM    103  O   UNL A   1      44.152  32.737  24.652  1.00  0.00    -0.744 OA
ENDBRANCH  96 100
ENDBRANCH  70  93
ENDBRANCH  44  45
ENDBRANCH  36  39
ENDBRANCH  34  35
ENDBRANCH   1  34
TORSDOF 16
ENDMDL
MODEL 2
REMARK VINA RESULT:     -13.6      2.865      3.981
REMARK SMILES Cc1cccc(-c2ncc(C[NH+]3CCC4(CC3)NC(=O)C[C@H]4C(=O)NCCCNC(=O)c3ccc(-c4c5nc(c(-c6cc(S(=O)(=O)[O-])ccc6F)c6ccc([nH]6)c(-c6cc(S(=O)(=O)[O-])ccc6F)c6nc(c(-c7cc(S(=O)(=O)[O-])ccc7F)c7ccc4[nH]7)C=C6)C=C5)cc3)cn2)c1
REMARK SMILES IDX 27 1 26 2 25 3 23 4 24 5 22 7 12 8 13 9 17 10 14 12 16 13
REMARK SMILES IDX 15 14 18 15 19 16 21 18 20 19 11 20 10 21 7 22 8 23 96 24
REMARK SMILES IDX 9 25 95 26 6 27 1 28 2 29 3 30 97 31 4 32 5 33 28 34 29 35
REMARK SMILES IDX 30 36 31 38 32 39 33 40 94 41 34 42 93 43 35 44 36 45 37 46
REMARK SMILES IDX 87 47 38 48 92 49 86 50 88 51 39 52 91 53 85 54 84 55 40 57
REMARK SMILES IDX 72 58 52 59 71 60 53 61 56 62 70 63 89 64 54 65 55 66 69 68
REMARK SMILES IDX 90 69 57 70 41 71 42 72 50 73 43 74 49 75 51 76 48 77 44 78
REMARK SMILES IDX 45 79 46 80 47 81 73 82 74 83 82 84 75 85 81 86 83 87 80 88
REMARK SMILES IDX 76 89 77 90 78 91 79 92 58 93 59 94 67 95 60 96 66 97 68 98
REMARK SMILES IDX 65 99 61 100 62 101 63 102 64 103
REMARK H PARENT 25 6 12 11 18 17 29 37 88 56 56 67
REMARK Flexibility Score: inf
ROOT
ATOM      1  C   UNL A   1      38.845  22.374  25.795  1.00  0.00     0.042 C 
ENDROOT
BRANCH   1   2
ATOM      2  C   UNL A   1      37.689  23.359  25.646  1.00  0.00     0.117 C 
BRANCH   2   3
ATOM      3  N   UNL A   1      36.940  23.288  24.389  1.00  0.00    -0.356 N 
ATOM      4  C   UNL A   1      35.698  22.836  24.046  1.00  0.00     0.226 C 
ATOM      5  O   UNL A   1      35.351  22.921  22.861  1.00  0.00    -0.275 OA
ATOM      6  H   UNL A   1      37.445  23.644  23.623  1.00  0.00     0.163 HD
BRANCH   4   7
ATOM      7  C   UNL A   1      34.713  22.159  25.024  1.00  0.00     0.114 C 
ATOM      8  N   UNL A   1      32.019  25.097  26.236  1.00  0.00    -0.331 N 
ATOM      9  C   UNL A   1      32.208  23.916  27.064  1.00  0.00     0.264 C 
ATOM     10  C   UNL A   1      33.087  25.205  25.261  1.00  0.00     0.264 C 
ATOM     11  H   UNL A   1      32.093  25.865  26.904  1.00  0.00     0.348 HD
ATOM     12  C   UNL A   1      32.459  22.592  26.333  1.00  0.00     0.091 C 
ATOM     13  C   UNL A   1      33.119  24.014  24.321  1.00  0.00     0.091 C 
ATOM     14  C   UNL A   1      33.245  22.641  24.985  1.00  0.00     0.063 C 
ATOM     15  N   UNL A   1      32.629  21.574  24.208  1.00  0.00    -0.349 N 
ATOM     16  C   UNL A   1      33.327  20.383  24.228  1.00  0.00     0.221 C 
ATOM     17  H   UNL A   1      31.787  21.692  23.711  1.00  0.00     0.164 HD
ATOM     18  C   UNL A   1      34.691  20.643  24.808  1.00  0.00     0.116 C 
ATOM     19  O   UNL A   1      32.899  19.318  23.842  1.00  0.00    -0.275 OA
BRANCH   8  20
ATOM     20  C   UNL A   1      30.672  25.476  25.770  1.00  0.00     0.302 C 
BRANCH  20  21
ATOM     21  C   UNL A   1      30.557  26.615  24.794  1.00  0.00     0.043 A 
ATOM     22  C   UNL A   1      29.870  28.807  23.327  1.00  0.00     0.159 A 
ATOM     23  N   UNL A   1      30.648  28.990  24.414  1.00  0.00    -0.236 NA
ATOM     24  N   UNL A   1      29.509  27.601  22.847  1.00  0.00    -0.236 NA
ATOM     25  C   UNL A   1      31.005  27.881  25.094  1.00  0.00     0.124 A 
ATOM     26  C   UNL A   1      29.859  26.529  23.598  1.00  0.00     0.124 A 
BRANCH  22  27
ATOM     27  C   UNL A   1      29.295  30.009  22.707  1.00  0.00     0.019 A 
ATOM     28  C   UNL A   1      29.108  33.786  23.371  1.00  0.00     0.044 C 
ATOM     29  C   UNL A   1      28.938  32.448  22.708  1.00  0.00    -0.050 A 
ATOM     30  C   UNL A   1      28.204  32.334  21.527  1.00  0.00     0.003 A 
ATOM     31  C   UNL A   1      29.495  31.288  23.268  1.00  0.00     0.015 A 
ATOM     32  C   UNL A   1      27.999  31.082  20.947  1.00  0.00     0.001 A 
ATOM     33  C   UNL A   1      28.524  29.929  21.541  1.00  0.00     0.012 A 
ENDBRANCH  22  27
ENDBRANCH  20  21
ENDBRANCH   8  20
ENDBRANCH   4   7
ENDBRANCH   2   3
ENDBRANCH   1   2
BRANCH   1  34
ATOM     34  C   UNL A   1      39.646  22.474  27.083  1.00  0.00     0.118 C 
BRANCH  34  35
ATOM     35  N   UNL A   1      40.981  23.042  26.846  1.00  0.00    -0.352 N 
ATOM     36  C   UNL A   1      41.407  24.326  26.561  1.00  0.00     0.251 C 
ATOM     37  H   UNL A   1      41.709  22.382  26.901  1.00  0.00     0.163 HD
ATOM     38  O   UNL A   1      42.582  24.593  26.324  1.00  0.00    -0.269 OA
BRANCH  36  39
ATOM     39  C   UNL A   1      40.459  25.443  26.754  1.00  0.00     0.039 A 
ATOM     40  C   UNL A   1      40.794  26.608  26.046  1.00  0.00     0.014 A 
ATOM     41  C   UNL A   1      39.717  25.492  27.924  1.00  0.00     0.014 A 
ATOM     42  C   UNL A   1      40.739  27.819  26.707  1.00  0.00     0.010 A 
ATOM     43  C   UNL A   1      39.787  26.666  28.632  1.00  0.00     0.010 A 
ATOM     44  C   UNL A   1      40.380  27.792  28.047  1.00  0.00    -0.014 A 
BRANCH  44  45
ATOM     45  C   UNL A   1      40.536  28.918  28.935  1.00  0.00     0.031 A 
ATOM     46  C   UNL A   1      39.422  29.871  28.950  1.00  0.00     0.074 A 
ATOM     47  C   UNL A   1      41.608  28.974  29.755  1.00  0.00     0.049 A 
ATOM     48  N   UNL A   1      39.519  31.102  29.290  1.00  0.00    -0.248 NA
ATOM     49  C   UNL A   1      38.083  29.510  28.484  1.00  0.00     0.031 C 
ATOM     50  C   UNL A   1      41.832  29.854  30.897  1.00  0.00     0.029 A 
ATOM     51  N   UNL A   1      42.842  28.350  29.556  1.00  0.00    -0.354 N 
ATOM     52  C   UNL A   1      38.236  31.585  29.420  1.00  0.00     0.074 A 
ATOM     53  C   UNL A   1      37.391  30.607  28.790  1.00  0.00     0.031 C 
ATOM     54  C   UNL A   1      43.155  29.937  31.129  1.00  0.00     0.029 A 
ATOM     55  C   UNL A   1      43.824  29.235  30.045  1.00  0.00     0.049 A 
ATOM     56  H   UNL A   1      42.996  27.466  29.152  1.00  0.00     0.167 HD
ATOM     57  C   UNL A   1      38.038  32.670  30.212  1.00  0.00     0.034 A 
ATOM     58  C   UNL A   1      44.718  29.803  29.182  1.00  0.00     0.034 A 
ATOM     59  C   UNL A   1      39.324  33.161  30.703  1.00  0.00     0.049 A 
ATOM     60  C   UNL A   1      44.537  31.299  29.088  1.00  0.00     0.074 A 
ATOM     61  C   UNL A   1      40.021  32.937  31.880  1.00  0.00     0.029 A 
ATOM     62  N   UNL A   1      40.241  33.657  29.788  1.00  0.00    -0.354 N 
ATOM     63  N   UNL A   1      43.421  31.923  29.360  1.00  0.00    -0.248 NA
ATOM     64  C   UNL A   1      45.623  32.211  28.749  1.00  0.00     0.031 C 
ATOM     65  C   UNL A   1      41.388  33.241  31.635  1.00  0.00     0.029 A 
ATOM     66  C   UNL A   1      41.509  33.680  30.327  1.00  0.00     0.049 A 
ATOM     67  H   UNL A   1      40.015  33.952  28.876  1.00  0.00     0.167 HD
ATOM     68  C   UNL A   1      43.621  33.279  29.279  1.00  0.00     0.074 A 
ATOM     69  C   UNL A   1      45.019  33.402  28.899  1.00  0.00     0.031 C 
ATOM     70  C   UNL A   1      42.627  34.185  29.543  1.00  0.00     0.034 A 
BRANCH  57  71
ATOM     71  C   UNL A   1      36.715  33.081  30.803  1.00  0.00     0.023 A 
ATOM     72  C   UNL A   1      35.835  33.822  29.991  1.00  0.00     0.031 A 
ATOM     73  C   UNL A   1      36.264  32.836  32.115  1.00  0.00     0.131 A 
ATOM     74  C   UNL A   1      34.630  34.343  30.486  1.00  0.00     0.055 A 
ATOM     75  C   UNL A   1      35.077  33.384  32.625  1.00  0.00     0.041 A 
ATOM     76  F   UNL A   1      36.916  32.019  32.950  1.00  0.00    -0.206 F 
ATOM     77  C   UNL A   1      34.254  34.148  31.810  1.00  0.00     0.022 A 
BRANCH  74  78
ATOM     78  S   UNL A   1      33.564  35.276  29.359  1.00  0.00     0.124 S 
ATOM     79  O   UNL A   1      32.611  34.258  28.926  1.00  0.00    -0.237 OA
ATOM     80  O   UNL A   1      33.038  36.325  30.227  1.00  0.00    -0.237 OA
ATOM     81  O   UNL A   1      34.488  35.737  28.325  1.00  0.00    -0.744 OA
ENDBRANCH  74  78
ENDBRANCH  57  71
BRANCH  58  82
ATOM     82  C   UNL A   1      45.105  28.873  28.075  1.00  0.00     0.023 A 
ATOM     83  C   UNL A   1      45.934  27.791  28.444  1.00  0.00     0.031 A 
ATOM     84  C   UNL A   1      44.320  28.728  26.924  1.00  0.00     0.131 A 
ATOM     85  C   UNL A   1      45.770  26.540  27.833  1.00  0.00     0.055 A 
ATOM     86  C   UNL A   1      44.238  27.499  26.253  1.00  0.00     0.041 A 
ATOM     87  F   UNL A   1      43.507  29.716  26.520  1.00  0.00    -0.206 F 
ATOM     88  C   UNL A   1      44.910  26.379  26.748  1.00  0.00     0.022 A 
BRANCH  85  89
ATOM     89  S   UNL A   1      46.415  25.089  28.708  1.00  0.00     0.124 S 
ATOM     90  O   UNL A   1      45.208  24.319  28.978  1.00  0.00    -0.237 OA
ATOM     91  O   UNL A   1      47.333  24.520  27.721  1.00  0.00    -0.237 OA
ATOM     92  O   UNL A   1      47.080  25.651  29.883  1.00  0.00    -0.744 OA
ENDBRANCH  85  89
ENDBRANCH  58  82
BRANCH  70  93
ATOM     93  C   UNL A   1      42.634  35.656  29.168  1.00  0.00     0.023 A 
ATOM     94  C   UNL A   1      43.391  36.611  29.853  1.00  0.00     0.031 A 
ATOM     95  C   UNL A   1      41.928  36.150  28.039  1.00  0.00     0.131 A 
ATOM     96  C   UNL A   1      43.351  37.970  29.502  1.00  0.00     0.055 A 
ATOM     97  C   UNL A   1      41.977  37.484  27.623  1.00  0.00     0.041 A 
ATOM     98  F   UNL A   1      41.164  35.364  27.267  1.00  0.00    -0.206 F 
ATOM     99  C   UNL A   1      42.673  38.413  28.373  1.00  0.00     0.022 A 
BRANCH  96 100
ATOM    100  S   UNL A   1      44.137  39.144  30.629  1.00  0.00     0.124 S 
ATOM    101  O   UNL A   1      43.834  38.554  31.931  1.00  0.00    -0.237 OA
ATOM    102  O   UNL A   1      45.536  39.085  30.219  1.00  0.00    -0.237 OA
ATOM    103  O   UNL A   1      43.454  40.404  30.344  1.00  0.00    -0.744 OA
ENDBRANCH  96 100
ENDBRANCH  70  93
ENDBRANCH  44  45
ENDBRANCH  36  39
ENDBRANCH  34  35
ENDBRANCH   1  34
TORSDOF 16
ENDMDL
MODEL 3
REMARK VINA RESULT:     -13.6      3.502     10.280
REMARK SMILES Cc1cccc(-c2ncc(C[NH+]3CCC4(CC3)NC(=O)C[C@H]4C(=O)NCCCNC(=O)c3ccc(-c4c5nc(c(-c6cc(S(=O)(=O)[O-])ccc6F)c6ccc([nH]6)c(-c6cc(S(=O)(=O)[O-])ccc6F)c6nc(c(-c7cc(S(=O)(=O)[O-])ccc7F)c7ccc4[nH]7)C=C6)C=C5)cc3)cn2)c1
REMARK SMILES IDX 27 1 26 2 25 3 23 4 24 5 22 7 12 8 13 9 17 10 14 12 16 13
REMARK SMILES IDX 15 14 18 15 19 16 21 18 20 19 11 20 10 21 7 22 8 23 96 24
REMARK SMILES IDX 9 25 95 26 6 27 1 28 2 29 3 30 97 31 4 32 5 33 28 34 29 35
REMARK SMILES IDX 30 36 31 38 32 39 33 40 94 41 34 42 93 43 35 44 36 45 37 46
REMARK SMILES IDX 87 47 38 48 92 49 86 50 88 51 39 52 91 53 85 54 84 55 40 57
REMARK SMILES IDX 72 58 52 59 71 60 53 61 56 62 70 63 89 64 54 65 55 66 69 68
REMARK SMILES IDX 90 69 57 70 41 71 42 72 50 73 43 74 49 75 51 76 48 77 44 78
REMARK SMILES IDX 45 79 46 80 47 81 73 82 74 83 82 84 75 85 81 86 83 87 80 88
REMARK SMILES IDX 76 89 77 90 78 91 79 92 58 93 59 94 67 95 60 96 66 97 68 98
REMARK SMILES IDX 65 99 61 100 62 101 63 102 64 103
REMARK H PARENT 25 6 12 11 18 17 29 37 88 56 56 67
REMARK Flexibility Score: inf
ROOT
ATOM      1  C   UNL A   1      34.590  29.064  26.181  1.00  0.00     0.042 C 
ENDROOT
BRANCH   1   2
ATOM      2  C   UNL A   1      33.405  29.155  25.224  1.00  0.00     0.117 C 
BRANCH   2   3
ATOM      3  N   UNL A   1      33.574  28.499  23.926  1.00  0.00    -0.356 N 
ATOM      4  C   UNL A   1      33.052  27.375  23.352  1.00  0.00     0.226 C 
ATOM      5  O   UNL A   1      33.407  27.086  22.202  1.00  0.00    -0.275 OA
ATOM      6  H   UNL A   1      34.204  28.973  23.337  1.00  0.00     0.163 HD
BRANCH   4   7
ATOM      7  C   UNL A   1      32.095  26.394  24.064  1.00  0.00     0.114 C 
ATOM      8  N   UNL A   1      34.178  22.817  24.535  1.00  0.00    -0.331 N 
ATOM      9  C   UNL A   1      32.723  22.805  24.563  1.00  0.00     0.264 C 
ATOM     10  C   UNL A   1      34.661  24.074  23.997  1.00  0.00     0.264 C 
ATOM     11  H   UNL A   1      34.405  22.062  23.885  1.00  0.00     0.348 HD
ATOM     12  C   UNL A   1      32.035  24.014  25.208  1.00  0.00     0.091 C 
ATOM     13  C   UNL A   1      34.232  25.256  24.846  1.00  0.00     0.091 C 
ATOM     14  C   UNL A   1      32.726  25.406  25.071  1.00  0.00     0.063 C 
ATOM     15  N   UNL A   1      32.401  26.058  26.332  1.00  0.00    -0.349 N 
ATOM     16  C   UNL A   1      31.323  26.919  26.263  1.00  0.00     0.221 C 
ATOM     17  H   UNL A   1      32.906  25.899  27.163  1.00  0.00     0.164 HD
ATOM     18  C   UNL A   1      30.997  27.155  24.814  1.00  0.00     0.116 C 
ATOM     19  O   UNL A   1      30.748  27.393  27.218  1.00  0.00    -0.275 OA
BRANCH   8  20
ATOM     20  C   UNL A   1      34.951  22.247  25.654  1.00  0.00     0.302 C 
BRANCH  20  21
ATOM     21  C   UNL A   1      36.443  22.449  25.656  1.00  0.00     0.043 A 
ATOM     22  C   UNL A   1      39.112  22.577  26.187  1.00  0.00     0.159 A 
ATOM     23  N   UNL A   1      38.634  21.453  25.613  1.00  0.00    -0.236 NA
ATOM     24  N   UNL A   1      38.382  23.688  26.405  1.00  0.00    -0.236 NA
ATOM     25  C   UNL A   1      37.316  21.438  25.324  1.00  0.00     0.124 A 
ATOM     26  C   UNL A   1      37.057  23.595  26.137  1.00  0.00     0.124 A 
BRANCH  22  27
ATOM     27  C   UNL A   1      40.487  22.529  26.705  1.00  0.00     0.019 A 
ATOM     28  C   UNL A   1      43.999  21.580  25.476  1.00  0.00     0.044 C 
ATOM     29  C   UNL A   1      42.884  22.067  26.358  1.00  0.00    -0.050 A 
ATOM     30  C   UNL A   1      43.139  22.436  27.679  1.00  0.00     0.003 A 
ATOM     31  C   UNL A   1      41.566  22.142  25.882  1.00  0.00     0.015 A 
ATOM     32  C   UNL A   1      42.091  22.830  28.512  1.00  0.00     0.001 A 
ATOM     33  C   UNL A   1      40.776  22.859  28.035  1.00  0.00     0.012 A 
ENDBRANCH  22  27
ENDBRANCH  20  21
ENDBRANCH   8  20
ENDBRANCH   4   7
ENDBRANCH   2   3
ENDBRANCH   1   2
BRANCH   1  34
ATOM     34  C   UNL A   1      34.257  29.113  27.664  1.00  0.00     0.118 C 
BRANCH  34  35
ATOM     35  N   UNL A   1      34.969  30.207  28.340  1.00  0.00    -0.352 N 
ATOM     36  C   UNL A   1      36.281  30.347  28.755  1.00  0.00     0.251 C 
ATOM     37  H   UNL A   1      34.404  30.989  28.536  1.00  0.00     0.163 HD
ATOM     38  O   UNL A   1      36.675  31.330  29.377  1.00  0.00    -0.269 OA
BRANCH  36  39
ATOM     39  C   UNL A   1      37.285  29.386  28.251  1.00  0.00     0.039 A 
ATOM     40  C   UNL A   1      37.425  28.236  29.044  1.00  0.00     0.014 A 
ATOM     41  C   UNL A   1      38.325  29.859  27.467  1.00  0.00     0.014 A 
ATOM     42  C   UNL A   1      38.699  27.805  29.360  1.00  0.00     0.010 A 
ATOM     43  C   UNL A   1      39.590  29.526  27.881  1.00  0.00     0.010 A 
ATOM     44  C   UNL A   1      39.758  28.567  28.888  1.00  0.00    -0.014 A 
BRANCH  44  45
ATOM     45  C   UNL A   1      41.117  28.411  29.348  1.00  0.00     0.031 A 
ATOM     46  C   UNL A   1      41.915  27.409  28.636  1.00  0.00     0.074 A 
ATOM     47  C   UNL A   1      41.596  29.242  30.300  1.00  0.00     0.049 A 
ATOM     48  N   UNL A   1      42.935  26.807  29.123  1.00  0.00    -0.248 NA
ATOM     49  C   UNL A   1      41.555  26.935  27.299  1.00  0.00     0.031 C 
ATOM     50  C   UNL A   1      42.980  29.443  30.716  1.00  0.00     0.029 A 
ATOM     51  N   UNL A   1      40.846  29.935  31.254  1.00  0.00    -0.354 N 
ATOM     52  C   UNL A   1      43.550  26.151  28.080  1.00  0.00     0.074 A 
ATOM     53  C   UNL A   1      42.594  26.154  27.006  1.00  0.00     0.031 C 
ATOM     54  C   UNL A   1      42.988  29.953  31.962  1.00  0.00     0.029 A 
ATOM     55  C   UNL A   1      41.613  29.948  32.436  1.00  0.00     0.049 A 
ATOM     56  H   UNL A   1      39.956  30.335  31.126  1.00  0.00     0.167 HD
ATOM     57  C   UNL A   1      44.869  25.850  28.203  1.00  0.00     0.034 A 
ATOM     58  C   UNL A   1      41.171  29.277  33.541  1.00  0.00     0.034 A 
ATOM     59  C   UNL A   1      45.338  26.234  29.533  1.00  0.00     0.049 A 
ATOM     60  C   UNL A   1      42.076  28.122  33.898  1.00  0.00     0.074 A 
ATOM     61  C   UNL A   1      45.972  27.371  30.008  1.00  0.00     0.029 A 
ATOM     62  N   UNL A   1      44.807  25.586  30.639  1.00  0.00    -0.354 N 
ATOM     63  N   UNL A   1      42.861  27.514  33.047  1.00  0.00    -0.248 NA
ATOM     64  C   UNL A   1      42.217  27.613  35.256  1.00  0.00     0.031 C 
ATOM     65  C   UNL A   1      45.753  27.433  31.411  1.00  0.00     0.029 A 
ATOM     66  C   UNL A   1      45.020  26.319  31.787  1.00  0.00     0.049 A 
ATOM     67  H   UNL A   1      44.341  24.719  30.608  1.00  0.00     0.167 HD
ATOM     68  C   UNL A   1      43.624  26.584  33.710  1.00  0.00     0.074 A 
ATOM     69  C   UNL A   1      43.183  26.693  35.091  1.00  0.00     0.031 C 
ATOM     70  C   UNL A   1      44.561  25.813  33.072  1.00  0.00     0.034 A 
BRANCH  57  71
ATOM     71  C   UNL A   1      45.795  25.530  27.059  1.00  0.00     0.023 A 
ATOM     72  C   UNL A   1      46.234  26.598  26.253  1.00  0.00     0.031 A 
ATOM     73  C   UNL A   1      46.252  24.255  26.674  1.00  0.00     0.131 A 
ATOM     74  C   UNL A   1      47.008  26.387  25.101  1.00  0.00     0.055 A 
ATOM     75  C   UNL A   1      46.996  24.036  25.505  1.00  0.00     0.041 A 
ATOM     76  F   UNL A   1      46.048  23.169  27.428  1.00  0.00    -0.206 F 
ATOM     77  C   UNL A   1      47.374  25.106  24.706  1.00  0.00     0.022 A 
BRANCH  74  78
ATOM     78  S   UNL A   1      47.529  27.827  24.135  1.00  0.00     0.124 S 
ATOM     79  O   UNL A   1      47.694  27.257  22.801  1.00  0.00    -0.237 OA
ATOM     80  O   UNL A   1      46.406  28.742  24.313  1.00  0.00    -0.237 OA
ATOM     81  O   UNL A   1      48.770  28.240  24.788  1.00  0.00    -0.744 OA
ENDBRANCH  74  78
ENDBRANCH  57  71
BRANCH  58  82
ATOM     82  C   UNL A   1      39.681  29.327  33.675  1.00  0.00     0.023 A 
ATOM     83  C   UNL A   1      39.148  30.546  34.146  1.00  0.00     0.031 A 
ATOM     84  C   UNL A   1      38.844  28.500  32.915  1.00  0.00     0.131 A 
ATOM     85  C   UNL A   1      37.926  31.018  33.646  1.00  0.00     0.055 A 
ATOM     86  C   UNL A   1      37.577  28.937  32.501  1.00  0.00     0.041 A 
ATOM     87  F   UNL A   1      39.290  27.330  32.433  1.00  0.00    -0.206 F 
ATOM     88  C   UNL A   1      37.142  30.228  32.807  1.00  0.00     0.022 A 
BRANCH  85  89
ATOM     89  S   UNL A   1      37.578  32.789  33.819  1.00  0.00     0.124 S 
ATOM     90  O   UNL A   1      36.780  32.838  35.037  1.00  0.00    -0.237 OA
ATOM     91  O   UNL A   1      38.924  33.356  33.910  1.00  0.00    -0.237 OA
ATOM     92  O   UNL A   1      36.871  33.134  32.587  1.00  0.00    -0.744 OA
ENDBRANCH  85  89
ENDBRANCH  58  82
BRANCH  70  93
ATOM     93  C   UNL A   1      45.206  24.553  33.620  1.00  0.00     0.023 A 
ATOM     94  C   UNL A   1      46.497  24.531  34.155  1.00  0.00     0.031 A 
ATOM     95  C   UNL A   1      44.506  23.320  33.698  1.00  0.00     0.131 A 
ATOM     96  C   UNL A   1      47.079  23.342  34.624  1.00  0.00     0.055 A 
ATOM     97  C   UNL A   1      45.044  22.162  34.266  1.00  0.00     0.041 A 
ATOM     98  F   UNL A   1      43.254  23.173  33.240  1.00  0.00    -0.206 F 
ATOM     99  C   UNL A   1      46.353  22.160  34.712  1.00  0.00     0.022 A 
BRANCH  96 100
ATOM    100  S   UNL A   1      48.841  23.376  35.021  1.00  0.00     0.124 S 
ATOM    101  O   UNL A   1      48.912  24.491  35.963  1.00  0.00    -0.237 OA
ATOM    102  O   UNL A   1      49.060  22.052  35.593  1.00  0.00    -0.237 OA
ATOM    103  O   UNL A   1      49.480  23.612  33.729  1.00  0.00    -0.744 OA
ENDBRANCH  96 100
ENDBRANCH  70  93
ENDBRANCH  44  45
ENDBRANCH  36  39
ENDBRANCH  34  35
ENDBRANCH   1  34
TORSDOF 16
ENDMDL
