MODEL 1
REMARK VINA RESULT:     -11.6      0.000      0.000
REMARK SMILES Cc1ccsc1CNS(=O)(=O)c1ccc(C(=O)NCCCNC(=O)c2ccc(-c3c4nc(c(-c5cc(S(=O)(=O)[O-])ccc5F)c5ccc([nH]5)c(-c5cc(S(=O)(=O)[O-])ccc5F)c5nc(c(-c6cc(S(=O)(=O)[O-])ccc6F)c6ccc3[nH]6)C=C5)C=C4)cc2)s1
REMARK SMILES IDX 19 1 18 2 16 3 17 4 15 6 12 7 13 8 88 9 14 10 9 11 10 12
REMARK SMILES IDX 11 13 8 14 7 16 6 17 1 18 2 19 3 20 4 21 5 22 20 23 21 24
REMARK SMILES IDX 22 25 23 26 24 28 25 29 26 30 87 31 27 32 86 33 28 34 29 35
REMARK SMILES IDX 30 36 80 37 31 38 85 39 79 40 81 41 32 42 84 43 78 44 77 45
REMARK SMILES IDX 33 47 65 48 45 49 64 50 46 51 49 52 63 53 82 54 47 55 48 56
REMARK SMILES IDX 62 58 83 59 50 60 34 61 35 62 43 63 36 64 42 65 44 66 41 67
REMARK SMILES IDX 37 68 38 69 39 70 40 71 66 72 67 73 75 74 68 75 74 76 76 77
REMARK SMILES IDX 73 78 69 79 70 80 71 81 72 82 51 83 52 84 60 85 53 86 59 87
REMARK SMILES IDX 61 88 58 89 54 90 55 91 56 92 57 93
REMARK H PARENT 18 5 8 15 22 27 81 46 49 57
REMARK Flexibility Score: inf
ROOT
ATOM      1  C   UNL A   1      31.714  30.257  26.422  1.00  0.00     0.118 C 
ENDROOT
BRANCH   1   2
ATOM      2  N   UNL A   1      31.749  30.092  24.984  1.00  0.00    -0.351 N 
ATOM      3  C   UNL A   1      32.089  29.024  24.192  1.00  0.00     0.261 C 
ATOM      4  O   UNL A   1      31.950  29.210  22.979  1.00  0.00    -0.268 OA
ATOM      5  H   UNL A   1      31.479  30.894  24.481  1.00  0.00     0.163 HD
BRANCH   3   6
ATOM      6  C   UNL A   1      32.525  27.753  24.760  1.00  0.00     0.093 A 
ATOM      7  C   UNL A   1      32.385  25.412  25.599  1.00  0.00     0.135 A 
ATOM      8  C   UNL A   1      33.598  26.003  25.890  1.00  0.00     0.034 A 
ATOM      9  S   UNL A   1      31.427  26.433  24.637  1.00  0.00    -0.117 S 
ATOM     10  C   UNL A   1      33.689  27.335  25.378  1.00  0.00     0.027 A 
BRANCH   7  11
ATOM     11  S   UNL A   1      31.718  23.829  26.048  1.00  0.00     0.250 S 
ATOM     12  O   UNL A   1      30.983  23.396  24.878  1.00  0.00    -0.206 OA
ATOM     13  O   UNL A   1      31.047  24.055  27.307  1.00  0.00    -0.206 OA
BRANCH  11  14
ATOM     14  N   UNL A   1      32.917  22.691  26.348  1.00  0.00    -0.205 NA
ATOM     15  H   UNL A   1      33.779  23.197  26.550  1.00  0.00     0.141 HD
BRANCH  14  16
ATOM     16  C   UNL A   1      33.207  21.731  25.275  1.00  0.00     0.145 C 
BRANCH  16  17
ATOM     17  C   UNL A   1      34.550  22.045  24.671  1.00  0.00     0.022 A 
ATOM     18  C   UNL A   1      33.875  23.625  22.748  1.00  0.00     0.045 C 
ATOM     19  C   UNL A   1      34.850  22.860  23.585  1.00  0.00    -0.036 A 
ATOM     20  C   UNL A   1      36.266  22.906  23.350  1.00  0.00     0.015 A 
ATOM     21  C   UNL A   1      36.983  22.158  24.252  1.00  0.00     0.065 A 
ATOM     22  S   UNL A   1      35.973  21.404  25.398  1.00  0.00    -0.147 S 
ENDBRANCH  16  17
ENDBRANCH  14  16
ENDBRANCH  11  14
ENDBRANCH   7  11
ENDBRANCH   3   6
ENDBRANCH   1   2
BRANCH   1  23
ATOM     23  C   UNL A   1      31.526  31.721  26.807  1.00  0.00     0.042 C 
BRANCH  23  24
ATOM     24  C   UNL A   1      32.844  32.486  26.916  1.00  0.00     0.118 C 
BRANCH  24  25
ATOM     25  N   UNL A   1      32.652  33.812  27.488  1.00  0.00    -0.352 N 
ATOM     26  C   UNL A   1      33.199  34.378  28.613  1.00  0.00     0.251 C 
ATOM     27  H   UNL A   1      32.032  34.393  26.991  1.00  0.00     0.163 HD
ATOM     28  O   UNL A   1      32.701  35.408  29.060  1.00  0.00    -0.269 OA
BRANCH  26  29
ATOM     29  C   UNL A   1      34.365  33.761  29.284  1.00  0.00     0.039 A 
ATOM     30  C   UNL A   1      35.648  34.195  28.939  1.00  0.00     0.014 A 
ATOM     31  C   UNL A   1      34.204  32.721  30.203  1.00  0.00     0.014 A 
ATOM     32  C   UNL A   1      36.765  33.624  29.555  1.00  0.00     0.010 A 
ATOM     33  C   UNL A   1      35.314  32.201  30.867  1.00  0.00     0.010 A 
ATOM     34  C   UNL A   1      36.607  32.642  30.545  1.00  0.00    -0.014 A 
BRANCH  34  35
ATOM     35  C   UNL A   1      37.780  32.053  31.244  1.00  0.00     0.031 A 
ATOM     36  C   UNL A   1      38.548  30.925  30.608  1.00  0.00     0.074 A 
ATOM     37  C   UNL A   1      38.112  32.491  32.474  1.00  0.00     0.049 A 
ATOM     38  N   UNL A   1      39.534  30.216  31.094  1.00  0.00    -0.248 NA
ATOM     39  C   UNL A   1      38.132  30.526  29.255  1.00  0.00     0.031 C 
ATOM     40  C   UNL A   1      37.422  33.557  33.205  1.00  0.00     0.029 A 
ATOM     41  N   UNL A   1      39.105  32.091  33.333  1.00  0.00    -0.354 N 
ATOM     42  C   UNL A   1      39.847  29.277  30.116  1.00  0.00     0.074 A 
ATOM     43  C   UNL A   1      38.905  29.474  29.033  1.00  0.00     0.031 C 
ATOM     44  C   UNL A   1      38.024  33.737  34.392  1.00  0.00     0.029 A 
ATOM     45  C   UNL A   1      39.109  32.771  34.530  1.00  0.00     0.049 A 
ATOM     46  H   UNL A   1      39.753  31.382  33.114  1.00  0.00     0.167 HD
ATOM     47  C   UNL A   1      40.840  28.353  30.113  1.00  0.00     0.034 A 
ATOM     48  C   UNL A   1      39.888  32.622  35.620  1.00  0.00     0.034 A 
ATOM     49  C   UNL A   1      41.779  28.182  31.195  1.00  0.00     0.049 A 
ATOM     50  C   UNL A   1      40.969  31.571  35.601  1.00  0.00     0.074 A 
ATOM     51  C   UNL A   1      42.850  27.309  31.278  1.00  0.00     0.029 A 
ATOM     52  N   UNL A   1      41.757  28.895  32.387  1.00  0.00    -0.354 N 
ATOM     53  N   UNL A   1      41.277  30.718  34.651  1.00  0.00    -0.248 NA
ATOM     54  C   UNL A   1      41.816  31.471  36.796  1.00  0.00     0.031 C 
ATOM     55  C   UNL A   1      43.435  27.449  32.541  1.00  0.00     0.029 A 
ATOM     56  C   UNL A   1      42.778  28.463  33.220  1.00  0.00     0.049 A 
ATOM     57  H   UNL A   1      41.110  29.603  32.609  1.00  0.00     0.167 HD
ATOM     58  C   UNL A   1      42.376  30.005  35.123  1.00  0.00     0.074 A 
ATOM     59  C   UNL A   1      42.684  30.538  36.433  1.00  0.00     0.031 C 
ATOM     60  C   UNL A   1      43.071  29.003  34.526  1.00  0.00     0.034 A 
BRANCH  47  61
ATOM     61  C   UNL A   1      40.942  27.444  28.910  1.00  0.00     0.023 A 
ATOM     62  C   UNL A   1      41.915  27.643  27.915  1.00  0.00     0.031 A 
ATOM     63  C   UNL A   1      40.044  26.374  28.746  1.00  0.00     0.131 A 
ATOM     64  C   UNL A   1      41.921  26.834  26.768  1.00  0.00     0.055 A 
ATOM     65  C   UNL A   1      40.107  25.522  27.642  1.00  0.00     0.041 A 
ATOM     66  F   UNL A   1      39.080  26.146  29.652  1.00  0.00    -0.206 F 
ATOM     67  C   UNL A   1      41.041  25.758  26.637  1.00  0.00     0.022 A 
BRANCH  64  68
ATOM     68  S   UNL A   1      43.006  27.294  25.390  1.00  0.00     0.124 S 
ATOM     69  O   UNL A   1      42.228  28.345  24.741  1.00  0.00    -0.237 OA
ATOM     70  O   UNL A   1      44.220  27.728  26.074  1.00  0.00    -0.237 OA
ATOM     71  O   UNL A   1      43.130  26.057  24.623  1.00  0.00    -0.744 OA
ENDBRANCH  64  68
ENDBRANCH  47  61
BRANCH  48  72
ATOM     72  C   UNL A   1      39.676  33.473  36.826  1.00  0.00     0.023 A 
ATOM     73  C   UNL A   1      39.031  32.963  37.965  1.00  0.00     0.031 A 
ATOM     74  C   UNL A   1      40.067  34.824  36.840  1.00  0.00     0.131 A 
ATOM     75  C   UNL A   1      38.746  33.811  39.047  1.00  0.00     0.055 A 
ATOM     76  C   UNL A   1      39.832  35.648  37.943  1.00  0.00     0.041 A 
ATOM     77  F   UNL A   1      40.693  35.361  35.781  1.00  0.00    -0.206 F 
ATOM     78  C   UNL A   1      39.154  35.146  39.049  1.00  0.00     0.022 A 
BRANCH  75  79
ATOM     79  S   UNL A   1      37.743  33.164  40.413  1.00  0.00     0.124 S 
ATOM     80  O   UNL A   1      38.482  31.962  40.782  1.00  0.00    -0.237 OA
ATOM     81  O   UNL A   1      37.789  34.266  41.367  1.00  0.00    -0.237 OA
ATOM     82  O   UNL A   1      36.439  32.930  39.795  1.00  0.00    -0.744 OA
ENDBRANCH  75  79
ENDBRANCH  48  72
BRANCH  60  83
ATOM     83  C   UNL A   1      44.266  28.461  35.271  1.00  0.00     0.023 A 
ATOM     84  C   UNL A   1      44.135  27.486  36.275  1.00  0.00     0.031 A 
ATOM     85  C   UNL A   1      45.555  28.941  34.978  1.00  0.00     0.131 A 
ATOM     86  C   UNL A   1      45.266  27.063  36.989  1.00  0.00     0.055 A 
ATOM     87  C   UNL A   1      46.684  28.472  35.650  1.00  0.00     0.041 A 
ATOM     88  F   UNL A   1      45.738  29.875  34.030  1.00  0.00    -0.206 F 
ATOM     89  C   UNL A   1      46.542  27.537  36.672  1.00  0.00     0.022 A 
BRANCH  86  90
ATOM     90  S   UNL A   1      45.038  25.950  38.402  1.00  0.00     0.124 S 
ATOM     91  O   UNL A   1      44.122  26.712  39.245  1.00  0.00    -0.237 OA
ATOM     92  O   UNL A   1      44.481  24.756  37.774  1.00  0.00    -0.237 OA
ATOM     93  O   UNL A   1      46.389  25.794  38.939  1.00  0.00    -0.744 OA
ENDBRANCH  86  90
ENDBRANCH  60  83
ENDBRANCH  34  35
ENDBRANCH  26  29
ENDBRANCH  24  25
ENDBRANCH  23  24
ENDBRANCH   1  23
TORSDOF 17
ENDMDL
MODEL 2
REMARK VINA RESULT:     -11.4      2.310      3.477
REMARK SMILES Cc1ccsc1CNS(=O)(=O)c1ccc(C(=O)NCCCNC(=O)c2ccc(-c3c4nc(c(-c5cc(S(=O)(=O)[O-])ccc5F)c5ccc([nH]5)c(-c5cc(S(=O)(=O)[O-])ccc5F)c5nc(c(-c6cc(S(=O)(=O)[O-])ccc6F)c6ccc3[nH]6)C=C5)C=C4)cc2)s1
REMARK SMILES IDX 19 1 18 2 16 3 17 4 15 6 12 7 13 8 88 9 14 10 9 11 10 12
REMARK SMILES IDX 11 13 8 14 7 16 6 17 1 18 2 19 3 20 4 21 5 22 20 23 21 24
REMARK SMILES IDX 22 25 23 26 24 28 25 29 26 30 87 31 27 32 86 33 28 34 29 35
REMARK SMILES IDX 30 36 80 37 31 38 85 39 79 40 81 41 32 42 84 43 78 44 77 45
REMARK SMILES IDX 33 47 65 48 45 49 64 50 46 51 49 52 63 53 82 54 47 55 48 56
REMARK SMILES IDX 62 58 83 59 50 60 34 61 35 62 43 63 36 64 42 65 44 66 41 67
REMARK SMILES IDX 37 68 38 69 39 70 40 71 66 72 67 73 75 74 68 75 74 76 76 77
REMARK SMILES IDX 73 78 69 79 70 80 71 81 72 82 51 83 52 84 60 85 53 86 59 87
REMARK SMILES IDX 61 88 58 89 54 90 55 91 56 92 57 93
REMARK H PARENT 18 5 8 15 22 27 81 46 49 57
REMARK Flexibility Score: inf
ROOT
ATOM      1  C   UNL A   1      31.881  30.491  26.732  1.00  0.00     0.118 C 
ENDROOT
BRANCH   1   2
ATOM      2  N   UNL A   1      33.187  30.081  27.204  1.00  0.00    -0.351 N 
ATOM      3  C   UNL A   1      33.923  28.942  26.988  1.00  0.00     0.261 C 
ATOM      4  O   UNL A   1      35.044  28.942  27.506  1.00  0.00    -0.268 OA
ATOM      5  H   UNL A   1      33.628  30.739  27.787  1.00  0.00     0.163 HD
BRANCH   3   6
ATOM      6  C   UNL A   1      33.425  27.851  26.159  1.00  0.00     0.093 A 
ATOM      7  C   UNL A   1      32.774  26.603  24.103  1.00  0.00     0.135 A 
ATOM      8  C   UNL A   1      32.365  25.966  25.257  1.00  0.00     0.034 A 
ATOM      9  S   UNL A   1      33.715  27.970  24.466  1.00  0.00    -0.117 S 
ATOM     10  C   UNL A   1      32.769  26.665  26.436  1.00  0.00     0.027 A 
BRANCH   7  11
ATOM     11  S   UNL A   1      32.487  26.223  22.393  1.00  0.00     0.250 S 
ATOM     12  O   UNL A   1      31.883  24.908  22.405  1.00  0.00    -0.206 OA
ATOM     13  O   UNL A   1      33.760  26.452  21.747  1.00  0.00    -0.206 OA
BRANCH  11  14
ATOM     14  N   UNL A   1      31.396  27.280  21.676  1.00  0.00    -0.205 NA
ATOM     15  H   UNL A   1      31.717  27.456  20.723  1.00  0.00     0.141 HD
BRANCH  14  16
ATOM     16  C   UNL A   1      31.204  28.582  22.327  1.00  0.00     0.145 C 
BRANCH  16  17
ATOM     17  C   UNL A   1      29.731  28.849  22.491  1.00  0.00     0.022 A 
ATOM     18  C   UNL A   1      29.001  26.790  23.860  1.00  0.00     0.045 C 
ATOM     19  C   UNL A   1      28.774  28.087  23.150  1.00  0.00    -0.036 A 
ATOM     20  C   UNL A   1      27.484  28.714  23.090  1.00  0.00     0.015 A 
ATOM     21  C   UNL A   1      27.501  29.913  22.419  1.00  0.00     0.065 A 
ATOM     22  S   UNL A   1      29.064  30.308  21.867  1.00  0.00    -0.147 S 
ENDBRANCH  16  17
ENDBRANCH  14  16
ENDBRANCH  11  14
ENDBRANCH   7  11
ENDBRANCH   3   6
ENDBRANCH   1   2
BRANCH   1  23
ATOM     23  C   UNL A   1      31.664  31.988  26.936  1.00  0.00     0.042 C 
BRANCH  23  24
ATOM     24  C   UNL A   1      32.965  32.757  27.158  1.00  0.00     0.118 C 
BRANCH  24  25
ATOM     25  N   UNL A   1      32.721  34.078  27.721  1.00  0.00    -0.352 N 
ATOM     26  C   UNL A   1      33.230  34.667  28.852  1.00  0.00     0.251 C 
ATOM     27  H   UNL A   1      32.091  34.638  27.210  1.00  0.00     0.163 HD
ATOM     28  O   UNL A   1      32.691  35.682  29.286  1.00  0.00    -0.269 OA
BRANCH  26  29
ATOM     29  C   UNL A   1      34.403  34.090  29.546  1.00  0.00     0.039 A 
ATOM     30  C   UNL A   1      34.190  33.248  30.643  1.00  0.00     0.014 A 
ATOM     31  C   UNL A   1      35.705  34.416  29.161  1.00  0.00     0.014 A 
ATOM     32  C   UNL A   1      35.281  32.695  31.318  1.00  0.00     0.010 A 
ATOM     33  C   UNL A   1      36.791  33.809  29.790  1.00  0.00     0.010 A 
ATOM     34  C   UNL A   1      36.591  32.947  30.880  1.00  0.00    -0.014 A 
BRANCH  34  35
ATOM     35  C   UNL A   1      37.764  32.334  31.557  1.00  0.00     0.031 A 
ATOM     36  C   UNL A   1      38.524  31.221  30.887  1.00  0.00     0.074 A 
ATOM     37  C   UNL A   1      38.104  32.738  32.797  1.00  0.00     0.049 A 
ATOM     38  N   UNL A   1      39.509  30.494  31.349  1.00  0.00    -0.248 NA
ATOM     39  C   UNL A   1      38.100  30.860  29.526  1.00  0.00     0.031 C 
ATOM     40  C   UNL A   1      37.423  33.787  33.559  1.00  0.00     0.029 A 
ATOM     41  N   UNL A   1      39.098  32.309  33.640  1.00  0.00    -0.354 N 
ATOM     42  C   UNL A   1      39.813  29.581  30.345  1.00  0.00     0.074 A 
ATOM     43  C   UNL A   1      38.867  29.810  29.272  1.00  0.00     0.031 C 
ATOM     44  C   UNL A   1      38.031  33.932  34.748  1.00  0.00     0.029 A 
ATOM     45  C   UNL A   1      39.112  32.957  34.855  1.00  0.00     0.049 A 
ATOM     46  H   UNL A   1      39.742  31.604  33.399  1.00  0.00     0.167 HD
ATOM     47  C   UNL A   1      40.801  28.652  30.312  1.00  0.00     0.034 A 
ATOM     48  C   UNL A   1      39.894  32.775  35.937  1.00  0.00     0.034 A 
ATOM     49  C   UNL A   1      41.744  28.447  31.385  1.00  0.00     0.049 A 
ATOM     50  C   UNL A   1      40.971  31.720  35.885  1.00  0.00     0.074 A 
ATOM     51  C   UNL A   1      42.811  27.568  31.439  1.00  0.00     0.029 A 
ATOM     52  N   UNL A   1      41.731  29.128  32.596  1.00  0.00    -0.354 N 
ATOM     53  N   UNL A   1      41.270  30.892  34.910  1.00  0.00    -0.248 NA
ATOM     54  C   UNL A   1      41.822  31.584  37.073  1.00  0.00     0.031 C 
ATOM     55  C   UNL A   1      43.403  27.671  32.703  1.00  0.00     0.029 A 
ATOM     56  C   UNL A   1      42.754  28.669  33.412  1.00  0.00     0.049 A 
ATOM     57  H   UNL A   1      41.088  29.833  32.840  1.00  0.00     0.167 HD
ATOM     58  C   UNL A   1      42.368  30.161  35.358  1.00  0.00     0.074 A 
ATOM     59  C   UNL A   1      42.685  30.657  36.681  1.00  0.00     0.031 C 
ATOM     60  C   UNL A   1      43.055  29.172  34.731  1.00  0.00     0.034 A 
BRANCH  47  61
ATOM     61  C   UNL A   1      40.893  27.775  29.085  1.00  0.00     0.023 A 
ATOM     62  C   UNL A   1      41.888  27.972  28.110  1.00  0.00     0.031 A 
ATOM     63  C   UNL A   1      39.965  26.740  28.876  1.00  0.00     0.131 A 
ATOM     64  C   UNL A   1      41.887  27.197  26.940  1.00  0.00     0.055 A 
ATOM     65  C   UNL A   1      40.019  25.918  27.748  1.00  0.00     0.041 A 
ATOM     66  F   UNL A   1      38.981  26.516  29.761  1.00  0.00    -0.206 F 
ATOM     67  C   UNL A   1      40.975  26.153  26.765  1.00  0.00     0.022 A 
BRANCH  64  68
ATOM     68  S   UNL A   1      43.007  27.662  25.592  1.00  0.00     0.124 S 
ATOM     69  O   UNL A   1      42.106  28.383  24.697  1.00  0.00    -0.237 OA
ATOM     70  O   UNL A   1      44.008  28.470  26.278  1.00  0.00    -0.237 OA
ATOM     71  O   UNL A   1      43.482  26.377  25.083  1.00  0.00    -0.744 OA
ENDBRANCH  64  68
ENDBRANCH  47  61
BRANCH  48  72
ATOM     72  C   UNL A   1      39.692  33.594  37.167  1.00  0.00     0.023 A 
ATOM     73  C   UNL A   1      40.509  34.703  37.439  1.00  0.00     0.031 A 
ATOM     74  C   UNL A   1      38.712  33.248  38.116  1.00  0.00     0.131 A 
ATOM     75  C   UNL A   1      40.371  35.393  38.653  1.00  0.00     0.055 A 
ATOM     76  C   UNL A   1      38.541  33.974  39.297  1.00  0.00     0.041 A 
ATOM     77  F   UNL A   1      37.899  32.201  37.903  1.00  0.00    -0.206 F 
ATOM     78  C   UNL A   1      39.385  35.044  39.578  1.00  0.00     0.022 A 
BRANCH  75  79
ATOM     79  S   UNL A   1      41.571  36.694  39.051  1.00  0.00     0.124 S 
ATOM     80  O   UNL A   1      40.735  37.666  39.748  1.00  0.00    -0.237 OA
ATOM     81  O   UNL A   1      42.537  35.972  39.871  1.00  0.00    -0.237 OA
ATOM     82  O   UNL A   1      42.060  37.117  37.740  1.00  0.00    -0.744 OA
ENDBRANCH  75  79
ENDBRANCH  48  72
BRANCH  60  83
ATOM     83  C   UNL A   1      44.251  28.605  35.455  1.00  0.00     0.023 A 
ATOM     84  C   UNL A   1      44.130  27.545  36.371  1.00  0.00     0.031 A 
ATOM     85  C   UNL A   1      45.530  29.145  35.234  1.00  0.00     0.131 A 
ATOM     86  C   UNL A   1      45.259  27.097  37.073  1.00  0.00     0.055 A 
ATOM     87  C   UNL A   1      46.659  28.654  35.890  1.00  0.00     0.041 A 
ATOM     88  F   UNL A   1      45.703  30.160  34.372  1.00  0.00    -0.206 F 
ATOM     89  C   UNL A   1      46.525  27.633  36.826  1.00  0.00     0.022 A 
BRANCH  86  90
ATOM     90  S   UNL A   1      45.036  25.862  38.383  1.00  0.00     0.124 S 
ATOM     91  O   UNL A   1      44.229  24.848  37.711  1.00  0.00    -0.237 OA
ATOM     92  O   UNL A   1      46.411  25.480  38.689  1.00  0.00    -0.237 OA
ATOM     93  O   UNL A   1      44.349  26.602  39.440  1.00  0.00    -0.744 OA
ENDBRANCH  86  90
ENDBRANCH  60  83
ENDBRANCH  34  35
ENDBRANCH  26  29
ENDBRANCH  24  25
ENDBRANCH  23  24
ENDBRANCH   1  23
TORSDOF 17
ENDMDL
MODEL 3
REMARK VINA RESULT:     -11.4      1.380      1.899
REMARK SMILES Cc1ccsc1CNS(=O)(=O)c1ccc(C(=O)NCCCNC(=O)c2ccc(-c3c4nc(c(-c5cc(S(=O)(=O)[O-])ccc5F)c5ccc([nH]5)c(-c5cc(S(=O)(=O)[O-])ccc5F)c5nc(c(-c6cc(S(=O)(=O)[O-])ccc6F)c6ccc3[nH]6)C=C5)C=C4)cc2)s1
REMARK SMILES IDX 19 1 18 2 16 3 17 4 15 6 12 7 13 8 88 9 14 10 9 11 10 12
REMARK SMILES IDX 11 13 8 14 7 16 6 17 1 18 2 19 3 20 4 21 5 22 20 23 21 24
REMARK SMILES IDX 22 25 23 26 24 28 25 29 26 30 87 31 27 32 86 33 28 34 29 35
REMARK SMILES IDX 30 36 80 37 31 38 85 39 79 40 81 41 32 42 84 43 78 44 77 45
REMARK SMILES IDX 33 47 65 48 45 49 64 50 46 51 49 52 63 53 82 54 47 55 48 56
REMARK SMILES IDX 62 58 83 59 50 60 34 61 35 62 43 63 36 64 42 65 44 66 41 67
REMARK SMILES IDX 37 68 38 69 39 70 40 71 66 72 67 73 75 74 68 75 74 76 76 77
REMARK SMILES IDX 73 78 69 79 70 80 71 81 72 82 51 83 52 84 60 85 53 86 59 87
REMARK SMILES IDX 61 88 58 89 54 90 55 91 56 92 57 93
REMARK H PARENT 18 5 8 15 22 27 81 46 49 57
REMARK Flexibility Score: inf
ROOT
ATOM      1  C   UNL A   1      31.668  30.842  25.914  1.00  0.00     0.118 C 
ENDROOT
BRANCH   1   2
ATOM      2  N   UNL A   1      32.766  30.123  26.526  1.00  0.00    -0.351 N 
ATOM      3  C   UNL A   1      33.597  29.141  26.048  1.00  0.00     0.261 C 
ATOM      4  O   UNL A   1      34.482  28.782  26.832  1.00  0.00    -0.268 OA
ATOM      5  H   UNL A   1      32.950  30.388  27.456  1.00  0.00     0.163 HD
BRANCH   3   6
ATOM      6  C   UNL A   1      33.467  28.614  24.695  1.00  0.00     0.093 A 
ATOM      7  C   UNL A   1      33.144  26.951  22.868  1.00  0.00     0.135 A 
ATOM      8  C   UNL A   1      33.544  28.183  22.393  1.00  0.00     0.034 A 
ATOM      9  S   UNL A   1      32.867  27.007  24.543  1.00  0.00    -0.117 S 
ATOM     10  C   UNL A   1      33.696  29.146  23.439  1.00  0.00     0.027 A 
BRANCH   7  11
ATOM     11  S   UNL A   1      32.881  25.405  22.036  1.00  0.00     0.250 S 
ATOM     12  O   UNL A   1      33.225  25.669  20.655  1.00  0.00    -0.206 OA
ATOM     13  O   UNL A   1      31.541  25.010  22.407  1.00  0.00    -0.206 OA
BRANCH  11  14
ATOM     14  N   UNL A   1      33.902  24.195  22.594  1.00  0.00    -0.205 NA
ATOM     15  H   UNL A   1      34.734  24.195  22.002  1.00  0.00     0.141 HD
BRANCH  14  16
ATOM     16  C   UNL A   1      33.369  22.826  22.608  1.00  0.00     0.145 C 
BRANCH  16  17
ATOM     17  C   UNL A   1      33.642  22.195  23.947  1.00  0.00     0.022 A 
ATOM     18  C   UNL A   1      32.507  19.898  23.656  1.00  0.00     0.045 C 
ATOM     19  C   UNL A   1      33.278  20.935  24.409  1.00  0.00    -0.036 A 
ATOM     20  C   UNL A   1      33.758  20.716  25.744  1.00  0.00     0.015 A 
ATOM     21  C   UNL A   1      34.469  21.783  26.239  1.00  0.00     0.065 A 
ATOM     22  S   UNL A   1      34.584  23.050  25.107  1.00  0.00    -0.147 S 
ENDBRANCH  16  17
ENDBRANCH  14  16
ENDBRANCH  11  14
ENDBRANCH   7  11
ENDBRANCH   3   6
ENDBRANCH   1   2
BRANCH   1  23
ATOM     23  C   UNL A   1      31.460  32.202  26.575  1.00  0.00     0.042 C 
BRANCH  23  24
ATOM     24  C   UNL A   1      32.708  32.717  27.292  1.00  0.00     0.118 C 
BRANCH  24  25
ATOM     25  N   UNL A   1      32.564  34.111  27.689  1.00  0.00    -0.352 N 
ATOM     26  C   UNL A   1      33.151  34.802  28.720  1.00  0.00     0.251 C 
ATOM     27  H   UNL A   1      31.948  34.641  27.132  1.00  0.00     0.163 HD
ATOM     28  O   UNL A   1      32.690  35.896  29.038  1.00  0.00    -0.269 OA
BRANCH  26  29
ATOM     29  C   UNL A   1      34.314  34.243  29.443  1.00  0.00     0.039 A 
ATOM     30  C   UNL A   1      34.092  33.519  30.618  1.00  0.00     0.014 A 
ATOM     31  C   UNL A   1      35.620  34.477  29.005  1.00  0.00     0.014 A 
ATOM     32  C   UNL A   1      35.175  32.985  31.323  1.00  0.00     0.010 A 
ATOM     33  C   UNL A   1      36.694  33.885  29.669  1.00  0.00     0.010 A 
ATOM     34  C   UNL A   1      36.484  33.139  30.839  1.00  0.00    -0.014 A 
BRANCH  34  35
ATOM     35  C   UNL A   1      37.646  32.542  31.549  1.00  0.00     0.031 A 
ATOM     36  C   UNL A   1      38.393  31.389  30.935  1.00  0.00     0.074 A 
ATOM     37  C   UNL A   1      37.986  32.999  32.770  1.00  0.00     0.049 A 
ATOM     38  N   UNL A   1      39.366  30.671  31.436  1.00  0.00    -0.248 NA
ATOM     39  C   UNL A   1      37.969  30.970  29.591  1.00  0.00     0.031 C 
ATOM     40  C   UNL A   1      37.317  34.092  33.479  1.00  0.00     0.029 A 
ATOM     41  N   UNL A   1      38.972  32.598  33.637  1.00  0.00    -0.354 N 
ATOM     42  C   UNL A   1      39.661  29.708  30.477  1.00  0.00     0.074 A 
ATOM     43  C   UNL A   1      38.723  29.900  29.390  1.00  0.00     0.031 C 
ATOM     44  C   UNL A   1      37.922  34.285  34.663  1.00  0.00     0.029 A 
ATOM     45  C   UNL A   1      38.989  33.302  34.820  1.00  0.00     0.049 A 
ATOM     46  H   UNL A   1      39.606  31.874  33.432  1.00  0.00     0.167 HD
ATOM     47  C   UNL A   1      40.637  28.765  30.492  1.00  0.00     0.034 A 
ATOM     48  C   UNL A   1      39.765  33.160  35.913  1.00  0.00     0.034 A 
ATOM     49  C   UNL A   1      41.573  28.599  31.577  1.00  0.00     0.049 A 
ATOM     50  C   UNL A   1      40.827  32.089  35.915  1.00  0.00     0.074 A 
ATOM     51  C   UNL A   1      42.628  27.709  31.678  1.00  0.00     0.029 A 
ATOM     52  N   UNL A   1      41.565  29.336  32.755  1.00  0.00    -0.354 N 
ATOM     53  N   UNL A   1      41.119  31.212  34.982  1.00  0.00    -0.248 NA
ATOM     54  C   UNL A   1      41.672  31.998  37.112  1.00  0.00     0.031 C 
ATOM     55  C   UNL A   1      43.216  27.863  32.938  1.00  0.00     0.029 A 
ATOM     56  C   UNL A   1      42.578  28.902  33.596  1.00  0.00     0.049 A 
ATOM     57  H   UNL A   1      40.931  30.060  32.963  1.00  0.00     0.167 HD
ATOM     58  C   UNL A   1      42.205  30.489  35.468  1.00  0.00     0.074 A 
ATOM     59  C   UNL A   1      42.523  31.042  36.768  1.00  0.00     0.031 C 
ATOM     60  C   UNL A   1      42.881  29.463  34.892  1.00  0.00     0.034 A 
BRANCH  47  61
ATOM     61  C   UNL A   1      40.722  27.831  29.308  1.00  0.00     0.023 A 
ATOM     62  C   UNL A   1      41.701  27.990  28.310  1.00  0.00     0.031 A 
ATOM     63  C   UNL A   1      39.802  26.777  29.163  1.00  0.00     0.131 A 
ATOM     64  C   UNL A   1      41.692  27.159  27.180  1.00  0.00     0.055 A 
ATOM     65  C   UNL A   1      39.849  25.902  28.076  1.00  0.00     0.041 A 
ATOM     66  F   UNL A   1      38.833  26.587  30.071  1.00  0.00    -0.206 F 
ATOM     67  C   UNL A   1      40.789  26.099  27.068  1.00  0.00     0.022 A 
BRANCH  64  68
ATOM     68  S   UNL A   1      42.789  27.569  25.795  1.00  0.00     0.124 S 
ATOM     69  O   UNL A   1      42.616  29.016  25.702  1.00  0.00    -0.237 OA
ATOM     70  O   UNL A   1      44.088  27.110  26.274  1.00  0.00    -0.237 OA
ATOM     71  O   UNL A   1      42.230  26.809  24.679  1.00  0.00    -0.744 OA
ENDBRANCH  64  68
ENDBRANCH  47  61
BRANCH  48  72
ATOM     72  C   UNL A   1      39.569  34.038  37.102  1.00  0.00     0.023 A 
ATOM     73  C   UNL A   1      38.975  33.544  38.274  1.00  0.00     0.031 A 
ATOM     74  C   UNL A   1      39.924  35.399  37.067  1.00  0.00     0.131 A 
ATOM     75  C   UNL A   1      38.702  34.414  39.341  1.00  0.00     0.055 A 
ATOM     76  C   UNL A   1      39.703  36.248  38.153  1.00  0.00     0.041 A 
ATOM     77  F   UNL A   1      40.501  35.923  35.973  1.00  0.00    -0.206 F 
ATOM     78  C   UNL A   1      39.074  35.759  39.294  1.00  0.00     0.022 A 
BRANCH  75  79
ATOM     79  S   UNL A   1      37.761  33.780  40.757  1.00  0.00     0.124 S 
ATOM     80  O   UNL A   1      37.438  35.009  41.473  1.00  0.00    -0.237 OA
ATOM     81  O   UNL A   1      36.648  33.106  40.100  1.00  0.00    -0.237 OA
ATOM     82  O   UNL A   1      38.714  32.899  41.430  1.00  0.00    -0.744 OA
ENDBRANCH  75  79
ENDBRANCH  48  72
BRANCH  60  83
ATOM     83  C   UNL A   1      44.066  28.914  35.647  1.00  0.00     0.023 A 
ATOM     84  C   UNL A   1      43.947  27.819  36.521  1.00  0.00     0.031 A 
ATOM     85  C   UNL A   1      45.333  29.507  35.498  1.00  0.00     0.131 A 
ATOM     86  C   UNL A   1      45.062  27.388  37.256  1.00  0.00     0.055 A 
ATOM     87  C   UNL A   1      46.451  29.034  36.185  1.00  0.00     0.041 A 
ATOM     88  F   UNL A   1      45.503  30.556  34.677  1.00  0.00    -0.206 F 
ATOM     89  C   UNL A   1      46.317  27.977  37.081  1.00  0.00     0.022 A 
BRANCH  86  90
ATOM     90  S   UNL A   1      44.832  26.102  38.514  1.00  0.00     0.124 S 
ATOM     91  O   UNL A   1      46.202  25.655  38.746  1.00  0.00    -0.237 OA
ATOM     92  O   UNL A   1      44.210  26.843  39.608  1.00  0.00    -0.237 OA
ATOM     93  O   UNL A   1      43.964  25.127  37.855  1.00  0.00    -0.744 OA
ENDBRANCH  86  90
ENDBRANCH  60  83
ENDBRANCH  34  35
ENDBRANCH  26  29
ENDBRANCH  24  25
ENDBRANCH  23  24
ENDBRANCH   1  23
TORSDOF 17
ENDMDL
