MODEL 1
REMARK VINA RESULT:     -13.2      0.000      0.000
REMARK SMILES O=C1CC[C@@H](CC(=O)N2CCC(Oc3ccccc3)(C(=O)NCCCNC(=O)c3ccc(-c4c5nc(c(-c6cc(S(=O)(=O)[O-])ccc6F)c6ccc([nH]6)c(-c6cc(S(=O)(=O)[O-])ccc6F)c6nc(c(-c7cc(S(=O)(=O)[O-])ccc7F)c7ccc4[nH]7)C=C6)C=C5)cc3)CC2)N1
REMARK SMILES IDX 24 1 23 2 22 3 20 4 21 5 12 7 7 8 8 9 9 10 10 11 93 12 11 13
REMARK SMILES IDX 92 14 6 15 5 16 1 17 2 18 3 19 94 20 4 21 13 23 14 24 15 25
REMARK SMILES IDX 19 26 16 27 18 28 17 29 25 30 26 31 27 32 28 34 29 35 30 36
REMARK SMILES IDX 91 37 31 38 90 39 32 40 33 41 34 42 84 43 35 44 89 45 83 46
REMARK SMILES IDX 85 47 36 48 88 49 82 50 81 51 37 53 69 54 49 55 68 56 50 57
REMARK SMILES IDX 53 58 67 59 86 60 51 61 52 62 66 64 87 65 54 66 38 67 39 68
REMARK SMILES IDX 47 69 40 70 46 71 48 72 45 73 41 74 42 75 43 76 44 77 70 78
REMARK SMILES IDX 71 79 79 80 72 81 78 82 80 83 77 84 73 85 74 86 75 87 76 88
REMARK SMILES IDX 55 89 56 90 64 91 57 92 63 93 65 94 62 95 58 96 59 97 60 98
REMARK SMILES IDX 61 99
REMARK H PARENT 22 6 94 22 26 33 85 52 53 63
REMARK Flexibility Score: inf
ROOT
ATOM      1  C   UNL A   1      31.694  31.692  26.406  1.00  0.00     0.042 C 
ENDROOT
BRANCH   1   2
ATOM      2  C   UNL A   1      31.811  30.192  26.192  1.00  0.00     0.118 C 
BRANCH   2   3
ATOM      3  N   UNL A   1      32.885  29.888  25.272  1.00  0.00    -0.353 N 
ATOM      4  C   UNL A   1      32.990  28.921  24.328  1.00  0.00     0.264 C 
ATOM      5  O   UNL A   1      34.023  28.961  23.650  1.00  0.00    -0.270 OA
ATOM      6  H   UNL A   1      33.668  30.481  25.344  1.00  0.00     0.163 HD
BRANCH   4   7
ATOM      7  C   UNL A   1      31.872  27.860  24.100  1.00  0.00     0.190 C 
ATOM      8  C   UNL A   1      32.145  24.488  26.527  1.00  0.00     0.224 C 
ATOM      9  O   UNL A   1      31.044  24.292  27.059  1.00  0.00    -0.275 OA
ATOM     10  N   UNL A   1      32.457  25.740  26.035  1.00  0.00    -0.342 N 
ATOM     11  C   UNL A   1      31.734  26.926  26.492  1.00  0.00     0.124 C 
ATOM     12  C   UNL A   1      33.327  25.983  24.913  1.00  0.00     0.124 C 
ATOM     13  C   UNL A   1      30.991  27.612  25.347  1.00  0.00     0.080 C 
ATOM     14  C   UNL A   1      32.565  26.546  23.721  1.00  0.00     0.080 C 
BRANCH   8  15
ATOM     15  C   UNL A   1      33.201  23.372  26.659  1.00  0.00     0.125 C 
BRANCH  15  16
ATOM     16  C   UNL A   1      33.482  22.213  25.698  1.00  0.00     0.091 C 
ATOM     17  O   UNL A   1      32.073  19.033  25.194  1.00  0.00    -0.275 OA
ATOM     18  C   UNL A   1      32.481  20.180  25.086  1.00  0.00     0.220 C 
ATOM     19  C   UNL A   1      32.408  21.034  23.845  1.00  0.00     0.102 C 
ATOM     20  N   UNL A   1      33.043  20.912  26.106  1.00  0.00    -0.353 N 
ATOM     21  C   UNL A   1      32.973  22.394  24.264  1.00  0.00     0.035 C 
ATOM     22  H   UNL A   1      33.133  20.576  27.027  1.00  0.00     0.163 HD
ENDBRANCH  15  16
ENDBRANCH   8  15
BRANCH   7  23
ATOM     23  O   UNL A   1      31.179  28.441  22.965  1.00  0.00    -0.477 OA
BRANCH  23  24
ATOM     24  C   UNL A   1      29.932  28.952  23.156  1.00  0.00     0.120 A 
ATOM     25  C   UNL A   1      28.842  28.106  22.972  1.00  0.00     0.046 A 
ATOM     26  C   UNL A   1      29.731  30.315  23.365  1.00  0.00     0.046 A 
ATOM     27  C   UNL A   1      27.546  28.609  23.080  1.00  0.00     0.004 A 
ATOM     28  C   UNL A   1      28.437  30.815  23.498  1.00  0.00     0.004 A 
ATOM     29  C   UNL A   1      27.344  29.961  23.360  1.00  0.00     0.000 A 
ENDBRANCH  23  24
ENDBRANCH   7  23
ENDBRANCH   4   7
ENDBRANCH   2   3
ENDBRANCH   1   2
BRANCH   1  30
ATOM     30  C   UNL A   1      32.822  32.267  27.253  1.00  0.00     0.118 C 
BRANCH  30  31
ATOM     31  N   UNL A   1      32.645  33.689  27.513  1.00  0.00    -0.352 N 
ATOM     32  C   UNL A   1      33.201  34.473  28.493  1.00  0.00     0.251 C 
ATOM     33  H   UNL A   1      32.039  34.155  26.895  1.00  0.00     0.163 HD
ATOM     34  O   UNL A   1      32.733  35.586  28.714  1.00  0.00    -0.269 OA
BRANCH  32  35
ATOM     35  C   UNL A   1      34.339  33.962  29.285  1.00  0.00     0.039 A 
ATOM     36  C   UNL A   1      34.095  33.048  30.312  1.00  0.00     0.014 A 
ATOM     37  C   UNL A   1      35.643  34.384  29.013  1.00  0.00     0.014 A 
ATOM     38  C   UNL A   1      35.169  32.511  31.023  1.00  0.00     0.010 A 
ATOM     39  C   UNL A   1      36.715  33.774  29.654  1.00  0.00     0.010 A 
ATOM     40  C   UNL A   1      36.490  32.838  30.674  1.00  0.00    -0.014 A 
BRANCH  40  41
ATOM     41  C   UNL A   1      37.647  32.222  31.371  1.00  0.00     0.031 A 
ATOM     42  C   UNL A   1      38.411  31.103  30.716  1.00  0.00     0.074 A 
ATOM     43  C   UNL A   1      37.973  32.634  32.613  1.00  0.00     0.049 A 
ATOM     44  N   UNL A   1      39.402  30.391  31.188  1.00  0.00    -0.248 NA
ATOM     45  C   UNL A   1      37.981  30.712  29.364  1.00  0.00     0.031 C 
ATOM     46  C   UNL A   1      37.282  33.684  33.363  1.00  0.00     0.029 A 
ATOM     47  N   UNL A   1      38.964  32.217  33.465  1.00  0.00    -0.354 N 
ATOM     48  C   UNL A   1      39.708  29.465  30.196  1.00  0.00     0.074 A 
ATOM     49  C   UNL A   1      38.751  29.661  29.129  1.00  0.00     0.031 C 
ATOM     50  C   UNL A   1      37.890  33.852  34.547  1.00  0.00     0.029 A 
ATOM     51  C   UNL A   1      38.977  32.887  34.668  1.00  0.00     0.049 A 
ATOM     52  H   UNL A   1      39.607  31.507  33.238  1.00  0.00     0.167 HD
ATOM     53  C   UNL A   1      40.713  28.554  30.168  1.00  0.00     0.034 A 
ATOM     54  C   UNL A   1      39.764  32.729  35.751  1.00  0.00     0.034 A 
ATOM     55  C   UNL A   1      41.663  28.380  31.239  1.00  0.00     0.049 A 
ATOM     56  C   UNL A   1      40.848  31.680  35.712  1.00  0.00     0.074 A 
ATOM     57  C   UNL A   1      42.749  27.524  31.296  1.00  0.00     0.029 A 
ATOM     58  N   UNL A   1      41.637  29.067  32.448  1.00  0.00    -0.354 N 
ATOM     59  N   UNL A   1      41.156  30.845  34.746  1.00  0.00    -0.248 NA
ATOM     60  C   UNL A   1      41.695  31.559  36.906  1.00  0.00     0.031 C 
ATOM     61  C   UNL A   1      43.327  27.632  32.565  1.00  0.00     0.029 A 
ATOM     62  C   UNL A   1      42.663  28.623  33.269  1.00  0.00     0.049 A 
ATOM     63  H   UNL A   1      40.984  29.764  32.685  1.00  0.00     0.167 HD
ATOM     64  C   UNL A   1      42.256  30.125  35.204  1.00  0.00     0.074 A 
ATOM     65  C   UNL A   1      42.565  30.636  36.525  1.00  0.00     0.031 C 
ATOM     66  C   UNL A   1      42.953  29.135  34.588  1.00  0.00     0.034 A 
BRANCH  53  67
ATOM     67  C   UNL A   1      40.811  27.663  28.952  1.00  0.00     0.023 A 
ATOM     68  C   UNL A   1      41.751  27.902  27.933  1.00  0.00     0.031 A 
ATOM     69  C   UNL A   1      39.940  26.570  28.797  1.00  0.00     0.131 A 
ATOM     70  C   UNL A   1      41.745  27.112  26.773  1.00  0.00     0.055 A 
ATOM     71  C   UNL A   1      39.999  25.733  27.680  1.00  0.00     0.041 A 
ATOM     72  F   UNL A   1      39.006  26.304  29.722  1.00  0.00    -0.206 F 
ATOM     73  C   UNL A   1      40.895  26.011  26.653  1.00  0.00     0.022 A 
BRANCH  70  74
ATOM     74  S   UNL A   1      42.755  27.639  25.362  1.00  0.00     0.124 S 
ATOM     75  O   UNL A   1      42.846  26.402  24.588  1.00  0.00    -0.237 OA
ATOM     76  O   UNL A   1      41.949  28.703  24.776  1.00  0.00    -0.237 OA
ATOM     77  O   UNL A   1      44.008  28.071  25.980  1.00  0.00    -0.744 OA
ENDBRANCH  70  74
ENDBRANCH  53  67
BRANCH  54  78
ATOM     78  C   UNL A   1      39.557  33.569  36.966  1.00  0.00     0.023 A 
ATOM     79  C   UNL A   1      38.965  33.035  38.122  1.00  0.00     0.031 A 
ATOM     80  C   UNL A   1      39.905  34.932  36.975  1.00  0.00     0.131 A 
ATOM     81  C   UNL A   1      38.689  33.871  39.216  1.00  0.00     0.055 A 
ATOM     82  C   UNL A   1      39.686  35.744  38.088  1.00  0.00     0.041 A 
ATOM     83  F   UNL A   1      40.476  35.494  35.897  1.00  0.00    -0.206 F 
ATOM     84  C   UNL A   1      39.059  35.217  39.214  1.00  0.00     0.022 A 
BRANCH  81  85
ATOM     85  S   UNL A   1      37.743  33.193  40.608  1.00  0.00     0.124 S 
ATOM     86  O   UNL A   1      36.437  32.971  39.998  1.00  0.00    -0.237 OA
ATOM     87  O   UNL A   1      38.508  31.995  40.939  1.00  0.00    -0.237 OA
ATOM     88  O   UNL A   1      37.796  34.259  41.605  1.00  0.00    -0.744 OA
ENDBRANCH  81  85
ENDBRANCH  54  78
BRANCH  66  89
ATOM     89  C   UNL A   1      44.150  28.576  35.321  1.00  0.00     0.023 A 
ATOM     90  C   UNL A   1      44.032  27.522  36.243  1.00  0.00     0.031 A 
ATOM     91  C   UNL A   1      45.429  29.118  35.097  1.00  0.00     0.131 A 
ATOM     92  C   UNL A   1      45.162  27.082  36.950  1.00  0.00     0.055 A 
ATOM     93  C   UNL A   1      46.560  28.629  35.752  1.00  0.00     0.041 A 
ATOM     94  F   UNL A   1      45.602  30.130  34.233  1.00  0.00    -0.206 F 
ATOM     95  C   UNL A   1      46.428  27.615  36.695  1.00  0.00     0.022 A 
BRANCH  92  96
ATOM     96  S   UNL A   1      44.937  25.876  38.285  1.00  0.00     0.124 S 
ATOM     97  O   UNL A   1      44.296  26.684  39.319  1.00  0.00    -0.237 OA
ATOM     98  O   UNL A   1      44.096  24.864  37.654  1.00  0.00    -0.237 OA
ATOM     99  O   UNL A   1      46.300  25.445  38.592  1.00  0.00    -0.744 OA
ENDBRANCH  92  96
ENDBRANCH  66  89
ENDBRANCH  40  41
ENDBRANCH  32  35
ENDBRANCH  30  31
ENDBRANCH   1  30
TORSDOF 17
ENDMDL
MODEL 2
REMARK VINA RESULT:     -12.7      1.753      7.599
REMARK SMILES O=C1CC[C@@H](CC(=O)N2CCC(Oc3ccccc3)(C(=O)NCCCNC(=O)c3ccc(-c4c5nc(c(-c6cc(S(=O)(=O)[O-])ccc6F)c6ccc([nH]6)c(-c6cc(S(=O)(=O)[O-])ccc6F)c6nc(c(-c7cc(S(=O)(=O)[O-])ccc7F)c7ccc4[nH]7)C=C6)C=C5)cc3)CC2)N1
REMARK SMILES IDX 24 1 23 2 22 3 20 4 21 5 12 7 7 8 8 9 9 10 10 11 93 12 11 13
REMARK SMILES IDX 92 14 6 15 5 16 1 17 2 18 3 19 94 20 4 21 13 23 14 24 15 25
REMARK SMILES IDX 19 26 16 27 18 28 17 29 25 30 26 31 27 32 28 34 29 35 30 36
REMARK SMILES IDX 91 37 31 38 90 39 32 40 33 41 34 42 84 43 35 44 89 45 83 46
REMARK SMILES IDX 85 47 36 48 88 49 82 50 81 51 37 53 69 54 49 55 68 56 50 57
REMARK SMILES IDX 53 58 67 59 86 60 51 61 52 62 66 64 87 65 54 66 38 67 39 68
REMARK SMILES IDX 47 69 40 70 46 71 48 72 45 73 41 74 42 75 43 76 44 77 70 78
REMARK SMILES IDX 71 79 79 80 72 81 78 82 80 83 77 84 73 85 74 86 75 87 76 88
REMARK SMILES IDX 55 89 56 90 64 91 57 92 63 93 65 94 62 95 58 96 59 97 60 98
REMARK SMILES IDX 61 99
REMARK H PARENT 22 6 94 22 26 33 85 52 53 63
REMARK Flexibility Score: inf
ROOT
ATOM      1  C   UNL A   1      31.458  31.645  26.265  1.00  0.00     0.042 C 
ENDROOT
BRANCH   1   2
ATOM      2  C   UNL A   1      31.371  30.213  25.765  1.00  0.00     0.118 C 
BRANCH   2   3
ATOM      3  N   UNL A   1      32.571  29.847  25.046  1.00  0.00    -0.353 N 
ATOM      4  C   UNL A   1      32.832  28.780  24.250  1.00  0.00     0.264 C 
ATOM      5  O   UNL A   1      33.950  28.784  23.722  1.00  0.00    -0.270 OA
ATOM      6  H   UNL A   1      33.322  30.475  25.153  1.00  0.00     0.163 HD
BRANCH   4   7
ATOM      7  C   UNL A   1      31.783  27.657  24.001  1.00  0.00     0.190 C 
ATOM      8  C   UNL A   1      32.098  24.380  26.551  1.00  0.00     0.224 C 
ATOM      9  O   UNL A   1      30.981  24.144  27.032  1.00  0.00    -0.275 OA
ATOM     10  N   UNL A   1      32.372  25.631  26.034  1.00  0.00    -0.342 N 
ATOM     11  C   UNL A   1      31.565  26.791  26.413  1.00  0.00     0.124 C 
ATOM     12  C   UNL A   1      33.286  25.884  24.951  1.00  0.00     0.124 C 
ATOM     13  C   UNL A   1      30.851  27.401  25.208  1.00  0.00     0.080 C 
ATOM     14  C   UNL A   1      32.561  26.369  23.702  1.00  0.00     0.080 C 
BRANCH   8  15
ATOM     15  C   UNL A   1      33.200  23.325  26.775  1.00  0.00     0.125 C 
BRANCH  15  16
ATOM     16  C   UNL A   1      33.573  22.139  25.882  1.00  0.00     0.091 C 
ATOM     17  O   UNL A   1      32.170  18.972  25.281  1.00  0.00    -0.275 OA
ATOM     18  C   UNL A   1      32.611  20.108  25.198  1.00  0.00     0.220 C 
ATOM     19  C   UNL A   1      32.709  20.933  23.939  1.00  0.00     0.102 C 
ATOM     20  N   UNL A   1      33.059  20.856  26.262  1.00  0.00    -0.353 N 
ATOM     21  C   UNL A   1      33.247  22.292  24.394  1.00  0.00     0.035 C 
ATOM     22  H   UNL A   1      33.029  20.542  27.195  1.00  0.00     0.163 HD
ENDBRANCH  15  16
ENDBRANCH   8  15
BRANCH   7  23
ATOM     23  O   UNL A   1      31.123  28.165  22.813  1.00  0.00    -0.477 OA
BRANCH  23  24
ATOM     24  C   UNL A   1      29.894  28.735  22.945  1.00  0.00     0.120 A 
ATOM     25  C   UNL A   1      28.793  27.894  23.076  1.00  0.00     0.046 A 
ATOM     26  C   UNL A   1      29.711  30.107  22.788  1.00  0.00     0.046 A 
ATOM     27  C   UNL A   1      27.509  28.435  23.134  1.00  0.00     0.004 A 
ATOM     28  C   UNL A   1      28.431  30.652  22.871  1.00  0.00     0.004 A 
ATOM     29  C   UNL A   1      27.330  29.816  23.048  1.00  0.00     0.000 A 
ENDBRANCH  23  24
ENDBRANCH   7  23
ENDBRANCH   4   7
ENDBRANCH   2   3
ENDBRANCH   1   2
BRANCH   1  30
ATOM     30  C   UNL A   1      32.640  31.885  27.196  1.00  0.00     0.118 C 
BRANCH  30  31
ATOM     31  N   UNL A   1      32.906  33.303  27.393  1.00  0.00    -0.352 N 
ATOM     32  C   UNL A   1      33.883  33.913  28.140  1.00  0.00     0.251 C 
ATOM     33  H   UNL A   1      32.297  33.914  26.920  1.00  0.00     0.163 HD
ATOM     34  O   UNL A   1      33.790  35.110  28.395  1.00  0.00    -0.269 OA
BRANCH  32  35
ATOM     35  C   UNL A   1      35.021  33.119  28.647  1.00  0.00     0.039 A 
ATOM     36  C   UNL A   1      36.322  33.542  28.366  1.00  0.00     0.014 A 
ATOM     37  C   UNL A   1      34.805  31.961  29.399  1.00  0.00     0.014 A 
ATOM     38  C   UNL A   1      37.403  32.836  28.894  1.00  0.00     0.010 A 
ATOM     39  C   UNL A   1      35.878  31.319  30.004  1.00  0.00     0.010 A 
ATOM     40  C   UNL A   1      37.190  31.742  29.750  1.00  0.00    -0.014 A 
BRANCH  40  41
ATOM     41  C   UNL A   1      38.327  31.023  30.379  1.00  0.00     0.031 A 
ATOM     42  C   UNL A   1      38.762  31.377  31.775  1.00  0.00     0.074 A 
ATOM     43  C   UNL A   1      38.999  30.091  29.673  1.00  0.00     0.049 A 
ATOM     44  N   UNL A   1      39.769  30.916  32.471  1.00  0.00    -0.248 NA
ATOM     45  C   UNL A   1      37.977  32.411  32.470  1.00  0.00     0.031 C 
ATOM     46  C   UNL A   1      38.693  29.691  28.298  1.00  0.00     0.029 A 
ATOM     47  N   UNL A   1      40.080  29.316  30.010  1.00  0.00    -0.354 N 
ATOM     48  C   UNL A   1      39.745  31.608  33.678  1.00  0.00     0.074 A 
ATOM     49  C   UNL A   1      38.666  32.568  33.589  1.00  0.00     0.031 C 
ATOM     50  C   UNL A   1      39.543  28.722  27.922  1.00  0.00     0.029 A 
ATOM     51  C   UNL A   1      40.489  28.471  29.003  1.00  0.00     0.049 A 
ATOM     52  H   UNL A   1      40.520  29.359  30.889  1.00  0.00     0.167 HD
ATOM     53  C   UNL A   1      40.533  31.437  34.768  1.00  0.00     0.034 A 
ATOM     54  C   UNL A   1      41.520  27.604  28.952  1.00  0.00     0.034 A 
ATOM     55  C   UNL A   1      41.599  30.468  34.840  1.00  0.00     0.049 A 
ATOM     56  C   UNL A   1      42.409  27.462  30.163  1.00  0.00     0.074 A 
ATOM     57  C   UNL A   1      42.426  30.176  35.910  1.00  0.00     0.029 A 
ATOM     58  N   UNL A   1      41.993  29.638  33.797  1.00  0.00    -0.354 N 
ATOM     59  N   UNL A   1      42.343  28.089  31.315  1.00  0.00    -0.248 NA
ATOM     60  C   UNL A   1      43.506  26.491  30.069  1.00  0.00     0.031 C 
ATOM     61  C   UNL A   1      43.371  29.234  35.490  1.00  0.00     0.029 A 
ATOM     62  C   UNL A   1      43.076  28.865  34.187  1.00  0.00     0.049 A 
ATOM     63  H   UNL A   1      41.567  29.606  32.910  1.00  0.00     0.167 HD
ATOM     64  C   UNL A   1      43.367  27.560  32.095  1.00  0.00     0.074 A 
ATOM     65  C   UNL A   1      44.025  26.553  31.286  1.00  0.00     0.031 C 
ATOM     66  C   UNL A   1      43.729  27.872  33.366  1.00  0.00     0.034 A 
BRANCH  53  67
ATOM     67  C   UNL A   1      40.285  32.339  35.955  1.00  0.00     0.023 A 
ATOM     68  C   UNL A   1      39.308  32.040  36.921  1.00  0.00     0.031 A 
ATOM     69  C   UNL A   1      41.020  33.527  36.113  1.00  0.00     0.131 A 
ATOM     70  C   UNL A   1      39.038  32.951  37.953  1.00  0.00     0.055 A 
ATOM     71  C   UNL A   1      40.809  34.387  37.193  1.00  0.00     0.041 A 
ATOM     72  F   UNL A   1      41.950  33.881  35.213  1.00  0.00    -0.206 F 
ATOM     73  C   UNL A   1      39.802  34.109  38.113  1.00  0.00     0.022 A 
BRANCH  70  74
ATOM     74  S   UNL A   1      37.575  32.677  38.989  1.00  0.00     0.124 S 
ATOM     75  O   UNL A   1      37.775  33.666  40.047  1.00  0.00    -0.237 OA
ATOM     76  O   UNL A   1      36.479  32.942  38.065  1.00  0.00    -0.237 OA
ATOM     77  O   UNL A   1      37.712  31.285  39.415  1.00  0.00    -0.744 OA
ENDBRANCH  70  74
ENDBRANCH  53  67
BRANCH  54  78
ATOM     78  C   UNL A   1      41.782  26.811  27.715  1.00  0.00     0.023 A 
ATOM     79  C   UNL A   1      41.447  25.450  27.644  1.00  0.00     0.031 A 
ATOM     80  C   UNL A   1      42.416  27.391  26.602  1.00  0.00     0.131 A 
ATOM     81  C   UNL A   1      41.795  24.702  26.508  1.00  0.00     0.055 A 
ATOM     82  C   UNL A   1      42.704  26.659  25.449  1.00  0.00     0.041 A 
ATOM     83  F   UNL A   1      42.757  28.690  26.615  1.00  0.00    -0.206 F 
ATOM     84  C   UNL A   1      42.406  25.300  25.404  1.00  0.00     0.022 A 
BRANCH  81  85
ATOM     85  S   UNL A   1      41.528  22.908  26.536  1.00  0.00     0.124 S 
ATOM     86  O   UNL A   1      42.179  22.531  27.784  1.00  0.00    -0.237 OA
ATOM     87  O   UNL A   1      40.071  22.819  26.519  1.00  0.00    -0.237 OA
ATOM     88  O   UNL A   1      42.192  22.447  25.318  1.00  0.00    -0.744 OA
ENDBRANCH  81  85
ENDBRANCH  54  78
BRANCH  66  89
ATOM     89  C   UNL A   1      44.861  27.077  33.974  1.00  0.00     0.023 A 
ATOM     90  C   UNL A   1      44.629  25.951  34.783  1.00  0.00     0.031 A 
ATOM     91  C   UNL A   1      46.195  27.462  33.746  1.00  0.00     0.131 A 
ATOM     92  C   UNL A   1      45.709  25.285  35.381  1.00  0.00     0.055 A 
ATOM     93  C   UNL A   1      47.268  26.754  34.287  1.00  0.00     0.041 A 
ATOM     94  F   UNL A   1      46.477  28.532  32.987  1.00  0.00    -0.206 F 
ATOM     95  C   UNL A   1      47.028  25.667  35.122  1.00  0.00     0.022 A 
BRANCH  92  96
ATOM     96  S   UNL A   1      45.364  23.978  36.590  1.00  0.00     0.124 S 
ATOM     97  O   UNL A   1      44.249  24.545  37.340  1.00  0.00    -0.237 OA
ATOM     98  O   UNL A   1      45.045  22.839  35.735  1.00  0.00    -0.237 OA
ATOM     99  O   UNL A   1      46.616  23.860  37.335  1.00  0.00    -0.744 OA
ENDBRANCH  92  96
ENDBRANCH  66  89
ENDBRANCH  40  41
ENDBRANCH  32  35
ENDBRANCH  30  31
ENDBRANCH   1  30
TORSDOF 17
ENDMDL
MODEL 3
REMARK VINA RESULT:     -12.7      1.398      1.589
REMARK SMILES O=C1CC[C@@H](CC(=O)N2CCC(Oc3ccccc3)(C(=O)NCCCNC(=O)c3ccc(-c4c5nc(c(-c6cc(S(=O)(=O)[O-])ccc6F)c6ccc([nH]6)c(-c6cc(S(=O)(=O)[O-])ccc6F)c6nc(c(-c7cc(S(=O)(=O)[O-])ccc7F)c7ccc4[nH]7)C=C6)C=C5)cc3)CC2)N1
REMARK SMILES IDX 24 1 23 2 22 3 20 4 21 5 12 7 7 8 8 9 9 10 10 11 93 12 11 13
REMARK SMILES IDX 92 14 6 15 5 16 1 17 2 18 3 19 94 20 4 21 13 23 14 24 15 25
REMARK SMILES IDX 19 26 16 27 18 28 17 29 25 30 26 31 27 32 28 34 29 35 30 36
REMARK SMILES IDX 91 37 31 38 90 39 32 40 33 41 34 42 84 43 35 44 89 45 83 46
REMARK SMILES IDX 85 47 36 48 88 49 82 50 81 51 37 53 69 54 49 55 68 56 50 57
REMARK SMILES IDX 53 58 67 59 86 60 51 61 52 62 66 64 87 65 54 66 38 67 39 68
REMARK SMILES IDX 47 69 40 70 46 71 48 72 45 73 41 74 42 75 43 76 44 77 70 78
REMARK SMILES IDX 71 79 79 80 72 81 78 82 80 83 77 84 73 85 74 86 75 87 76 88
REMARK SMILES IDX 55 89 56 90 64 91 57 92 63 93 65 94 62 95 58 96 59 97 60 98
REMARK SMILES IDX 61 99
REMARK H PARENT 22 6 94 22 26 33 85 52 53 63
REMARK Flexibility Score: inf
ROOT
ATOM      1  C   UNL A   1      31.589  31.474  26.555  1.00  0.00     0.042 C 
ENDROOT
BRANCH   1   2
ATOM      2  C   UNL A   1      31.762  29.971  26.411  1.00  0.00     0.118 C 
BRANCH   2   3
ATOM      3  N   UNL A   1      32.925  29.663  25.609  1.00  0.00    -0.353 N 
ATOM      4  C   UNL A   1      33.048  28.915  24.485  1.00  0.00     0.264 C 
ATOM      5  O   UNL A   1      34.182  28.894  23.993  1.00  0.00    -0.270 OA
ATOM      6  H   UNL A   1      33.765  30.062  25.934  1.00  0.00     0.163 HD
BRANCH   4   7
ATOM      7  C   UNL A   1      31.839  28.167  23.851  1.00  0.00     0.190 C 
ATOM      8  C   UNL A   1      31.732  24.072  24.597  1.00  0.00     0.224 C 
ATOM      9  O   UNL A   1      30.606  23.776  25.018  1.00  0.00    -0.275 OA
ATOM     10  N   UNL A   1      32.174  25.378  24.681  1.00  0.00    -0.342 N 
ATOM     11  C   UNL A   1      31.559  26.319  25.616  1.00  0.00     0.124 C 
ATOM     12  C   UNL A   1      33.087  25.992  23.752  1.00  0.00     0.124 C 
ATOM     13  C   UNL A   1      30.911  27.497  24.891  1.00  0.00     0.080 C 
ATOM     14  C   UNL A   1      32.409  27.081  22.931  1.00  0.00     0.080 C 
BRANCH   8  15
ATOM     15  C   UNL A   1      32.671  22.911  24.216  1.00  0.00     0.125 C 
BRANCH  15  16
ATOM     16  C   UNL A   1      33.138  21.743  25.090  1.00  0.00     0.091 C 
ATOM     17  O   UNL A   1      32.132  18.397  25.474  1.00  0.00    -0.275 OA
ATOM     18  C   UNL A   1      32.742  19.435  25.266  1.00  0.00     0.220 C 
ATOM     19  C   UNL A   1      34.188  19.548  24.852  1.00  0.00     0.102 C 
ATOM     20  N   UNL A   1      32.192  20.695  25.330  1.00  0.00    -0.353 N 
ATOM     21  C   UNL A   1      34.426  21.046  24.644  1.00  0.00     0.035 C 
ATOM     22  H   UNL A   1      31.240  20.860  25.522  1.00  0.00     0.163 HD
ENDBRANCH  15  16
ENDBRANCH   8  15
BRANCH   7  23
ATOM     23  O   UNL A   1      31.229  29.241  23.088  1.00  0.00    -0.477 OA
BRANCH  23  24
ATOM     24  C   UNL A   1      29.892  29.457  23.221  1.00  0.00     0.120 A 
ATOM     25  C   UNL A   1      29.023  28.446  22.822  1.00  0.00     0.046 A 
ATOM     26  C   UNL A   1      29.392  30.705  23.585  1.00  0.00     0.046 A 
ATOM     27  C   UNL A   1      27.646  28.656  22.868  1.00  0.00     0.004 A 
ATOM     28  C   UNL A   1      28.016  30.909  23.656  1.00  0.00     0.004 A 
ATOM     29  C   UNL A   1      27.142  29.883  23.301  1.00  0.00     0.000 A 
ENDBRANCH  23  24
ENDBRANCH   7  23
ENDBRANCH   4   7
ENDBRANCH   2   3
ENDBRANCH   1   2
BRANCH   1  30
ATOM     30  C   UNL A   1      32.875  32.192  26.941  1.00  0.00     0.118 C 
BRANCH  30  31
ATOM     31  N   UNL A   1      32.638  33.574  27.333  1.00  0.00    -0.352 N 
ATOM     32  C   UNL A   1      33.167  34.288  28.379  1.00  0.00     0.251 C 
ATOM     33  H   UNL A   1      32.005  34.068  26.765  1.00  0.00     0.163 HD
ATOM     34  O   UNL A   1      32.653  35.353  28.705  1.00  0.00    -0.269 OA
BRANCH  32  35
ATOM     35  C   UNL A   1      34.334  33.757  29.113  1.00  0.00     0.039 A 
ATOM     36  C   UNL A   1      34.133  32.787  30.096  1.00  0.00     0.014 A 
ATOM     37  C   UNL A   1      35.624  34.217  28.832  1.00  0.00     0.014 A 
ATOM     38  C   UNL A   1      35.235  32.233  30.751  1.00  0.00     0.010 A 
ATOM     39  C   UNL A   1      36.722  33.595  29.412  1.00  0.00     0.010 A 
ATOM     40  C   UNL A   1      36.540  32.603  30.386  1.00  0.00    -0.014 A 
BRANCH  40  41
ATOM     41  C   UNL A   1      37.726  31.973  31.020  1.00  0.00     0.031 A 
ATOM     42  C   UNL A   1      38.526  30.946  30.266  1.00  0.00     0.074 A 
ATOM     43  C   UNL A   1      38.047  32.286  32.292  1.00  0.00     0.049 A 
ATOM     44  N   UNL A   1      39.547  30.234  30.667  1.00  0.00    -0.248 NA
ATOM     45  C   UNL A   1      38.100  30.659  28.886  1.00  0.00     0.031 C 
ATOM     46  C   UNL A   1      37.323  33.239  33.135  1.00  0.00     0.029 A 
ATOM     47  N   UNL A   1      39.061  31.834  33.099  1.00  0.00    -0.354 N 
ATOM     48  C   UNL A   1      39.880  29.410  29.596  1.00  0.00     0.074 A 
ATOM     49  C   UNL A   1      38.906  29.662  28.555  1.00  0.00     0.031 C 
ATOM     50  C   UNL A   1      37.935  33.325  34.327  1.00  0.00     0.029 A 
ATOM     51  C   UNL A   1      39.058  32.395  34.356  1.00  0.00     0.049 A 
ATOM     52  H   UNL A   1      39.727  31.172  32.806  1.00  0.00     0.167 HD
ATOM     53  C   UNL A   1      40.917  28.545  29.482  1.00  0.00     0.034 A 
ATOM     54  C   UNL A   1      39.861  32.174  35.416  1.00  0.00     0.034 A 
ATOM     55  C   UNL A   1      41.883  28.314  30.529  1.00  0.00     0.049 A 
ATOM     56  C   UNL A   1      40.983  31.175  35.280  1.00  0.00     0.074 A 
ATOM     57  C   UNL A   1      43.000  27.498  30.504  1.00  0.00     0.029 A 
ATOM     58  N   UNL A   1      41.842  28.890  31.793  1.00  0.00    -0.354 N 
ATOM     59  N   UNL A   1      41.314  30.440  34.242  1.00  0.00    -0.248 NA
ATOM     60  C   UNL A   1      41.844  30.982  36.453  1.00  0.00     0.031 C 
ATOM     61  C   UNL A   1      43.585  27.516  31.774  1.00  0.00     0.029 A 
ATOM     62  C   UNL A   1      42.890  28.416  32.567  1.00  0.00     0.049 A 
ATOM     63  H   UNL A   1      41.165  29.538  32.095  1.00  0.00     0.167 HD
ATOM     64  C   UNL A   1      42.444  29.725  34.629  1.00  0.00     0.074 A 
ATOM     65  C   UNL A   1      42.745  30.130  35.988  1.00  0.00     0.031 C 
ATOM     66  C   UNL A   1      43.172  28.820  33.925  1.00  0.00     0.034 A 
BRANCH  53  67
ATOM     67  C   UNL A   1      41.039  27.768  28.192  1.00  0.00     0.023 A 
ATOM     68  C   UNL A   1      40.623  26.428  28.092  1.00  0.00     0.031 A 
ATOM     69  C   UNL A   1      41.599  28.367  27.050  1.00  0.00     0.131 A 
ATOM     70  C   UNL A   1      40.844  25.711  26.906  1.00  0.00     0.055 A 
ATOM     71  C   UNL A   1      41.734  27.674  25.845  1.00  0.00     0.041 A 
ATOM     72  F   UNL A   1      42.037  29.635  27.087  1.00  0.00    -0.206 F 
ATOM     73  C   UNL A   1      41.370  26.333  25.772  1.00  0.00     0.022 A 
BRANCH  70  74
ATOM     74  S   UNL A   1      40.578  23.917  26.918  1.00  0.00     0.124 S 
ATOM     75  O   UNL A   1      39.195  23.822  26.458  1.00  0.00    -0.237 OA
ATOM     76  O   UNL A   1      41.596  23.441  25.989  1.00  0.00    -0.237 OA
ATOM     77  O   UNL A   1      40.788  23.548  28.317  1.00  0.00    -0.744 OA
ENDBRANCH  70  74
ENDBRANCH  53  67
BRANCH  54  78
ATOM     78  C   UNL A   1      39.632  32.895  36.702  1.00  0.00     0.023 A 
ATOM     79  C   UNL A   1      38.803  32.354  37.698  1.00  0.00     0.031 A 
ATOM     80  C   UNL A   1      40.202  34.159  36.936  1.00  0.00     0.131 A 
ATOM     81  C   UNL A   1      38.524  33.097  38.855  1.00  0.00     0.055 A 
ATOM     82  C   UNL A   1      39.972  34.867  38.117  1.00  0.00     0.041 A 
ATOM     83  F   UNL A   1      41.005  34.723  36.019  1.00  0.00    -0.206 F 
ATOM     84  C   UNL A   1      39.115  34.343  39.079  1.00  0.00     0.022 A 
BRANCH  81  85
ATOM     85  S   UNL A   1      37.292  32.455  40.022  1.00  0.00     0.124 S 
ATOM     86  O   UNL A   1      36.226  32.030  39.123  1.00  0.00    -0.237 OA
ATOM     87  O   UNL A   1      38.034  31.390  40.689  1.00  0.00    -0.237 OA
ATOM     88  O   UNL A   1      36.981  33.613  40.858  1.00  0.00    -0.744 OA
ENDBRANCH  81  85
ENDBRANCH  54  78
BRANCH  66  89
ATOM     89  C   UNL A   1      44.396  28.246  34.599  1.00  0.00     0.023 A 
ATOM     90  C   UNL A   1      44.352  27.038  35.316  1.00  0.00     0.031 A 
ATOM     91  C   UNL A   1      45.625  28.927  34.529  1.00  0.00     0.131 A 
ATOM     92  C   UNL A   1      45.498  26.579  35.983  1.00  0.00     0.055 A 
ATOM     93  C   UNL A   1      46.778  28.430  35.136  1.00  0.00     0.041 A 
ATOM     94  F   UNL A   1      45.726  30.089  33.864  1.00  0.00    -0.206 F 
ATOM     95  C   UNL A   1      46.716  27.256  35.880  1.00  0.00     0.022 A 
BRANCH  92  96
ATOM     96  S   UNL A   1      45.350  25.139  37.075  1.00  0.00     0.124 S 
ATOM     97  O   UNL A   1      44.661  25.704  38.231  1.00  0.00    -0.237 OA
ATOM     98  O   UNL A   1      44.574  24.208  36.262  1.00  0.00    -0.237 OA
ATOM     99  O   UNL A   1      46.737  24.744  37.313  1.00  0.00    -0.744 OA
ENDBRANCH  92  96
ENDBRANCH  66  89
ENDBRANCH  40  41
ENDBRANCH  32  35
ENDBRANCH  30  31
ENDBRANCH   1  30
TORSDOF 17
ENDMDL
