MODEL 1
REMARK VINA RESULT:     -12.0      0.000      0.000
REMARK SMILES CN(C(=O)N[C@@](C)(C(=O)NCCCNC(=O)c1ccc(-c2c3nc(c(-c4cc(S(=O)(=O)[O-])ccc4F)c4ccc([nH]4)c(-c4cc(S(=O)(=O)[O-])ccc4F)c4nc(c(-c5cc(S(=O)(=O)[O-])ccc5F)c5ccc2[nH]5)C=C4)C=C3)cc1)C(F)(F)F)c1ccc(F)cc1
REMARK SMILES IDX 12 1 11 2 10 3 8 4 9 5 6 7 7 8 5 9 3 10 4 11 2 13 1 14 84 15
REMARK SMILES IDX 85 16 90 17 86 18 89 19 87 20 88 21 80 22 81 23 82 24 83 25
REMARK SMILES IDX 13 26 14 27 15 28 16 30 17 31 18 32 79 33 19 34 78 35 20 36
REMARK SMILES IDX 21 37 22 38 72 39 23 40 77 41 71 42 73 43 24 44 76 45 70 46
REMARK SMILES IDX 69 47 25 49 57 50 37 51 56 52 38 53 41 54 55 55 74 56 39 57
REMARK SMILES IDX 40 58 54 60 75 61 42 62 26 63 27 64 35 65 28 66 34 67 36 68
REMARK SMILES IDX 33 69 29 70 30 71 31 72 32 73 58 74 59 75 67 76 60 77 66 78
REMARK SMILES IDX 68 79 65 80 61 81 62 82 63 83 64 84 43 85 44 86 52 87 45 88
REMARK SMILES IDX 51 89 53 90 50 91 46 92 47 93 48 94 49 95
REMARK H PARENT 10 6 5 12 14 29 73 48 41 59
REMARK Flexibility Score: inf
ROOT
ATOM      1  C   UNL A   1      35.513  21.444  26.093  1.00  0.00     0.042 C 
ENDROOT
BRANCH   1   2
ATOM      2  C   UNL A   1      34.325  21.412  25.142  1.00  0.00     0.117 C 
BRANCH   2   3
ATOM      3  N   UNL A   1      34.561  22.222  23.961  1.00  0.00    -0.354 N 
ATOM      4  C   UNL A   1      34.131  23.435  23.532  1.00  0.00     0.255 C 
ATOM      5  O   UNL A   1      34.441  23.684  22.361  1.00  0.00    -0.272 OA
ATOM      6  H   UNL A   1      35.177  21.792  23.324  1.00  0.00     0.163 HD
BRANCH   4   7
ATOM      7  C   UNL A   1      33.247  24.393  24.369  1.00  0.00     0.213 C 
ATOM      8  C   UNL A   1      32.198  23.655  25.225  1.00  0.00     0.056 C 
BRANCH   7   9
ATOM      9  N   UNL A   1      32.515  25.231  23.342  1.00  0.00    -0.316 N 
ATOM     10  C   UNL A   1      31.545  26.120  23.085  1.00  0.00     0.322 C 
ATOM     11  O   UNL A   1      31.591  26.522  21.915  1.00  0.00    -0.248 OA
ATOM     12  H   UNL A   1      32.941  25.035  22.476  1.00  0.00     0.166 HD
BRANCH  10  13
ATOM     13  N   UNL A   1      30.615  26.568  23.976  1.00  0.00    -0.298 N 
ATOM     14  C   UNL A   1      29.192  26.311  23.924  1.00  0.00     0.155 C 
BRANCH  13  15
ATOM     15  C   UNL A   1      30.961  27.534  24.982  1.00  0.00     0.045 A 
ATOM     16  C   UNL A   1      31.062  27.170  26.331  1.00  0.00     0.029 A 
ATOM     17  C   UNL A   1      31.390  28.814  24.587  1.00  0.00     0.029 A 
ATOM     18  C   UNL A   1      31.655  28.042  27.251  1.00  0.00     0.041 A 
ATOM     19  C   UNL A   1      31.959  29.692  25.511  1.00  0.00     0.041 A 
ATOM     20  C   UNL A   1      32.108  29.286  26.830  1.00  0.00     0.123 A 
ATOM     21  F   UNL A   1      32.721  30.099  27.701  1.00  0.00    -0.207 F 
ENDBRANCH  13  15
ENDBRANCH  10  13
ENDBRANCH   7   9
BRANCH   7  22
ATOM     22  C   UNL A   1      34.272  24.966  25.380  1.00  0.00     0.420 C 
ATOM     23  F   UNL A   1      35.559  24.806  25.022  1.00  0.00    -0.168 F 
ATOM     24  F   UNL A   1      34.071  26.292  25.599  1.00  0.00    -0.168 F 
ATOM     25  F   UNL A   1      34.119  24.406  26.611  1.00  0.00    -0.168 F 
ENDBRANCH   7  22
ENDBRANCH   4   7
ENDBRANCH   2   3
ENDBRANCH   1   2
BRANCH   1  26
ATOM     26  C   UNL A   1      36.842  21.820  25.450  1.00  0.00     0.118 C 
BRANCH  26  27
ATOM     27  N   UNL A   1      37.883  20.825  25.663  1.00  0.00    -0.352 N 
ATOM     28  C   UNL A   1      39.179  20.997  26.091  1.00  0.00     0.251 C 
ATOM     29  H   UNL A   1      37.622  19.895  25.474  1.00  0.00     0.163 HD
ATOM     30  O   UNL A   1      39.961  20.049  26.040  1.00  0.00    -0.269 OA
BRANCH  28  31
ATOM     31  C   UNL A   1      39.631  22.320  26.572  1.00  0.00     0.039 A 
ATOM     32  C   UNL A   1      40.633  22.384  27.542  1.00  0.00     0.014 A 
ATOM     33  C   UNL A   1      39.084  23.496  26.053  1.00  0.00     0.014 A 
ATOM     34  C   UNL A   1      41.138  23.626  27.932  1.00  0.00     0.010 A 
ATOM     35  C   UNL A   1      39.662  24.724  26.362  1.00  0.00     0.010 A 
ATOM     36  C   UNL A   1      40.688  24.806  27.314  1.00  0.00    -0.014 A 
BRANCH  36  37
ATOM     37  C   UNL A   1      41.276  26.128  27.661  1.00  0.00     0.031 A 
ATOM     38  C   UNL A   1      42.673  26.474  27.220  1.00  0.00     0.074 A 
ATOM     39  C   UNL A   1      40.572  26.993  28.418  1.00  0.00     0.049 A 
ATOM     40  N   UNL A   1      43.369  27.558  27.449  1.00  0.00    -0.248 NA
ATOM     41  C   UNL A   1      43.397  25.452  26.449  1.00  0.00     0.031 C 
ATOM     42  C   UNL A   1      39.233  26.746  28.960  1.00  0.00     0.029 A 
ATOM     43  N   UNL A   1      40.880  28.254  28.866  1.00  0.00    -0.354 N 
ATOM     44  C   UNL A   1      44.614  27.340  26.867  1.00  0.00     0.074 A 
ATOM     45  C   UNL A   1      44.600  25.993  26.341  1.00  0.00     0.031 C 
ATOM     46  C   UNL A   1      38.822  27.833  29.632  1.00  0.00     0.029 A 
ATOM     47  C   UNL A   1      39.882  28.835  29.614  1.00  0.00     0.049 A 
ATOM     48  H   UNL A   1      41.735  28.700  28.671  1.00  0.00     0.167 HD
ATOM     49  C   UNL A   1      45.661  28.196  26.754  1.00  0.00     0.034 A 
ATOM     50  C   UNL A   1      39.827  30.037  30.224  1.00  0.00     0.034 A 
ATOM     51  C   UNL A   1      45.650  29.542  27.274  1.00  0.00     0.049 A 
ATOM     52  C   UNL A   1      41.005  30.970  30.095  1.00  0.00     0.074 A 
ATOM     53  C   UNL A   1      46.624  30.517  27.157  1.00  0.00     0.029 A 
ATOM     54  N   UNL A   1      44.619  30.098  28.022  1.00  0.00    -0.354 N 
ATOM     55  N   UNL A   1      42.147  30.777  29.475  1.00  0.00    -0.248 NA
ATOM     56  C   UNL A   1      40.881  32.286  30.732  1.00  0.00     0.031 C 
ATOM     57  C   UNL A   1      46.221  31.631  27.902  1.00  0.00     0.029 A 
ATOM     58  C   UNL A   1      44.952  31.389  28.405  1.00  0.00     0.049 A 
ATOM     59  H   UNL A   1      43.776  29.643  28.247  1.00  0.00     0.167 HD
ATOM     60  C   UNL A   1      42.864  31.962  29.622  1.00  0.00     0.074 A 
ATOM     61  C   UNL A   1      42.017  32.864  30.376  1.00  0.00     0.031 C 
ATOM     62  C   UNL A   1      44.104  32.277  29.169  1.00  0.00     0.034 A 
BRANCH  49  63
ATOM     63  C   UNL A   1      46.907  27.684  26.068  1.00  0.00     0.023 A 
ATOM     64  C   UNL A   1      47.185  27.975  24.719  1.00  0.00     0.031 A 
ATOM     65  C   UNL A   1      47.816  26.864  26.759  1.00  0.00     0.131 A 
ATOM     66  C   UNL A   1      48.285  27.378  24.083  1.00  0.00     0.055 A 
ATOM     67  C   UNL A   1      48.961  26.350  26.146  1.00  0.00     0.041 A 
ATOM     68  F   UNL A   1      47.599  26.531  28.041  1.00  0.00    -0.206 F 
ATOM     69  C   UNL A   1      49.191  26.590  24.795  1.00  0.00     0.022 A 
BRANCH  66  70
ATOM     70  S   UNL A   1      48.417  27.510  22.279  1.00  0.00     0.124 S 
ATOM     71  O   UNL A   1      49.598  28.358  22.132  1.00  0.00    -0.237 OA
ATOM     72  O   UNL A   1      48.575  26.119  21.870  1.00  0.00    -0.237 OA
ATOM     73  O   UNL A   1      47.156  28.138  21.888  1.00  0.00    -0.744 OA
ENDBRANCH  66  70
ENDBRANCH  49  63
BRANCH  50  74
ATOM     74  C   UNL A   1      38.623  30.426  31.014  1.00  0.00     0.023 A 
ATOM     75  C   UNL A   1      37.571  31.150  30.432  1.00  0.00     0.031 A 
ATOM     76  C   UNL A   1      38.519  30.097  32.378  1.00  0.00     0.131 A 
ATOM     77  C   UNL A   1      36.482  31.558  31.218  1.00  0.00     0.055 A 
ATOM     78  C   UNL A   1      37.408  30.457  33.143  1.00  0.00     0.041 A 
ATOM     79  F   UNL A   1      39.493  29.401  32.985  1.00  0.00    -0.206 F 
ATOM     80  C   UNL A   1      36.386  31.203  32.565  1.00  0.00     0.022 A 
BRANCH  77  81
ATOM     81  S   UNL A   1      35.222  32.631  30.473  1.00  0.00     0.124 S 
ATOM     82  O   UNL A   1      34.233  32.713  31.541  1.00  0.00    -0.237 OA
ATOM     83  O   UNL A   1      35.981  33.848  30.206  1.00  0.00    -0.237 OA
ATOM     84  O   UNL A   1      34.802  31.888  29.287  1.00  0.00    -0.744 OA
ENDBRANCH  77  81
ENDBRANCH  50  74
BRANCH  62  85
ATOM     85  C   UNL A   1      44.601  33.679  29.435  1.00  0.00     0.023 A 
ATOM     86  C   UNL A   1      44.494  34.702  28.479  1.00  0.00     0.031 A 
ATOM     87  C   UNL A   1      45.199  33.989  30.670  1.00  0.00     0.131 A 
ATOM     88  C   UNL A   1      45.027  35.972  28.750  1.00  0.00     0.055 A 
ATOM     89  C   UNL A   1      45.665  35.272  30.961  1.00  0.00     0.041 A 
ATOM     90  F   UNL A   1      45.334  33.050  31.621  1.00  0.00    -0.206 F 
ATOM     91  C   UNL A   1      45.594  36.268  29.992  1.00  0.00     0.022 A 
BRANCH  88  92
ATOM     92  S   UNL A   1      45.066  37.204  27.419  1.00  0.00     0.124 S 
ATOM     93  O   UNL A   1      45.772  38.312  28.053  1.00  0.00    -0.237 OA
ATOM     94  O   UNL A   1      45.793  36.503  26.366  1.00  0.00    -0.237 OA
ATOM     95  O   UNL A   1      43.653  37.449  27.138  1.00  0.00    -0.744 OA
ENDBRANCH  88  92
ENDBRANCH  62  85
ENDBRANCH  36  37
ENDBRANCH  28  31
ENDBRANCH  26  27
ENDBRANCH   1  26
TORSDOF 17
ENDMDL
MODEL 2
REMARK VINA RESULT:     -11.8      5.572      8.804
REMARK SMILES CN(C(=O)N[C@@](C)(C(=O)NCCCNC(=O)c1ccc(-c2c3nc(c(-c4cc(S(=O)(=O)[O-])ccc4F)c4ccc([nH]4)c(-c4cc(S(=O)(=O)[O-])ccc4F)c4nc(c(-c5cc(S(=O)(=O)[O-])ccc5F)c5ccc2[nH]5)C=C4)C=C3)cc1)C(F)(F)F)c1ccc(F)cc1
REMARK SMILES IDX 12 1 11 2 10 3 8 4 9 5 6 7 7 8 5 9 3 10 4 11 2 13 1 14 84 15
REMARK SMILES IDX 85 16 90 17 86 18 89 19 87 20 88 21 80 22 81 23 82 24 83 25
REMARK SMILES IDX 13 26 14 27 15 28 16 30 17 31 18 32 79 33 19 34 78 35 20 36
REMARK SMILES IDX 21 37 22 38 72 39 23 40 77 41 71 42 73 43 24 44 76 45 70 46
REMARK SMILES IDX 69 47 25 49 57 50 37 51 56 52 38 53 41 54 55 55 74 56 39 57
REMARK SMILES IDX 40 58 54 60 75 61 42 62 26 63 27 64 35 65 28 66 34 67 36 68
REMARK SMILES IDX 33 69 29 70 30 71 31 72 32 73 58 74 59 75 67 76 60 77 66 78
REMARK SMILES IDX 68 79 65 80 61 81 62 82 63 83 64 84 43 85 44 86 52 87 45 88
REMARK SMILES IDX 51 89 53 90 50 91 46 92 47 93 48 94 49 95
REMARK H PARENT 10 6 5 12 14 29 73 48 41 59
REMARK Flexibility Score: inf
ROOT
ATOM      1  C   UNL A   1      31.735  31.836  26.548  1.00  0.00     0.042 C 
ENDROOT
BRANCH   1   2
ATOM      2  C   UNL A   1      32.003  30.407  26.098  1.00  0.00     0.117 C 
BRANCH   2   3
ATOM      3  N   UNL A   1      31.857  29.464  27.192  1.00  0.00    -0.354 N 
ATOM      4  C   UNL A   1      31.850  28.111  27.293  1.00  0.00     0.255 C 
ATOM      5  O   UNL A   1      31.515  27.700  28.410  1.00  0.00    -0.272 OA
ATOM      6  H   UNL A   1      31.737  29.909  28.061  1.00  0.00     0.163 HD
BRANCH   4   7
ATOM      7  C   UNL A   1      32.130  27.146  26.113  1.00  0.00     0.213 C 
ATOM      8  C   UNL A   1      31.448  27.583  24.801  1.00  0.00     0.056 C 
BRANCH   7   9
ATOM      9  N   UNL A   1      31.521  25.829  26.547  1.00  0.00    -0.316 N 
ATOM     10  C   UNL A   1      31.365  24.518  26.310  1.00  0.00     0.322 C 
ATOM     11  O   UNL A   1      30.789  23.950  27.248  1.00  0.00    -0.248 OA
ATOM     12  H   UNL A   1      31.014  26.020  27.369  1.00  0.00     0.166 HD
BRANCH  10  13
ATOM     13  N   UNL A   1      31.788  23.851  25.199  1.00  0.00    -0.298 N 
ATOM     14  C   UNL A   1      31.250  23.992  23.864  1.00  0.00     0.155 C 
BRANCH  13  15
ATOM     15  C   UNL A   1      32.719  22.761  25.302  1.00  0.00     0.045 A 
ATOM     16  C   UNL A   1      32.524  21.573  24.584  1.00  0.00     0.029 A 
ATOM     17  C   UNL A   1      33.936  22.957  25.978  1.00  0.00     0.029 A 
ATOM     18  C   UNL A   1      33.559  20.637  24.482  1.00  0.00     0.041 A 
ATOM     19  C   UNL A   1      34.959  22.012  25.893  1.00  0.00     0.041 A 
ATOM     20  C   UNL A   1      34.769  20.871  25.125  1.00  0.00     0.123 A 
ATOM     21  F   UNL A   1      35.775  19.999  24.984  1.00  0.00    -0.207 F 
ENDBRANCH  13  15
ENDBRANCH  10  13
ENDBRANCH   7   9
BRANCH   7  22
ATOM     22  C   UNL A   1      33.645  27.363  25.880  1.00  0.00     0.420 C 
ATOM     23  F   UNL A   1      34.280  27.997  26.883  1.00  0.00    -0.168 F 
ATOM     24  F   UNL A   1      34.292  26.187  25.667  1.00  0.00    -0.168 F 
ATOM     25  F   UNL A   1      33.875  28.072  24.741  1.00  0.00    -0.168 F 
ENDBRANCH   7  22
ENDBRANCH   4   7
ENDBRANCH   2   3
ENDBRANCH   1   2
BRANCH   1  26
ATOM     26  C   UNL A   1      32.840  32.463  27.389  1.00  0.00     0.118 C 
BRANCH  26  27
ATOM     27  N   UNL A   1      32.621  33.877  27.660  1.00  0.00    -0.352 N 
ATOM     28  C   UNL A   1      33.202  34.683  28.611  1.00  0.00     0.251 C 
ATOM     29  H   UNL A   1      31.962  34.320  27.078  1.00  0.00     0.163 HD
ATOM     30  O   UNL A   1      32.754  35.813  28.798  1.00  0.00    -0.269 OA
BRANCH  28  31
ATOM     31  C   UNL A   1      34.329  34.176  29.422  1.00  0.00     0.039 A 
ATOM     32  C   UNL A   1      34.058  33.438  30.576  1.00  0.00     0.014 A 
ATOM     33  C   UNL A   1      35.652  34.407  29.035  1.00  0.00     0.014 A 
ATOM     34  C   UNL A   1      35.110  32.870  31.295  1.00  0.00     0.010 A 
ATOM     35  C   UNL A   1      36.690  33.751  29.690  1.00  0.00     0.010 A 
ATOM     36  C   UNL A   1      36.434  32.983  30.835  1.00  0.00    -0.014 A 
BRANCH  36  37
ATOM     37  C   UNL A   1      37.556  32.314  31.546  1.00  0.00     0.031 A 
ATOM     38  C   UNL A   1      38.330  31.213  30.871  1.00  0.00     0.074 A 
ATOM     39  C   UNL A   1      37.842  32.659  32.818  1.00  0.00     0.049 A 
ATOM     40  N   UNL A   1      39.317  30.490  31.335  1.00  0.00    -0.248 NA
ATOM     41  C   UNL A   1      37.917  30.853  29.506  1.00  0.00     0.031 C 
ATOM     42  C   UNL A   1      37.122  33.667  33.602  1.00  0.00     0.029 A 
ATOM     43  N   UNL A   1      38.810  32.205  33.678  1.00  0.00    -0.354 N 
ATOM     44  C   UNL A   1      39.629  29.582  30.328  1.00  0.00     0.074 A 
ATOM     45  C   UNL A   1      38.676  29.798  29.261  1.00  0.00     0.031 C 
ATOM     46  C   UNL A   1      37.696  33.780  34.809  1.00  0.00     0.029 A 
ATOM     47  C   UNL A   1      38.792  32.822  34.908  1.00  0.00     0.049 A 
ATOM     48  H   UNL A   1      39.456  31.502  33.438  1.00  0.00     0.167 HD
ATOM     49  C   UNL A   1      40.635  28.673  30.284  1.00  0.00     0.034 A 
ATOM     50  C   UNL A   1      39.566  32.634  35.996  1.00  0.00     0.034 A 
ATOM     51  C   UNL A   1      41.583  28.482  31.355  1.00  0.00     0.049 A 
ATOM     52  C   UNL A   1      40.674  31.613  35.932  1.00  0.00     0.074 A 
ATOM     53  C   UNL A   1      42.682  27.643  31.392  1.00  0.00     0.029 A 
ATOM     54  N   UNL A   1      41.538  29.130  32.584  1.00  0.00    -0.354 N 
ATOM     55  N   UNL A   1      41.004  30.814  34.942  1.00  0.00    -0.248 NA
ATOM     56  C   UNL A   1      41.522  31.479  37.122  1.00  0.00     0.031 C 
ATOM     57  C   UNL A   1      43.250  27.719  32.668  1.00  0.00     0.029 A 
ATOM     58  C   UNL A   1      42.566  28.678  33.399  1.00  0.00     0.049 A 
ATOM     59  H   UNL A   1      40.873  29.809  32.839  1.00  0.00     0.167 HD
ATOM     60  C   UNL A   1      42.119  30.106  35.381  1.00  0.00     0.074 A 
ATOM     61  C   UNL A   1      42.410  30.584  36.718  1.00  0.00     0.031 C 
ATOM     62  C   UNL A   1      42.840  29.154  34.736  1.00  0.00     0.034 A 
BRANCH  49  63
ATOM     63  C   UNL A   1      40.736  27.804  29.051  1.00  0.00     0.023 A 
ATOM     64  C   UNL A   1      41.667  28.069  28.030  1.00  0.00     0.031 A 
ATOM     65  C   UNL A   1      39.865  26.714  28.874  1.00  0.00     0.131 A 
ATOM     66  C   UNL A   1      41.644  27.316  26.845  1.00  0.00     0.055 A 
ATOM     67  C   UNL A   1      39.910  25.910  27.733  1.00  0.00     0.041 A 
ATOM     68  F   UNL A   1      38.939  26.420  29.801  1.00  0.00    -0.206 F 
ATOM     69  C   UNL A   1      40.791  26.220  26.701  1.00  0.00     0.022 A 
BRANCH  66  70
ATOM     70  S   UNL A   1      42.625  27.896  25.434  1.00  0.00     0.124 S 
ATOM     71  O   UNL A   1      42.662  26.703  24.591  1.00  0.00    -0.237 OA
ATOM     72  O   UNL A   1      41.828  29.009  24.930  1.00  0.00    -0.237 OA
ATOM     73  O   UNL A   1      43.905  28.265  26.035  1.00  0.00    -0.744 OA
ENDBRANCH  66  70
ENDBRANCH  49  63
BRANCH  50  74
ATOM     74  C   UNL A   1      39.321  33.423  37.239  1.00  0.00     0.023 A 
ATOM     75  C   UNL A   1      39.958  34.654  37.460  1.00  0.00     0.031 A 
ATOM     76  C   UNL A   1      38.458  32.940  38.240  1.00  0.00     0.131 A 
ATOM     77  C   UNL A   1      39.757  35.340  38.668  1.00  0.00     0.055 A 
ATOM     78  C   UNL A   1      38.219  33.652  39.416  1.00  0.00     0.041 A 
ATOM     79  F   UNL A   1      37.819  31.771  38.080  1.00  0.00    -0.206 F 
ATOM     80  C   UNL A   1      38.880  34.855  39.641  1.00  0.00     0.022 A 
BRANCH  77  81
ATOM     81  S   UNL A   1      40.723  36.843  38.988  1.00  0.00     0.124 S 
ATOM     82  O   UNL A   1      41.647  36.846  37.859  1.00  0.00    -0.237 OA
ATOM     83  O   UNL A   1      39.691  37.874  38.976  1.00  0.00    -0.237 OA
ATOM     84  O   UNL A   1      41.330  36.586  40.292  1.00  0.00    -0.744 OA
ENDBRANCH  77  81
ENDBRANCH  50  74
BRANCH  62  85
ATOM     85  C   UNL A   1      44.049  28.599  35.453  1.00  0.00     0.023 A 
ATOM     86  C   UNL A   1      43.953  27.529  36.358  1.00  0.00     0.031 A 
ATOM     87  C   UNL A   1      45.319  29.159  35.225  1.00  0.00     0.131 A 
ATOM     88  C   UNL A   1      45.095  27.090  37.046  1.00  0.00     0.055 A 
ATOM     89  C   UNL A   1      46.463  28.673  35.859  1.00  0.00     0.041 A 
ATOM     90  F   UNL A   1      45.471  30.188  34.374  1.00  0.00    -0.206 F 
ATOM     91  C   UNL A   1      46.352  27.642  36.787  1.00  0.00     0.022 A 
BRANCH  88  92
ATOM     92  S   UNL A   1      44.901  25.857  38.363  1.00  0.00     0.124 S 
ATOM     93  O   UNL A   1      44.155  26.605  39.370  1.00  0.00    -0.237 OA
ATOM     94  O   UNL A   1      44.168  24.792  37.686  1.00  0.00    -0.237 OA
ATOM     95  O   UNL A   1      46.276  25.527  38.728  1.00  0.00    -0.744 OA
ENDBRANCH  88  92
ENDBRANCH  62  85
ENDBRANCH  36  37
ENDBRANCH  28  31
ENDBRANCH  26  27
ENDBRANCH   1  26
TORSDOF 17
ENDMDL
MODEL 3
REMARK VINA RESULT:     -11.8      5.641      8.730
REMARK SMILES CN(C(=O)N[C@@](C)(C(=O)NCCCNC(=O)c1ccc(-c2c3nc(c(-c4cc(S(=O)(=O)[O-])ccc4F)c4ccc([nH]4)c(-c4cc(S(=O)(=O)[O-])ccc4F)c4nc(c(-c5cc(S(=O)(=O)[O-])ccc5F)c5ccc2[nH]5)C=C4)C=C3)cc1)C(F)(F)F)c1ccc(F)cc1
REMARK SMILES IDX 12 1 11 2 10 3 8 4 9 5 6 7 7 8 5 9 3 10 4 11 2 13 1 14 84 15
REMARK SMILES IDX 85 16 90 17 86 18 89 19 87 20 88 21 80 22 81 23 82 24 83 25
REMARK SMILES IDX 13 26 14 27 15 28 16 30 17 31 18 32 79 33 19 34 78 35 20 36
REMARK SMILES IDX 21 37 22 38 72 39 23 40 77 41 71 42 73 43 24 44 76 45 70 46
REMARK SMILES IDX 69 47 25 49 57 50 37 51 56 52 38 53 41 54 55 55 74 56 39 57
REMARK SMILES IDX 40 58 54 60 75 61 42 62 26 63 27 64 35 65 28 66 34 67 36 68
REMARK SMILES IDX 33 69 29 70 30 71 31 72 32 73 58 74 59 75 67 76 60 77 66 78
REMARK SMILES IDX 68 79 65 80 61 81 62 82 63 83 64 84 43 85 44 86 52 87 45 88
REMARK SMILES IDX 51 89 53 90 50 91 46 92 47 93 48 94 49 95
REMARK H PARENT 10 6 5 12 14 29 73 48 41 59
REMARK Flexibility Score: inf
ROOT
ATOM      1  C   UNL A   1      31.635  32.118  26.754  1.00  0.00     0.042 C 
ENDROOT
BRANCH   1   2
ATOM      2  C   UNL A   1      31.955  30.767  26.133  1.00  0.00     0.117 C 
BRANCH   2   3
ATOM      3  N   UNL A   1      33.138  30.170  26.725  1.00  0.00    -0.354 N 
ATOM      4  C   UNL A   1      33.693  28.933  26.711  1.00  0.00     0.255 C 
ATOM      5  O   UNL A   1      34.630  28.802  27.509  1.00  0.00    -0.272 OA
ATOM      6  H   UNL A   1      33.658  30.813  27.259  1.00  0.00     0.163 HD
BRANCH   4   7
ATOM      7  C   UNL A   1      33.163  27.747  25.866  1.00  0.00     0.213 C 
ATOM      8  C   UNL A   1      34.052  26.491  25.963  1.00  0.00     0.056 C 
BRANCH   7   9
ATOM      9  N   UNL A   1      33.206  28.249  24.438  1.00  0.00    -0.316 N 
ATOM     10  C   UNL A   1      32.738  28.149  23.185  1.00  0.00     0.322 C 
ATOM     11  O   UNL A   1      33.161  29.063  22.465  1.00  0.00    -0.248 OA
ATOM     12  H   UNL A   1      33.877  28.969  24.421  1.00  0.00     0.166 HD
BRANCH  10  13
ATOM     13  N   UNL A   1      31.887  27.188  22.725  1.00  0.00    -0.298 N 
ATOM     14  C   UNL A   1      32.248  26.048  21.911  1.00  0.00     0.155 C 
BRANCH  13  15
ATOM     15  C   UNL A   1      30.463  27.339  22.855  1.00  0.00     0.045 A 
ATOM     16  C   UNL A   1      29.693  26.379  23.523  1.00  0.00     0.029 A 
ATOM     17  C   UNL A   1      29.863  28.554  22.477  1.00  0.00     0.029 A 
ATOM     18  C   UNL A   1      28.369  26.663  23.876  1.00  0.00     0.041 A 
ATOM     19  C   UNL A   1      28.535  28.826  22.810  1.00  0.00     0.041 A 
ATOM     20  C   UNL A   1      27.808  27.886  23.528  1.00  0.00     0.123 A 
ATOM     21  F   UNL A   1      26.558  28.176  23.911  1.00  0.00    -0.207 F 
ENDBRANCH  13  15
ENDBRANCH  10  13
ENDBRANCH   7   9
BRANCH   7  22
ATOM     22  C   UNL A   1      31.858  27.384  26.616  1.00  0.00     0.420 C 
ATOM     23  F   UNL A   1      31.579  26.067  26.647  1.00  0.00    -0.168 F 
ATOM     24  F   UNL A   1      31.881  27.824  27.902  1.00  0.00    -0.168 F 
ATOM     25  F   UNL A   1      30.782  28.016  26.074  1.00  0.00    -0.168 F 
ENDBRANCH   7  22
ENDBRANCH   4   7
ENDBRANCH   2   3
ENDBRANCH   1   2
BRANCH   1  26
ATOM     26  C   UNL A   1      32.800  32.790  27.470  1.00  0.00     0.118 C 
BRANCH  26  27
ATOM     27  N   UNL A   1      32.563  34.197  27.755  1.00  0.00    -0.352 N 
ATOM     28  C   UNL A   1      33.147  35.006  28.702  1.00  0.00     0.251 C 
ATOM     29  H   UNL A   1      31.887  34.634  27.188  1.00  0.00     0.163 HD
ATOM     30  O   UNL A   1      32.685  36.127  28.904  1.00  0.00    -0.269 OA
BRANCH  28  31
ATOM     31  C   UNL A   1      34.297  34.512  29.490  1.00  0.00     0.039 A 
ATOM     32  C   UNL A   1      34.068  33.970  30.756  1.00  0.00     0.014 A 
ATOM     33  C   UNL A   1      35.594  34.561  28.974  1.00  0.00     0.014 A 
ATOM     34  C   UNL A   1      35.130  33.410  31.468  1.00  0.00     0.010 A 
ATOM     35  C   UNL A   1      36.628  33.907  29.636  1.00  0.00     0.010 A 
ATOM     36  C   UNL A   1      36.412  33.332  30.897  1.00  0.00    -0.014 A 
BRANCH  36  37
ATOM     37  C   UNL A   1      37.533  32.664  31.611  1.00  0.00     0.031 A 
ATOM     38  C   UNL A   1      38.261  31.514  30.968  1.00  0.00     0.074 A 
ATOM     39  C   UNL A   1      37.860  33.058  32.858  1.00  0.00     0.049 A 
ATOM     40  N   UNL A   1      39.240  30.785  31.441  1.00  0.00    -0.248 NA
ATOM     41  C   UNL A   1      37.804  31.105  29.631  1.00  0.00     0.031 C 
ATOM     42  C   UNL A   1      37.187  34.119  33.613  1.00  0.00     0.029 A 
ATOM     43  N   UNL A   1      38.838  32.616  33.715  1.00  0.00    -0.354 N 
ATOM     44  C   UNL A   1      39.502  29.825  30.468  1.00  0.00     0.074 A 
ATOM     45  C   UNL A   1      38.529  30.019  29.415  1.00  0.00     0.031 C 
ATOM     46  C   UNL A   1      37.795  34.270  34.800  1.00  0.00     0.029 A 
ATOM     47  C   UNL A   1      38.867  33.287  34.916  1.00  0.00     0.049 A 
ATOM     48  H   UNL A   1      39.458  31.886  33.491  1.00  0.00     0.167 HD
ATOM     49  C   UNL A   1      40.483  28.887  30.442  1.00  0.00     0.034 A 
ATOM     50  C   UNL A   1      39.662  33.127  35.993  1.00  0.00     0.034 A 
ATOM     51  C   UNL A   1      41.452  28.719  31.497  1.00  0.00     0.049 A 
ATOM     52  C   UNL A   1      40.741  32.074  35.948  1.00  0.00     0.074 A 
ATOM     53  C   UNL A   1      42.529  27.851  31.545  1.00  0.00     0.029 A 
ATOM     54  N   UNL A   1      41.454  29.421  32.696  1.00  0.00    -0.354 N 
ATOM     55  N   UNL A   1      41.025  31.223  34.987  1.00  0.00    -0.248 NA
ATOM     56  C   UNL A   1      41.615  31.969  37.122  1.00  0.00     0.031 C 
ATOM     57  C   UNL A   1      43.130  27.969  32.803  1.00  0.00     0.029 A 
ATOM     58  C   UNL A   1      42.490  28.978  33.506  1.00  0.00     0.049 A 
ATOM     59  H   UNL A   1      40.815  30.129  32.936  1.00  0.00     0.167 HD
ATOM     60  C   UNL A   1      42.132  30.504  35.432  1.00  0.00     0.074 A 
ATOM     61  C   UNL A   1      42.469  31.033  36.738  1.00  0.00     0.031 C 
ATOM     62  C   UNL A   1      42.810  29.505  34.813  1.00  0.00     0.034 A 
BRANCH  49  63
ATOM     63  C   UNL A   1      40.529  27.962  29.247  1.00  0.00     0.023 A 
ATOM     64  C   UNL A   1      41.463  28.136  28.208  1.00  0.00     0.031 A 
ATOM     65  C   UNL A   1      39.604  26.909  29.124  1.00  0.00     0.131 A 
ATOM     66  C   UNL A   1      41.392  27.335  27.058  1.00  0.00     0.055 A 
ATOM     67  C   UNL A   1      39.600  26.056  28.019  1.00  0.00     0.041 A 
ATOM     68  F   UNL A   1      38.674  26.702  30.069  1.00  0.00    -0.206 F 
ATOM     69  C   UNL A   1      40.486  26.277  26.968  1.00  0.00     0.022 A 
BRANCH  66  70
ATOM     70  S   UNL A   1      42.387  27.804  25.615  1.00  0.00     0.124 S 
ATOM     71  O   UNL A   1      42.180  26.660  24.730  1.00  0.00    -0.237 OA
ATOM     72  O   UNL A   1      41.767  29.056  25.197  1.00  0.00    -0.237 OA
ATOM     73  O   UNL A   1      43.739  27.927  26.157  1.00  0.00    -0.744 OA
ENDBRANCH  66  70
ENDBRANCH  49  63
BRANCH  50  74
ATOM     74  C   UNL A   1      39.470  33.976  37.204  1.00  0.00     0.023 A 
ATOM     75  C   UNL A   1      38.853  33.470  38.360  1.00  0.00     0.031 A 
ATOM     76  C   UNL A   1      39.880  35.322  37.214  1.00  0.00     0.131 A 
ATOM     77  C   UNL A   1      38.628  34.312  39.460  1.00  0.00     0.055 A 
ATOM     78  C   UNL A   1      39.703  36.140  38.331  1.00  0.00     0.041 A 
ATOM     79  F   UNL A   1      40.479  35.857  36.139  1.00  0.00    -0.206 F 
ATOM     80  C   UNL A   1      39.062  35.639  39.459  1.00  0.00     0.022 A 
BRANCH  77  81
ATOM     81  S   UNL A   1      37.683  33.669  40.870  1.00  0.00     0.124 S 
ATOM     82  O   UNL A   1      37.352  34.895  41.588  1.00  0.00    -0.237 OA
ATOM     83  O   UNL A   1      36.573  32.993  40.208  1.00  0.00    -0.237 OA
ATOM     84  O   UNL A   1      38.635  32.789  41.543  1.00  0.00    -0.744 OA
ENDBRANCH  77  81
ENDBRANCH  50  74
BRANCH  62  85
ATOM     85  C   UNL A   1      44.022  28.950  35.525  1.00  0.00     0.023 A 
ATOM     86  C   UNL A   1      43.943  27.826  36.365  1.00  0.00     0.031 A 
ATOM     87  C   UNL A   1      45.277  29.564  35.360  1.00  0.00     0.131 A 
ATOM     88  C   UNL A   1      45.085  27.385  37.053  1.00  0.00     0.055 A 
ATOM     89  C   UNL A   1      46.423  29.080  35.993  1.00  0.00     0.041 A 
ATOM     90  F   UNL A   1      45.412  30.645  34.574  1.00  0.00    -0.206 F 
ATOM     91  C   UNL A   1      46.327  27.993  36.856  1.00  0.00     0.022 A 
BRANCH  88  92
ATOM     92  S   UNL A   1      44.904  26.072  38.291  1.00  0.00     0.124 S 
ATOM     93  O   UNL A   1      46.292  25.696  38.539  1.00  0.00    -0.237 OA
ATOM     94  O   UNL A   1      44.226  26.763  39.383  1.00  0.00    -0.237 OA
ATOM     95  O   UNL A   1      44.101  25.062  37.605  1.00  0.00    -0.744 OA
ENDBRANCH  88  92
ENDBRANCH  62  85
ENDBRANCH  36  37
ENDBRANCH  28  31
ENDBRANCH  26  27
ENDBRANCH   1  26
TORSDOF 17
ENDMDL
