MODEL 1
REMARK VINA RESULT:     -11.2      0.000      0.000
REMARK SMILES C[C@@]1(O)CC(NCCCNC(=O)c2ccc(-c3c4nc(c(-c5cc(S(=O)(=O)[O-])ccc5F)c5ccc([nH]5)c(-c5cc(S(=O)(=O)[O-])ccc5F)c5nc(c(-c6cc(S(=O)(=O)[O-])ccc6F)c6ccc3[nH]6)C=C5)C=C4)cc2)=C(C(=O)Nc2ccccc2)[C@H](c2ccccc2C(=O)[O-])[C@@H]1C(=O)Nc1ccccc1
REMARK SMILES IDX 8 1 7 2 6 3 5 5 1 6 2 7 4 8 96 9 86 10 76 11 3 12 97 14
REMARK SMILES IDX 98 15 99 16 100 18 101 19 105 20 102 21 104 22 103 23 87 24
REMARK SMILES IDX 88 25 92 26 89 27 91 28 90 29 93 30 94 31 95 32 77 33 78 34
REMARK SMILES IDX 79 35 80 37 81 38 85 39 82 40 84 41 83 42 9 43 10 44 11 45
REMARK SMILES IDX 12 47 13 48 14 49 75 50 15 51 74 52 16 53 17 54 18 55 68 56
REMARK SMILES IDX 19 57 73 58 67 59 69 60 20 61 72 62 66 63 65 64 21 66 53 67
REMARK SMILES IDX 33 68 52 69 34 70 37 71 51 72 70 73 35 74 36 75 50 77 71 78
REMARK SMILES IDX 38 79 22 80 23 81 31 82 24 83 30 84 32 85 29 86 25 87 26 88
REMARK SMILES IDX 27 89 28 90 54 91 55 92 63 93 56 94 62 95 64 96 61 97 57 98
REMARK SMILES IDX 58 99 59 100 60 101 39 102 40 103 48 104 41 105 47 106
REMARK SMILES IDX 49 107 46 108 42 109 43 110 44 111 45 112
REMARK H PARENT 6 4 3 13 99 17 79 36 10 46 69 65 37 76
REMARK Flexibility Score: inf
ROOT
ATOM      1  C   UNL A   1      38.350  18.765  25.542  1.00  0.00     0.042 C 
ENDROOT
BRANCH   1   2
ATOM      2  C   UNL A   1      37.280  19.356  24.649  1.00  0.00     0.114 C 
BRANCH   2   3
ATOM      3  N   UNL A   1      36.134  19.851  25.422  1.00  0.00    -0.388 N 
ATOM      4  H   UNL A   1      35.580  19.188  25.894  1.00  0.00     0.160 HD
BRANCH   3   5
ATOM      5  C   UNL A   1      35.771  21.199  25.535  1.00  0.00     0.023 C 
ATOM      6  C   UNL A   1      37.420  23.963  26.571  1.00  0.00     0.043 C 
ATOM      7  C   UNL A   1      36.783  23.562  25.234  1.00  0.00     0.080 C 
ATOM      8  C   UNL A   1      36.876  22.082  25.010  1.00  0.00     0.089 C 
ATOM      9  C   UNL A   1      35.326  24.049  25.059  1.00  0.00     0.123 C 
ATOM     10  C   UNL A   1      34.127  23.159  25.594  1.00  0.00     0.073 C 
ATOM     11  C   UNL A   1      34.554  21.685  25.954  1.00  0.00     0.045 C 
BRANCH   7  12
ATOM     12  O   UNL A   1      37.678  24.178  24.273  1.00  0.00    -0.389 OA
ATOM     13  H   UNL A   1      38.176  24.890  24.706  1.00  0.00     0.211 HD
ENDBRANCH   7  12
BRANCH   9  14
ATOM     14  C   UNL A   1      35.216  24.736  23.711  1.00  0.00     0.231 C 
ATOM     15  O   UNL A   1      35.759  24.173  22.741  1.00  0.00    -0.274 OA
ATOM     16  N   UNL A   1      34.473  25.814  23.381  1.00  0.00    -0.326 N 
ATOM     17  H   UNL A   1      34.539  26.000  22.417  1.00  0.00     0.169 HD
BRANCH  16  18
ATOM     18  C   UNL A   1      33.636  26.748  24.008  1.00  0.00     0.041 A 
ATOM     19  C   UNL A   1      32.350  26.872  23.480  1.00  0.00     0.026 A 
ATOM     20  C   UNL A   1      33.951  27.559  25.082  1.00  0.00     0.026 A 
ATOM     21  C   UNL A   1      31.410  27.730  24.059  1.00  0.00     0.002 A 
ATOM     22  C   UNL A   1      33.035  28.439  25.662  1.00  0.00     0.002 A 
ATOM     23  C   UNL A   1      31.750  28.511  25.160  1.00  0.00     0.000 A 
ENDBRANCH  16  18
ENDBRANCH   9  14
BRANCH  10  24
ATOM     24  C   UNL A   1      32.744  23.335  24.784  1.00  0.00    -0.030 A 
ATOM     25  C   UNL A   1      32.629  22.817  23.461  1.00  0.00     0.005 A 
ATOM     26  C   UNL A   1      31.528  23.893  25.287  1.00  0.00     0.001 A 
ATOM     27  C   UNL A   1      31.440  22.833  22.711  1.00  0.00     0.000 A 
ATOM     28  C   UNL A   1      30.349  23.945  24.499  1.00  0.00     0.010 A 
ATOM     29  C   UNL A   1      30.296  23.406  23.226  1.00  0.00     0.001 A 
BRANCH  26  30
ATOM     30  C   UNL A   1      31.278  24.506  26.606  1.00  0.00     0.072 C 
ATOM     31  O   UNL A   1      31.782  25.550  26.992  1.00  0.00    -0.545 OA
ATOM     32  O   UNL A   1      30.403  23.824  27.352  1.00  0.00    -0.545 OA
ENDBRANCH  26  30
ENDBRANCH  10  24
BRANCH  11  33
ATOM     33  C   UNL A   1      33.647  20.623  26.586  1.00  0.00     0.253 C 
ATOM     34  O   UNL A   1      33.466  20.674  27.820  1.00  0.00    -0.269 OA
ATOM     35  N   UNL A   1      32.928  19.615  26.022  1.00  0.00    -0.322 N 
ATOM     36  H   UNL A   1      32.155  19.406  26.595  1.00  0.00     0.170 HD
BRANCH  35  37
ATOM     37  C   UNL A   1      32.917  18.773  24.898  1.00  0.00     0.041 A 
ATOM     38  C   UNL A   1      33.608  17.553  24.988  1.00  0.00     0.026 A 
ATOM     39  C   UNL A   1      32.411  19.103  23.658  1.00  0.00     0.026 A 
ATOM     40  C   UNL A   1      33.757  16.718  23.868  1.00  0.00     0.002 A 
ATOM     41  C   UNL A   1      32.564  18.298  22.531  1.00  0.00     0.002 A 
ATOM     42  C   UNL A   1      33.236  17.095  22.634  1.00  0.00     0.000 A 
ENDBRANCH  35  37
ENDBRANCH  11  33
ENDBRANCH   3   5
ENDBRANCH   2   3
ENDBRANCH   1   2
BRANCH   1  43
ATOM     43  C   UNL A   1      39.486  19.744  25.753  1.00  0.00     0.118 C 
BRANCH  43  44
ATOM     44  N   UNL A   1      40.761  19.063  25.979  1.00  0.00    -0.352 N 
ATOM     45  C   UNL A   1      41.985  19.591  26.305  1.00  0.00     0.251 C 
ATOM     46  H   UNL A   1      40.738  18.084  25.885  1.00  0.00     0.163 HD
ATOM     47  O   UNL A   1      42.985  18.879  26.281  1.00  0.00    -0.269 OA
BRANCH  45  48
ATOM     48  C   UNL A   1      42.082  21.023  26.644  1.00  0.00     0.039 A 
ATOM     49  C   UNL A   1      42.310  21.396  27.969  1.00  0.00     0.014 A 
ATOM     50  C   UNL A   1      41.997  21.990  25.640  1.00  0.00     0.014 A 
ATOM     51  C   UNL A   1      42.524  22.741  28.273  1.00  0.00     0.010 A 
ATOM     52  C   UNL A   1      42.325  23.306  25.925  1.00  0.00     0.010 A 
ATOM     53  C   UNL A   1      42.576  23.699  27.246  1.00  0.00    -0.014 A 
BRANCH  53  54
ATOM     54  C   UNL A   1      42.864  25.125  27.529  1.00  0.00     0.031 A 
ATOM     55  C   UNL A   1      44.248  25.662  27.283  1.00  0.00     0.074 A 
ATOM     56  C   UNL A   1      41.908  25.904  28.072  1.00  0.00     0.049 A 
ATOM     57  N   UNL A   1      44.732  26.848  27.543  1.00  0.00    -0.248 NA
ATOM     58  C   UNL A   1      45.229  24.730  26.701  1.00  0.00     0.031 C 
ATOM     59  C   UNL A   1      40.545  25.472  28.396  1.00  0.00     0.029 A 
ATOM     60  N   UNL A   1      41.934  27.222  28.455  1.00  0.00    -0.354 N 
ATOM     61  C   UNL A   1      46.075  26.796  27.182  1.00  0.00     0.074 A 
ATOM     62  C   UNL A   1      46.343  25.445  26.744  1.00  0.00     0.031 C 
ATOM     63  C   UNL A   1      39.859  26.514  28.893  1.00  0.00     0.029 A 
ATOM     64  C   UNL A   1      40.743  27.671  28.978  1.00  0.00     0.049 A 
ATOM     65  H   UNL A   1      42.731  27.792  28.364  1.00  0.00     0.167 HD
ATOM     66  C   UNL A   1      46.991  27.793  27.195  1.00  0.00     0.034 A 
ATOM     67  C   UNL A   1      40.410  28.877  29.481  1.00  0.00     0.034 A 
ATOM     68  C   UNL A   1      46.692  29.140  27.606  1.00  0.00     0.049 A 
ATOM     69  C   UNL A   1      41.457  29.964  29.498  1.00  0.00     0.074 A 
ATOM     70  C   UNL A   1      47.518  30.250  27.581  1.00  0.00     0.029 A 
ATOM     71  N   UNL A   1      45.476  29.561  28.129  1.00  0.00    -0.354 N 
ATOM     72  N   UNL A   1      42.703  29.918  29.082  1.00  0.00    -0.248 NA
ATOM     73  C   UNL A   1      41.051  31.266  30.040  1.00  0.00     0.031 C 
ATOM     74  C   UNL A   1      46.830  31.319  28.163  1.00  0.00     0.029 A 
ATOM     75  C   UNL A   1      45.543  30.902  28.467  1.00  0.00     0.049 A 
ATOM     76  H   UNL A   1      44.681  28.990  28.240  1.00  0.00     0.167 HD
ATOM     77  C   UNL A   1      43.215  31.198  29.278  1.00  0.00     0.074 A 
ATOM     78  C   UNL A   1      42.138  31.993  29.832  1.00  0.00     0.031 C 
ATOM     79  C   UNL A   1      44.458  31.678  29.021  1.00  0.00     0.034 A 
BRANCH  66  80
ATOM     80  C   UNL A   1      48.403  27.456  26.780  1.00  0.00     0.023 A 
ATOM     81  C   UNL A   1      49.397  27.121  27.716  1.00  0.00     0.031 A 
ATOM     82  C   UNL A   1      48.761  27.474  25.420  1.00  0.00     0.131 A 
ATOM     83  C   UNL A   1      50.712  26.883  27.288  1.00  0.00     0.055 A 
ATOM     84  C   UNL A   1      50.052  27.155  24.993  1.00  0.00     0.041 A 
ATOM     85  F   UNL A   1      47.863  27.811  24.481  1.00  0.00    -0.206 F 
ATOM     86  C   UNL A   1      51.040  26.870  25.930  1.00  0.00     0.022 A 
BRANCH  83  87
ATOM     87  S   UNL A   1      52.016  26.719  28.537  1.00  0.00     0.124 S 
ATOM     88  O   UNL A   1      51.344  25.927  29.564  1.00  0.00    -0.237 OA
ATOM     89  O   UNL A   1      53.076  26.042  27.799  1.00  0.00    -0.237 OA
ATOM     90  O   UNL A   1      52.303  28.101  28.916  1.00  0.00    -0.744 OA
ENDBRANCH  83  87
ENDBRANCH  66  80
BRANCH  67  91
ATOM     91  C   UNL A   1      39.041  29.132  30.018  1.00  0.00     0.023 A 
ATOM     92  C   UNL A   1      38.078  29.803  29.246  1.00  0.00     0.031 A 
ATOM     93  C   UNL A   1      38.694  28.776  31.333  1.00  0.00     0.131 A 
ATOM     94  C   UNL A   1      36.845  30.156  29.815  1.00  0.00     0.055 A 
ATOM     95  C   UNL A   1      37.441  29.070  31.872  1.00  0.00     0.041 A 
ATOM     96  F   UNL A   1      39.573  28.131  32.118  1.00  0.00    -0.206 F 
ATOM     97  C   UNL A   1      36.514  29.782  31.118  1.00  0.00     0.022 A 
BRANCH  94  98
ATOM     98  S   UNL A   1      35.729  31.224  28.864  1.00  0.00     0.124 S 
ATOM     99  O   UNL A   1      34.994  30.250  28.066  1.00  0.00    -0.237 OA
ATOM    100  O   UNL A   1      34.975  31.890  29.921  1.00  0.00    -0.237 OA
ATOM    101  O   UNL A   1      36.641  32.085  28.114  1.00  0.00    -0.744 OA
ENDBRANCH  94  98
ENDBRANCH  67  91
BRANCH  79 102
ATOM    102  C   UNL A   1      44.697  33.145  29.283  1.00  0.00     0.023 A 
ATOM    103  C   UNL A   1      44.499  34.118  28.288  1.00  0.00     0.031 A 
ATOM    104  C   UNL A   1      45.135  33.572  30.550  1.00  0.00     0.131 A 
ATOM    105  C   UNL A   1      44.794  35.462  28.560  1.00  0.00     0.055 A 
ATOM    106  C   UNL A   1      45.361  34.918  30.834  1.00  0.00     0.041 A 
ATOM    107  F   UNL A   1      45.343  32.684  31.535  1.00  0.00    -0.206 F 
ATOM    108  C   UNL A   1      45.205  35.871  29.832  1.00  0.00     0.022 A 
BRANCH 105 109
ATOM    109  S   UNL A   1      44.731  36.659  27.200  1.00  0.00     0.124 S 
ATOM    110  O   UNL A   1      45.789  36.175  26.319  1.00  0.00    -0.237 OA
ATOM    111  O   UNL A   1      43.367  36.498  26.705  1.00  0.00    -0.237 OA
ATOM    112  O   UNL A   1      45.004  37.937  27.854  1.00  0.00    -0.744 OA
ENDBRANCH 105 109
ENDBRANCH  79 102
ENDBRANCH  53  54
ENDBRANCH  45  48
ENDBRANCH  43  44
ENDBRANCH   1  43
TORSDOF 20
ENDMDL
MODEL 2
REMARK VINA RESULT:     -11.1      1.568      7.064
REMARK SMILES C[C@@]1(O)CC(NCCCNC(=O)c2ccc(-c3c4nc(c(-c5cc(S(=O)(=O)[O-])ccc5F)c5ccc([nH]5)c(-c5cc(S(=O)(=O)[O-])ccc5F)c5nc(c(-c6cc(S(=O)(=O)[O-])ccc6F)c6ccc3[nH]6)C=C5)C=C4)cc2)=C(C(=O)Nc2ccccc2)[C@H](c2ccccc2C(=O)[O-])[C@@H]1C(=O)Nc1ccccc1
REMARK SMILES IDX 8 1 7 2 6 3 5 5 1 6 2 7 4 8 96 9 86 10 76 11 3 12 97 14
REMARK SMILES IDX 98 15 99 16 100 18 101 19 105 20 102 21 104 22 103 23 87 24
REMARK SMILES IDX 88 25 92 26 89 27 91 28 90 29 93 30 94 31 95 32 77 33 78 34
REMARK SMILES IDX 79 35 80 37 81 38 85 39 82 40 84 41 83 42 9 43 10 44 11 45
REMARK SMILES IDX 12 47 13 48 14 49 75 50 15 51 74 52 16 53 17 54 18 55 68 56
REMARK SMILES IDX 19 57 73 58 67 59 69 60 20 61 72 62 66 63 65 64 21 66 53 67
REMARK SMILES IDX 33 68 52 69 34 70 37 71 51 72 70 73 35 74 36 75 50 77 71 78
REMARK SMILES IDX 38 79 22 80 23 81 31 82 24 83 30 84 32 85 29 86 25 87 26 88
REMARK SMILES IDX 27 89 28 90 54 91 55 92 63 93 56 94 62 95 64 96 61 97 57 98
REMARK SMILES IDX 58 99 59 100 60 101 39 102 40 103 48 104 41 105 47 106
REMARK SMILES IDX 49 107 46 108 42 109 43 110 44 111 45 112
REMARK H PARENT 6 4 3 13 99 17 79 36 10 46 69 65 37 76
REMARK Flexibility Score: inf
ROOT
ATOM      1  C   UNL A   1      38.283  18.806  25.695  1.00  0.00     0.042 C 
ENDROOT
BRANCH   1   2
ATOM      2  C   UNL A   1      37.277  19.338  24.697  1.00  0.00     0.114 C 
BRANCH   2   3
ATOM      3  N   UNL A   1      36.066  19.842  25.356  1.00  0.00    -0.388 N 
ATOM      4  H   UNL A   1      35.447  19.182  25.741  1.00  0.00     0.160 HD
BRANCH   3   5
ATOM      5  C   UNL A   1      35.728  21.196  25.474  1.00  0.00     0.023 C 
ATOM      6  C   UNL A   1      37.439  23.932  26.482  1.00  0.00     0.043 C 
ATOM      7  C   UNL A   1      36.775  23.542  25.155  1.00  0.00     0.080 C 
ATOM      8  C   UNL A   1      36.839  22.060  24.931  1.00  0.00     0.089 C 
ATOM      9  C   UNL A   1      35.323  24.053  25.004  1.00  0.00     0.123 C 
ATOM     10  C   UNL A   1      34.118  23.184  25.558  1.00  0.00     0.073 C 
ATOM     11  C   UNL A   1      34.526  21.703  25.912  1.00  0.00     0.045 C 
BRANCH   7  12
ATOM     12  O   UNL A   1      37.664  24.142  24.181  1.00  0.00    -0.389 OA
ATOM     13  H   UNL A   1      37.931  23.473  23.531  1.00  0.00     0.211 HD
ENDBRANCH   7  12
BRANCH   9  14
ATOM     14  C   UNL A   1      35.204  24.741  23.657  1.00  0.00     0.231 C 
ATOM     15  O   UNL A   1      35.782  24.205  22.692  1.00  0.00    -0.274 OA
ATOM     16  N   UNL A   1      34.422  25.791  23.322  1.00  0.00    -0.326 N 
ATOM     17  H   UNL A   1      34.494  25.984  22.360  1.00  0.00     0.169 HD
BRANCH  16  18
ATOM     18  C   UNL A   1      33.540  26.687  23.941  1.00  0.00     0.041 A 
ATOM     19  C   UNL A   1      33.962  27.222  25.158  1.00  0.00     0.026 A 
ATOM     20  C   UNL A   1      32.300  27.086  23.479  1.00  0.00     0.026 A 
ATOM     21  C   UNL A   1      33.190  28.170  25.839  1.00  0.00     0.002 A 
ATOM     22  C   UNL A   1      31.503  28.013  24.153  1.00  0.00     0.002 A 
ATOM     23  C   UNL A   1      31.959  28.574  25.331  1.00  0.00     0.000 A 
ENDBRANCH  16  18
ENDBRANCH   9  14
BRANCH  10  24
ATOM     24  C   UNL A   1      32.726  23.383  24.770  1.00  0.00    -0.030 A 
ATOM     25  C   UNL A   1      32.582  22.871  23.447  1.00  0.00     0.005 A 
ATOM     26  C   UNL A   1      31.526  23.957  25.293  1.00  0.00     0.001 A 
ATOM     27  C   UNL A   1      31.383  22.907  22.715  1.00  0.00     0.000 A 
ATOM     28  C   UNL A   1      30.335  24.029  24.523  1.00  0.00     0.010 A 
ATOM     29  C   UNL A   1      30.255  23.495  23.250  1.00  0.00     0.001 A 
BRANCH  26  30
ATOM     30  C   UNL A   1      31.305  24.569  26.618  1.00  0.00     0.072 C 
ATOM     31  O   UNL A   1      31.022  25.744  26.800  1.00  0.00    -0.545 OA
ATOM     32  O   UNL A   1      31.408  23.701  27.629  1.00  0.00    -0.545 OA
ENDBRANCH  26  30
ENDBRANCH  10  24
BRANCH  11  33
ATOM     33  C   UNL A   1      33.611  20.657  26.559  1.00  0.00     0.253 C 
ATOM     34  O   UNL A   1      33.393  20.753  27.784  1.00  0.00    -0.269 OA
ATOM     35  N   UNL A   1      32.919  19.619  26.015  1.00  0.00    -0.322 N 
ATOM     36  H   UNL A   1      32.132  19.424  26.572  1.00  0.00     0.170 HD
BRANCH  35  37
ATOM     37  C   UNL A   1      32.949  18.733  24.925  1.00  0.00     0.041 A 
ATOM     38  C   UNL A   1      33.594  17.498  25.104  1.00  0.00     0.026 A 
ATOM     39  C   UNL A   1      32.531  19.029  23.644  1.00  0.00     0.026 A 
ATOM     40  C   UNL A   1      33.784  16.615  24.027  1.00  0.00     0.002 A 
ATOM     41  C   UNL A   1      32.726  18.175  22.560  1.00  0.00     0.002 A 
ATOM     42  C   UNL A   1      33.351  16.958  22.750  1.00  0.00     0.000 A 
ENDBRANCH  35  37
ENDBRANCH  11  33
ENDBRANCH   3   5
ENDBRANCH   2   3
ENDBRANCH   1   2
BRANCH   1  43
ATOM     43  C   UNL A   1      39.500  19.702  25.772  1.00  0.00     0.118 C 
BRANCH  43  44
ATOM     44  N   UNL A   1      40.740  18.933  25.890  1.00  0.00    -0.352 N 
ATOM     45  C   UNL A   1      42.022  19.374  26.107  1.00  0.00     0.251 C 
ATOM     46  H   UNL A   1      40.641  17.958  25.802  1.00  0.00     0.163 HD
ATOM     47  O   UNL A   1      42.963  18.594  26.000  1.00  0.00    -0.269 OA
BRANCH  45  48
ATOM     48  C   UNL A   1      42.247  20.795  26.432  1.00  0.00     0.039 A 
ATOM     49  C   UNL A   1      42.408  21.173  27.764  1.00  0.00     0.014 A 
ATOM     50  C   UNL A   1      42.349  21.741  25.409  1.00  0.00     0.014 A 
ATOM     51  C   UNL A   1      42.743  22.493  28.064  1.00  0.00     0.010 A 
ATOM     52  C   UNL A   1      42.795  23.020  25.700  1.00  0.00     0.010 A 
ATOM     53  C   UNL A   1      42.981  23.415  27.031  1.00  0.00    -0.014 A 
BRANCH  53  54
ATOM     54  C   UNL A   1      43.400  24.809  27.315  1.00  0.00     0.031 A 
ATOM     55  C   UNL A   1      42.417  25.763  27.938  1.00  0.00     0.074 A 
ATOM     56  C   UNL A   1      44.627  25.225  26.945  1.00  0.00     0.049 A 
ATOM     57  N   UNL A   1      42.550  27.039  28.188  1.00  0.00    -0.248 NA
ATOM     58  C   UNL A   1      41.096  25.218  28.294  1.00  0.00     0.031 C 
ATOM     59  C   UNL A   1      45.642  24.395  26.290  1.00  0.00     0.029 A 
ATOM     60  N   UNL A   1      45.230  26.453  27.059  1.00  0.00    -0.354 N 
ATOM     61  C   UNL A   1      41.326  27.453  28.704  1.00  0.00     0.074 A 
ATOM     62  C   UNL A   1      40.445  26.307  28.673  1.00  0.00     0.031 C 
ATOM     63  C   UNL A   1      46.751  25.127  26.096  1.00  0.00     0.029 A 
ATOM     64  C   UNL A   1      46.510  26.490  26.557  1.00  0.00     0.049 A 
ATOM     65  H   UNL A   1      44.787  27.233  27.463  1.00  0.00     0.167 HD
ATOM     66  C   UNL A   1      40.980  28.672  29.180  1.00  0.00     0.034 A 
ATOM     67  C   UNL A   1      47.384  27.513  26.467  1.00  0.00     0.034 A 
ATOM     68  C   UNL A   1      41.886  29.791  29.230  1.00  0.00     0.049 A 
ATOM     69  C   UNL A   1      46.964  28.865  26.991  1.00  0.00     0.074 A 
ATOM     70  C   UNL A   1      41.671  31.048  29.768  1.00  0.00     0.029 A 
ATOM     71  N   UNL A   1      43.175  29.793  28.714  1.00  0.00    -0.354 N 
ATOM     72  N   UNL A   1      45.826  29.221  27.545  1.00  0.00    -0.248 NA
ATOM     73  C   UNL A   1      47.948  29.950  26.888  1.00  0.00     0.031 C 
ATOM     74  C   UNL A   1      42.797  31.833  29.504  1.00  0.00     0.029 A 
ATOM     75  C   UNL A   1      43.752  31.042  28.884  1.00  0.00     0.049 A 
ATOM     76  H   UNL A   1      43.616  29.021  28.291  1.00  0.00     0.167 HD
ATOM     77  C   UNL A   1      45.977  30.561  27.891  1.00  0.00     0.074 A 
ATOM     78  C   UNL A   1      47.318  30.942  27.499  1.00  0.00     0.031 C 
ATOM     79  C   UNL A   1      45.092  31.402  28.483  1.00  0.00     0.034 A 
BRANCH  66  80
ATOM     80  C   UNL A   1      39.560  28.864  29.656  1.00  0.00     0.023 A 
ATOM     81  C   UNL A   1      38.584  29.490  28.861  1.00  0.00     0.031 A 
ATOM     82  C   UNL A   1      39.178  28.416  30.933  1.00  0.00     0.131 A 
ATOM     83  C   UNL A   1      37.296  29.708  29.372  1.00  0.00     0.055 A 
ATOM     84  C   UNL A   1      37.872  28.562  31.405  1.00  0.00     0.041 A 
ATOM     85  F   UNL A   1      40.071  27.835  31.749  1.00  0.00    -0.206 F 
ATOM     86  C   UNL A   1      36.925  29.222  30.629  1.00  0.00     0.022 A 
BRANCH  83  87
ATOM     87  S   UNL A   1      36.150  30.748  28.428  1.00  0.00     0.124 S 
ATOM     88  O   UNL A   1      37.030  31.827  27.982  1.00  0.00    -0.237 OA
ATOM     89  O   UNL A   1      35.678  29.838  27.391  1.00  0.00    -0.237 OA
ATOM     90  O   UNL A   1      35.149  31.141  29.418  1.00  0.00    -0.744 OA
ENDBRANCH  83  87
ENDBRANCH  66  80
BRANCH  67  91
ATOM     91  C   UNL A   1      48.732  27.320  25.856  1.00  0.00     0.023 A 
ATOM     92  C   UNL A   1      48.953  27.603  24.498  1.00  0.00     0.031 A 
ATOM     93  C   UNL A   1      49.799  26.783  26.597  1.00  0.00     0.131 A 
ATOM     94  C   UNL A   1      50.186  27.286  23.908  1.00  0.00     0.055 A 
ATOM     95  C   UNL A   1      51.046  26.533  26.020  1.00  0.00     0.041 A 
ATOM     96  F   UNL A   1      49.647  26.495  27.899  1.00  0.00    -0.206 F 
ATOM     97  C   UNL A   1      51.240  26.766  24.663  1.00  0.00     0.022 A 
BRANCH  94  98
ATOM     98  S   UNL A   1      50.350  27.446  22.109  1.00  0.00     0.124 S 
ATOM     99  O   UNL A   1      50.423  28.893  21.945  1.00  0.00    -0.237 OA
ATOM    100  O   UNL A   1      51.582  26.707  21.850  1.00  0.00    -0.237 OA
ATOM    101  O   UNL A   1      49.131  26.820  21.600  1.00  0.00    -0.744 OA
ENDBRANCH  94  98
ENDBRANCH  67  91
BRANCH  79 102
ATOM    102  C   UNL A   1      45.572  32.799  28.794  1.00  0.00     0.023 A 
ATOM    103  C   UNL A   1      45.357  33.871  27.911  1.00  0.00     0.031 A 
ATOM    104  C   UNL A   1      46.259  33.057  29.994  1.00  0.00     0.131 A 
ATOM    105  C   UNL A   1      45.877  35.138  28.213  1.00  0.00     0.055 A 
ATOM    106  C   UNL A   1      46.713  34.334  30.322  1.00  0.00     0.041 A 
ATOM    107  F   UNL A   1      46.494  32.069  30.873  1.00  0.00    -0.206 F 
ATOM    108  C   UNL A   1      46.536  35.381  29.422  1.00  0.00     0.022 A 
BRANCH 105 109
ATOM    109  S   UNL A   1      45.767  36.445  26.961  1.00  0.00     0.124 S 
ATOM    110  O   UNL A   1      44.327  36.653  26.864  1.00  0.00    -0.237 OA
ATOM    111  O   UNL A   1      46.528  37.530  27.575  1.00  0.00    -0.237 OA
ATOM    112  O   UNL A   1      46.389  35.844  25.783  1.00  0.00    -0.744 OA
ENDBRANCH 105 109
ENDBRANCH  79 102
ENDBRANCH  53  54
ENDBRANCH  45  48
ENDBRANCH  43  44
ENDBRANCH   1  43
TORSDOF 20
ENDMDL
MODEL 3
REMARK VINA RESULT:     -11.0      2.617      5.142
REMARK SMILES C[C@@]1(O)CC(NCCCNC(=O)c2ccc(-c3c4nc(c(-c5cc(S(=O)(=O)[O-])ccc5F)c5ccc([nH]5)c(-c5cc(S(=O)(=O)[O-])ccc5F)c5nc(c(-c6cc(S(=O)(=O)[O-])ccc6F)c6ccc3[nH]6)C=C5)C=C4)cc2)=C(C(=O)Nc2ccccc2)[C@H](c2ccccc2C(=O)[O-])[C@@H]1C(=O)Nc1ccccc1
REMARK SMILES IDX 8 1 7 2 6 3 5 5 1 6 2 7 4 8 96 9 86 10 76 11 3 12 97 14
REMARK SMILES IDX 98 15 99 16 100 18 101 19 105 20 102 21 104 22 103 23 87 24
REMARK SMILES IDX 88 25 92 26 89 27 91 28 90 29 93 30 94 31 95 32 77 33 78 34
REMARK SMILES IDX 79 35 80 37 81 38 85 39 82 40 84 41 83 42 9 43 10 44 11 45
REMARK SMILES IDX 12 47 13 48 14 49 75 50 15 51 74 52 16 53 17 54 18 55 68 56
REMARK SMILES IDX 19 57 73 58 67 59 69 60 20 61 72 62 66 63 65 64 21 66 53 67
REMARK SMILES IDX 33 68 52 69 34 70 37 71 51 72 70 73 35 74 36 75 50 77 71 78
REMARK SMILES IDX 38 79 22 80 23 81 31 82 24 83 30 84 32 85 29 86 25 87 26 88
REMARK SMILES IDX 27 89 28 90 54 91 55 92 63 93 56 94 62 95 64 96 61 97 57 98
REMARK SMILES IDX 58 99 59 100 60 101 39 102 40 103 48 104 41 105 47 106
REMARK SMILES IDX 49 107 46 108 42 109 43 110 44 111 45 112
REMARK H PARENT 6 4 3 13 99 17 79 36 10 46 69 65 37 76
REMARK Flexibility Score: inf
ROOT
ATOM      1  C   UNL A   1      35.626  23.682  26.772  1.00  0.00     0.042 C 
ENDROOT
BRANCH   1   2
ATOM      2  C   UNL A   1      34.178  23.990  26.456  1.00  0.00     0.114 C 
BRANCH   2   3
ATOM      3  N   UNL A   1      33.925  25.435  26.402  1.00  0.00    -0.388 N 
ATOM      4  H   UNL A   1      34.116  25.963  27.210  1.00  0.00     0.160 HD
BRANCH   3   5
ATOM      5  C   UNL A   1      33.431  26.116  25.283  1.00  0.00     0.023 C 
ATOM      6  C   UNL A   1      34.894  27.400  22.518  1.00  0.00     0.043 C 
ATOM      7  C   UNL A   1      33.837  26.309  22.734  1.00  0.00     0.080 C 
ATOM      8  C   UNL A   1      34.065  25.579  24.023  1.00  0.00     0.089 C 
ATOM      9  C   UNL A   1      32.379  26.820  22.647  1.00  0.00     0.123 C 
ATOM     10  C   UNL A   1      31.666  27.395  23.942  1.00  0.00     0.073 C 
ATOM     11  C   UNL A   1      32.434  27.064  25.278  1.00  0.00     0.045 C 
BRANCH   7  12
ATOM     12  O   UNL A   1      34.145  25.372  21.672  1.00  0.00    -0.389 OA
ATOM     13  H   UNL A   1      33.876  25.749  20.819  1.00  0.00     0.211 HD
ENDBRANCH   7  12
BRANCH   9  14
ATOM     14  C   UNL A   1      31.616  25.909  21.704  1.00  0.00     0.231 C 
ATOM     15  O   UNL A   1      31.320  26.370  20.585  1.00  0.00    -0.274 OA
ATOM     16  N   UNL A   1      31.337  24.596  21.854  1.00  0.00    -0.326 N 
ATOM     17  H   UNL A   1      30.888  24.242  21.052  1.00  0.00     0.169 HD
BRANCH  16  18
ATOM     18  C   UNL A   1      31.498  23.588  22.815  1.00  0.00     0.041 A 
ATOM     19  C   UNL A   1      32.309  22.514  22.449  1.00  0.00     0.026 A 
ATOM     20  C   UNL A   1      30.934  23.544  24.077  1.00  0.00     0.026 A 
ATOM     21  C   UNL A   1      32.587  21.478  23.347  1.00  0.00     0.002 A 
ATOM     22  C   UNL A   1      31.179  22.510  24.981  1.00  0.00     0.002 A 
ATOM     23  C   UNL A   1      32.027  21.479  24.621  1.00  0.00     0.000 A 
ENDBRANCH  16  18
ENDBRANCH   9  14
BRANCH  10  24
ATOM     24  C   UNL A   1      30.064  27.217  23.963  1.00  0.00    -0.030 A 
ATOM     25  C   UNL A   1      29.483  26.127  24.674  1.00  0.00     0.005 A 
ATOM     26  C   UNL A   1      29.101  28.115  23.406  1.00  0.00     0.001 A 
ATOM     27  C   UNL A   1      28.098  25.940  24.834  1.00  0.00     0.000 A 
ATOM     28  C   UNL A   1      27.705  27.886  23.535  1.00  0.00     0.010 A 
ATOM     29  C   UNL A   1      27.204  26.818  24.256  1.00  0.00     0.001 A 
BRANCH  26  30
ATOM     30  C   UNL A   1      29.337  29.343  22.622  1.00  0.00     0.072 C 
ATOM     31  O   UNL A   1      29.976  29.389  21.581  1.00  0.00    -0.545 OA
ATOM     32  O   UNL A   1      28.750  30.425  23.141  1.00  0.00    -0.545 OA
ENDBRANCH  26  30
ENDBRANCH  10  24
BRANCH  11  33
ATOM     33  C   UNL A   1      32.050  27.567  26.674  1.00  0.00     0.253 C 
ATOM     34  O   UNL A   1      31.007  27.113  27.189  1.00  0.00    -0.269 OA
ATOM     35  N   UNL A   1      32.687  28.421  27.520  1.00  0.00    -0.322 N 
ATOM     36  H   UNL A   1      32.435  28.209  28.448  1.00  0.00     0.170 HD
BRANCH  35  37
ATOM     37  C   UNL A   1      33.583  29.503  27.516  1.00  0.00     0.041 A 
ATOM     38  C   UNL A   1      34.952  29.218  27.639  1.00  0.00     0.026 A 
ATOM     39  C   UNL A   1      33.225  30.835  27.552  1.00  0.00     0.026 A 
ATOM     40  C   UNL A   1      35.899  30.248  27.778  1.00  0.00     0.002 A 
ATOM     41  C   UNL A   1      34.147  31.869  27.708  1.00  0.00     0.002 A 
ATOM     42  C   UNL A   1      35.493  31.578  27.816  1.00  0.00     0.000 A 
ENDBRANCH  35  37
ENDBRANCH  11  33
ENDBRANCH   3   5
ENDBRANCH   2   3
ENDBRANCH   1   2
BRANCH   1  43
ATOM     43  C   UNL A   1      36.379  23.263  25.527  1.00  0.00     0.118 C 
BRANCH  43  44
ATOM     44  N   UNL A   1      37.252  22.115  25.774  1.00  0.00    -0.352 N 
ATOM     45  C   UNL A   1      38.557  22.088  26.197  1.00  0.00     0.251 C 
ATOM     46  H   UNL A   1      36.845  21.234  25.613  1.00  0.00     0.163 HD
ATOM     47  O   UNL A   1      39.184  21.033  26.178  1.00  0.00    -0.269 OA
BRANCH  45  48
ATOM     48  C   UNL A   1      39.196  23.343  26.636  1.00  0.00     0.039 A 
ATOM     49  C   UNL A   1      40.040  23.326  27.746  1.00  0.00     0.014 A 
ATOM     50  C   UNL A   1      38.995  24.522  25.916  1.00  0.00     0.014 A 
ATOM     51  C   UNL A   1      40.740  24.483  28.089  1.00  0.00     0.010 A 
ATOM     52  C   UNL A   1      39.777  25.634  26.187  1.00  0.00     0.010 A 
ATOM     53  C   UNL A   1      40.646  25.632  27.286  1.00  0.00    -0.014 A 
BRANCH  53  54
ATOM     54  C   UNL A   1      41.426  26.856  27.587  1.00  0.00     0.031 A 
ATOM     55  C   UNL A   1      42.858  26.951  27.134  1.00  0.00     0.074 A 
ATOM     56  C   UNL A   1      40.869  27.836  28.326  1.00  0.00     0.049 A 
ATOM     57  N   UNL A   1      43.737  27.889  27.366  1.00  0.00    -0.248 NA
ATOM     58  C   UNL A   1      43.380  25.823  26.345  1.00  0.00     0.031 C 
ATOM     59  C   UNL A   1      39.503  27.825  28.858  1.00  0.00     0.029 A 
ATOM     60  N   UNL A   1      41.383  29.030  28.765  1.00  0.00    -0.354 N 
ATOM     61  C   UNL A   1      44.920  27.453  26.777  1.00  0.00     0.074 A 
ATOM     62  C   UNL A   1      44.661  26.140  26.231  1.00  0.00     0.031 C 
ATOM     63  C   UNL A   1      39.279  28.973  29.518  1.00  0.00     0.029 A 
ATOM     64  C   UNL A   1      40.497  29.776  29.508  1.00  0.00     0.049 A 
ATOM     65  H   UNL A   1      42.301  29.326  28.567  1.00  0.00     0.167 HD
ATOM     66  C   UNL A   1      46.104  28.102  26.682  1.00  0.00     0.034 A 
ATOM     67  C   UNL A   1      40.656  30.966  30.122  1.00  0.00     0.034 A 
ATOM     68  C   UNL A   1      46.329  29.424  27.207  1.00  0.00     0.049 A 
ATOM     69  C   UNL A   1      41.993  31.658  30.013  1.00  0.00     0.074 A 
ATOM     70  C   UNL A   1      47.461  30.212  27.096  1.00  0.00     0.029 A 
ATOM     71  N   UNL A   1      45.409  30.151  27.952  1.00  0.00    -0.354 N 
ATOM     72  N   UNL A   1      43.080  31.265  29.387  1.00  0.00    -0.248 NA
ATOM     73  C   UNL A   1      42.122  32.957  30.683  1.00  0.00     0.031 C 
ATOM     74  C   UNL A   1      47.256  31.377  27.842  1.00  0.00     0.029 A 
ATOM     75  C   UNL A   1      45.963  31.359  28.342  1.00  0.00     0.049 A 
ATOM     76  H   UNL A   1      44.496  29.852  28.170  1.00  0.00     0.167 HD
ATOM     77  C   UNL A   1      44.007  32.290  29.557  1.00  0.00     0.074 A 
ATOM     78  C   UNL A   1      43.345  33.322  30.328  1.00  0.00     0.031 C 
ATOM     79  C   UNL A   1      45.286  32.376  29.114  1.00  0.00     0.034 A 
BRANCH  66  80
ATOM     80  C   UNL A   1      47.250  27.381  26.013  1.00  0.00     0.023 A 
ATOM     81  C   UNL A   1      48.197  26.643  26.744  1.00  0.00     0.031 A 
ATOM     82  C   UNL A   1      47.398  27.439  24.615  1.00  0.00     0.131 A 
ATOM     83  C   UNL A   1      49.282  26.047  26.085  1.00  0.00     0.055 A 
ATOM     84  C   UNL A   1      48.435  26.775  23.956  1.00  0.00     0.041 A 
ATOM     85  F   UNL A   1      46.541  28.149  23.865  1.00  0.00    -0.206 F 
ATOM     86  C   UNL A   1      49.392  26.084  24.692  1.00  0.00     0.022 A 
BRANCH  83  87
ATOM     87  S   UNL A   1      50.620  25.335  27.081  1.00  0.00     0.124 S 
ATOM     88  O   UNL A   1      51.029  26.482  27.889  1.00  0.00    -0.237 OA
ATOM     89  O   UNL A   1      49.942  24.259  27.796  1.00  0.00    -0.237 OA
ATOM     90  O   UNL A   1      51.598  24.904  26.084  1.00  0.00    -0.744 OA
ENDBRANCH  83  87
ENDBRANCH  66  80
BRANCH  67  91
ATOM     91  C   UNL A   1      39.542  31.583  30.900  1.00  0.00     0.023 A 
ATOM     92  C   UNL A   1      39.505  31.491  32.301  1.00  0.00     0.031 A 
ATOM     93  C   UNL A   1      38.461  32.210  30.255  1.00  0.00     0.131 A 
ATOM     94  C   UNL A   1      38.384  31.956  33.005  1.00  0.00     0.055 A 
ATOM     95  C   UNL A   1      37.379  32.731  30.966  1.00  0.00     0.041 A 
ATOM     96  F   UNL A   1      38.442  32.329  28.918  1.00  0.00    -0.206 F 
ATOM     97  C   UNL A   1      37.326  32.588  32.349  1.00  0.00     0.022 A 
BRANCH  94  98
ATOM     98  S   UNL A   1      38.273  31.605  34.781  1.00  0.00     0.124 S 
ATOM     99  O   UNL A   1      39.518  32.180  35.276  1.00  0.00    -0.237 OA
ATOM    100  O   UNL A   1      37.048  32.308  35.152  1.00  0.00    -0.237 OA
ATOM    101  O   UNL A   1      38.193  30.147  34.834  1.00  0.00    -0.744 OA
ENDBRANCH  94  98
ENDBRANCH  67  91
BRANCH  79 102
ATOM    102  C   UNL A   1      46.031  33.656  29.405  1.00  0.00     0.023 A 
ATOM    103  C   UNL A   1      46.010  34.745  28.516  1.00  0.00     0.031 A 
ATOM    104  C   UNL A   1      46.775  33.784  30.592  1.00  0.00     0.131 A 
ATOM    105  C   UNL A   1      46.768  35.891  28.800  1.00  0.00     0.055 A 
ATOM    106  C   UNL A   1      47.471  34.951  30.901  1.00  0.00     0.041 A 
ATOM    107  F   UNL A   1      46.832  32.774  31.474  1.00  0.00    -0.206 F 
ATOM    108  C   UNL A   1      47.482  36.008  29.996  1.00  0.00     0.022 A 
BRANCH 105 109
ATOM    109  S   UNL A   1      46.889  37.188  27.539  1.00  0.00     0.124 S 
ATOM    110  O   UNL A   1      45.538  37.737  27.537  1.00  0.00    -0.237 OA
ATOM    111  O   UNL A   1      47.930  38.055  28.083  1.00  0.00    -0.237 OA
ATOM    112  O   UNL A   1      47.264  36.457  26.330  1.00  0.00    -0.744 OA
ENDBRANCH 105 109
ENDBRANCH  79 102
ENDBRANCH  53  54
ENDBRANCH  45  48
ENDBRANCH  43  44
ENDBRANCH   1  43
TORSDOF 20
ENDMDL
