MODEL 1
REMARK VINA RESULT:     -10.3      0.000      0.000
REMARK SMILES O=C(NCCCNC(=O)c1ccc(-c2c3nc(c(-c4cc(S(=O)(=O)[O-])ccc4F)c4ccc([nH]4)c(-c4cc(S(=O)(=O)[O-])ccc4F)c4nc(c(-c5cc(S(=O)(=O)[O-])ccc5F)c5ccc2[nH]5)C=C4)C=C3)cc1)c1ccc(-c2ccsc2)cc1
REMARK SMILES IDX 6 1 5 2 4 3 3 4 1 5 2 6 73 8 74 9 83 10 75 11 82 12 76 13
REMARK SMILES IDX 77 14 78 15 81 16 79 17 80 18 7 19 8 20 9 22 10 23 11 24
REMARK SMILES IDX 72 25 12 26 71 27 13 28 14 29 15 30 65 31 16 32 70 33 64 34
REMARK SMILES IDX 66 35 17 36 69 37 63 38 62 39 18 41 50 42 30 43 49 44 31 45
REMARK SMILES IDX 34 46 48 47 67 48 32 49 33 50 47 52 68 53 35 54 19 55 20 56
REMARK SMILES IDX 28 57 21 58 27 59 29 60 26 61 22 62 23 63 24 64 25 65 51 66
REMARK SMILES IDX 52 67 60 68 53 69 59 70 61 71 58 72 54 73 55 74 56 75 57 76
REMARK SMILES IDX 36 77 37 78 45 79 38 80 44 81 46 82 43 83 39 84 40 85 41 86
REMARK SMILES IDX 42 87
REMARK H PARENT 3 7 7 21 66 40 34 51
REMARK Flexibility Score: inf
ROOT
ATOM      1  C   UNL A   1      34.437  33.148  28.001  1.00  0.00     0.118 C 
ENDROOT
BRANCH   1   2
ATOM      2  C   UNL A   1      33.534  34.119  28.750  1.00  0.00     0.042 C 
BRANCH   2   3
ATOM      3  C   UNL A   1      34.103  34.623  30.070  1.00  0.00     0.118 C 
BRANCH   3   4
ATOM      4  N   UNL A   1      34.284  33.562  31.051  1.00  0.00    -0.352 N 
ATOM      5  O   UNL A   1      35.373  31.947  32.195  1.00  0.00    -0.269 OA
ATOM      6  C   UNL A   1      35.432  32.932  31.462  1.00  0.00     0.251 C 
ATOM      7  H   UNL A   1      33.458  33.248  31.484  1.00  0.00     0.163 HD
BRANCH   6   8
ATOM      8  C   UNL A   1      36.749  33.423  31.009  1.00  0.00     0.039 A 
ATOM      9  C   UNL A   1      37.206  33.163  29.714  1.00  0.00     0.014 A 
ATOM     10  C   UNL A   1      37.532  34.168  31.894  1.00  0.00     0.014 A 
ATOM     11  C   UNL A   1      38.494  33.551  29.342  1.00  0.00     0.009 A 
ATOM     12  C   UNL A   1      38.813  34.573  31.512  1.00  0.00     0.009 A 
ATOM     13  C   UNL A   1      39.314  34.244  30.243  1.00  0.00    -0.018 A 
BRANCH  13  14
ATOM     14  C   UNL A   1      40.689  34.577  29.888  1.00  0.00    -0.008 A 
ATOM     15  C   UNL A   1      41.123  35.329  28.749  1.00  0.00     0.020 A 
ATOM     16  C   UNL A   1      41.764  34.201  30.671  1.00  0.00     0.073 A 
ATOM     17  C   UNL A   1      42.489  35.504  28.719  1.00  0.00     0.065 A 
ATOM     18  S   UNL A   1      43.259  34.753  30.047  1.00  0.00    -0.152 S 
ENDBRANCH  13  14
ENDBRANCH   6   8
ENDBRANCH   3   4
ENDBRANCH   2   3
ENDBRANCH   1   2
BRANCH   1  19
ATOM     19  N   UNL A   1      33.756  31.916  27.622  1.00  0.00    -0.352 N 
ATOM     20  C   UNL A   1      34.201  30.617  27.581  1.00  0.00     0.251 C 
ATOM     21  H   UNL A   1      32.818  32.036  27.348  1.00  0.00     0.163 HD
ATOM     22  O   UNL A   1      33.492  29.767  27.048  1.00  0.00    -0.269 OA
BRANCH  20  23
ATOM     23  C   UNL A   1      35.520  30.238  28.141  1.00  0.00     0.039 A 
ATOM     24  C   UNL A   1      35.578  29.743  29.447  1.00  0.00     0.014 A 
ATOM     25  C   UNL A   1      36.698  30.392  27.407  1.00  0.00     0.014 A 
ATOM     26  C   UNL A   1      36.802  29.329  29.983  1.00  0.00     0.010 A 
ATOM     27  C   UNL A   1      37.902  29.899  27.909  1.00  0.00     0.010 A 
ATOM     28  C   UNL A   1      37.968  29.359  29.202  1.00  0.00    -0.014 A 
BRANCH  28  29
ATOM     29  C   UNL A   1      39.258  28.825  29.715  1.00  0.00     0.031 A 
ATOM     30  C   UNL A   1      39.969  29.514  30.850  1.00  0.00     0.074 A 
ATOM     31  C   UNL A   1      39.825  27.761  29.111  1.00  0.00     0.049 A 
ATOM     32  N   UNL A   1      41.140  29.254  31.374  1.00  0.00    -0.248 NA
ATOM     33  C   UNL A   1      39.286  30.667  31.455  1.00  0.00     0.031 C 
ATOM     34  C   UNL A   1      39.258  27.035  27.970  1.00  0.00     0.029 A 
ATOM     35  N   UNL A   1      41.009  27.111  29.358  1.00  0.00    -0.354 N 
ATOM     36  C   UNL A   1      41.343  30.220  32.354  1.00  0.00     0.074 A 
ATOM     37  C   UNL A   1      40.196  31.104  32.312  1.00  0.00     0.031 C 
ATOM     38  C   UNL A   1      40.082  26.031  27.634  1.00  0.00     0.029 A 
ATOM     39  C   UNL A   1      41.257  26.066  28.497  1.00  0.00     0.049 A 
ATOM     40  H   UNL A   1      41.623  27.368  30.083  1.00  0.00     0.167 HD
ATOM     41  C   UNL A   1      42.377  30.346  33.222  1.00  0.00     0.034 A 
ATOM     42  C   UNL A   1      42.317  25.238  28.403  1.00  0.00     0.034 A 
ATOM     43  C   UNL A   1      43.503  29.444  33.266  1.00  0.00     0.049 A 
ATOM     44  C   UNL A   1      43.458  25.401  29.375  1.00  0.00     0.074 A 
ATOM     45  C   UNL A   1      44.571  29.441  34.147  1.00  0.00     0.029 A 
ATOM     46  N   UNL A   1      43.713  28.387  32.388  1.00  0.00    -0.354 N 
ATOM     47  N   UNL A   1      43.605  26.287  30.333  1.00  0.00    -0.248 NA
ATOM     48  C   UNL A   1      44.567  24.447  29.262  1.00  0.00     0.031 C 
ATOM     49  C   UNL A   1      45.455  28.427  33.763  1.00  0.00     0.029 A 
ATOM     50  C   UNL A   1      44.905  27.747  32.689  1.00  0.00     0.049 A 
ATOM     51  H   UNL A   1      43.103  28.131  31.659  1.00  0.00     0.167 HD
ATOM     52  C   UNL A   1      44.811  25.976  30.955  1.00  0.00     0.074 A 
ATOM     53  C   UNL A   1      45.339  24.811  30.275  1.00  0.00     0.031 C 
ATOM     54  C   UNL A   1      45.425  26.592  31.996  1.00  0.00     0.034 A 
BRANCH  41  55
ATOM     55  C   UNL A   1      42.349  31.516  34.178  1.00  0.00     0.023 A 
ATOM     56  C   UNL A   1      41.542  31.510  35.329  1.00  0.00     0.031 A 
ATOM     57  C   UNL A   1      43.131  32.657  33.929  1.00  0.00     0.131 A 
ATOM     58  C   UNL A   1      41.481  32.647  36.148  1.00  0.00     0.055 A 
ATOM     59  C   UNL A   1      43.127  33.756  34.792  1.00  0.00     0.041 A 
ATOM     60  F   UNL A   1      43.907  32.730  32.837  1.00  0.00    -0.206 F 
ATOM     61  C   UNL A   1      42.287  33.761  35.902  1.00  0.00     0.022 A 
BRANCH  58  62
ATOM     62  S   UNL A   1      40.237  32.701  37.466  1.00  0.00     0.124 S 
ATOM     63  O   UNL A   1      39.283  31.691  37.011  1.00  0.00    -0.237 OA
ATOM     64  O   UNL A   1      41.016  32.355  38.650  1.00  0.00    -0.237 OA
ATOM     65  O   UNL A   1      39.747  34.076  37.421  1.00  0.00    -0.744 OA
ENDBRANCH  58  62
ENDBRANCH  41  55
BRANCH  42  66
ATOM     66  C   UNL A   1      42.366  24.188  27.345  1.00  0.00     0.023 A 
ATOM     67  C   UNL A   1      41.733  22.947  27.527  1.00  0.00     0.031 A 
ATOM     68  C   UNL A   1      43.087  24.390  26.155  1.00  0.00     0.131 A 
ATOM     69  C   UNL A   1      41.877  21.939  26.561  1.00  0.00     0.055 A 
ATOM     70  C   UNL A   1      43.181  23.404  25.172  1.00  0.00     0.041 A 
ATOM     71  F   UNL A   1      43.706  25.560  25.927  1.00  0.00    -0.206 F 
ATOM     72  C   UNL A   1      42.586  22.164  25.379  1.00  0.00     0.022 A 
BRANCH  69  73
ATOM     73  S   UNL A   1      41.199  20.295  26.915  1.00  0.00     0.124 S 
ATOM     74  O   UNL A   1      40.116  20.205  25.943  1.00  0.00    -0.237 OA
ATOM     75  O   UNL A   1      42.352  19.435  26.674  1.00  0.00    -0.237 OA
ATOM     76  O   UNL A   1      40.778  20.395  28.311  1.00  0.00    -0.744 OA
ENDBRANCH  69  73
ENDBRANCH  42  66
BRANCH  54  77
ATOM     77  C   UNL A   1      46.716  25.985  32.487  1.00  0.00     0.023 A 
ATOM     78  C   UNL A   1      46.736  24.989  33.479  1.00  0.00     0.031 A 
ATOM     79  C   UNL A   1      47.946  26.423  31.964  1.00  0.00     0.131 A 
ATOM     80  C   UNL A   1      47.963  24.504  33.957  1.00  0.00     0.055 A 
ATOM     81  C   UNL A   1      49.160  25.894  32.401  1.00  0.00     0.041 A 
ATOM     82  F   UNL A   1      47.985  27.373  31.016  1.00  0.00    -0.206 F 
ATOM     83  C   UNL A   1      49.175  24.938  33.413  1.00  0.00     0.022 A 
BRANCH  80  84
ATOM     84  S   UNL A   1      47.958  23.363  35.367  1.00  0.00     0.124 S 
ATOM     85  O   UNL A   1      46.632  23.583  35.932  1.00  0.00    -0.237 OA
ATOM     86  O   UNL A   1      48.172  22.071  34.724  1.00  0.00    -0.237 OA
ATOM     87  O   UNL A   1      49.069  23.835  36.193  1.00  0.00    -0.744 OA
ENDBRANCH  80  84
ENDBRANCH  54  77
ENDBRANCH  28  29
ENDBRANCH  20  23
ENDBRANCH   1  19
TORSDOF 14
ENDMDL
MODEL 2
REMARK VINA RESULT:     -10.2      4.296     11.023
REMARK SMILES O=C(NCCCNC(=O)c1ccc(-c2c3nc(c(-c4cc(S(=O)(=O)[O-])ccc4F)c4ccc([nH]4)c(-c4cc(S(=O)(=O)[O-])ccc4F)c4nc(c(-c5cc(S(=O)(=O)[O-])ccc5F)c5ccc2[nH]5)C=C4)C=C3)cc1)c1ccc(-c2ccsc2)cc1
REMARK SMILES IDX 6 1 5 2 4 3 3 4 1 5 2 6 73 8 74 9 83 10 75 11 82 12 76 13
REMARK SMILES IDX 77 14 78 15 81 16 79 17 80 18 7 19 8 20 9 22 10 23 11 24
REMARK SMILES IDX 72 25 12 26 71 27 13 28 14 29 15 30 65 31 16 32 70 33 64 34
REMARK SMILES IDX 66 35 17 36 69 37 63 38 62 39 18 41 50 42 30 43 49 44 31 45
REMARK SMILES IDX 34 46 48 47 67 48 32 49 33 50 47 52 68 53 35 54 19 55 20 56
REMARK SMILES IDX 28 57 21 58 27 59 29 60 26 61 22 62 23 63 24 64 25 65 51 66
REMARK SMILES IDX 52 67 60 68 53 69 59 70 61 71 58 72 54 73 55 74 56 75 57 76
REMARK SMILES IDX 36 77 37 78 45 79 38 80 44 81 46 82 43 83 39 84 40 85 41 86
REMARK SMILES IDX 42 87
REMARK H PARENT 3 7 7 21 66 40 34 51
REMARK Flexibility Score: inf
ROOT
ATOM      1  C   UNL A   1      40.469  21.148  26.975  1.00  0.00     0.118 C 
ENDROOT
BRANCH   1   2
ATOM      2  C   UNL A   1      41.340  20.150  26.222  1.00  0.00     0.042 C 
BRANCH   2   3
ATOM      3  C   UNL A   1      42.800  20.562  26.083  1.00  0.00     0.118 C 
BRANCH   3   4
ATOM      4  N   UNL A   1      42.976  21.760  25.273  1.00  0.00    -0.352 N 
ATOM      5  O   UNL A   1      43.233  23.962  24.840  1.00  0.00    -0.269 OA
ATOM      6  C   UNL A   1      43.274  23.044  25.656  1.00  0.00     0.251 C 
ATOM      7  H   UNL A   1      42.864  21.630  24.304  1.00  0.00     0.163 HD
BRANCH   6   8
ATOM      8  C   UNL A   1      43.626  23.335  27.061  1.00  0.00     0.039 A 
ATOM      9  C   UNL A   1      42.641  23.397  28.050  1.00  0.00     0.014 A 
ATOM     10  C   UNL A   1      44.968  23.534  27.391  1.00  0.00     0.014 A 
ATOM     11  C   UNL A   1      42.986  23.772  29.349  1.00  0.00     0.009 A 
ATOM     12  C   UNL A   1      45.314  23.890  28.697  1.00  0.00     0.009 A 
ATOM     13  C   UNL A   1      44.322  24.037  29.680  1.00  0.00    -0.018 A 
BRANCH  13  14
ATOM     14  C   UNL A   1      44.676  24.510  31.014  1.00  0.00    -0.008 A 
ATOM     15  C   UNL A   1      45.289  25.761  31.346  1.00  0.00     0.020 A 
ATOM     16  C   UNL A   1      44.417  23.769  32.150  1.00  0.00     0.073 A 
ATOM     17  C   UNL A   1      45.458  25.925  32.703  1.00  0.00     0.065 A 
ATOM     18  S   UNL A   1      44.896  24.572  33.584  1.00  0.00    -0.152 S 
ENDBRANCH  13  14
ENDBRANCH   6   8
ENDBRANCH   3   4
ENDBRANCH   2   3
ENDBRANCH   1   2
BRANCH   1  19
ATOM     19  N   UNL A   1      39.272  21.527  26.235  1.00  0.00    -0.352 N 
ATOM     20  C   UNL A   1      38.620  22.732  26.133  1.00  0.00     0.251 C 
ATOM     21  H   UNL A   1      38.860  20.795  25.722  1.00  0.00     0.163 HD
ATOM     22  O   UNL A   1      37.516  22.763  25.594  1.00  0.00    -0.269 OA
BRANCH  20  23
ATOM     23  C   UNL A   1      39.211  23.975  26.683  1.00  0.00     0.039 A 
ATOM     24  C   UNL A   1      39.934  24.811  25.827  1.00  0.00     0.014 A 
ATOM     25  C   UNL A   1      39.087  24.310  28.033  1.00  0.00     0.014 A 
ATOM     26  C   UNL A   1      40.460  26.016  26.306  1.00  0.00     0.010 A 
ATOM     27  C   UNL A   1      39.535  25.549  28.490  1.00  0.00     0.010 A 
ATOM     28  C   UNL A   1      40.224  26.418  27.631  1.00  0.00    -0.014 A 
BRANCH  28  29
ATOM     29  C   UNL A   1      40.682  27.743  28.131  1.00  0.00     0.031 A 
ATOM     30  C   UNL A   1      42.152  28.038  28.265  1.00  0.00     0.074 A 
ATOM     31  C   UNL A   1      39.771  28.653  28.532  1.00  0.00     0.049 A 
ATOM     32  N   UNL A   1      42.743  29.094  28.764  1.00  0.00    -0.248 NA
ATOM     33  C   UNL A   1      43.081  26.993  27.807  1.00  0.00     0.031 C 
ATOM     34  C   UNL A   1      38.318  28.467  28.497  1.00  0.00     0.029 A 
ATOM     35  N   UNL A   1      39.929  29.910  29.062  1.00  0.00    -0.354 N 
ATOM     36  C   UNL A   1      44.108  28.835  28.698  1.00  0.00     0.074 A 
ATOM     37  C   UNL A   1      44.254  27.497  28.161  1.00  0.00     0.031 C 
ATOM     38  C   UNL A   1      37.721  29.575  28.961  1.00  0.00     0.029 A 
ATOM     39  C   UNL A   1      38.741  30.532  29.373  1.00  0.00     0.049 A 
ATOM     40  H   UNL A   1      40.809  30.327  29.205  1.00  0.00     0.167 HD
ATOM     41  C   UNL A   1      45.144  29.644  29.033  1.00  0.00     0.034 A 
ATOM     42  C   UNL A   1      38.500  31.731  29.940  1.00  0.00     0.034 A 
ATOM     43  C   UNL A   1      44.983  30.983  29.546  1.00  0.00     0.049 A 
ATOM     44  C   UNL A   1      39.668  32.610  30.309  1.00  0.00     0.074 A 
ATOM     45  C   UNL A   1      45.964  31.911  29.854  1.00  0.00     0.029 A 
ATOM     46  N   UNL A   1      43.765  31.586  29.834  1.00  0.00    -0.354 N 
ATOM     47  N   UNL A   1      40.953  32.370  30.186  1.00  0.00    -0.248 NA
ATOM     48  C   UNL A   1      39.353  33.926  30.881  1.00  0.00     0.031 C 
ATOM     49  C   UNL A   1      45.343  33.046  30.388  1.00  0.00     0.029 A 
ATOM     50  C   UNL A   1      43.971  32.859  30.343  1.00  0.00     0.049 A 
ATOM     51  H   UNL A   1      42.884  31.169  29.696  1.00  0.00     0.167 HD
ATOM     52  C   UNL A   1      41.598  33.518  30.638  1.00  0.00     0.074 A 
ATOM     53  C   UNL A   1      40.560  34.454  31.018  1.00  0.00     0.031 C 
ATOM     54  C   UNL A   1      42.927  33.778  30.727  1.00  0.00     0.034 A 
BRANCH  41  55
ATOM     55  C   UNL A   1      46.541  29.091  28.876  1.00  0.00     0.023 A 
ATOM     56  C   UNL A   1      47.157  28.985  27.616  1.00  0.00     0.031 A 
ATOM     57  C   UNL A   1      47.264  28.655  30.000  1.00  0.00     0.131 A 
ATOM     58  C   UNL A   1      48.423  28.392  27.503  1.00  0.00     0.055 A 
ATOM     59  C   UNL A   1      48.557  28.138  29.889  1.00  0.00     0.041 A 
ATOM     60  F   UNL A   1      46.723  28.713  31.226  1.00  0.00    -0.206 F 
ATOM     61  C   UNL A   1      49.139  27.990  28.633  1.00  0.00     0.022 A 
BRANCH  58  62
ATOM     62  S   UNL A   1      49.066  28.032  25.846  1.00  0.00     0.124 S 
ATOM     63  O   UNL A   1      49.441  26.625  25.975  1.00  0.00    -0.237 OA
ATOM     64  O   UNL A   1      47.917  28.311  24.993  1.00  0.00    -0.237 OA
ATOM     65  O   UNL A   1      50.188  28.957  25.704  1.00  0.00    -0.744 OA
ENDBRANCH  58  62
ENDBRANCH  41  55
BRANCH  42  66
ATOM     66  C   UNL A   1      37.102  32.174  30.210  1.00  0.00     0.023 A 
ATOM     67  C   UNL A   1      36.354  32.846  29.230  1.00  0.00     0.031 A 
ATOM     68  C   UNL A   1      36.509  31.974  31.470  1.00  0.00     0.131 A 
ATOM     69  C   UNL A   1      35.077  33.341  29.541  1.00  0.00     0.055 A 
ATOM     70  C   UNL A   1      35.218  32.419  31.756  1.00  0.00     0.041 A 
ATOM     71  F   UNL A   1      37.178  31.331  32.441  1.00  0.00    -0.206 F 
ATOM     72  C   UNL A   1      34.499  33.120  30.794  1.00  0.00     0.022 A 
BRANCH  69  73
ATOM     73  S   UNL A   1      34.218  34.359  28.311  1.00  0.00     0.124 S 
ATOM     74  O   UNL A   1      34.007  35.599  29.047  1.00  0.00    -0.237 OA
ATOM     75  O   UNL A   1      35.194  34.412  27.228  1.00  0.00    -0.237 OA
ATOM     76  O   UNL A   1      33.009  33.591  28.020  1.00  0.00    -0.744 OA
ENDBRANCH  69  73
ENDBRANCH  42  66
BRANCH  54  77
ATOM     77  C   UNL A   1      43.325  35.150  31.216  1.00  0.00     0.023 A 
ATOM     78  C   UNL A   1      43.521  36.223  30.330  1.00  0.00     0.031 A 
ATOM     79  C   UNL A   1      43.528  35.378  32.589  1.00  0.00     0.131 A 
ATOM     80  C   UNL A   1      43.961  37.463  30.820  1.00  0.00     0.055 A 
ATOM     81  C   UNL A   1      43.907  36.629  33.077  1.00  0.00     0.041 A 
ATOM     82  F   UNL A   1      43.357  34.388  33.479  1.00  0.00    -0.206 F 
ATOM     83  C   UNL A   1      44.140  37.676  32.190  1.00  0.00     0.022 A 
BRANCH  80  84
ATOM     84  S   UNL A   1      44.386  38.767  29.634  1.00  0.00     0.124 S 
ATOM     85  O   UNL A   1      44.428  38.031  28.375  1.00  0.00    -0.237 OA
ATOM     86  O   UNL A   1      43.279  39.704  29.789  1.00  0.00    -0.237 OA
ATOM     87  O   UNL A   1      45.680  39.254  30.111  1.00  0.00    -0.744 OA
ENDBRANCH  80  84
ENDBRANCH  54  77
ENDBRANCH  28  29
ENDBRANCH  20  23
ENDBRANCH   1  19
TORSDOF 14
ENDMDL
MODEL 3
REMARK VINA RESULT:     -10.2      1.413      1.698
REMARK SMILES O=C(NCCCNC(=O)c1ccc(-c2c3nc(c(-c4cc(S(=O)(=O)[O-])ccc4F)c4ccc([nH]4)c(-c4cc(S(=O)(=O)[O-])ccc4F)c4nc(c(-c5cc(S(=O)(=O)[O-])ccc5F)c5ccc2[nH]5)C=C4)C=C3)cc1)c1ccc(-c2ccsc2)cc1
REMARK SMILES IDX 6 1 5 2 4 3 3 4 1 5 2 6 73 8 74 9 83 10 75 11 82 12 76 13
REMARK SMILES IDX 77 14 78 15 81 16 79 17 80 18 7 19 8 20 9 22 10 23 11 24
REMARK SMILES IDX 72 25 12 26 71 27 13 28 14 29 15 30 65 31 16 32 70 33 64 34
REMARK SMILES IDX 66 35 17 36 69 37 63 38 62 39 18 41 50 42 30 43 49 44 31 45
REMARK SMILES IDX 34 46 48 47 67 48 32 49 33 50 47 52 68 53 35 54 19 55 20 56
REMARK SMILES IDX 28 57 21 58 27 59 29 60 26 61 22 62 23 63 24 64 25 65 51 66
REMARK SMILES IDX 52 67 60 68 53 69 59 70 61 71 58 72 54 73 55 74 56 75 57 76
REMARK SMILES IDX 36 77 37 78 45 79 38 80 44 81 46 82 43 83 39 84 40 85 41 86
REMARK SMILES IDX 42 87
REMARK H PARENT 3 7 7 21 66 40 34 51
REMARK Flexibility Score: inf
ROOT
ATOM      1  C   UNL A   1      34.431  33.178  28.073  1.00  0.00     0.118 C 
ENDROOT
BRANCH   1   2
ATOM      2  C   UNL A   1      33.535  34.088  28.903  1.00  0.00     0.042 C 
BRANCH   2   3
ATOM      3  C   UNL A   1      34.161  34.580  30.202  1.00  0.00     0.118 C 
BRANCH   3   4
ATOM      4  N   UNL A   1      34.358  33.514  31.175  1.00  0.00    -0.352 N 
ATOM      5  O   UNL A   1      35.469  31.902  32.301  1.00  0.00    -0.269 OA
ATOM      6  C   UNL A   1      35.514  32.892  31.575  1.00  0.00     0.251 C 
ATOM      7  H   UNL A   1      33.538  33.190  31.612  1.00  0.00     0.163 HD
BRANCH   6   8
ATOM      8  C   UNL A   1      36.824  33.398  31.116  1.00  0.00     0.039 A 
ATOM      9  C   UNL A   1      37.267  33.165  29.812  1.00  0.00     0.014 A 
ATOM     10  C   UNL A   1      37.612  34.131  32.006  1.00  0.00     0.014 A 
ATOM     11  C   UNL A   1      38.549  33.566  29.433  1.00  0.00     0.009 A 
ATOM     12  C   UNL A   1      38.888  34.549  31.618  1.00  0.00     0.009 A 
ATOM     13  C   UNL A   1      39.376  34.246  30.338  1.00  0.00    -0.018 A 
BRANCH  13  14
ATOM     14  C   UNL A   1      40.745  34.592  29.974  1.00  0.00    -0.008 A 
ATOM     15  C   UNL A   1      41.940  34.201  30.660  1.00  0.00     0.020 A 
ATOM     16  C   UNL A   1      41.042  35.351  28.858  1.00  0.00     0.073 A 
ATOM     17  C   UNL A   1      43.081  34.660  30.040  1.00  0.00     0.065 A 
ATOM     18  S   UNL A   1      42.725  35.576  28.642  1.00  0.00    -0.152 S 
ENDBRANCH  13  14
ENDBRANCH   6   8
ENDBRANCH   3   4
ENDBRANCH   2   3
ENDBRANCH   1   2
BRANCH   1  19
ATOM     19  N   UNL A   1      33.763  31.953  27.654  1.00  0.00    -0.352 N 
ATOM     20  C   UNL A   1      34.220  30.660  27.571  1.00  0.00     0.251 C 
ATOM     21  H   UNL A   1      32.824  32.072  27.383  1.00  0.00     0.163 HD
ATOM     22  O   UNL A   1      33.521  29.820  27.009  1.00  0.00    -0.269 OA
BRANCH  20  23
ATOM     23  C   UNL A   1      35.542  30.276  28.120  1.00  0.00     0.039 A 
ATOM     24  C   UNL A   1      35.607  29.761  29.418  1.00  0.00     0.014 A 
ATOM     25  C   UNL A   1      36.717  30.445  27.385  1.00  0.00     0.014 A 
ATOM     26  C   UNL A   1      36.833  29.342  29.944  1.00  0.00     0.010 A 
ATOM     27  C   UNL A   1      37.925  29.948  27.875  1.00  0.00     0.010 A 
ATOM     28  C   UNL A   1      37.996  29.388  29.159  1.00  0.00    -0.014 A 
BRANCH  28  29
ATOM     29  C   UNL A   1      39.290  28.849  29.659  1.00  0.00     0.031 A 
ATOM     30  C   UNL A   1      40.008  29.528  30.796  1.00  0.00     0.074 A 
ATOM     31  C   UNL A   1      39.854  27.791  29.041  1.00  0.00     0.049 A 
ATOM     32  N   UNL A   1      41.182  29.264  31.310  1.00  0.00    -0.248 NA
ATOM     33  C   UNL A   1      39.328  30.676  31.416  1.00  0.00     0.031 C 
ATOM     34  C   UNL A   1      39.280  27.076  27.898  1.00  0.00     0.029 A 
ATOM     35  N   UNL A   1      41.039  27.139  29.275  1.00  0.00    -0.354 N 
ATOM     36  C   UNL A   1      41.391  30.221  32.297  1.00  0.00     0.074 A 
ATOM     37  C   UNL A   1      40.243  31.105  32.271  1.00  0.00     0.031 C 
ATOM     38  C   UNL A   1      40.102  26.075  27.547  1.00  0.00     0.029 A 
ATOM     39  C   UNL A   1      41.283  26.102  28.403  1.00  0.00     0.049 A 
ATOM     40  H   UNL A   1      41.658  27.390  29.999  1.00  0.00     0.167 HD
ATOM     41  C   UNL A   1      42.431  30.340  33.160  1.00  0.00     0.034 A 
ATOM     42  C   UNL A   1      42.342  25.276  28.295  1.00  0.00     0.034 A 
ATOM     43  C   UNL A   1      43.557  29.438  33.188  1.00  0.00     0.049 A 
ATOM     44  C   UNL A   1      43.489  25.431  29.261  1.00  0.00     0.074 A 
ATOM     45  C   UNL A   1      44.630  29.427  34.064  1.00  0.00     0.029 A 
ATOM     46  N   UNL A   1      43.762  28.389  32.300  1.00  0.00    -0.354 N 
ATOM     47  N   UNL A   1      43.642  26.308  30.226  1.00  0.00    -0.248 NA
ATOM     48  C   UNL A   1      44.598  24.478  29.133  1.00  0.00     0.031 C 
ATOM     49  C   UNL A   1      45.513  28.416  33.665  1.00  0.00     0.029 A 
ATOM     50  C   UNL A   1      44.956  27.746  32.588  1.00  0.00     0.049 A 
ATOM     51  H   UNL A   1      43.147  28.139  31.573  1.00  0.00     0.167 HD
ATOM     52  C   UNL A   1      44.851  25.991  30.838  1.00  0.00     0.074 A 
ATOM     53  C   UNL A   1      45.376  24.833  30.143  1.00  0.00     0.031 C 
ATOM     54  C   UNL A   1      45.472  26.598  31.881  1.00  0.00     0.034 A 
BRANCH  41  55
ATOM     55  C   UNL A   1      42.408  31.500  34.127  1.00  0.00     0.023 A 
ATOM     56  C   UNL A   1      41.610  31.483  35.284  1.00  0.00     0.031 A 
ATOM     57  C   UNL A   1      43.186  32.645  33.883  1.00  0.00     0.131 A 
ATOM     58  C   UNL A   1      41.554  32.612  36.114  1.00  0.00     0.055 A 
ATOM     59  C   UNL A   1      43.187  33.736  34.756  1.00  0.00     0.041 A 
ATOM     60  F   UNL A   1      43.953  32.730  32.785  1.00  0.00    -0.206 F 
ATOM     61  C   UNL A   1      42.356  33.729  35.872  1.00  0.00     0.022 A 
BRANCH  58  62
ATOM     62  S   UNL A   1      40.320  32.651  37.442  1.00  0.00     0.124 S 
ATOM     63  O   UNL A   1      41.127  32.288  38.605  1.00  0.00    -0.237 OA
ATOM     64  O   UNL A   1      39.850  34.032  37.396  1.00  0.00    -0.237 OA
ATOM     65  O   UNL A   1      39.342  31.646  37.034  1.00  0.00    -0.744 OA
ENDBRANCH  58  62
ENDBRANCH  41  55
BRANCH  42  66
ATOM     66  C   UNL A   1      42.384  24.235  27.227  1.00  0.00     0.023 A 
ATOM     67  C   UNL A   1      41.593  23.079  27.312  1.00  0.00     0.031 A 
ATOM     68  C   UNL A   1      43.254  24.359  26.129  1.00  0.00     0.131 A 
ATOM     69  C   UNL A   1      41.724  22.068  26.347  1.00  0.00     0.055 A 
ATOM     70  C   UNL A   1      43.340  23.376  25.141  1.00  0.00     0.041 A 
ATOM     71  F   UNL A   1      44.029  25.448  25.995  1.00  0.00    -0.206 F 
ATOM     72  C   UNL A   1      42.583  22.215  25.255  1.00  0.00     0.022 A 
BRANCH  69  73
ATOM     73  S   UNL A   1      40.821  20.514  26.589  1.00  0.00     0.124 S 
ATOM     74  O   UNL A   1      39.493  20.863  26.098  1.00  0.00    -0.237 OA
ATOM     75  O   UNL A   1      41.588  19.587  25.764  1.00  0.00    -0.237 OA
ATOM     76  O   UNL A   1      40.915  20.288  28.030  1.00  0.00    -0.744 OA
ENDBRANCH  69  73
ENDBRANCH  42  66
BRANCH  54  77
ATOM     77  C   UNL A   1      46.766  25.987  32.358  1.00  0.00     0.023 A 
ATOM     78  C   UNL A   1      47.989  26.242  31.713  1.00  0.00     0.031 A 
ATOM     79  C   UNL A   1      46.771  25.120  33.466  1.00  0.00     0.131 A 
ATOM     80  C   UNL A   1      49.156  25.596  32.146  1.00  0.00     0.055 A 
ATOM     81  C   UNL A   1      47.945  24.526  33.929  1.00  0.00     0.041 A 
ATOM     82  F   UNL A   1      45.631  24.838  34.118  1.00  0.00    -0.206 F 
ATOM     83  C   UNL A   1      49.145  24.752  33.260  1.00  0.00     0.022 A 
BRANCH  80  84
ATOM     84  S   UNL A   1      50.675  25.799  31.176  1.00  0.00     0.124 S 
ATOM     85  O   UNL A   1      50.315  25.169  29.911  1.00  0.00    -0.237 OA
ATOM     86  O   UNL A   1      50.834  27.249  31.145  1.00  0.00    -0.237 OA
ATOM     87  O   UNL A   1      51.680  25.084  31.961  1.00  0.00    -0.744 OA
ENDBRANCH  80  84
ENDBRANCH  54  77
ENDBRANCH  28  29
ENDBRANCH  20  23
ENDBRANCH   1  19
TORSDOF 14
ENDMDL
