MODEL 1
REMARK VINA RESULT:     -11.7      0.000      0.000
REMARK SMILES C[C@@](NC(=O)NCC(N)=O)(C(=O)NCCCNC(=O)c1ccc(-c2c3nc(c(-c4cc(S(=O)(=O)[O-])ccc4F)c4ccc([nH]4)c(-c4cc(S(=O)(=O)[O-])ccc4F)c4nc(c(-c5cc(S(=O)(=O)[O-])ccc5F)c5ccc2[nH]5)C=C4)C=C3)cc1)C(F)(F)F
REMARK SMILES IDX 15 1 14 2 13 3 11 4 12 5 2 7 1 8 3 9 4 10 5 12 6 13 7 15
REMARK SMILES IDX 8 16 9 17 10 18 83 21 84 22 85 23 86 24 16 25 17 26 18 27
REMARK SMILES IDX 19 29 20 30 21 31 82 32 22 33 81 34 23 35 24 36 25 37 75 38
REMARK SMILES IDX 26 39 80 40 74 41 76 42 27 43 79 44 73 45 72 46 28 48 60 49
REMARK SMILES IDX 40 50 59 51 41 52 44 53 58 54 77 55 42 56 43 57 57 59 78 60
REMARK SMILES IDX 45 61 29 62 30 63 38 64 31 65 37 66 39 67 36 68 32 69 33 70
REMARK SMILES IDX 34 71 35 72 61 73 62 74 70 75 63 76 69 77 71 78 68 79 64 80
REMARK SMILES IDX 65 81 66 82 67 83 46 84 47 85 55 86 48 87 54 88 56 89 53 90
REMARK SMILES IDX 49 91 50 92 51 93 52 94
REMARK H PARENT 13 6 3 11 6 14 9 19 9 20 17 28 76 47 44 58
REMARK Flexibility Score: inf
ROOT
ATOM      1  C   UNL A   1      36.023  21.685  26.003  1.00  0.00     0.042 C 
ENDROOT
BRANCH   1   2
ATOM      2  C   UNL A   1      35.277  22.990  26.211  1.00  0.00     0.117 C 
BRANCH   2   3
ATOM      3  N   UNL A   1      34.133  22.819  27.097  1.00  0.00    -0.354 N 
ATOM      4  C   UNL A   1      32.813  23.125  26.904  1.00  0.00     0.255 C 
ATOM      5  O   UNL A   1      32.052  22.828  27.827  1.00  0.00    -0.272 OA
ATOM      6  H   UNL A   1      34.342  22.423  27.974  1.00  0.00     0.163 HD
BRANCH   4   7
ATOM      7  C   UNL A   1      32.353  23.926  25.678  1.00  0.00     0.213 C 
ATOM      8  C   UNL A   1      32.693  25.399  26.022  1.00  0.00     0.056 C 
BRANCH   7   9
ATOM      9  N   UNL A   1      33.075  23.570  24.418  1.00  0.00    -0.316 N 
ATOM     10  C   UNL A   1      33.017  22.538  23.567  1.00  0.00     0.316 C 
ATOM     11  H   UNL A   1      33.741  24.245  24.156  1.00  0.00     0.166 HD
ATOM     12  O   UNL A   1      33.435  22.742  22.426  1.00  0.00    -0.249 OA
ATOM     13  N   UNL A   1      32.575  21.321  23.875  1.00  0.00    -0.329 N 
ATOM     14  H   UNL A   1      32.386  20.769  23.082  1.00  0.00     0.165 HD
BRANCH  13  15
ATOM     15  C   UNL A   1      32.311  20.628  25.121  1.00  0.00     0.217 C 
BRANCH  15  16
ATOM     16  C   UNL A   1      33.174  19.386  25.316  1.00  0.00     0.236 C 
ATOM     17  N   UNL A   1      32.823  18.624  26.398  1.00  0.00    -0.368 N 
ATOM     18  O   UNL A   1      34.084  19.054  24.566  1.00  0.00    -0.273 OA
ATOM     19  H   UNL A   1      32.088  18.913  26.986  1.00  0.00     0.159 HD
ATOM     20  H   UNL A   1      33.307  17.787  26.587  1.00  0.00     0.159 HD
ENDBRANCH  15  16
ENDBRANCH  13  15
ENDBRANCH   7   9
BRANCH   7  21
ATOM     21  C   UNL A   1      30.816  23.850  25.533  1.00  0.00     0.420 C 
ATOM     22  F   UNL A   1      30.312  22.644  25.882  1.00  0.00    -0.168 F 
ATOM     23  F   UNL A   1      30.232  24.755  26.368  1.00  0.00    -0.168 F 
ATOM     24  F   UNL A   1      30.372  24.137  24.292  1.00  0.00    -0.168 F 
ENDBRANCH   7  21
ENDBRANCH   4   7
ENDBRANCH   2   3
ENDBRANCH   1   2
BRANCH   1  25
ATOM     25  C   UNL A   1      37.335  21.860  25.256  1.00  0.00     0.118 C 
BRANCH  25  26
ATOM     26  N   UNL A   1      38.319  20.842  25.595  1.00  0.00    -0.352 N 
ATOM     27  C   UNL A   1      39.534  21.007  26.223  1.00  0.00     0.251 C 
ATOM     28  H   UNL A   1      38.087  19.919  25.344  1.00  0.00     0.163 HD
ATOM     29  O   UNL A   1      40.321  20.069  26.300  1.00  0.00    -0.269 OA
BRANCH  27  30
ATOM     30  C   UNL A   1      39.889  22.339  26.757  1.00  0.00     0.039 A 
ATOM     31  C   UNL A   1      40.853  22.433  27.761  1.00  0.00     0.014 A 
ATOM     32  C   UNL A   1      39.328  23.494  26.204  1.00  0.00     0.014 A 
ATOM     33  C   UNL A   1      41.315  23.691  28.152  1.00  0.00     0.010 A 
ATOM     34  C   UNL A   1      39.859  24.738  26.526  1.00  0.00     0.010 A 
ATOM     35  C   UNL A   1      40.858  24.851  27.504  1.00  0.00    -0.014 A 
BRANCH  35  36
ATOM     36  C   UNL A   1      41.415  26.188  27.841  1.00  0.00     0.031 A 
ATOM     37  C   UNL A   1      42.812  26.553  27.414  1.00  0.00     0.074 A 
ATOM     38  C   UNL A   1      40.684  27.051  28.577  1.00  0.00     0.049 A 
ATOM     39  N   UNL A   1      43.489  27.648  27.643  1.00  0.00    -0.248 NA
ATOM     40  C   UNL A   1      43.559  25.534  26.660  1.00  0.00     0.031 C 
ATOM     41  C   UNL A   1      39.343  26.788  29.103  1.00  0.00     0.029 A 
ATOM     42  N   UNL A   1      40.965  28.322  29.013  1.00  0.00    -0.354 N 
ATOM     43  C   UNL A   1      44.741  27.447  27.071  1.00  0.00     0.074 A 
ATOM     44  C   UNL A   1      44.753  26.095  26.555  1.00  0.00     0.031 C 
ATOM     45  C   UNL A   1      38.902  27.877  29.754  1.00  0.00     0.029 A 
ATOM     46  C   UNL A   1      39.943  28.899  29.733  1.00  0.00     0.049 A 
ATOM     47  H   UNL A   1      41.818  28.778  28.830  1.00  0.00     0.167 HD
ATOM     48  C   UNL A   1      45.774  28.318  26.958  1.00  0.00     0.034 A 
ATOM     49  C   UNL A   1      39.856  30.114  30.311  1.00  0.00     0.034 A 
ATOM     50  C   UNL A   1      45.739  29.668  27.466  1.00  0.00     0.049 A 
ATOM     51  C   UNL A   1      41.019  31.065  30.177  1.00  0.00     0.074 A 
ATOM     52  C   UNL A   1      46.703  30.654  27.361  1.00  0.00     0.029 A 
ATOM     53  N   UNL A   1      44.684  30.222  28.181  1.00  0.00    -0.354 N 
ATOM     54  N   UNL A   1      42.173  30.880  29.577  1.00  0.00    -0.248 NA
ATOM     55  C   UNL A   1      40.859  32.393  30.781  1.00  0.00     0.031 C 
ATOM     56  C   UNL A   1      46.263  31.778  28.069  1.00  0.00     0.029 A 
ATOM     57  C   UNL A   1      44.988  31.524  28.548  1.00  0.00     0.049 A 
ATOM     58  H   UNL A   1      43.844  29.757  28.397  1.00  0.00     0.167 HD
ATOM     59  C   UNL A   1      42.863  32.082  29.708  1.00  0.00     0.074 A 
ATOM     60  C   UNL A   1      41.986  32.987  30.422  1.00  0.00     0.031 C 
ATOM     61  C   UNL A   1      44.108  32.410  29.274  1.00  0.00     0.034 A 
BRANCH  48  62
ATOM     62  C   UNL A   1      47.028  27.823  26.276  1.00  0.00     0.023 A 
ATOM     63  C   UNL A   1      47.272  28.067  24.912  1.00  0.00     0.031 A 
ATOM     64  C   UNL A   1      47.977  27.067  26.987  1.00  0.00     0.131 A 
ATOM     65  C   UNL A   1      48.389  27.493  24.286  1.00  0.00     0.055 A 
ATOM     66  C   UNL A   1      49.133  26.574  26.376  1.00  0.00     0.041 A 
ATOM     67  F   UNL A   1      47.789  26.781  28.284  1.00  0.00    -0.206 F 
ATOM     68  C   UNL A   1      49.336  26.771  25.014  1.00  0.00     0.022 A 
BRANCH  65  69
ATOM     69  S   UNL A   1      48.501  27.574  22.477  1.00  0.00     0.124 S 
ATOM     70  O   UNL A   1      48.537  26.157  22.121  1.00  0.00    -0.237 OA
ATOM     71  O   UNL A   1      47.285  28.293  22.117  1.00  0.00    -0.237 OA
ATOM     72  O   UNL A   1      49.749  28.299  22.243  1.00  0.00    -0.744 OA
ENDBRANCH  65  69
ENDBRANCH  48  62
BRANCH  49  73
ATOM     73  C   UNL A   1      38.631  30.509  31.065  1.00  0.00     0.023 A 
ATOM     74  C   UNL A   1      37.569  31.171  30.427  1.00  0.00     0.031 A 
ATOM     75  C   UNL A   1      38.521  30.271  32.447  1.00  0.00     0.131 A 
ATOM     76  C   UNL A   1      36.469  31.615  31.175  1.00  0.00     0.055 A 
ATOM     77  C   UNL A   1      37.400  30.667  33.178  1.00  0.00     0.041 A 
ATOM     78  F   UNL A   1      39.504  29.637  33.106  1.00  0.00    -0.206 F 
ATOM     79  C   UNL A   1      36.371  31.357  32.545  1.00  0.00     0.022 A 
BRANCH  76  80
ATOM     80  S   UNL A   1      35.202  32.618  30.349  1.00  0.00     0.124 S 
ATOM     81  O   UNL A   1      35.945  33.833  30.036  1.00  0.00    -0.237 OA
ATOM     82  O   UNL A   1      34.843  31.774  29.215  1.00  0.00    -0.237 OA
ATOM     83  O   UNL A   1      34.166  32.764  31.368  1.00  0.00    -0.744 OA
ENDBRANCH  76  80
ENDBRANCH  49  73
BRANCH  61  84
ATOM     84  C   UNL A   1      44.568  33.826  29.529  1.00  0.00     0.023 A 
ATOM     85  C   UNL A   1      44.272  34.873  28.639  1.00  0.00     0.031 A 
ATOM     86  C   UNL A   1      45.337  34.125  30.669  1.00  0.00     0.131 A 
ATOM     87  C   UNL A   1      44.800  36.153  28.864  1.00  0.00     0.055 A 
ATOM     88  C   UNL A   1      45.802  35.417  30.923  1.00  0.00     0.041 A 
ATOM     89  F   UNL A   1      45.652  33.165  31.552  1.00  0.00    -0.206 F 
ATOM     90  C   UNL A   1      45.548  36.435  30.009  1.00  0.00     0.022 A 
BRANCH  87  91
ATOM     91  S   UNL A   1      44.591  37.417  27.579  1.00  0.00     0.124 S 
ATOM     92  O   UNL A   1      45.879  37.366  26.893  1.00  0.00    -0.237 OA
ATOM     93  O   UNL A   1      43.447  36.912  26.828  1.00  0.00    -0.237 OA
ATOM     94  O   UNL A   1      44.343  38.640  28.340  1.00  0.00    -0.744 OA
ENDBRANCH  87  91
ENDBRANCH  61  84
ENDBRANCH  35  36
ENDBRANCH  27  30
ENDBRANCH  25  26
ENDBRANCH   1  25
TORSDOF 17
ENDMDL
MODEL 2
REMARK VINA RESULT:     -11.4      1.600      2.241
REMARK SMILES C[C@@](NC(=O)NCC(N)=O)(C(=O)NCCCNC(=O)c1ccc(-c2c3nc(c(-c4cc(S(=O)(=O)[O-])ccc4F)c4ccc([nH]4)c(-c4cc(S(=O)(=O)[O-])ccc4F)c4nc(c(-c5cc(S(=O)(=O)[O-])ccc5F)c5ccc2[nH]5)C=C4)C=C3)cc1)C(F)(F)F
REMARK SMILES IDX 15 1 14 2 13 3 11 4 12 5 2 7 1 8 3 9 4 10 5 12 6 13 7 15
REMARK SMILES IDX 8 16 9 17 10 18 83 21 84 22 85 23 86 24 16 25 17 26 18 27
REMARK SMILES IDX 19 29 20 30 21 31 82 32 22 33 81 34 23 35 24 36 25 37 75 38
REMARK SMILES IDX 26 39 80 40 74 41 76 42 27 43 79 44 73 45 72 46 28 48 60 49
REMARK SMILES IDX 40 50 59 51 41 52 44 53 58 54 77 55 42 56 43 57 57 59 78 60
REMARK SMILES IDX 45 61 29 62 30 63 38 64 31 65 37 66 39 67 36 68 32 69 33 70
REMARK SMILES IDX 34 71 35 72 61 73 62 74 70 75 63 76 69 77 71 78 68 79 64 80
REMARK SMILES IDX 65 81 66 82 67 83 46 84 47 85 55 86 48 87 54 88 56 89 53 90
REMARK SMILES IDX 49 91 50 92 51 93 52 94
REMARK H PARENT 13 6 3 11 6 14 9 19 9 20 17 28 76 47 44 58
REMARK Flexibility Score: inf
ROOT
ATOM      1  C   UNL A   1      36.367  22.446  23.938  1.00  0.00     0.042 C 
ENDROOT
BRANCH   1   2
ATOM      2  C   UNL A   1      35.188  23.383  23.751  1.00  0.00     0.117 C 
BRANCH   2   3
ATOM      3  N   UNL A   1      33.923  22.659  23.737  1.00  0.00    -0.354 N 
ATOM      4  C   UNL A   1      32.662  23.089  23.424  1.00  0.00     0.255 C 
ATOM      5  O   UNL A   1      31.777  22.232  23.462  1.00  0.00    -0.272 OA
ATOM      6  H   UNL A   1      33.985  21.710  23.995  1.00  0.00     0.163 HD
BRANCH   4   7
ATOM      7  C   UNL A   1      32.363  24.577  23.196  1.00  0.00     0.213 C 
ATOM      8  C   UNL A   1      30.816  24.677  23.238  1.00  0.00     0.056 C 
BRANCH   7   9
ATOM      9  N   UNL A   1      32.909  25.473  24.262  1.00  0.00    -0.316 N 
ATOM     10  C   UNL A   1      32.861  25.472  25.599  1.00  0.00     0.316 C 
ATOM     11  H   UNL A   1      33.418  26.233  23.898  1.00  0.00     0.166 HD
ATOM     12  O   UNL A   1      33.747  26.099  26.183  1.00  0.00    -0.249 OA
ATOM     13  N   UNL A   1      31.920  24.875  26.327  1.00  0.00    -0.329 N 
ATOM     14  H   UNL A   1      32.170  24.778  27.274  1.00  0.00     0.165 HD
BRANCH  13  15
ATOM     15  C   UNL A   1      30.606  24.337  26.032  1.00  0.00     0.217 C 
BRANCH  15  16
ATOM     16  C   UNL A   1      30.296  23.052  26.793  1.00  0.00     0.236 C 
ATOM     17  N   UNL A   1      30.963  21.951  26.330  1.00  0.00    -0.368 N 
ATOM     18  O   UNL A   1      29.547  22.988  27.761  1.00  0.00    -0.273 OA
ATOM     19  H   UNL A   1      31.560  22.028  25.550  1.00  0.00     0.159 HD
ATOM     20  H   UNL A   1      30.848  21.081  26.778  1.00  0.00     0.159 HD
ENDBRANCH  15  16
ENDBRANCH  13  15
ENDBRANCH   7   9
BRANCH   7  21
ATOM     21  C   UNL A   1      32.795  25.001  21.775  1.00  0.00     0.420 C 
ATOM     22  F   UNL A   1      31.824  25.662  21.103  1.00  0.00    -0.168 F 
ATOM     23  F   UNL A   1      33.847  25.864  21.854  1.00  0.00    -0.168 F 
ATOM     24  F   UNL A   1      33.205  23.975  21.001  1.00  0.00    -0.168 F 
ENDBRANCH   7  21
ENDBRANCH   4   7
ENDBRANCH   2   3
ENDBRANCH   1   2
BRANCH   1  25
ATOM     25  C   UNL A   1      36.962  22.506  25.335  1.00  0.00     0.118 C 
BRANCH  25  26
ATOM     26  N   UNL A   1      37.991  21.500  25.556  1.00  0.00    -0.352 N 
ATOM     27  C   UNL A   1      39.237  21.667  26.118  1.00  0.00     0.251 C 
ATOM     28  H   UNL A   1      37.768  20.587  25.266  1.00  0.00     0.163 HD
ATOM     29  O   UNL A   1      40.052  20.750  26.095  1.00  0.00    -0.269 OA
BRANCH  27  30
ATOM     30  C   UNL A   1      39.588  22.977  26.706  1.00  0.00     0.039 A 
ATOM     31  C   UNL A   1      40.501  23.025  27.761  1.00  0.00     0.014 A 
ATOM     32  C   UNL A   1      39.079  24.157  26.156  1.00  0.00     0.014 A 
ATOM     33  C   UNL A   1      40.965  24.264  28.209  1.00  0.00     0.010 A 
ATOM     34  C   UNL A   1      39.616  25.382  26.538  1.00  0.00     0.010 A 
ATOM     35  C   UNL A   1      40.564  25.449  27.570  1.00  0.00    -0.014 A 
BRANCH  35  36
ATOM     36  C   UNL A   1      41.128  26.766  27.971  1.00  0.00     0.031 A 
ATOM     37  C   UNL A   1      42.565  27.094  27.669  1.00  0.00     0.074 A 
ATOM     38  C   UNL A   1      40.362  27.640  28.655  1.00  0.00     0.049 A 
ATOM     39  N   UNL A   1      43.251  28.167  27.969  1.00  0.00    -0.248 NA
ATOM     40  C   UNL A   1      43.345  26.062  26.966  1.00  0.00     0.031 C 
ATOM     41  C   UNL A   1      38.974  27.411  29.062  1.00  0.00     0.029 A 
ATOM     42  N   UNL A   1      40.640  28.897  29.131  1.00  0.00    -0.354 N 
ATOM     43  C   UNL A   1      44.541  27.935  27.502  1.00  0.00     0.074 A 
ATOM     44  C   UNL A   1      44.559  26.590  26.970  1.00  0.00     0.031 C 
ATOM     45  C   UNL A   1      38.510  28.505  29.689  1.00  0.00     0.029 A 
ATOM     46  C   UNL A   1      39.578  29.496  29.770  1.00  0.00     0.049 A 
ATOM     47  H   UNL A   1      41.518  29.331  29.026  1.00  0.00     0.167 HD
ATOM     48  C   UNL A   1      45.604  28.778  27.489  1.00  0.00     0.034 A 
ATOM     49  C   UNL A   1      39.476  30.706  30.356  1.00  0.00     0.034 A 
ATOM     50  C   UNL A   1      45.563  30.122  28.011  1.00  0.00     0.049 A 
ATOM     51  C   UNL A   1      40.672  31.625  30.333  1.00  0.00     0.074 A 
ATOM     52  C   UNL A   1      46.561  31.081  28.001  1.00  0.00     0.029 A 
ATOM     53  N   UNL A   1      44.468  30.698  28.642  1.00  0.00    -0.354 N 
ATOM     54  N   UNL A   1      41.867  31.413  29.830  1.00  0.00    -0.248 NA
ATOM     55  C   UNL A   1      40.498  32.950  30.940  1.00  0.00     0.031 C 
ATOM     56  C   UNL A   1      46.094  32.209  28.685  1.00  0.00     0.029 A 
ATOM     57  C   UNL A   1      44.776  31.987  29.052  1.00  0.00     0.049 A 
ATOM     58  H   UNL A   1      43.600  30.255  28.779  1.00  0.00     0.167 HD
ATOM     59  C   UNL A   1      42.577  32.593  30.035  1.00  0.00     0.074 A 
ATOM     60  C   UNL A   1      41.669  33.515  30.685  1.00  0.00     0.031 C 
ATOM     61  C   UNL A   1      43.863  32.890  29.713  1.00  0.00     0.034 A 
BRANCH  48  62
ATOM     62  C   UNL A   1      46.897  28.254  26.908  1.00  0.00     0.023 A 
ATOM     63  C   UNL A   1      47.127  28.230  25.521  1.00  0.00     0.031 A 
ATOM     64  C   UNL A   1      47.901  27.740  27.748  1.00  0.00     0.131 A 
ATOM     65  C   UNL A   1      48.289  27.630  25.012  1.00  0.00     0.055 A 
ATOM     66  C   UNL A   1      49.095  27.225  27.238  1.00  0.00     0.041 A 
ATOM     67  F   UNL A   1      47.731  27.714  29.079  1.00  0.00    -0.206 F 
ATOM     68  C   UNL A   1      49.288  27.152  25.862  1.00  0.00     0.022 A 
BRANCH  65  69
ATOM     69  S   UNL A   1      48.402  27.344  23.224  1.00  0.00     0.124 S 
ATOM     70  O   UNL A   1      49.760  27.804  22.939  1.00  0.00    -0.237 OA
ATOM     71  O   UNL A   1      48.179  25.908  23.119  1.00  0.00    -0.237 OA
ATOM     72  O   UNL A   1      47.340  28.185  22.675  1.00  0.00    -0.744 OA
ENDBRANCH  65  69
ENDBRANCH  48  62
BRANCH  49  73
ATOM     73  C   UNL A   1      38.202  31.128  31.008  1.00  0.00     0.023 A 
ATOM     74  C   UNL A   1      37.196  31.783  30.279  1.00  0.00     0.031 A 
ATOM     75  C   UNL A   1      37.991  30.923  32.384  1.00  0.00     0.131 A 
ATOM     76  C   UNL A   1      36.049  32.253  30.935  1.00  0.00     0.055 A 
ATOM     77  C   UNL A   1      36.823  31.345  33.022  1.00  0.00     0.041 A 
ATOM     78  F   UNL A   1      38.917  30.297  33.128  1.00  0.00    -0.206 F 
ATOM     79  C   UNL A   1      35.849  32.028  32.300  1.00  0.00     0.022 A 
BRANCH  76  80
ATOM     80  S   UNL A   1      34.855  33.245  29.996  1.00  0.00     0.124 S 
ATOM     81  O   UNL A   1      34.224  32.233  29.157  1.00  0.00    -0.237 OA
ATOM     82  O   UNL A   1      34.027  33.805  31.058  1.00  0.00    -0.237 OA
ATOM     83  O   UNL A   1      35.695  34.209  29.289  1.00  0.00    -0.744 OA
ENDBRANCH  76  80
ENDBRANCH  49  73
BRANCH  61  84
ATOM     84  C   UNL A   1      44.339  34.288  30.026  1.00  0.00     0.023 A 
ATOM     85  C   UNL A   1      44.103  35.364  29.151  1.00  0.00     0.031 A 
ATOM     86  C   UNL A   1      45.063  34.542  31.205  1.00  0.00     0.131 A 
ATOM     87  C   UNL A   1      44.645  36.626  29.434  1.00  0.00     0.055 A 
ATOM     88  C   UNL A   1      45.542  35.816  31.513  1.00  0.00     0.041 A 
ATOM     89  F   UNL A   1      45.321  33.553  32.075  1.00  0.00    -0.206 F 
ATOM     90  C   UNL A   1      45.348  36.863  30.617  1.00  0.00     0.022 A 
BRANCH  87  91
ATOM     91  S   UNL A   1      44.518  37.927  28.176  1.00  0.00     0.124 S 
ATOM     92  O   UNL A   1      43.981  37.193  27.034  1.00  0.00    -0.237 OA
ATOM     93  O   UNL A   1      43.611  38.881  28.805  1.00  0.00    -0.237 OA
ATOM     94  O   UNL A   1      45.896  38.390  28.022  1.00  0.00    -0.744 OA
ENDBRANCH  87  91
ENDBRANCH  61  84
ENDBRANCH  35  36
ENDBRANCH  27  30
ENDBRANCH  25  26
ENDBRANCH   1  25
TORSDOF 17
ENDMDL
MODEL 3
REMARK VINA RESULT:     -11.4      4.540      6.968
REMARK SMILES C[C@@](NC(=O)NCC(N)=O)(C(=O)NCCCNC(=O)c1ccc(-c2c3nc(c(-c4cc(S(=O)(=O)[O-])ccc4F)c4ccc([nH]4)c(-c4cc(S(=O)(=O)[O-])ccc4F)c4nc(c(-c5cc(S(=O)(=O)[O-])ccc5F)c5ccc2[nH]5)C=C4)C=C3)cc1)C(F)(F)F
REMARK SMILES IDX 15 1 14 2 13 3 11 4 12 5 2 7 1 8 3 9 4 10 5 12 6 13 7 15
REMARK SMILES IDX 8 16 9 17 10 18 83 21 84 22 85 23 86 24 16 25 17 26 18 27
REMARK SMILES IDX 19 29 20 30 21 31 82 32 22 33 81 34 23 35 24 36 25 37 75 38
REMARK SMILES IDX 26 39 80 40 74 41 76 42 27 43 79 44 73 45 72 46 28 48 60 49
REMARK SMILES IDX 40 50 59 51 41 52 44 53 58 54 77 55 42 56 43 57 57 59 78 60
REMARK SMILES IDX 45 61 29 62 30 63 38 64 31 65 37 66 39 67 36 68 32 69 33 70
REMARK SMILES IDX 34 71 35 72 61 73 62 74 70 75 63 76 69 77 71 78 68 79 64 80
REMARK SMILES IDX 65 81 66 82 67 83 46 84 47 85 55 86 48 87 54 88 56 89 53 90
REMARK SMILES IDX 49 91 50 92 51 93 52 94
REMARK H PARENT 13 6 3 11 6 14 9 19 9 20 17 28 76 47 44 58
REMARK Flexibility Score: inf
ROOT
ATOM      1  C   UNL A   1      42.100  20.796  27.300  1.00  0.00     0.042 C 
ENDROOT
BRANCH   1   2
ATOM      2  C   UNL A   1      43.032  20.332  26.197  1.00  0.00     0.117 C 
BRANCH   2   3
ATOM      3  N   UNL A   1      43.054  21.271  25.082  1.00  0.00    -0.354 N 
ATOM      4  C   UNL A   1      44.110  21.885  24.465  1.00  0.00     0.255 C 
ATOM      5  O   UNL A   1      43.826  22.609  23.508  1.00  0.00    -0.272 OA
ATOM      6  H   UNL A   1      42.169  21.499  24.715  1.00  0.00     0.163 HD
BRANCH   4   7
ATOM      7  C   UNL A   1      45.530  21.793  25.039  1.00  0.00     0.213 C 
ATOM      8  C   UNL A   1      46.364  22.783  24.184  1.00  0.00     0.056 C 
BRANCH   7   9
ATOM      9  N   UNL A   1      45.634  22.220  26.468  1.00  0.00    -0.316 N 
ATOM     10  C   UNL A   1      45.187  23.272  27.163  1.00  0.00     0.316 C 
ATOM     11  H   UNL A   1      46.145  21.585  27.020  1.00  0.00     0.166 HD
ATOM     12  O   UNL A   1      45.083  23.123  28.382  1.00  0.00    -0.249 OA
ATOM     13  N   UNL A   1      44.882  24.458  26.640  1.00  0.00    -0.329 N 
ATOM     14  H   UNL A   1      44.356  25.023  27.250  1.00  0.00     0.165 HD
BRANCH  13  15
ATOM     15  C   UNL A   1      45.155  25.100  25.369  1.00  0.00     0.217 C 
BRANCH  15  16
ATOM     16  C   UNL A   1      44.174  26.218  25.034  1.00  0.00     0.236 C 
ATOM     17  N   UNL A   1      44.745  27.458  24.949  1.00  0.00    -0.368 N 
ATOM     18  O   UNL A   1      42.980  26.045  24.818  1.00  0.00    -0.273 OA
ATOM     19  H   UNL A   1      45.707  27.571  25.127  1.00  0.00     0.159 HD
ATOM     20  H   UNL A   1      44.194  28.238  24.709  1.00  0.00     0.159 HD
ENDBRANCH  15  16
ENDBRANCH  13  15
ENDBRANCH   7   9
BRANCH   7  21
ATOM     21  C   UNL A   1      46.121  20.387  24.787  1.00  0.00     0.420 C 
ATOM     22  F   UNL A   1      45.372  19.644  23.939  1.00  0.00    -0.168 F 
ATOM     23  F   UNL A   1      47.345  20.503  24.199  1.00  0.00    -0.168 F 
ATOM     24  F   UNL A   1      46.307  19.665  25.911  1.00  0.00    -0.168 F 
ENDBRANCH   7  21
ENDBRANCH   4   7
ENDBRANCH   2   3
ENDBRANCH   1   2
BRANCH   1  25
ATOM     25  C   UNL A   1      41.413  22.115  26.986  1.00  0.00     0.118 C 
BRANCH  25  26
ATOM     26  N   UNL A   1      40.088  21.940  26.408  1.00  0.00    -0.352 N 
ATOM     27  C   UNL A   1      39.037  22.829  26.403  1.00  0.00     0.251 C 
ATOM     28  H   UNL A   1      39.924  21.077  25.964  1.00  0.00     0.163 HD
ATOM     29  O   UNL A   1      37.931  22.474  26.009  1.00  0.00    -0.269 OA
BRANCH  27  30
ATOM     30  C   UNL A   1      39.253  24.196  26.922  1.00  0.00     0.039 A 
ATOM     31  C   UNL A   1      38.997  24.459  28.269  1.00  0.00     0.014 A 
ATOM     32  C   UNL A   1      39.787  25.189  26.096  1.00  0.00     0.014 A 
ATOM     33  C   UNL A   1      39.357  25.697  28.805  1.00  0.00     0.010 A 
ATOM     34  C   UNL A   1      40.232  26.383  26.655  1.00  0.00     0.010 A 
ATOM     35  C   UNL A   1      40.020  26.652  28.015  1.00  0.00    -0.014 A 
BRANCH  35  36
ATOM     36  C   UNL A   1      40.498  27.933  28.599  1.00  0.00     0.031 A 
ATOM     37  C   UNL A   1      41.974  28.207  28.711  1.00  0.00     0.074 A 
ATOM     38  C   UNL A   1      39.605  28.824  29.077  1.00  0.00     0.049 A 
ATOM     39  N   UNL A   1      42.588  29.242  29.224  1.00  0.00    -0.248 NA
ATOM     40  C   UNL A   1      42.880  27.159  28.214  1.00  0.00     0.031 C 
ATOM     41  C   UNL A   1      38.151  28.645  29.081  1.00  0.00     0.029 A 
ATOM     42  N   UNL A   1      39.785  30.057  29.652  1.00  0.00    -0.354 N 
ATOM     43  C   UNL A   1      43.948  28.966  29.118  1.00  0.00     0.074 A 
ATOM     44  C   UNL A   1      44.064  27.634  28.567  1.00  0.00     0.031 C 
ATOM     45  C   UNL A   1      37.572  29.743  29.594  1.00  0.00     0.029 A 
ATOM     46  C   UNL A   1      38.610  30.685  29.997  1.00  0.00     0.049 A 
ATOM     47  H   UNL A   1      40.673  30.454  29.806  1.00  0.00     0.167 HD
ATOM     48  C   UNL A   1      45.003  29.763  29.424  1.00  0.00     0.034 A 
ATOM     49  C   UNL A   1      38.394  31.885  30.573  1.00  0.00     0.034 A 
ATOM     50  C   UNL A   1      44.867  31.095  29.960  1.00  0.00     0.049 A 
ATOM     51  C   UNL A   1      39.582  32.752  30.908  1.00  0.00     0.074 A 
ATOM     52  C   UNL A   1      45.862  32.011  30.255  1.00  0.00     0.029 A 
ATOM     53  N   UNL A   1      43.661  31.703  30.288  1.00  0.00    -0.354 N 
ATOM     54  N   UNL A   1      40.861  32.501  30.744  1.00  0.00    -0.248 NA
ATOM     55  C   UNL A   1      39.295  34.069  31.489  1.00  0.00     0.031 C 
ATOM     56  C   UNL A   1      45.265  33.142  30.823  1.00  0.00     0.029 A 
ATOM     57  C   UNL A   1      43.890  32.967  30.809  1.00  0.00     0.049 A 
ATOM     58  H   UNL A   1      42.774  31.294  30.168  1.00  0.00     0.167 HD
ATOM     59  C   UNL A   1      41.528  33.645  31.175  1.00  0.00     0.074 A 
ATOM     60  C   UNL A   1      40.509  34.589  31.582  1.00  0.00     0.031 C 
ATOM     61  C   UNL A   1      42.863  33.893  31.226  1.00  0.00     0.034 A 
BRANCH  48  62
ATOM     62  C   UNL A   1      46.386  29.198  29.201  1.00  0.00     0.023 A 
ATOM     63  C   UNL A   1      46.965  29.146  27.920  1.00  0.00     0.031 A 
ATOM     64  C   UNL A   1      47.125  28.671  30.276  1.00  0.00     0.131 A 
ATOM     65  C   UNL A   1      48.201  28.509  27.734  1.00  0.00     0.055 A 
ATOM     66  C   UNL A   1      48.395  28.119  30.096  1.00  0.00     0.041 A 
ATOM     67  F   UNL A   1      46.617  28.670  31.518  1.00  0.00    -0.206 F 
ATOM     68  C   UNL A   1      48.933  28.020  28.817  1.00  0.00     0.022 A 
BRANCH  65  69
ATOM     69  S   UNL A   1      48.763  28.193  26.038  1.00  0.00     0.124 S 
ATOM     70  O   UNL A   1      47.570  28.532  25.265  1.00  0.00    -0.237 OA
ATOM     71  O   UNL A   1      49.892  29.106  25.904  1.00  0.00    -0.237 OA
ATOM     72  O   UNL A   1      49.104  26.772  26.050  1.00  0.00    -0.744 OA
ENDBRANCH  65  69
ENDBRANCH  48  62
BRANCH  49  73
ATOM     73  C   UNL A   1      37.006  32.346  30.867  1.00  0.00     0.023 A 
ATOM     74  C   UNL A   1      36.186  32.870  29.854  1.00  0.00     0.031 A 
ATOM     75  C   UNL A   1      36.494  32.312  32.177  1.00  0.00     0.131 A 
ATOM     76  C   UNL A   1      34.920  33.383  30.173  1.00  0.00     0.055 A 
ATOM     77  C   UNL A   1      35.212  32.775  32.480  1.00  0.00     0.041 A 
ATOM     78  F   UNL A   1      37.233  31.817  33.182  1.00  0.00    -0.206 F 
ATOM     79  C   UNL A   1      34.422  33.328  31.477  1.00  0.00     0.022 A 
BRANCH  76  80
ATOM     80  S   UNL A   1      33.963  34.208  28.871  1.00  0.00     0.124 S 
ATOM     81  O   UNL A   1      33.694  33.104  27.957  1.00  0.00    -0.237 OA
ATOM     82  O   UNL A   1      32.818  34.717  29.617  1.00  0.00    -0.237 OA
ATOM     83  O   UNL A   1      34.881  35.227  28.368  1.00  0.00    -0.744 OA
ENDBRANCH  76  80
ENDBRANCH  49  73
BRANCH  61  84
ATOM     84  C   UNL A   1      43.283  35.263  31.703  1.00  0.00     0.023 A 
ATOM     85  C   UNL A   1      43.376  35.574  33.072  1.00  0.00     0.031 A 
ATOM     86  C   UNL A   1      43.570  36.279  30.774  1.00  0.00     0.131 A 
ATOM     87  C   UNL A   1      43.676  36.884  33.472  1.00  0.00     0.055 A 
ATOM     88  C   UNL A   1      43.935  37.564  31.179  1.00  0.00     0.041 A 
ATOM     89  F   UNL A   1      43.495  36.041  29.455  1.00  0.00    -0.206 F 
ATOM     90  C   UNL A   1      43.974  37.876  32.535  1.00  0.00     0.022 A 
BRANCH  87  91
ATOM     91  S   UNL A   1      43.560  37.302  35.233  1.00  0.00     0.124 S 
ATOM     92  O   UNL A   1      42.171  36.968  35.533  1.00  0.00    -0.237 OA
ATOM     93  O   UNL A   1      44.569  36.431  35.827  1.00  0.00    -0.237 OA
ATOM     94  O   UNL A   1      43.875  38.729  35.268  1.00  0.00    -0.744 OA
ENDBRANCH  87  91
ENDBRANCH  61  84
ENDBRANCH  35  36
ENDBRANCH  27  30
ENDBRANCH  25  26
ENDBRANCH   1  25
TORSDOF 17
ENDMDL
