MODEL 1
REMARK VINA RESULT:     -13.8      0.000      0.000
REMARK SMILES O=C(NCCCNC(=O)c1ccc(N2C(=O)N=C(O)/C(=C\c3cccs3)C2=O)cc1)c1ccc(-c2c3nc(c(-c4cc(S(=O)(=O)[O-])ccc4F)c4ccc([nH]4)c(-c4cc(S(=O)(=O)[O-])ccc4F)c4nc(c(-c5cc(S(=O)(=O)[O-])ccc5F)c5ccc2[nH]5)C=C4)C=C3)cc1
REMARK SMILES IDX 4 1 3 2 1 3 2 4 31 6 32 7 93 8 33 9 92 10 34 11 35 12 36 13
REMARK SMILES IDX 86 14 37 15 91 16 85 17 87 18 38 19 90 20 84 21 83 22 39 24
REMARK SMILES IDX 71 25 51 26 70 27 52 28 55 29 69 30 88 31 53 32 54 33 68 35
REMARK SMILES IDX 89 36 56 37 40 38 41 39 49 40 42 41 48 42 50 43 47 44 43 45
REMARK SMILES IDX 44 46 45 47 46 48 72 49 73 50 81 51 74 52 80 53 82 54 79 55
REMARK SMILES IDX 75 56 76 57 77 58 78 59 57 60 58 61 66 62 59 63 65 64 67 65
REMARK SMILES IDX 64 66 60 67 61 68 62 69 63 70 5 71 6 72 7 73 8 74 9 76 10 77
REMARK SMILES IDX 11 78 30 79 12 80 29 81 13 82 14 83 15 84 27 85 16 86 17 87
REMARK SMILES IDX 20 88 28 89 18 90 21 91 19 92 22 94 23 95 26 96 24 97 25 98
REMARK H PARENT 3 5 87 23 55 34 7 75 19 93
REMARK Flexibility Score: inf
ROOT
ATOM      1  C   UNL A   1      37.199  21.868  24.411  1.00  0.00     0.118 C 
ENDROOT
BRANCH   1   2
ATOM      2  N   UNL A   1      37.854  20.702  24.998  1.00  0.00    -0.352 N 
ATOM      3  O   UNL A   1      39.480  19.524  26.024  1.00  0.00    -0.269 OA
ATOM      4  C   UNL A   1      39.003  20.622  25.752  1.00  0.00     0.251 C 
ATOM      5  H   UNL A   1      37.405  19.842  24.828  1.00  0.00     0.163 HD
BRANCH   4   6
ATOM      6  C   UNL A   1      39.667  21.862  26.209  1.00  0.00     0.039 A 
ATOM      7  C   UNL A   1      38.955  23.059  26.244  1.00  0.00     0.014 A 
ATOM      8  C   UNL A   1      41.012  21.837  26.589  1.00  0.00     0.014 A 
ATOM      9  C   UNL A   1      39.629  24.252  26.446  1.00  0.00     0.010 A 
ATOM     10  C   UNL A   1      41.657  23.030  26.938  1.00  0.00     0.010 A 
ATOM     11  C   UNL A   1      40.977  24.254  26.839  1.00  0.00    -0.014 A 
BRANCH  11  12
ATOM     12  C   UNL A   1      41.591  25.551  27.230  1.00  0.00     0.031 A 
ATOM     13  C   UNL A   1      42.943  25.972  26.725  1.00  0.00     0.074 A 
ATOM     14  C   UNL A   1      40.861  26.384  28.001  1.00  0.00     0.049 A 
ATOM     15  N   UNL A   1      43.585  27.092  26.942  1.00  0.00    -0.248 NA
ATOM     16  C   UNL A   1      43.673  25.019  25.878  1.00  0.00     0.031 C 
ATOM     17  C   UNL A   1      39.535  26.073  28.550  1.00  0.00     0.029 A 
ATOM     18  N   UNL A   1      41.097  27.663  28.430  1.00  0.00    -0.354 N 
ATOM     19  C   UNL A   1      44.795  26.981  26.266  1.00  0.00     0.074 A 
ATOM     20  C   UNL A   1      44.813  25.664  25.662  1.00  0.00     0.031 C 
ATOM     21  C   UNL A   1      39.048  27.152  29.172  1.00  0.00     0.029 A 
ATOM     22  C   UNL A   1      40.063  28.197  29.164  1.00  0.00     0.049 A 
ATOM     23  H   UNL A   1      41.927  28.154  28.231  1.00  0.00     0.167 HD
ATOM     24  C   UNL A   1      45.789  27.898  26.154  1.00  0.00     0.034 A 
ATOM     25  C   UNL A   1      39.950  29.381  29.795  1.00  0.00     0.034 A 
ATOM     26  C   UNL A   1      45.750  29.205  26.769  1.00  0.00     0.049 A 
ATOM     27  C   UNL A   1      41.096  30.350  29.700  1.00  0.00     0.074 A 
ATOM     28  C   UNL A   1      46.699  30.213  26.710  1.00  0.00     0.029 A 
ATOM     29  N   UNL A   1      44.715  29.688  27.559  1.00  0.00    -0.354 N 
ATOM     30  N   UNL A   1      42.229  30.228  29.044  1.00  0.00    -0.248 NA
ATOM     31  C   UNL A   1      40.950  31.615  30.425  1.00  0.00     0.031 C 
ATOM     32  C   UNL A   1      46.274  31.269  27.523  1.00  0.00     0.029 A 
ATOM     33  C   UNL A   1      45.018  30.963  28.020  1.00  0.00     0.049 A 
ATOM     34  H   UNL A   1      43.886  29.198  27.764  1.00  0.00     0.167 HD
ATOM     35  C   UNL A   1      42.919  31.414  29.265  1.00  0.00     0.074 A 
ATOM     36  C   UNL A   1      42.058  32.250  30.076  1.00  0.00     0.031 C 
ATOM     37  C   UNL A   1      44.157  31.779  28.843  1.00  0.00     0.034 A 
BRANCH  24  38
ATOM     38  C   UNL A   1      47.020  27.513  25.367  1.00  0.00     0.023 A 
ATOM     39  C   UNL A   1      47.177  27.864  24.015  1.00  0.00     0.031 A 
ATOM     40  C   UNL A   1      48.067  26.805  25.987  1.00  0.00     0.131 A 
ATOM     41  C   UNL A   1      48.330  27.470  23.317  1.00  0.00     0.055 A 
ATOM     42  C   UNL A   1      49.243  26.480  25.308  1.00  0.00     0.041 A 
ATOM     43  F   UNL A   1      47.966  26.422  27.270  1.00  0.00    -0.206 F 
ATOM     44  C   UNL A   1      49.376  26.805  23.962  1.00  0.00     0.022 A 
BRANCH  41  45
ATOM     45  S   UNL A   1      48.395  27.739  21.525  1.00  0.00     0.124 S 
ATOM     46  O   UNL A   1      49.434  28.761  21.419  1.00  0.00    -0.237 OA
ATOM     47  O   UNL A   1      48.744  26.418  21.020  1.00  0.00    -0.237 OA
ATOM     48  O   UNL A   1      47.046  28.197  21.198  1.00  0.00    -0.744 OA
ENDBRANCH  41  45
ENDBRANCH  24  38
BRANCH  25  49
ATOM     49  C   UNL A   1      38.744  29.692  30.615  1.00  0.00     0.023 A 
ATOM     50  C   UNL A   1      37.721  30.516  30.122  1.00  0.00     0.031 A 
ATOM     51  C   UNL A   1      38.630  29.224  31.938  1.00  0.00     0.131 A 
ATOM     52  C   UNL A   1      36.670  30.905  30.966  1.00  0.00     0.055 A 
ATOM     53  C   UNL A   1      37.540  29.546  32.747  1.00  0.00     0.041 A 
ATOM     54  F   UNL A   1      39.579  28.433  32.466  1.00  0.00    -0.206 F 
ATOM     55  C   UNL A   1      36.563  30.411  32.268  1.00  0.00     0.022 A 
BRANCH  52  56
ATOM     56  S   UNL A   1      35.521  32.179  30.382  1.00  0.00     0.124 S 
ATOM     57  O   UNL A   1      34.584  32.265  31.495  1.00  0.00    -0.237 OA
ATOM     58  O   UNL A   1      36.407  33.324  30.198  1.00  0.00    -0.237 OA
ATOM     59  O   UNL A   1      34.979  31.608  29.151  1.00  0.00    -0.744 OA
ENDBRANCH  52  56
ENDBRANCH  25  49
BRANCH  37  60
ATOM     60  C   UNL A   1      44.622  33.162  29.235  1.00  0.00     0.023 A 
ATOM     61  C   UNL A   1      44.272  34.296  28.483  1.00  0.00     0.031 A 
ATOM     62  C   UNL A   1      45.471  33.338  30.341  1.00  0.00     0.131 A 
ATOM     63  C   UNL A   1      44.834  35.542  28.793  1.00  0.00     0.055 A 
ATOM     64  C   UNL A   1      45.965  34.595  30.694  1.00  0.00     0.041 A 
ATOM     65  F   UNL A   1      45.845  32.291  31.092  1.00  0.00    -0.206 F 
ATOM     66  C   UNL A   1      45.663  35.703  29.906  1.00  0.00     0.022 A 
BRANCH  63  67
ATOM     67  S   UNL A   1      44.579  36.921  27.642  1.00  0.00     0.124 S 
ATOM     68  O   UNL A   1      45.923  37.129  27.116  1.00  0.00    -0.237 OA
ATOM     69  O   UNL A   1      43.606  36.369  26.706  1.00  0.00    -0.237 OA
ATOM     70  O   UNL A   1      44.074  37.993  28.499  1.00  0.00    -0.744 OA
ENDBRANCH  63  67
ENDBRANCH  37  60
ENDBRANCH  11  12
ENDBRANCH   4   6
ENDBRANCH   1   2
BRANCH   1  71
ATOM     71  C   UNL A   1      35.686  21.764  24.405  1.00  0.00     0.042 C 
BRANCH  71  72
ATOM     72  C   UNL A   1      35.114  21.151  25.671  1.00  0.00     0.118 C 
BRANCH  72  73
ATOM     73  N   UNL A   1      33.981  20.274  25.402  1.00  0.00    -0.352 N 
ATOM     74  C   UNL A   1      32.668  20.595  25.176  1.00  0.00     0.251 C 
ATOM     75  H   UNL A   1      34.190  19.312  25.379  1.00  0.00     0.163 HD
ATOM     76  O   UNL A   1      31.806  19.723  25.143  1.00  0.00    -0.269 OA
BRANCH  74  77
ATOM     77  C   UNL A   1      32.292  22.006  24.975  1.00  0.00     0.039 A 
ATOM     78  C   UNL A   1      31.885  22.760  26.072  1.00  0.00     0.016 A 
ATOM     79  C   UNL A   1      32.347  22.578  23.702  1.00  0.00     0.016 A 
ATOM     80  C   UNL A   1      31.618  24.121  25.908  1.00  0.00     0.028 A 
ATOM     81  C   UNL A   1      32.085  23.937  23.544  1.00  0.00     0.028 A 
ATOM     82  C   UNL A   1      31.736  24.731  24.647  1.00  0.00     0.054 A 
BRANCH  82  83
ATOM     83  N   UNL A   1      31.517  26.144  24.494  1.00  0.00    -0.226 N 
ATOM     84  C   UNL A   1      32.571  27.017  24.811  1.00  0.00     0.358 C 
ATOM     85  C   UNL A   1      30.292  26.573  23.990  1.00  0.00     0.272 C 
ATOM     86  O   UNL A   1      33.698  26.606  25.089  1.00  0.00    -0.245 OA
ATOM     87  N   UNL A   1      32.359  28.363  24.786  1.00  0.00    -0.156 NA
ATOM     88  C   UNL A   1      30.145  28.049  23.826  1.00  0.00     0.104 C 
ATOM     89  O   UNL A   1      29.344  25.835  23.713  1.00  0.00    -0.268 OA
ATOM     90  C   UNL A   1      31.262  28.844  24.341  1.00  0.00     0.228 C 
ATOM     91  C   UNL A   1      29.002  28.441  23.224  1.00  0.00     0.038 C 
BRANCH  90  92
ATOM     92  O   UNL A   1      31.151  30.177  24.416  1.00  0.00    -0.493 OA
ATOM     93  H   UNL A   1      30.504  30.622  23.906  1.00  0.00     0.295 HD
ENDBRANCH  90  92
BRANCH  91  94
ATOM     94  C   UNL A   1      28.671  29.781  22.912  1.00  0.00     0.028 A 
ATOM     95  C   UNL A   1      27.902  30.678  23.629  1.00  0.00     0.020 A 
ATOM     96  S   UNL A   1      29.231  30.476  21.445  1.00  0.00    -0.144 S 
ATOM     97  C   UNL A   1      27.710  31.906  22.934  1.00  0.00     0.012 A 
ATOM     98  C   UNL A   1      28.372  31.926  21.727  1.00  0.00     0.065 A 
ENDBRANCH  91  94
ENDBRANCH  82  83
ENDBRANCH  74  77
ENDBRANCH  72  73
ENDBRANCH  71  72
ENDBRANCH   1  71
TORSDOF 16
ENDMDL
MODEL 2
REMARK VINA RESULT:     -13.8      5.309     10.959
REMARK SMILES O=C(NCCCNC(=O)c1ccc(N2C(=O)N=C(O)/C(=C\c3cccs3)C2=O)cc1)c1ccc(-c2c3nc(c(-c4cc(S(=O)(=O)[O-])ccc4F)c4ccc([nH]4)c(-c4cc(S(=O)(=O)[O-])ccc4F)c4nc(c(-c5cc(S(=O)(=O)[O-])ccc5F)c5ccc2[nH]5)C=C4)C=C3)cc1
REMARK SMILES IDX 4 1 3 2 1 3 2 4 31 6 32 7 93 8 33 9 92 10 34 11 35 12 36 13
REMARK SMILES IDX 86 14 37 15 91 16 85 17 87 18 38 19 90 20 84 21 83 22 39 24
REMARK SMILES IDX 71 25 51 26 70 27 52 28 55 29 69 30 88 31 53 32 54 33 68 35
REMARK SMILES IDX 89 36 56 37 40 38 41 39 49 40 42 41 48 42 50 43 47 44 43 45
REMARK SMILES IDX 44 46 45 47 46 48 72 49 73 50 81 51 74 52 80 53 82 54 79 55
REMARK SMILES IDX 75 56 76 57 77 58 78 59 57 60 58 61 66 62 59 63 65 64 67 65
REMARK SMILES IDX 64 66 60 67 61 68 62 69 63 70 5 71 6 72 7 73 8 74 9 76 10 77
REMARK SMILES IDX 11 78 30 79 12 80 29 81 13 82 14 83 15 84 27 85 16 86 17 87
REMARK SMILES IDX 20 88 28 89 18 90 21 91 19 92 22 94 23 95 26 96 24 97 25 98
REMARK H PARENT 3 5 87 23 55 34 7 75 19 93
REMARK Flexibility Score: inf
ROOT
ATOM      1  C   UNL A   1      32.485  31.379  26.860  1.00  0.00     0.118 C 
ENDROOT
BRANCH   1   2
ATOM      2  N   UNL A   1      32.419  32.805  27.169  1.00  0.00    -0.352 N 
ATOM      3  O   UNL A   1      32.920  34.732  28.228  1.00  0.00    -0.269 OA
ATOM      4  C   UNL A   1      33.233  33.574  27.969  1.00  0.00     0.251 C 
ATOM      5  H   UNL A   1      31.677  33.291  26.739  1.00  0.00     0.163 HD
BRANCH   4   6
ATOM      6  C   UNL A   1      34.470  32.989  28.530  1.00  0.00     0.039 A 
ATOM      7  C   UNL A   1      34.391  31.966  29.472  1.00  0.00     0.014 A 
ATOM      8  C   UNL A   1      35.719  33.473  28.129  1.00  0.00     0.014 A 
ATOM      9  C   UNL A   1      35.527  31.581  30.165  1.00  0.00     0.010 A 
ATOM     10  C   UNL A   1      36.882  32.974  28.727  1.00  0.00     0.010 A 
ATOM     11  C   UNL A   1      36.794  32.044  29.775  1.00  0.00    -0.014 A 
BRANCH  11  12
ATOM     12  C   UNL A   1      37.989  31.447  30.426  1.00  0.00     0.031 A 
ATOM     13  C   UNL A   1      38.384  31.800  31.833  1.00  0.00     0.074 A 
ATOM     14  C   UNL A   1      38.677  30.511  29.739  1.00  0.00     0.049 A 
ATOM     15  N   UNL A   1      39.373  31.327  32.549  1.00  0.00    -0.248 NA
ATOM     16  C   UNL A   1      37.580  32.818  32.524  1.00  0.00     0.031 C 
ATOM     17  C   UNL A   1      38.380  30.093  28.363  1.00  0.00     0.029 A 
ATOM     18  N   UNL A   1      39.733  29.715  30.099  1.00  0.00    -0.354 N 
ATOM     19  C   UNL A   1      39.315  31.987  33.771  1.00  0.00     0.074 A 
ATOM     20  C   UNL A   1      38.215  32.926  33.684  1.00  0.00     0.031 C 
ATOM     21  C   UNL A   1      39.179  29.075  28.027  1.00  0.00     0.029 A 
ATOM     22  C   UNL A   1      40.117  28.833  29.115  1.00  0.00     0.049 A 
ATOM     23  H   UNL A   1      40.174  29.770  30.977  1.00  0.00     0.167 HD
ATOM     24  C   UNL A   1      40.102  31.815  34.863  1.00  0.00     0.034 A 
ATOM     25  C   UNL A   1      41.131  27.950  29.071  1.00  0.00     0.034 A 
ATOM     26  C   UNL A   1      41.197  30.874  34.926  1.00  0.00     0.049 A 
ATOM     27  C   UNL A   1      42.021  27.829  30.278  1.00  0.00     0.074 A 
ATOM     28  C   UNL A   1      42.050  30.615  35.986  1.00  0.00     0.029 A 
ATOM     29  N   UNL A   1      41.598  30.042  33.888  1.00  0.00    -0.354 N 
ATOM     30  N   UNL A   1      41.941  28.457  31.430  1.00  0.00    -0.248 NA
ATOM     31  C   UNL A   1      43.134  26.880  30.182  1.00  0.00     0.031 C 
ATOM     32  C   UNL A   1      43.009  29.687  35.566  1.00  0.00     0.029 A 
ATOM     33  C   UNL A   1      42.704  29.295  34.273  1.00  0.00     0.049 A 
ATOM     34  H   UNL A   1      41.162  29.989  33.008  1.00  0.00     0.167 HD
ATOM     35  C   UNL A   1      42.986  27.959  32.201  1.00  0.00     0.074 A 
ATOM     36  C   UNL A   1      43.649  26.952  31.399  1.00  0.00     0.031 C 
ATOM     37  C   UNL A   1      43.368  28.307  33.456  1.00  0.00     0.034 A 
BRANCH  24  38
ATOM     38  C   UNL A   1      39.835  32.684  36.071  1.00  0.00     0.023 A 
ATOM     39  C   UNL A   1      38.960  32.284  37.095  1.00  0.00     0.031 A 
ATOM     40  C   UNL A   1      40.488  33.923  36.213  1.00  0.00     0.131 A 
ATOM     41  C   UNL A   1      38.727  33.131  38.190  1.00  0.00     0.055 A 
ATOM     42  C   UNL A   1      40.308  34.727  37.340  1.00  0.00     0.041 A 
ATOM     43  F   UNL A   1      41.319  34.371  35.258  1.00  0.00    -0.206 F 
ATOM     44  C   UNL A   1      39.416  34.337  38.333  1.00  0.00     0.022 A 
BRANCH  41  45
ATOM     45  S   UNL A   1      37.423  32.686  39.370  1.00  0.00     0.124 S 
ATOM     46  O   UNL A   1      36.224  32.808  38.544  1.00  0.00    -0.237 OA
ATOM     47  O   UNL A   1      37.798  31.332  39.758  1.00  0.00    -0.237 OA
ATOM     48  O   UNL A   1      37.553  33.696  40.420  1.00  0.00    -0.744 OA
ENDBRANCH  41  45
ENDBRANCH  24  38
BRANCH  25  49
ATOM     49  C   UNL A   1      41.398  27.161  27.834  1.00  0.00     0.023 A 
ATOM     50  C   UNL A   1      41.092  25.794  27.763  1.00  0.00     0.031 A 
ATOM     51  C   UNL A   1      42.033  27.750  26.724  1.00  0.00     0.131 A 
ATOM     52  C   UNL A   1      41.483  25.048  26.641  1.00  0.00     0.055 A 
ATOM     53  C   UNL A   1      42.346  27.022  25.577  1.00  0.00     0.041 A 
ATOM     54  F   UNL A   1      42.354  29.055  26.736  1.00  0.00    -0.206 F 
ATOM     55  C   UNL A   1      42.091  25.656  25.540  1.00  0.00     0.022 A 
BRANCH  52  56
ATOM     56  S   UNL A   1      41.313  23.245  26.702  1.00  0.00     0.124 S 
ATOM     57  O   UNL A   1      41.818  22.945  28.036  1.00  0.00    -0.237 OA
ATOM     58  O   UNL A   1      39.879  23.069  26.504  1.00  0.00    -0.237 OA
ATOM     59  O   UNL A   1      42.154  22.788  25.597  1.00  0.00    -0.744 OA
ENDBRANCH  52  56
ENDBRANCH  25  49
BRANCH  37  60
ATOM     60  C   UNL A   1      44.544  27.556  34.036  1.00  0.00     0.023 A 
ATOM     61  C   UNL A   1      44.367  26.391  34.802  1.00  0.00     0.031 A 
ATOM     62  C   UNL A   1      45.851  28.042  33.864  1.00  0.00     0.131 A 
ATOM     63  C   UNL A   1      45.467  25.800  35.440  1.00  0.00     0.055 A 
ATOM     64  C   UNL A   1      46.953  27.403  34.436  1.00  0.00     0.041 A 
ATOM     65  F   UNL A   1      46.081  29.153  33.147  1.00  0.00    -0.206 F 
ATOM     66  C   UNL A   1      46.761  26.286  35.245  1.00  0.00     0.022 A 
BRANCH  63  67
ATOM     67  S   UNL A   1      45.165  24.471  36.637  1.00  0.00     0.124 S 
ATOM     68  O   UNL A   1      44.133  25.057  37.485  1.00  0.00    -0.237 OA
ATOM     69  O   UNL A   1      44.736  23.371  35.779  1.00  0.00    -0.237 OA
ATOM     70  O   UNL A   1      46.465  24.285  37.279  1.00  0.00    -0.744 OA
ENDBRANCH  63  67
ENDBRANCH  37  60
ENDBRANCH  11  12
ENDBRANCH   4   6
ENDBRANCH   1   2
BRANCH   1  71
ATOM     71  C   UNL A   1      31.408  30.927  25.892  1.00  0.00     0.042 C 
BRANCH  71  72
ATOM     72  C   UNL A   1      31.747  29.638  25.164  1.00  0.00     0.118 C 
BRANCH  72  73
ATOM     73  N   UNL A   1      30.928  29.439  23.975  1.00  0.00    -0.352 N 
ATOM     74  C   UNL A   1      30.874  28.365  23.126  1.00  0.00     0.251 C 
ATOM     75  H   UNL A   1      30.325  30.185  23.750  1.00  0.00     0.163 HD
ATOM     76  O   UNL A   1      30.258  28.432  22.067  1.00  0.00    -0.269 OA
BRANCH  74  77
ATOM     77  C   UNL A   1      31.570  27.118  23.492  1.00  0.00     0.039 A 
ATOM     78  C   UNL A   1      31.106  26.379  24.577  1.00  0.00     0.016 A 
ATOM     79  C   UNL A   1      32.676  26.685  22.759  1.00  0.00     0.016 A 
ATOM     80  C   UNL A   1      31.699  25.149  24.873  1.00  0.00     0.028 A 
ATOM     81  C   UNL A   1      33.262  25.455  23.055  1.00  0.00     0.028 A 
ATOM     82  C   UNL A   1      32.770  24.662  24.103  1.00  0.00     0.054 A 
BRANCH  82  83
ATOM     83  N   UNL A   1      33.340  23.371  24.376  1.00  0.00    -0.226 N 
ATOM     84  C   UNL A   1      34.484  23.310  25.189  1.00  0.00     0.358 C 
ATOM     85  C   UNL A   1      32.700  22.244  23.867  1.00  0.00     0.272 C 
ATOM     86  O   UNL A   1      34.929  24.302  25.766  1.00  0.00    -0.245 OA
ATOM     87  N   UNL A   1      35.114  22.116  25.373  1.00  0.00    -0.156 NA
ATOM     88  C   UNL A   1      33.326  20.935  24.218  1.00  0.00     0.104 C 
ATOM     89  O   UNL A   1      31.702  22.264  23.143  1.00  0.00    -0.268 OA
ATOM     90  C   UNL A   1      34.598  21.031  24.937  1.00  0.00     0.228 C 
ATOM     91  C   UNL A   1      32.629  19.850  23.822  1.00  0.00     0.038 C 
BRANCH  90  92
ATOM     92  O   UNL A   1      35.336  19.929  25.134  1.00  0.00    -0.493 OA
ATOM     93  H   UNL A   1      35.244  19.440  25.927  1.00  0.00     0.295 HD
ENDBRANCH  90  92
BRANCH  91  94
ATOM     94  C   UNL A   1      32.997  18.510  24.092  1.00  0.00     0.028 A 
ATOM     95  C   UNL A   1      33.636  17.600  23.271  1.00  0.00     0.020 A 
ATOM     96  S   UNL A   1      32.616  17.812  25.613  1.00  0.00    -0.144 S 
ATOM     97  C   UNL A   1      33.740  16.310  23.866  1.00  0.00     0.012 A 
ATOM     98  C   UNL A   1      33.215  16.285  25.138  1.00  0.00     0.065 A 
ENDBRANCH  91  94
ENDBRANCH  82  83
ENDBRANCH  74  77
ENDBRANCH  72  73
ENDBRANCH  71  72
ENDBRANCH   1  71
TORSDOF 16
ENDMDL
MODEL 3
REMARK VINA RESULT:     -13.7      5.311     10.874
REMARK SMILES O=C(NCCCNC(=O)c1ccc(N2C(=O)N=C(O)/C(=C\c3cccs3)C2=O)cc1)c1ccc(-c2c3nc(c(-c4cc(S(=O)(=O)[O-])ccc4F)c4ccc([nH]4)c(-c4cc(S(=O)(=O)[O-])ccc4F)c4nc(c(-c5cc(S(=O)(=O)[O-])ccc5F)c5ccc2[nH]5)C=C4)C=C3)cc1
REMARK SMILES IDX 4 1 3 2 1 3 2 4 31 6 32 7 93 8 33 9 92 10 34 11 35 12 36 13
REMARK SMILES IDX 86 14 37 15 91 16 85 17 87 18 38 19 90 20 84 21 83 22 39 24
REMARK SMILES IDX 71 25 51 26 70 27 52 28 55 29 69 30 88 31 53 32 54 33 68 35
REMARK SMILES IDX 89 36 56 37 40 38 41 39 49 40 42 41 48 42 50 43 47 44 43 45
REMARK SMILES IDX 44 46 45 47 46 48 72 49 73 50 81 51 74 52 80 53 82 54 79 55
REMARK SMILES IDX 75 56 76 57 77 58 78 59 57 60 58 61 66 62 59 63 65 64 67 65
REMARK SMILES IDX 64 66 60 67 61 68 62 69 63 70 5 71 6 72 7 73 8 74 9 76 10 77
REMARK SMILES IDX 11 78 30 79 12 80 29 81 13 82 14 83 15 84 27 85 16 86 17 87
REMARK SMILES IDX 20 88 28 89 18 90 21 91 19 92 22 94 23 95 26 96 24 97 25 98
REMARK H PARENT 3 5 87 23 55 34 7 75 19 93
REMARK Flexibility Score: inf
ROOT
ATOM      1  C   UNL A   1      32.354  31.274  26.760  1.00  0.00     0.118 C 
ENDROOT
BRANCH   1   2
ATOM      2  N   UNL A   1      32.274  32.712  27.006  1.00  0.00    -0.352 N 
ATOM      3  O   UNL A   1      32.748  34.686  27.986  1.00  0.00    -0.269 OA
ATOM      4  C   UNL A   1      33.073  33.521  27.781  1.00  0.00     0.251 C 
ATOM      5  H   UNL A   1      31.533  33.172  26.547  1.00  0.00     0.163 HD
BRANCH   4   6
ATOM      6  C   UNL A   1      34.308  32.971  28.381  1.00  0.00     0.039 A 
ATOM      7  C   UNL A   1      34.234  31.893  29.260  1.00  0.00     0.014 A 
ATOM      8  C   UNL A   1      35.548  33.543  28.080  1.00  0.00     0.014 A 
ATOM      9  C   UNL A   1      35.349  31.529  29.996  1.00  0.00     0.010 A 
ATOM     10  C   UNL A   1      36.703  33.072  28.718  1.00  0.00     0.010 A 
ATOM     11  C   UNL A   1      36.608  32.080  29.706  1.00  0.00    -0.014 A 
BRANCH  11  12
ATOM     12  C   UNL A   1      37.797  31.510  30.393  1.00  0.00     0.031 A 
ATOM     13  C   UNL A   1      38.135  31.863  31.815  1.00  0.00     0.074 A 
ATOM     14  C   UNL A   1      38.533  30.599  29.723  1.00  0.00     0.049 A 
ATOM     15  N   UNL A   1      39.112  31.411  32.561  1.00  0.00    -0.248 NA
ATOM     16  C   UNL A   1      37.280  32.853  32.486  1.00  0.00     0.031 C 
ATOM     17  C   UNL A   1      38.294  30.186  28.334  1.00  0.00     0.029 A 
ATOM     18  N   UNL A   1      39.598  29.830  30.111  1.00  0.00    -0.354 N 
ATOM     19  C   UNL A   1      38.996  32.059  33.785  1.00  0.00     0.074 A 
ATOM     20  C   UNL A   1      37.873  32.968  33.668  1.00  0.00     0.031 C 
ATOM     21  C   UNL A   1      39.131  29.192  28.018  1.00  0.00     0.029 A 
ATOM     22  C   UNL A   1      40.039  28.967  29.135  1.00  0.00     0.049 A 
ATOM     23  H   UNL A   1      40.008  29.889  31.005  1.00  0.00     0.167 HD
ATOM     24  C   UNL A   1      39.750  31.899  34.901  1.00  0.00     0.034 A 
ATOM     25  C   UNL A   1      41.078  28.112  29.119  1.00  0.00     0.034 A 
ATOM     26  C   UNL A   1      40.868  30.988  34.993  1.00  0.00     0.049 A 
ATOM     27  C   UNL A   1      41.930  28.005  30.354  1.00  0.00     0.074 A 
ATOM     28  C   UNL A   1      41.692  30.743  36.080  1.00  0.00     0.029 A 
ATOM     29  N   UNL A   1      41.326  30.176  33.964  1.00  0.00    -0.354 N 
ATOM     30  N   UNL A   1      41.795  28.621  31.507  1.00  0.00    -0.248 NA
ATOM     31  C   UNL A   1      43.071  27.088  30.288  1.00  0.00     0.031 C 
ATOM     32  C   UNL A   1      42.689  29.846  35.686  1.00  0.00     0.029 A 
ATOM     33  C   UNL A   1      42.439  29.457  34.380  1.00  0.00     0.049 A 
ATOM     34  H   UNL A   1      40.921  30.118  33.069  1.00  0.00     0.167 HD
ATOM     35  C   UNL A   1      42.826  28.146  32.308  1.00  0.00     0.074 A 
ATOM     36  C   UNL A   1      43.544  27.164  31.522  1.00  0.00     0.031 C 
ATOM     37  C   UNL A   1      43.157  28.494  33.579  1.00  0.00     0.034 A 
BRANCH  24  38
ATOM     38  C   UNL A   1      39.419  32.751  36.105  1.00  0.00     0.023 A 
ATOM     39  C   UNL A   1      39.933  34.050  36.260  1.00  0.00     0.031 A 
ATOM     40  C   UNL A   1      38.550  32.266  37.102  1.00  0.00     0.131 A 
ATOM     41  C   UNL A   1      39.613  34.799  37.404  1.00  0.00     0.055 A 
ATOM     42  C   UNL A   1      38.178  33.044  38.199  1.00  0.00     0.041 A 
ATOM     43  F   UNL A   1      38.044  31.025  37.021  1.00  0.00    -0.206 F 
ATOM     44  C   UNL A   1      38.717  34.316  38.360  1.00  0.00     0.022 A 
BRANCH  41  45
ATOM     45  S   UNL A   1      40.474  36.371  37.681  1.00  0.00     0.124 S 
ATOM     46  O   UNL A   1      41.657  35.933  38.418  1.00  0.00    -0.237 OA
ATOM     47  O   UNL A   1      40.707  36.847  36.323  1.00  0.00    -0.237 OA
ATOM     48  O   UNL A   1      39.517  37.153  38.462  1.00  0.00    -0.744 OA
ENDBRANCH  41  45
ENDBRANCH  24  38
BRANCH  25  49
ATOM     49  C   UNL A   1      41.408  27.341  27.885  1.00  0.00     0.023 A 
ATOM     50  C   UNL A   1      41.110  25.974  27.781  1.00  0.00     0.031 A 
ATOM     51  C   UNL A   1      42.095  27.947  26.816  1.00  0.00     0.131 A 
ATOM     52  C   UNL A   1      41.558  25.246  26.669  1.00  0.00     0.055 A 
ATOM     53  C   UNL A   1      42.465  27.236  25.676  1.00  0.00     0.041 A 
ATOM     54  F   UNL A   1      42.410  29.253  26.861  1.00  0.00    -0.206 F 
ATOM     55  C   UNL A   1      42.217  25.870  25.607  1.00  0.00     0.022 A 
BRANCH  52  56
ATOM     56  S   UNL A   1      41.392  23.441  26.697  1.00  0.00     0.124 S 
ATOM     57  O   UNL A   1      39.959  23.272  26.493  1.00  0.00    -0.237 OA
ATOM     58  O   UNL A   1      42.250  23.040  25.587  1.00  0.00    -0.237 OA
ATOM     59  O   UNL A   1      41.882  23.076  28.025  1.00  0.00    -0.744 OA
ENDBRANCH  52  56
ENDBRANCH  25  49
BRANCH  37  60
ATOM     60  C   UNL A   1      44.332  27.770  34.192  1.00  0.00     0.023 A 
ATOM     61  C   UNL A   1      44.183  26.519  34.816  1.00  0.00     0.031 A 
ATOM     62  C   UNL A   1      45.606  28.364  34.199  1.00  0.00     0.131 A 
ATOM     63  C   UNL A   1      45.265  25.943  35.495  1.00  0.00     0.055 A 
ATOM     64  C   UNL A   1      46.700  27.747  34.809  1.00  0.00     0.041 A 
ATOM     65  F   UNL A   1      45.808  29.560  33.625  1.00  0.00    -0.206 F 
ATOM     66  C   UNL A   1      46.528  26.539  35.478  1.00  0.00     0.022 A 
BRANCH  63  67
ATOM     67  S   UNL A   1      44.966  24.473  36.516  1.00  0.00     0.124 S 
ATOM     68  O   UNL A   1      44.864  25.049  37.852  1.00  0.00    -0.237 OA
ATOM     69  O   UNL A   1      43.727  23.949  35.951  1.00  0.00    -0.237 OA
ATOM     70  O   UNL A   1      46.150  23.648  36.284  1.00  0.00    -0.744 OA
ENDBRANCH  63  67
ENDBRANCH  37  60
ENDBRANCH  11  12
ENDBRANCH   4   6
ENDBRANCH   1   2
BRANCH   1  71
ATOM     71  C   UNL A   1      31.331  30.782  25.755  1.00  0.00     0.042 C 
BRANCH  71  72
ATOM     72  C   UNL A   1      31.839  29.656  24.872  1.00  0.00     0.118 C 
BRANCH  72  73
ATOM     73  N   UNL A   1      30.968  29.410  23.728  1.00  0.00    -0.352 N 
ATOM     74  C   UNL A   1      30.864  28.295  22.939  1.00  0.00     0.251 C 
ATOM     75  H   UNL A   1      30.368  30.153  23.490  1.00  0.00     0.163 HD
ATOM     76  O   UNL A   1      30.206  28.318  21.904  1.00  0.00    -0.269 OA
BRANCH  74  77
ATOM     77  C   UNL A   1      31.556  27.057  23.341  1.00  0.00     0.039 A 
ATOM     78  C   UNL A   1      31.048  26.313  24.403  1.00  0.00     0.016 A 
ATOM     79  C   UNL A   1      32.703  26.636  22.665  1.00  0.00     0.016 A 
ATOM     80  C   UNL A   1      31.640  25.091  24.730  1.00  0.00     0.028 A 
ATOM     81  C   UNL A   1      33.288  25.414  22.992  1.00  0.00     0.028 A 
ATOM     82  C   UNL A   1      32.754  24.616  24.014  1.00  0.00     0.054 A 
BRANCH  82  83
ATOM     83  N   UNL A   1      33.325  23.332  24.317  1.00  0.00    -0.226 N 
ATOM     84  C   UNL A   1      34.444  23.289  25.165  1.00  0.00     0.358 C 
ATOM     85  C   UNL A   1      32.710  22.195  23.801  1.00  0.00     0.272 C 
ATOM     86  O   UNL A   1      34.864  24.290  25.747  1.00  0.00    -0.245 OA
ATOM     87  N   UNL A   1      35.078  22.101  25.380  1.00  0.00    -0.156 NA
ATOM     88  C   UNL A   1      33.335  20.895  24.183  1.00  0.00     0.104 C 
ATOM     89  O   UNL A   1      31.735  22.200  23.046  1.00  0.00    -0.268 OA
ATOM     90  C   UNL A   1      34.584  21.008  24.939  1.00  0.00     0.228 C 
ATOM     91  C   UNL A   1      32.659  19.800  23.776  1.00  0.00     0.038 C 
BRANCH  90  92
ATOM     92  O   UNL A   1      35.324  19.913  25.169  1.00  0.00    -0.493 OA
ATOM     93  H   UNL A   1      35.279  19.484  26.000  1.00  0.00     0.295 HD
ENDBRANCH  90  92
BRANCH  91  94
ATOM     94  C   UNL A   1      33.029  18.466  24.070  1.00  0.00     0.028 A 
ATOM     95  C   UNL A   1      33.693  17.552  23.276  1.00  0.00     0.020 A 
ATOM     96  S   UNL A   1      32.616  17.784  25.591  1.00  0.00    -0.144 S 
ATOM     97  C   UNL A   1      33.791  16.269  23.888  1.00  0.00     0.012 A 
ATOM     98  C   UNL A   1      33.236  16.254  25.147  1.00  0.00     0.065 A 
ENDBRANCH  91  94
ENDBRANCH  82  83
ENDBRANCH  74  77
ENDBRANCH  72  73
ENDBRANCH  71  72
ENDBRANCH   1  71
TORSDOF 16
ENDMDL
