MODEL 1
REMARK VINA RESULT:     -12.7      0.000      0.000
REMARK SMILES Cc1cc(NC(=O)Nc2sc(C)c(C)c2C(=O)NCCCNC(=O)c2ccc(-c3c4nc(c(-c5cc(S(=O)(=O)[O-])ccc5F)c5ccc([nH]5)c(-c5cc(S(=O)(=O)[O-])ccc5F)c5nc(c(-c6cc(S(=O)(=O)[O-])ccc6F)c6ccc3[nH]6)C=C5)C=C4)cc2)ccn1
REMARK SMILES IDX 20 1 19 2 18 3 16 4 17 5 15 7 9 8 10 9 11 10 13 11 12 12
REMARK SMILES IDX 14 13 8 14 5 15 6 16 7 18 4 20 1 21 2 22 3 23 90 24 89 25
REMARK SMILES IDX 88 26 21 27 22 28 23 29 24 31 25 32 26 33 87 34 27 35 86 36
REMARK SMILES IDX 28 37 29 38 30 39 80 40 31 41 85 42 79 43 81 44 32 45 84 46
REMARK SMILES IDX 78 47 77 48 33 50 65 51 45 52 64 53 46 54 49 55 63 56 82 57
REMARK SMILES IDX 47 58 48 59 62 61 83 62 50 63 34 64 35 65 43 66 36 67 42 68
REMARK SMILES IDX 44 69 41 70 37 71 38 72 39 73 40 74 66 75 67 76 75 77 68 78
REMARK SMILES IDX 74 79 76 80 73 81 69 82 70 83 71 84 72 85 51 86 52 87 60 88
REMARK SMILES IDX 53 89 59 90 61 91 58 92 54 93 55 94 56 95 57 96
REMARK H PARENT 18 6 5 17 8 19 22 30 81 49 49 60
REMARK Flexibility Score: inf
ROOT
ATOM      1  C   UNL A   1      36.457  22.692  24.052  1.00  0.00     0.042 C 
ENDROOT
BRANCH   1   2
ATOM      2  C   UNL A   1      35.031  22.974  23.631  1.00  0.00     0.118 C 
BRANCH   2   3
ATOM      3  N   UNL A   1      34.052  21.937  23.840  1.00  0.00    -0.352 N 
ATOM      4  C   UNL A   1      32.679  21.978  23.947  1.00  0.00     0.254 C 
ATOM      5  O   UNL A   1      32.147  20.868  24.054  1.00  0.00    -0.269 OA
ATOM      6  H   UNL A   1      34.435  21.033  23.923  1.00  0.00     0.163 HD
BRANCH   4   7
ATOM      7  C   UNL A   1      31.852  23.212  24.006  1.00  0.00     0.077 A 
ATOM      8  C   UNL A   1      31.686  24.234  23.082  1.00  0.00     0.110 A 
ATOM      9  S   UNL A   1      30.495  25.370  23.510  1.00  0.00    -0.122 S 
ATOM     10  C   UNL A   1      30.436  24.792  25.103  1.00  0.00     0.007 A 
ATOM     11  C   UNL A   1      31.141  23.604  25.246  1.00  0.00    -0.022 A 
ATOM     12  C   UNL A   1      29.690  25.581  26.126  1.00  0.00     0.057 C 
ATOM     13  C   UNL A   1      31.246  22.856  26.544  1.00  0.00     0.046 C 
BRANCH   8  14
ATOM     14  N   UNL A   1      32.205  24.438  21.833  1.00  0.00    -0.298 N 
ATOM     15  N   UNL A   1      33.242  26.601  22.100  1.00  0.00    -0.308 N 
ATOM     16  C   UNL A   1      32.865  25.528  21.364  1.00  0.00     0.324 C 
ATOM     17  H   UNL A   1      33.507  27.359  21.530  1.00  0.00     0.171 HD
ATOM     18  O   UNL A   1      33.158  25.536  20.163  1.00  0.00    -0.248 OA
ATOM     19  H   UNL A   1      32.084  23.700  21.192  1.00  0.00     0.172 HD
BRANCH  15  20
ATOM     20  C   UNL A   1      33.353  26.914  23.470  1.00  0.00     0.046 A 
ATOM     21  C   UNL A   1      31.924  29.575  25.741  1.00  0.00     0.067 C 
ATOM     22  C   UNL A   1      32.686  28.378  25.257  1.00  0.00     0.039 A 
ATOM     23  C   UNL A   1      32.734  28.088  23.895  1.00  0.00     0.049 A 
ATOM     24  N   UNL A   1      33.242  27.581  26.195  1.00  0.00    -0.261 NA
ATOM     25  C   UNL A   1      33.922  26.505  25.752  1.00  0.00     0.113 A 
ATOM     26  C   UNL A   1      34.034  26.159  24.414  1.00  0.00     0.046 A 
ENDBRANCH  15  20
ENDBRANCH   8  14
ENDBRANCH   4   7
ENDBRANCH   2   3
ENDBRANCH   1   2
BRANCH   1  27
ATOM     27  C   UNL A   1      36.665  22.290  25.495  1.00  0.00     0.118 C 
BRANCH  27  28
ATOM     28  N   UNL A   1      37.742  21.334  25.694  1.00  0.00    -0.352 N 
ATOM     29  C   UNL A   1      39.034  21.488  26.145  1.00  0.00     0.251 C 
ATOM     30  H   UNL A   1      37.505  20.407  25.466  1.00  0.00     0.163 HD
ATOM     31  O   UNL A   1      39.784  20.513  26.106  1.00  0.00    -0.269 OA
BRANCH  29  32
ATOM     32  C   UNL A   1      39.548  22.793  26.632  1.00  0.00     0.039 A 
ATOM     33  C   UNL A   1      40.528  22.802  27.629  1.00  0.00     0.014 A 
ATOM     34  C   UNL A   1      39.067  24.009  26.148  1.00  0.00     0.014 A 
ATOM     35  C   UNL A   1      41.062  24.016  28.078  1.00  0.00     0.010 A 
ATOM     36  C   UNL A   1      39.702  25.203  26.482  1.00  0.00     0.010 A 
ATOM     37  C   UNL A   1      40.686  25.228  27.476  1.00  0.00    -0.014 A 
BRANCH  37  38
ATOM     38  C   UNL A   1      41.281  26.524  27.906  1.00  0.00     0.031 A 
ATOM     39  C   UNL A   1      42.708  26.863  27.555  1.00  0.00     0.074 A 
ATOM     40  C   UNL A   1      40.545  27.385  28.639  1.00  0.00     0.049 A 
ATOM     41  N   UNL A   1      43.397  27.941  27.834  1.00  0.00    -0.248 NA
ATOM     42  C   UNL A   1      43.476  25.840  26.828  1.00  0.00     0.031 C 
ATOM     43  C   UNL A   1      39.175  27.146  29.097  1.00  0.00     0.029 A 
ATOM     44  N   UNL A   1      40.838  28.637  29.116  1.00  0.00    -0.354 N 
ATOM     45  C   UNL A   1      44.674  27.719  27.324  1.00  0.00     0.074 A 
ATOM     46  C   UNL A   1      44.688  26.368  26.811  1.00  0.00     0.031 C 
ATOM     47  C   UNL A   1      38.724  28.240  29.731  1.00  0.00     0.029 A 
ATOM     48  C   UNL A   1      39.787  29.239  29.770  1.00  0.00     0.049 A 
ATOM     49  H   UNL A   1      41.717  29.065  29.002  1.00  0.00     0.167 HD
ATOM     50  C   UNL A   1      45.727  28.573  27.254  1.00  0.00     0.034 A 
ATOM     51  C   UNL A   1      39.686  30.461  30.331  1.00  0.00     0.034 A 
ATOM     52  C   UNL A   1      45.692  29.921  27.766  1.00  0.00     0.049 A 
ATOM     53  C   UNL A   1      40.871  31.390  30.258  1.00  0.00     0.074 A 
ATOM     54  C   UNL A   1      46.678  30.890  27.717  1.00  0.00     0.029 A 
ATOM     55  N   UNL A   1      44.612  30.491  28.432  1.00  0.00    -0.354 N 
ATOM     56  N   UNL A   1      42.053  31.185  29.723  1.00  0.00    -0.248 NA
ATOM     57  C   UNL A   1      40.700  32.722  30.851  1.00  0.00     0.031 C 
ATOM     58  C   UNL A   1      46.226  32.014  28.417  1.00  0.00     0.029 A 
ATOM     59  C   UNL A   1      44.922  31.785  28.824  1.00  0.00     0.049 A 
ATOM     60  H   UNL A   1      43.753  30.041  28.602  1.00  0.00     0.167 HD
ATOM     61  C   UNL A   1      42.752  32.379  29.880  1.00  0.00     0.074 A 
ATOM     62  C   UNL A   1      41.853  33.299  30.548  1.00  0.00     0.031 C 
ATOM     63  C   UNL A   1      44.019  32.690  29.499  1.00  0.00     0.034 A 
BRANCH  50  64
ATOM     64  C   UNL A   1      46.999  28.055  26.618  1.00  0.00     0.023 A 
ATOM     65  C   UNL A   1      47.242  28.188  25.238  1.00  0.00     0.031 A 
ATOM     66  C   UNL A   1      47.959  27.374  27.385  1.00  0.00     0.131 A 
ATOM     67  C   UNL A   1      48.356  27.565  24.655  1.00  0.00     0.055 A 
ATOM     68  C   UNL A   1      49.118  26.841  26.814  1.00  0.00     0.041 A 
ATOM     69  F   UNL A   1      47.778  27.190  28.703  1.00  0.00    -0.206 F 
ATOM     70  C   UNL A   1      49.312  26.917  25.439  1.00  0.00     0.022 A 
BRANCH  67  71
ATOM     71  S   UNL A   1      48.437  27.455  22.845  1.00  0.00     0.124 S 
ATOM     72  O   UNL A   1      49.726  28.085  22.568  1.00  0.00    -0.237 OA
ATOM     73  O   UNL A   1      48.362  26.019  22.612  1.00  0.00    -0.237 OA
ATOM     74  O   UNL A   1      47.272  28.221  22.405  1.00  0.00    -0.744 OA
ENDBRANCH  67  71
ENDBRANCH  50  64
BRANCH  51  75
ATOM     75  C   UNL A   1      38.415  30.888  30.984  1.00  0.00     0.023 A 
ATOM     76  C   UNL A   1      37.403  31.527  30.249  1.00  0.00     0.031 A 
ATOM     77  C   UNL A   1      38.202  30.687  32.359  1.00  0.00     0.131 A 
ATOM     78  C   UNL A   1      36.244  31.980  30.900  1.00  0.00     0.055 A 
ATOM     79  C   UNL A   1      37.024  31.089  32.991  1.00  0.00     0.041 A 
ATOM     80  F   UNL A   1      39.136  30.078  33.110  1.00  0.00    -0.206 F 
ATOM     81  C   UNL A   1      36.041  31.751  32.263  1.00  0.00     0.022 A 
BRANCH  78  82
ATOM     82  S   UNL A   1      35.037  32.950  29.954  1.00  0.00     0.124 S 
ATOM     83  O   UNL A   1      35.862  34.042  29.453  1.00  0.00    -0.237 OA
ATOM     84  O   UNL A   1      34.582  31.981  28.961  1.00  0.00    -0.237 OA
ATOM     85  O   UNL A   1      34.043  33.325  30.956  1.00  0.00    -0.744 OA
ENDBRANCH  78  82
ENDBRANCH  51  75
BRANCH  63  86
ATOM     86  C   UNL A   1      44.482  34.107  29.750  1.00  0.00     0.023 A 
ATOM     87  C   UNL A   1      44.221  35.148  28.843  1.00  0.00     0.031 A 
ATOM     88  C   UNL A   1      45.219  34.411  30.909  1.00  0.00     0.131 A 
ATOM     89  C   UNL A   1      44.759  36.424  29.071  1.00  0.00     0.055 A 
ATOM     90  C   UNL A   1      45.687  35.700  31.167  1.00  0.00     0.041 A 
ATOM     91  F   UNL A   1      45.502  33.456  31.811  1.00  0.00    -0.206 F 
ATOM     92  C   UNL A   1      45.472  36.711  30.236  1.00  0.00     0.022 A 
BRANCH  89  93
ATOM     93  S   UNL A   1      44.619  37.672  27.761  1.00  0.00     0.124 S 
ATOM     94  O   UNL A   1      45.987  37.735  27.257  1.00  0.00    -0.237 OA
ATOM     95  O   UNL A   1      43.636  37.074  26.865  1.00  0.00    -0.237 OA
ATOM     96  O   UNL A   1      44.165  38.866  28.473  1.00  0.00    -0.744 OA
ENDBRANCH  89  93
ENDBRANCH  63  86
ENDBRANCH  37  38
ENDBRANCH  29  32
ENDBRANCH  27  28
ENDBRANCH   1  27
TORSDOF 15
ENDMDL
MODEL 2
REMARK VINA RESULT:     -12.7      1.883      2.857
REMARK SMILES Cc1cc(NC(=O)Nc2sc(C)c(C)c2C(=O)NCCCNC(=O)c2ccc(-c3c4nc(c(-c5cc(S(=O)(=O)[O-])ccc5F)c5ccc([nH]5)c(-c5cc(S(=O)(=O)[O-])ccc5F)c5nc(c(-c6cc(S(=O)(=O)[O-])ccc6F)c6ccc3[nH]6)C=C5)C=C4)cc2)ccn1
REMARK SMILES IDX 20 1 19 2 18 3 16 4 17 5 15 7 9 8 10 9 11 10 13 11 12 12
REMARK SMILES IDX 14 13 8 14 5 15 6 16 7 18 4 20 1 21 2 22 3 23 90 24 89 25
REMARK SMILES IDX 88 26 21 27 22 28 23 29 24 31 25 32 26 33 87 34 27 35 86 36
REMARK SMILES IDX 28 37 29 38 30 39 80 40 31 41 85 42 79 43 81 44 32 45 84 46
REMARK SMILES IDX 78 47 77 48 33 50 65 51 45 52 64 53 46 54 49 55 63 56 82 57
REMARK SMILES IDX 47 58 48 59 62 61 83 62 50 63 34 64 35 65 43 66 36 67 42 68
REMARK SMILES IDX 44 69 41 70 37 71 38 72 39 73 40 74 66 75 67 76 75 77 68 78
REMARK SMILES IDX 74 79 76 80 73 81 69 82 70 83 71 84 72 85 51 86 52 87 60 88
REMARK SMILES IDX 53 89 59 90 61 91 58 92 54 93 55 94 56 95 57 96
REMARK H PARENT 18 6 5 17 8 19 22 30 81 49 49 60
REMARK Flexibility Score: inf
ROOT
ATOM      1  C   UNL A   1      35.457  22.391  26.170  1.00  0.00     0.042 C 
ENDROOT
BRANCH   1   2
ATOM      2  C   UNL A   1      34.709  23.704  26.086  1.00  0.00     0.118 C 
BRANCH   2   3
ATOM      3  N   UNL A   1      34.488  24.268  24.779  1.00  0.00    -0.352 N 
ATOM      4  C   UNL A   1      33.933  25.463  24.375  1.00  0.00     0.254 C 
ATOM      5  O   UNL A   1      33.971  25.652  23.155  1.00  0.00    -0.269 OA
ATOM      6  H   UNL A   1      34.789  23.694  24.036  1.00  0.00     0.163 HD
BRANCH   4   7
ATOM      7  C   UNL A   1      33.268  26.451  25.264  1.00  0.00     0.077 A 
ATOM      8  C   UNL A   1      32.325  26.275  26.268  1.00  0.00     0.110 A 
ATOM      9  S   UNL A   1      31.973  27.688  27.146  1.00  0.00    -0.122 S 
ATOM     10  C   UNL A   1      32.737  28.665  25.989  1.00  0.00     0.007 A 
ATOM     11  C   UNL A   1      33.450  27.909  25.067  1.00  0.00    -0.022 A 
ATOM     12  C   UNL A   1      32.560  30.144  26.070  1.00  0.00     0.057 C 
ATOM     13  C   UNL A   1      34.240  28.510  23.940  1.00  0.00     0.046 C 
BRANCH   8  14
ATOM     14  N   UNL A   1      31.717  25.158  26.772  1.00  0.00    -0.298 N 
ATOM     15  N   UNL A   1      29.890  24.875  25.220  1.00  0.00    -0.308 N 
ATOM     16  C   UNL A   1      30.585  24.548  26.335  1.00  0.00     0.324 C 
ATOM     17  H   UNL A   1      28.998  24.458  25.210  1.00  0.00     0.171 HD
ATOM     18  O   UNL A   1      30.158  23.603  27.010  1.00  0.00    -0.248 OA
ATOM     19  H   UNL A   1      32.156  24.744  27.550  1.00  0.00     0.172 HD
BRANCH  15  20
ATOM     20  C   UNL A   1      30.112  25.659  24.069  1.00  0.00     0.046 A 
ATOM     21  C   UNL A   1      29.686  29.308  23.182  1.00  0.00     0.067 C 
ATOM     22  C   UNL A   1      30.019  27.850  23.082  1.00  0.00     0.039 A 
ATOM     23  C   UNL A   1      29.700  26.988  24.129  1.00  0.00     0.049 A 
ATOM     24  N   UNL A   1      30.694  27.446  21.983  1.00  0.00    -0.261 NA
ATOM     25  C   UNL A   1      30.993  26.134  21.903  1.00  0.00     0.113 A 
ATOM     26  C   UNL A   1      30.691  25.210  22.891  1.00  0.00     0.046 A 
ENDBRANCH  15  20
ENDBRANCH   8  14
ENDBRANCH   4   7
ENDBRANCH   2   3
ENDBRANCH   1   2
BRANCH   1  27
ATOM     27  C   UNL A   1      36.407  22.085  25.034  1.00  0.00     0.118 C 
BRANCH  27  28
ATOM     28  N   UNL A   1      37.366  21.033  25.331  1.00  0.00    -0.352 N 
ATOM     29  C   UNL A   1      38.633  21.072  25.868  1.00  0.00     0.251 C 
ATOM     30  H   UNL A   1      37.052  20.127  25.109  1.00  0.00     0.163 HD
ATOM     31  O   UNL A   1      39.281  20.026  25.906  1.00  0.00    -0.269 OA
BRANCH  29  32
ATOM     32  C   UNL A   1      39.242  22.334  26.359  1.00  0.00     0.039 A 
ATOM     33  C   UNL A   1      40.309  22.262  27.261  1.00  0.00     0.014 A 
ATOM     34  C   UNL A   1      38.771  23.588  25.971  1.00  0.00     0.014 A 
ATOM     35  C   UNL A   1      40.930  23.434  27.707  1.00  0.00     0.010 A 
ATOM     36  C   UNL A   1      39.481  24.740  26.294  1.00  0.00     0.010 A 
ATOM     37  C   UNL A   1      40.552  24.685  27.192  1.00  0.00    -0.014 A 
BRANCH  37  38
ATOM     38  C   UNL A   1      41.236  25.938  27.618  1.00  0.00     0.031 A 
ATOM     39  C   UNL A   1      42.657  26.215  27.192  1.00  0.00     0.074 A 
ATOM     40  C   UNL A   1      40.589  26.814  28.414  1.00  0.00     0.049 A 
ATOM     41  N   UNL A   1      43.415  27.249  27.456  1.00  0.00    -0.248 NA
ATOM     42  C   UNL A   1      43.328  25.175  26.397  1.00  0.00     0.031 C 
ATOM     43  C   UNL A   1      39.237  26.631  28.945  1.00  0.00     0.029 A 
ATOM     44  N   UNL A   1      40.972  28.037  28.903  1.00  0.00    -0.354 N 
ATOM     45  C   UNL A   1      44.647  26.978  26.868  1.00  0.00     0.074 A 
ATOM     46  C   UNL A   1      44.562  25.642  26.321  1.00  0.00     0.031 C 
ATOM     47  C   UNL A   1      38.880  27.729  29.631  1.00  0.00     0.029 A 
ATOM     48  C   UNL A   1      39.993  28.672  29.632  1.00  0.00     0.049 A 
ATOM     49  H   UNL A   1      41.864  28.423  28.748  1.00  0.00     0.167 HD
ATOM     50  C   UNL A   1      45.737  27.780  26.756  1.00  0.00     0.034 A 
ATOM     51  C   UNL A   1      39.988  29.882  30.227  1.00  0.00     0.034 A 
ATOM     52  C   UNL A   1      45.800  29.113  27.302  1.00  0.00     0.049 A 
ATOM     53  C   UNL A   1      41.213  30.752  30.108  1.00  0.00     0.074 A 
ATOM     54  C   UNL A   1      46.831  30.032  27.219  1.00  0.00     0.029 A 
ATOM     55  N   UNL A   1      44.792  29.718  28.044  1.00  0.00    -0.354 N 
ATOM     56  N   UNL A   1      42.350  30.503  29.500  1.00  0.00    -0.248 NA
ATOM     57  C   UNL A   1      41.144  32.074  30.742  1.00  0.00     0.031 C 
ATOM     58  C   UNL A   1      46.478  31.158  27.971  1.00  0.00     0.029 A 
ATOM     59  C   UNL A   1      45.189  30.984  28.448  1.00  0.00     0.049 A 
ATOM     60  H   UNL A   1      43.922  29.306  28.253  1.00  0.00     0.167 HD
ATOM     61  C   UNL A   1      43.117  31.656  29.644  1.00  0.00     0.074 A 
ATOM     62  C   UNL A   1      42.306  32.601  30.385  1.00  0.00     0.031 C 
ATOM     63  C   UNL A   1      44.374  31.914  29.197  1.00  0.00     0.034 A 
BRANCH  50  64
ATOM     64  C   UNL A   1      46.942  27.216  26.034  1.00  0.00     0.023 A 
ATOM     65  C   UNL A   1      47.938  26.491  26.715  1.00  0.00     0.031 A 
ATOM     66  C   UNL A   1      47.129  27.447  24.661  1.00  0.00     0.131 A 
ATOM     67  C   UNL A   1      49.115  26.114  26.048  1.00  0.00     0.055 A 
ATOM     68  C   UNL A   1      48.257  26.982  23.980  1.00  0.00     0.041 A 
ATOM     69  F   UNL A   1      46.229  28.152  23.956  1.00  0.00    -0.206 F 
ATOM     70  C   UNL A   1      49.268  26.329  24.678  1.00  0.00     0.022 A 
BRANCH  67  71
ATOM     71  S   UNL A   1      50.511  25.510  27.037  1.00  0.00     0.124 S 
ATOM     72  O   UNL A   1      49.944  24.309  27.646  1.00  0.00    -0.237 OA
ATOM     73  O   UNL A   1      51.541  25.291  26.030  1.00  0.00    -0.237 OA
ATOM     74  O   UNL A   1      50.771  26.606  27.968  1.00  0.00    -0.744 OA
ENDBRANCH  67  71
ENDBRANCH  50  64
BRANCH  51  75
ATOM     75  C   UNL A   1      38.780  30.354  30.964  1.00  0.00     0.023 A 
ATOM     76  C   UNL A   1      37.727  30.997  30.292  1.00  0.00     0.031 A 
ATOM     77  C   UNL A   1      38.669  30.192  32.357  1.00  0.00     0.131 A 
ATOM     78  C   UNL A   1      36.631  31.492  31.017  1.00  0.00     0.055 A 
ATOM     79  C   UNL A   1      37.552  30.636  33.066  1.00  0.00     0.041 A 
ATOM     80  F   UNL A   1      39.645  29.581  33.049  1.00  0.00    -0.206 F 
ATOM     81  C   UNL A   1      36.530  31.302  32.397  1.00  0.00     0.022 A 
BRANCH  78  82
ATOM     82  S   UNL A   1      35.376  32.464  30.140  1.00  0.00     0.124 S 
ATOM     83  O   UNL A   1      35.063  31.597  29.011  1.00  0.00    -0.237 OA
ATOM     84  O   UNL A   1      34.334  32.599  31.154  1.00  0.00    -0.237 OA
ATOM     85  O   UNL A   1      36.078  33.700  29.804  1.00  0.00    -0.744 OA
ENDBRANCH  78  82
ENDBRANCH  51  75
BRANCH  63  86
ATOM     86  C   UNL A   1      44.923  33.298  29.455  1.00  0.00     0.023 A 
ATOM     87  C   UNL A   1      44.726  34.359  28.554  1.00  0.00     0.031 A 
ATOM     88  C   UNL A   1      45.679  33.551  30.614  1.00  0.00     0.131 A 
ATOM     89  C   UNL A   1      45.340  35.598  28.787  1.00  0.00     0.055 A 
ATOM     90  C   UNL A   1      46.224  34.807  30.878  1.00  0.00     0.041 A 
ATOM     91  F   UNL A   1      45.903  32.576  31.511  1.00  0.00    -0.206 F 
ATOM     92  C   UNL A   1      46.071  35.835  29.953  1.00  0.00     0.022 A 
BRANCH  89  93
ATOM     93  S   UNL A   1      45.276  36.859  27.484  1.00  0.00     0.124 S 
ATOM     94  O   UNL A   1      45.421  38.092  28.249  1.00  0.00    -0.237 OA
ATOM     95  O   UNL A   1      46.409  36.494  26.641  1.00  0.00    -0.237 OA
ATOM     96  O   UNL A   1      43.961  36.657  26.877  1.00  0.00    -0.744 OA
ENDBRANCH  89  93
ENDBRANCH  63  86
ENDBRANCH  37  38
ENDBRANCH  29  32
ENDBRANCH  27  28
ENDBRANCH   1  27
TORSDOF 15
ENDMDL
MODEL 3
REMARK VINA RESULT:     -12.5      4.892      9.829
REMARK SMILES Cc1cc(NC(=O)Nc2sc(C)c(C)c2C(=O)NCCCNC(=O)c2ccc(-c3c4nc(c(-c5cc(S(=O)(=O)[O-])ccc5F)c5ccc([nH]5)c(-c5cc(S(=O)(=O)[O-])ccc5F)c5nc(c(-c6cc(S(=O)(=O)[O-])ccc6F)c6ccc3[nH]6)C=C5)C=C4)cc2)ccn1
REMARK SMILES IDX 20 1 19 2 18 3 16 4 17 5 15 7 9 8 10 9 11 10 13 11 12 12
REMARK SMILES IDX 14 13 8 14 5 15 6 16 7 18 4 20 1 21 2 22 3 23 90 24 89 25
REMARK SMILES IDX 88 26 21 27 22 28 23 29 24 31 25 32 26 33 87 34 27 35 86 36
REMARK SMILES IDX 28 37 29 38 30 39 80 40 31 41 85 42 79 43 81 44 32 45 84 46
REMARK SMILES IDX 78 47 77 48 33 50 65 51 45 52 64 53 46 54 49 55 63 56 82 57
REMARK SMILES IDX 47 58 48 59 62 61 83 62 50 63 34 64 35 65 43 66 36 67 42 68
REMARK SMILES IDX 44 69 41 70 37 71 38 72 39 73 40 74 66 75 67 76 75 77 68 78
REMARK SMILES IDX 74 79 76 80 73 81 69 82 70 83 71 84 72 85 51 86 52 87 60 88
REMARK SMILES IDX 53 89 59 90 61 91 58 92 54 93 55 94 56 95 57 96
REMARK H PARENT 18 6 5 17 8 19 22 30 81 49 49 60
REMARK Flexibility Score: inf
ROOT
ATOM      1  C   UNL A   1      34.247  28.366  26.309  1.00  0.00     0.042 C 
ENDROOT
BRANCH   1   2
ATOM      2  C   UNL A   1      33.645  27.494  25.229  1.00  0.00     0.118 C 
BRANCH   2   3
ATOM      3  N   UNL A   1      32.275  27.740  24.855  1.00  0.00    -0.352 N 
ATOM      4  C   UNL A   1      31.291  26.906  24.370  1.00  0.00     0.254 C 
ATOM      5  O   UNL A   1      30.192  27.451  24.224  1.00  0.00    -0.269 OA
ATOM      6  H   UNL A   1      31.990  28.677  24.964  1.00  0.00     0.163 HD
BRANCH   4   7
ATOM      7  C   UNL A   1      31.479  25.487  23.972  1.00  0.00     0.077 A 
ATOM      8  C   UNL A   1      31.032  24.314  24.566  1.00  0.00     0.110 A 
ATOM      9  S   UNL A   1      31.344  22.911  23.655  1.00  0.00    -0.122 S 
ATOM     10  C   UNL A   1      32.428  23.740  22.647  1.00  0.00     0.007 A 
ATOM     11  C   UNL A   1      32.377  25.113  22.854  1.00  0.00    -0.022 A 
ATOM     12  C   UNL A   1      33.282  22.953  21.711  1.00  0.00     0.057 C 
ATOM     13  C   UNL A   1      33.215  26.095  22.088  1.00  0.00     0.046 C 
BRANCH   8  14
ATOM     14  N   UNL A   1      30.277  24.078  25.681  1.00  0.00    -0.298 N 
ATOM     15  N   UNL A   1      31.806  22.775  27.020  1.00  0.00    -0.308 N 
ATOM     16  C   UNL A   1      30.599  23.339  26.775  1.00  0.00     0.324 C 
ATOM     17  H   UNL A   1      31.758  22.113  27.747  1.00  0.00     0.171 HD
ATOM     18  O   UNL A   1      29.717  23.177  27.626  1.00  0.00    -0.248 OA
ATOM     19  H   UNL A   1      29.386  24.497  25.693  1.00  0.00     0.172 HD
BRANCH  15  20
ATOM     20  C   UNL A   1      33.113  22.891  26.504  1.00  0.00     0.046 A 
ATOM     21  C   UNL A   1      35.626  20.502  25.001  1.00  0.00     0.067 C 
ATOM     22  C   UNL A   1      34.983  21.761  25.498  1.00  0.00     0.039 A 
ATOM     23  C   UNL A   1      33.750  21.704  26.145  1.00  0.00     0.049 A 
ATOM     24  N   UNL A   1      35.612  22.925  25.224  1.00  0.00    -0.261 NA
ATOM     25  C   UNL A   1      35.024  24.052  25.671  1.00  0.00     0.113 A 
ATOM     26  C   UNL A   1      33.810  24.078  26.340  1.00  0.00     0.046 A 
ENDBRANCH  15  20
ENDBRANCH   8  14
ENDBRANCH   4   7
ENDBRANCH   2   3
ENDBRANCH   1   2
BRANCH   1  27
ATOM     27  C   UNL A   1      33.279  28.987  27.291  1.00  0.00     0.118 C 
BRANCH  27  28
ATOM     28  N   UNL A   1      33.339  30.439  27.344  1.00  0.00    -0.352 N 
ATOM     29  C   UNL A   1      34.280  31.300  27.862  1.00  0.00     0.251 C 
ATOM     30  H   UNL A   1      32.566  30.889  26.934  1.00  0.00     0.163 HD
ATOM     31  O   UNL A   1      34.023  32.503  27.876  1.00  0.00    -0.269 OA
BRANCH  29  32
ATOM     32  C   UNL A   1      35.563  30.814  28.431  1.00  0.00     0.039 A 
ATOM     33  C   UNL A   1      35.529  29.859  29.452  1.00  0.00     0.014 A 
ATOM     34  C   UNL A   1      36.798  31.298  28.001  1.00  0.00     0.014 A 
ATOM     35  C   UNL A   1      36.723  29.353  29.979  1.00  0.00     0.010 A 
ATOM     36  C   UNL A   1      37.978  30.687  28.415  1.00  0.00     0.010 A 
ATOM     37  C   UNL A   1      37.961  29.728  29.433  1.00  0.00    -0.014 A 
BRANCH  37  38
ATOM     38  C   UNL A   1      39.239  29.161  29.947  1.00  0.00     0.031 A 
ATOM     39  C   UNL A   1      39.863  29.705  31.208  1.00  0.00     0.074 A 
ATOM     40  C   UNL A   1      39.855  28.175  29.263  1.00  0.00     0.049 A 
ATOM     41  N   UNL A   1      40.965  29.338  31.814  1.00  0.00    -0.248 NA
ATOM     42  C   UNL A   1      39.181  30.837  31.853  1.00  0.00     0.031 C 
ATOM     43  C   UNL A   1      39.386  27.606  27.997  1.00  0.00     0.029 A 
ATOM     44  N   UNL A   1      40.997  27.466  29.539  1.00  0.00    -0.354 N 
ATOM     45  C   UNL A   1      41.106  30.198  32.900  1.00  0.00     0.074 A 
ATOM     46  C   UNL A   1      40.033  31.163  32.810  1.00  0.00     0.031 C 
ATOM     47  C   UNL A   1      40.194  26.596  27.641  1.00  0.00     0.029 A 
ATOM     48  C   UNL A   1      41.267  26.475  28.623  1.00  0.00     0.049 A 
ATOM     49  H   UNL A   1      41.569  27.650  30.318  1.00  0.00     0.167 HD
ATOM     50  C   UNL A   1      42.020  30.165  33.903  1.00  0.00     0.034 A 
ATOM     51  C   UNL A   1      42.262  25.566  28.582  1.00  0.00     0.034 A 
ATOM     52  C   UNL A   1      43.080  29.189  33.979  1.00  0.00     0.049 A 
ATOM     53  C   UNL A   1      43.278  25.555  29.695  1.00  0.00     0.074 A 
ATOM     54  C   UNL A   1      44.038  29.031  34.965  1.00  0.00     0.029 A 
ATOM     55  N   UNL A   1      43.329  28.208  33.026  1.00  0.00    -0.354 N 
ATOM     56  N   UNL A   1      43.365  26.339  30.745  1.00  0.00    -0.248 NA
ATOM     57  C   UNL A   1      44.320  24.523  29.624  1.00  0.00     0.031 C 
ATOM     58  C   UNL A   1      44.908  28.008  34.571  1.00  0.00     0.029 A 
ATOM     59  C   UNL A   1      44.441  27.462  33.387  1.00  0.00     0.049 A 
ATOM     60  H   UNL A   1      42.792  28.064  32.213  1.00  0.00     0.167 HD
ATOM     61  C   UNL A   1      44.449  25.867  31.482  1.00  0.00     0.074 A 
ATOM     62  C   UNL A   1      44.972  24.725  30.759  1.00  0.00     0.031 C 
ATOM     63  C   UNL A   1      44.960  26.331  32.652  1.00  0.00     0.034 A 
BRANCH  50  64
ATOM     64  C   UNL A   1      41.913  31.229  34.974  1.00  0.00     0.023 A 
ATOM     65  C   UNL A   1      40.846  31.248  35.892  1.00  0.00     0.031 A 
ATOM     66  C   UNL A   1      42.857  32.267  35.052  1.00  0.00     0.131 A 
ATOM     67  C   UNL A   1      40.693  32.330  36.773  1.00  0.00     0.055 A 
ATOM     68  C   UNL A   1      42.754  33.290  35.998  1.00  0.00     0.041 A 
ATOM     69  F   UNL A   1      43.887  32.323  34.191  1.00  0.00    -0.206 F 
ATOM     70  C   UNL A   1      41.657  33.337  36.852  1.00  0.00     0.022 A 
BRANCH  67  71
ATOM     71  S   UNL A   1      39.128  32.495  37.675  1.00  0.00     0.124 S 
ATOM     72  O   UNL A   1      39.577  32.417  39.063  1.00  0.00    -0.237 OA
ATOM     73  O   UNL A   1      38.642  33.796  37.231  1.00  0.00    -0.237 OA
ATOM     74  O   UNL A   1      38.347  31.347  37.217  1.00  0.00    -0.744 OA
ENDBRANCH  67  71
ENDBRANCH  50  64
BRANCH  51  75
ATOM     75  C   UNL A   1      42.333  24.577  27.468  1.00  0.00     0.023 A 
ATOM     76  C   UNL A   1      41.559  23.404  27.491  1.00  0.00     0.031 A 
ATOM     77  C   UNL A   1      43.193  24.775  26.374  1.00  0.00     0.131 A 
ATOM     78  C   UNL A   1      41.693  22.456  26.465  1.00  0.00     0.055 A 
ATOM     79  C   UNL A   1      43.282  23.855  25.327  1.00  0.00     0.041 A 
ATOM     80  F   UNL A   1      43.954  25.880  26.299  1.00  0.00    -0.206 F 
ATOM     81  C   UNL A   1      42.537  22.681  25.376  1.00  0.00     0.022 A 
BRANCH  78  82
ATOM     82  S   UNL A   1      40.807  20.880  26.615  1.00  0.00     0.124 S 
ATOM     83  O   UNL A   1      40.779  20.692  28.061  1.00  0.00    -0.237 OA
ATOM     84  O   UNL A   1      39.528  21.190  25.983  1.00  0.00    -0.237 OA
ATOM     85  O   UNL A   1      41.652  19.944  25.878  1.00  0.00    -0.744 OA
ENDBRANCH  78  82
ENDBRANCH  51  75
BRANCH  63  86
ATOM     86  C   UNL A   1      46.114  25.559  33.249  1.00  0.00     0.023 A 
ATOM     87  C   UNL A   1      45.917  24.506  34.158  1.00  0.00     0.031 A 
ATOM     88  C   UNL A   1      47.438  25.905  32.918  1.00  0.00     0.131 A 
ATOM     89  C   UNL A   1      47.022  23.888  34.762  1.00  0.00     0.055 A 
ATOM     90  C   UNL A   1      48.532  25.235  33.465  1.00  0.00     0.041 A 
ATOM     91  F   UNL A   1      47.688  26.906  32.057  1.00  0.00    -0.206 F 
ATOM     92  C   UNL A   1      48.328  24.232  34.406  1.00  0.00     0.022 A 
BRANCH  89  93
ATOM     93  S   UNL A   1      46.729  22.712  36.113  1.00  0.00     0.124 S 
ATOM     94  O   UNL A   1      47.846  21.787  35.956  1.00  0.00    -0.237 OA
ATOM     95  O   UNL A   1      46.775  23.573  37.290  1.00  0.00    -0.237 OA
ATOM     96  O   UNL A   1      45.413  22.155  35.802  1.00  0.00    -0.744 OA
ENDBRANCH  89  93
ENDBRANCH  63  86
ENDBRANCH  37  38
ENDBRANCH  29  32
ENDBRANCH  27  28
ENDBRANCH   1  27
TORSDOF 15
ENDMDL
