MODEL 1
REMARK VINA RESULT:     -11.3      0.000      0.000
REMARK SMILES C[NH2+][C@@]1(C(=O)NCCCNC(=O)c2ccc(-c3c4nc(c(-c5cc(S(=O)(=O)[O-])ccc5F)c5ccc([nH]5)c(-c5cc(S(=O)(=O)[O-])ccc5F)c5nc(c(-c6cc(S(=O)(=O)[O-])ccc6F)c6ccc3[nH]6)C=C5)C=C4)cc2)CC[C@H](SC2CCOCC2)C1
REMARK SMILES IDX 8 1 7 2 6 3 4 4 5 5 3 7 76 8 86 9 77 10 78 11 2 12 1 13
REMARK SMILES IDX 79 16 80 17 81 18 85 19 82 20 84 21 83 22 9 23 10 24 11 25
REMARK SMILES IDX 12 27 13 28 14 29 75 30 15 31 74 32 16 33 17 34 18 35 68 36
REMARK SMILES IDX 19 37 73 38 67 39 69 40 20 41 72 42 66 43 65 44 21 46 53 47
REMARK SMILES IDX 33 48 52 49 34 50 37 51 51 52 70 53 35 54 36 55 50 57 71 58
REMARK SMILES IDX 38 59 22 60 23 61 31 62 24 63 30 64 32 65 29 66 25 67 26 68
REMARK SMILES IDX 27 69 28 70 54 71 55 72 63 73 56 74 62 75 64 76 61 77 57 78
REMARK SMILES IDX 58 79 59 80 60 81 39 82 40 83 48 84 41 85 47 86 49 87 46 88
REMARK SMILES IDX 42 89 43 90 44 91 45 92
REMARK H PARENT 6 6 2 14 2 15 10 26 69 45 37 56
REMARK Flexibility Score: inf
ROOT
ATOM      1  C   UNL A   1      32.198  29.703  25.293  1.00  0.00     0.042 C 
ENDROOT
BRANCH   1   2
ATOM      2  C   UNL A   1      33.563  29.043  25.259  1.00  0.00     0.118 C 
BRANCH   2   3
ATOM      3  N   UNL A   1      33.988  28.579  23.964  1.00  0.00    -0.351 N 
ATOM      4  C   UNL A   1      33.731  27.414  23.315  1.00  0.00     0.281 C 
ATOM      5  O   UNL A   1      33.888  27.465  22.083  1.00  0.00    -0.268 OA
ATOM      6  H   UNL A   1      34.558  29.210  23.467  1.00  0.00     0.163 HD
BRANCH   4   7
ATOM      7  C   UNL A   1      33.235  26.058  23.987  1.00  0.00     0.176 C 
ATOM      8  C   UNL A   1      32.985  24.970  22.929  1.00  0.00     0.080 C 
ATOM      9  C   UNL A   1      31.930  26.089  24.801  1.00  0.00     0.093 C 
ATOM     10  C   UNL A   1      31.480  24.960  22.669  1.00  0.00     0.022 C 
ATOM     11  C   UNL A   1      30.841  25.306  24.012  1.00  0.00     0.054 C 
BRANCH   7  12
ATOM     12  N   UNL A   1      34.381  25.573  24.832  1.00  0.00    -0.336 N 
ATOM     13  C   UNL A   1      34.030  24.473  25.733  1.00  0.00     0.331 C 
ATOM     14  H   UNL A   1      35.124  25.253  24.211  1.00  0.00     0.346 HD
ATOM     15  H   UNL A   1      34.669  26.356  25.419  1.00  0.00     0.346 HD
ENDBRANCH   7  12
BRANCH  11  16
ATOM     16  S   UNL A   1      29.271  26.242  24.256  1.00  0.00    -0.155 SA
BRANCH  16  17
ATOM     17  C   UNL A   1      29.350  27.915  23.494  1.00  0.00     0.051 C 
ATOM     18  C   UNL A   1      27.944  28.391  23.126  1.00  0.00     0.043 C 
ATOM     19  C   UNL A   1      30.336  28.226  22.376  1.00  0.00     0.043 C 
ATOM     20  C   UNL A   1      27.992  29.851  22.683  1.00  0.00     0.161 C 
ATOM     21  C   UNL A   1      30.251  29.703  22.001  1.00  0.00     0.161 C 
ATOM     22  O   UNL A   1      28.918  30.025  21.609  1.00  0.00    -0.381 OA
ENDBRANCH  16  17
ENDBRANCH  11  16
ENDBRANCH   4   7
ENDBRANCH   2   3
ENDBRANCH   1   2
BRANCH   1  23
ATOM     23  C   UNL A   1      31.861  30.299  26.648  1.00  0.00     0.118 C 
BRANCH  23  24
ATOM     24  N   UNL A   1      31.985  31.756  26.656  1.00  0.00    -0.352 N 
ATOM     25  C   UNL A   1      32.824  32.622  27.316  1.00  0.00     0.251 C 
ATOM     26  H   UNL A   1      31.337  32.208  26.069  1.00  0.00     0.163 HD
ATOM     27  O   UNL A   1      32.504  33.811  27.349  1.00  0.00    -0.269 OA
BRANCH  25  28
ATOM     28  C   UNL A   1      34.063  32.175  28.001  1.00  0.00     0.039 A 
ATOM     29  C   UNL A   1      35.094  33.101  28.217  1.00  0.00     0.014 A 
ATOM     30  C   UNL A   1      34.269  30.851  28.376  1.00  0.00     0.014 A 
ATOM     31  C   UNL A   1      36.275  32.709  28.859  1.00  0.00     0.010 A 
ATOM     32  C   UNL A   1      35.378  30.493  29.135  1.00  0.00     0.010 A 
ATOM     33  C   UNL A   1      36.411  31.409  29.368  1.00  0.00    -0.014 A 
BRANCH  33  34
ATOM     34  C   UNL A   1      37.626  30.960  30.105  1.00  0.00     0.031 A 
ATOM     35  C   UNL A   1      38.600  30.013  29.444  1.00  0.00     0.074 A 
ATOM     36  C   UNL A   1      37.807  31.321  31.391  1.00  0.00     0.049 A 
ATOM     37  N   UNL A   1      39.623  29.378  29.959  1.00  0.00    -0.248 NA
ATOM     38  C   UNL A   1      38.359  29.702  28.027  1.00  0.00     0.031 C 
ATOM     39  C   UNL A   1      36.916  32.193  32.160  1.00  0.00     0.029 A 
ATOM     40  N   UNL A   1      38.794  30.990  32.286  1.00  0.00    -0.354 N 
ATOM     41  C   UNL A   1      40.118  28.567  28.941  1.00  0.00     0.074 A 
ATOM     42  C   UNL A   1      39.238  28.738  27.806  1.00  0.00     0.031 C 
ATOM     43  C   UNL A   1      37.414  32.355  33.396  1.00  0.00     0.029 A 
ATOM     44  C   UNL A   1      38.624  31.551  33.531  1.00  0.00     0.049 A 
ATOM     45  H   UNL A   1      39.552  30.405  32.059  1.00  0.00     0.167 HD
ATOM     46  C   UNL A   1      41.220  27.776  28.942  1.00  0.00     0.034 A 
ATOM     47  C   UNL A   1      39.350  31.422  34.659  1.00  0.00     0.034 A 
ATOM     48  C   UNL A   1      42.110  27.650  30.071  1.00  0.00     0.049 A 
ATOM     49  C   UNL A   1      40.571  30.537  34.640  1.00  0.00     0.074 A 
ATOM     50  C   UNL A   1      43.293  26.939  30.161  1.00  0.00     0.029 A 
ATOM     51  N   UNL A   1      41.915  28.253  31.308  1.00  0.00    -0.354 N 
ATOM     52  N   UNL A   1      41.051  29.811  33.655  1.00  0.00    -0.248 NA
ATOM     53  C   UNL A   1      41.351  30.460  35.880  1.00  0.00     0.031 C 
ATOM     54  C   UNL A   1      43.776  27.055  31.470  1.00  0.00     0.029 A 
ATOM     55  C   UNL A   1      42.939  27.905  32.175  1.00  0.00     0.049 A 
ATOM     56  H   UNL A   1      41.158  28.841  31.535  1.00  0.00     0.167 HD
ATOM     57  C   UNL A   1      42.209  29.218  34.151  1.00  0.00     0.074 A 
ATOM     58  C   UNL A   1      42.361  29.684  35.515  1.00  0.00     0.031 C 
ATOM     59  C   UNL A   1      43.071  28.370  33.535  1.00  0.00     0.034 A 
BRANCH  46  60
ATOM     60  C   UNL A   1      41.507  26.975  27.691  1.00  0.00     0.023 A 
ATOM     61  C   UNL A   1      41.216  25.602  27.606  1.00  0.00     0.031 A 
ATOM     62  C   UNL A   1      42.115  27.583  26.577  1.00  0.00     0.131 A 
ATOM     63  C   UNL A   1      41.617  24.866  26.480  1.00  0.00     0.055 A 
ATOM     64  C   UNL A   1      42.425  26.863  25.421  1.00  0.00     0.041 A 
ATOM     65  F   UNL A   1      42.437  28.886  26.600  1.00  0.00    -0.206 F 
ATOM     66  C   UNL A   1      42.194  25.492  25.375  1.00  0.00     0.022 A 
BRANCH  63  67
ATOM     67  S   UNL A   1      41.523  23.056  26.556  1.00  0.00     0.124 S 
ATOM     68  O   UNL A   1      40.079  22.834  26.500  1.00  0.00    -0.237 OA
ATOM     69  O   UNL A   1      42.278  22.650  25.378  1.00  0.00    -0.237 OA
ATOM     70  O   UNL A   1      42.144  22.734  27.840  1.00  0.00    -0.744 OA
ENDBRANCH  63  67
ENDBRANCH  46  60
BRANCH  47  71
ATOM     71  C   UNL A   1      38.950  32.141  35.903  1.00  0.00     0.023 A 
ATOM     72  C   UNL A   1      38.212  31.492  36.904  1.00  0.00     0.031 A 
ATOM     73  C   UNL A   1      39.270  33.497  36.096  1.00  0.00     0.131 A 
ATOM     74  C   UNL A   1      37.777  32.206  38.031  1.00  0.00     0.055 A 
ATOM     75  C   UNL A   1      38.883  34.190  37.245  1.00  0.00     0.041 A 
ATOM     76  F   UNL A   1      39.981  34.165  35.174  1.00  0.00    -0.206 F 
ATOM     77  C   UNL A   1      38.120  33.548  38.215  1.00  0.00     0.022 A 
BRANCH  74  78
ATOM     78  S   UNL A   1      36.683  31.378  39.216  1.00  0.00     0.124 S 
ATOM     79  O   UNL A   1      37.513  31.348  40.415  1.00  0.00    -0.237 OA
ATOM     80  O   UNL A   1      35.537  32.280  39.251  1.00  0.00    -0.237 OA
ATOM     81  O   UNL A   1      36.431  30.078  38.597  1.00  0.00    -0.744 OA
ENDBRANCH  74  78
ENDBRANCH  47  71
BRANCH  59  82
ATOM     82  C   UNL A   1      44.283  27.933  34.322  1.00  0.00     0.023 A 
ATOM     83  C   UNL A   1      44.287  26.750  35.080  1.00  0.00     0.031 A 
ATOM     84  C   UNL A   1      45.447  28.722  34.320  1.00  0.00     0.131 A 
ATOM     85  C   UNL A   1      45.413  26.417  35.848  1.00  0.00     0.055 A 
ATOM     86  C   UNL A   1      46.586  28.354  35.035  1.00  0.00     0.041 A 
ATOM     87  F   UNL A   1      45.497  29.865  33.617  1.00  0.00    -0.206 F 
ATOM     88  C   UNL A   1      46.569  27.202  35.817  1.00  0.00     0.022 A 
BRANCH  85  89
ATOM     89  S   UNL A   1      45.312  24.994  36.968  1.00  0.00     0.124 S 
ATOM     90  O   UNL A   1      44.276  24.184  36.336  1.00  0.00    -0.237 OA
ATOM     91  O   UNL A   1      46.667  24.455  36.911  1.00  0.00    -0.237 OA
ATOM     92  O   UNL A   1      44.938  25.592  38.249  1.00  0.00    -0.744 OA
ENDBRANCH  85  89
ENDBRANCH  59  82
ENDBRANCH  33  34
ENDBRANCH  25  28
ENDBRANCH  23  24
ENDBRANCH   1  23
TORSDOF 16
ENDMDL
MODEL 2
REMARK VINA RESULT:     -11.3      2.548      3.089
REMARK SMILES C[NH2+][C@@]1(C(=O)NCCCNC(=O)c2ccc(-c3c4nc(c(-c5cc(S(=O)(=O)[O-])ccc5F)c5ccc([nH]5)c(-c5cc(S(=O)(=O)[O-])ccc5F)c5nc(c(-c6cc(S(=O)(=O)[O-])ccc6F)c6ccc3[nH]6)C=C5)C=C4)cc2)CC[C@H](SC2CCOCC2)C1
REMARK SMILES IDX 8 1 7 2 6 3 4 4 5 5 3 7 76 8 86 9 77 10 78 11 2 12 1 13
REMARK SMILES IDX 79 16 80 17 81 18 85 19 82 20 84 21 83 22 9 23 10 24 11 25
REMARK SMILES IDX 12 27 13 28 14 29 75 30 15 31 74 32 16 33 17 34 18 35 68 36
REMARK SMILES IDX 19 37 73 38 67 39 69 40 20 41 72 42 66 43 65 44 21 46 53 47
REMARK SMILES IDX 33 48 52 49 34 50 37 51 51 52 70 53 35 54 36 55 50 57 71 58
REMARK SMILES IDX 38 59 22 60 23 61 31 62 24 63 30 64 32 65 29 66 25 67 26 68
REMARK SMILES IDX 27 69 28 70 54 71 55 72 63 73 56 74 62 75 64 76 61 77 57 78
REMARK SMILES IDX 58 79 59 80 60 81 39 82 40 83 48 84 41 85 47 86 49 87 46 88
REMARK SMILES IDX 42 89 43 90 44 91 45 92
REMARK H PARENT 6 6 2 14 2 15 10 26 69 45 37 56
REMARK Flexibility Score: inf
ROOT
ATOM      1  C   UNL A   1      31.341  31.790  26.351  1.00  0.00     0.042 C 
ENDROOT
BRANCH   1   2
ATOM      2  C   UNL A   1      31.441  30.393  25.768  1.00  0.00     0.118 C 
BRANCH   2   3
ATOM      3  N   UNL A   1      32.576  29.624  26.206  1.00  0.00    -0.351 N 
ATOM      4  C   UNL A   1      33.218  28.583  25.615  1.00  0.00     0.281 C 
ATOM      5  O   UNL A   1      34.378  28.395  26.021  1.00  0.00    -0.268 OA
ATOM      6  H   UNL A   1      32.949  29.898  27.075  1.00  0.00     0.163 HD
BRANCH   4   7
ATOM      7  C   UNL A   1      32.626  27.647  24.470  1.00  0.00     0.176 C 
ATOM      8  C   UNL A   1      33.101  28.101  23.079  1.00  0.00     0.080 C 
ATOM      9  C   UNL A   1      31.098  27.557  24.328  1.00  0.00     0.093 C 
ATOM     10  C   UNL A   1      31.961  28.926  22.484  1.00  0.00     0.022 C 
ATOM     11  C   UNL A   1      30.682  28.282  23.015  1.00  0.00     0.054 C 
BRANCH   7  12
ATOM     12  N   UNL A   1      33.225  26.286  24.698  1.00  0.00    -0.336 N 
ATOM     13  C   UNL A   1      33.687  25.629  23.474  1.00  0.00     0.331 C 
ATOM     14  H   UNL A   1      34.021  26.387  25.328  1.00  0.00     0.346 HD
ATOM     15  H   UNL A   1      32.487  25.700  25.089  1.00  0.00     0.346 HD
ENDBRANCH   7  12
BRANCH  11  16
ATOM     16  S   UNL A   1      29.106  29.157  23.400  1.00  0.00    -0.155 SA
BRANCH  16  17
ATOM     17  C   UNL A   1      28.970  30.748  22.485  1.00  0.00     0.051 C 
ATOM     18  C   UNL A   1      28.658  31.887  23.456  1.00  0.00     0.043 C 
ATOM     19  C   UNL A   1      28.120  30.864  21.226  1.00  0.00     0.043 C 
ATOM     20  C   UNL A   1      28.745  33.226  22.729  1.00  0.00     0.161 C 
ATOM     21  C   UNL A   1      28.265  32.259  20.625  1.00  0.00     0.161 C 
ATOM     22  O   UNL A   1      27.885  33.240  21.588  1.00  0.00    -0.381 OA
ENDBRANCH  16  17
ENDBRANCH  11  16
ENDBRANCH   4   7
ENDBRANCH   2   3
ENDBRANCH   1   2
BRANCH   1  23
ATOM     23  C   UNL A   1      32.605  32.223  27.071  1.00  0.00     0.118 C 
BRANCH  23  24
ATOM     24  N   UNL A   1      32.553  33.624  27.484  1.00  0.00    -0.352 N 
ATOM     25  C   UNL A   1      33.184  34.333  28.478  1.00  0.00     0.251 C 
ATOM     26  H   UNL A   1      31.941  34.171  26.940  1.00  0.00     0.163 HD
ATOM     27  O   UNL A   1      32.724  35.437  28.772  1.00  0.00    -0.269 OA
BRANCH  25  28
ATOM     28  C   UNL A   1      34.362  33.810  29.214  1.00  0.00     0.039 A 
ATOM     29  C   UNL A   1      34.165  32.873  30.239  1.00  0.00     0.014 A 
ATOM     30  C   UNL A   1      35.654  34.267  28.971  1.00  0.00     0.014 A 
ATOM     31  C   UNL A   1      35.257  32.362  30.953  1.00  0.00     0.010 A 
ATOM     32  C   UNL A   1      36.748  33.660  29.580  1.00  0.00     0.010 A 
ATOM     33  C   UNL A   1      36.567  32.716  30.598  1.00  0.00    -0.014 A 
BRANCH  33  34
ATOM     34  C   UNL A   1      37.763  32.159  31.290  1.00  0.00     0.031 A 
ATOM     35  C   UNL A   1      38.546  31.034  30.653  1.00  0.00     0.074 A 
ATOM     36  C   UNL A   1      38.092  32.592  32.523  1.00  0.00     0.049 A 
ATOM     37  N   UNL A   1      39.510  30.303  31.153  1.00  0.00    -0.248 NA
ATOM     38  C   UNL A   1      38.154  30.649  29.288  1.00  0.00     0.031 C 
ATOM     39  C   UNL A   1      37.391  33.640  33.268  1.00  0.00     0.029 A 
ATOM     40  N   UNL A   1      39.093  32.197  33.376  1.00  0.00    -0.354 N 
ATOM     41  C   UNL A   1      39.809  29.352  30.182  1.00  0.00     0.074 A 
ATOM     42  C   UNL A   1      38.874  29.555  29.097  1.00  0.00     0.031 C 
ATOM     43  C   UNL A   1      38.001  33.828  34.448  1.00  0.00     0.029 A 
ATOM     44  C   UNL A   1      39.099  32.874  34.574  1.00  0.00     0.049 A 
ATOM     45  H   UNL A   1      39.744  31.494  33.152  1.00  0.00     0.167 HD
ATOM     46  C   UNL A   1      40.791  28.415  30.180  1.00  0.00     0.034 A 
ATOM     47  C   UNL A   1      39.887  32.733  35.659  1.00  0.00     0.034 A 
ATOM     48  C   UNL A   1      41.741  28.255  31.254  1.00  0.00     0.049 A 
ATOM     49  C   UNL A   1      40.971  31.686  35.637  1.00  0.00     0.074 A 
ATOM     50  C   UNL A   1      42.820  27.393  31.329  1.00  0.00     0.029 A 
ATOM     51  N   UNL A   1      41.727  28.976  32.442  1.00  0.00    -0.354 N 
ATOM     52  N   UNL A   1      41.269  30.823  34.692  1.00  0.00    -0.248 NA
ATOM     53  C   UNL A   1      41.828  31.598  36.825  1.00  0.00     0.031 C 
ATOM     54  C   UNL A   1      43.416  27.543  32.586  1.00  0.00     0.029 A 
ATOM     55  C   UNL A   1      42.760  28.556  33.267  1.00  0.00     0.049 A 
ATOM     56  H   UNL A   1      41.077  29.682  32.665  1.00  0.00     0.167 HD
ATOM     57  C   UNL A   1      42.371  30.113  35.161  1.00  0.00     0.074 A 
ATOM     58  C   UNL A   1      42.692  30.659  36.464  1.00  0.00     0.031 C 
ATOM     59  C   UNL A   1      43.060  29.105  34.568  1.00  0.00     0.034 A 
BRANCH  46  60
ATOM     60  C   UNL A   1      40.867  27.485  28.990  1.00  0.00     0.023 A 
ATOM     61  C   UNL A   1      41.829  27.653  27.977  1.00  0.00     0.031 A 
ATOM     62  C   UNL A   1      39.941  26.436  28.842  1.00  0.00     0.131 A 
ATOM     63  C   UNL A   1      41.785  26.852  26.826  1.00  0.00     0.055 A 
ATOM     64  C   UNL A   1      39.963  25.582  27.737  1.00  0.00     0.041 A 
ATOM     65  F   UNL A   1      38.985  26.233  29.762  1.00  0.00    -0.206 F 
ATOM     66  C   UNL A   1      40.877  25.799  26.710  1.00  0.00     0.022 A 
BRANCH  63  67
ATOM     67  S   UNL A   1      42.823  27.318  25.413  1.00  0.00     0.124 S 
ATOM     68  O   UNL A   1      44.047  27.758  26.079  1.00  0.00    -0.237 OA
ATOM     69  O   UNL A   1      42.916  26.072  24.663  1.00  0.00    -0.237 OA
ATOM     70  O   UNL A   1      42.060  28.384  24.764  1.00  0.00    -0.744 OA
ENDBRANCH  63  67
ENDBRANCH  46  60
BRANCH  47  71
ATOM     71  C   UNL A   1      39.686  33.599  36.857  1.00  0.00     0.023 A 
ATOM     72  C   UNL A   1      40.524  34.699  37.098  1.00  0.00     0.031 A 
ATOM     73  C   UNL A   1      38.678  33.321  37.796  1.00  0.00     0.131 A 
ATOM     74  C   UNL A   1      40.369  35.455  38.270  1.00  0.00     0.055 A 
ATOM     75  C   UNL A   1      38.492  34.109  38.934  1.00  0.00     0.041 A 
ATOM     76  F   UNL A   1      37.844  32.285  37.612  1.00  0.00    -0.206 F 
ATOM     77  C   UNL A   1      39.350  35.175  39.184  1.00  0.00     0.022 A 
BRANCH  74  78
ATOM     78  S   UNL A   1      41.577  36.759  38.628  1.00  0.00     0.124 S 
ATOM     79  O   UNL A   1      42.517  36.062  39.498  1.00  0.00    -0.237 OA
ATOM     80  O   UNL A   1      42.064  37.095  37.294  1.00  0.00    -0.237 OA
ATOM     81  O   UNL A   1      40.776  37.796  39.275  1.00  0.00    -0.744 OA
ENDBRANCH  74  78
ENDBRANCH  47  71
BRANCH  59  82
ATOM     82  C   UNL A   1      44.259  28.565  35.308  1.00  0.00     0.023 A 
ATOM     83  C   UNL A   1      44.139  27.548  36.271  1.00  0.00     0.031 A 
ATOM     84  C   UNL A   1      45.540  29.086  35.052  1.00  0.00     0.131 A 
ATOM     85  C   UNL A   1      45.272  27.123  36.981  1.00  0.00     0.055 A 
ATOM     86  C   UNL A   1      46.672  28.615  35.715  1.00  0.00     0.041 A 
ATOM     87  F   UNL A   1      45.712  30.062  34.145  1.00  0.00    -0.206 F 
ATOM     88  C   UNL A   1      46.540  27.637  36.698  1.00  0.00     0.022 A 
BRANCH  85  89
ATOM     89  S   UNL A   1      45.052  25.957  38.353  1.00  0.00     0.124 S 
ATOM     90  O   UNL A   1      43.937  26.553  39.082  1.00  0.00    -0.237 OA
ATOM     91  O   UNL A   1      44.763  24.707  37.657  1.00  0.00    -0.237 OA
ATOM     92  O   UNL A   1      46.338  25.996  39.046  1.00  0.00    -0.744 OA
ENDBRANCH  85  89
ENDBRANCH  59  82
ENDBRANCH  33  34
ENDBRANCH  25  28
ENDBRANCH  23  24
ENDBRANCH   1  23
TORSDOF 16
ENDMDL
MODEL 3
REMARK VINA RESULT:     -11.2      2.322      7.994
REMARK SMILES C[NH2+][C@@]1(C(=O)NCCCNC(=O)c2ccc(-c3c4nc(c(-c5cc(S(=O)(=O)[O-])ccc5F)c5ccc([nH]5)c(-c5cc(S(=O)(=O)[O-])ccc5F)c5nc(c(-c6cc(S(=O)(=O)[O-])ccc6F)c6ccc3[nH]6)C=C5)C=C4)cc2)CC[C@H](SC2CCOCC2)C1
REMARK SMILES IDX 8 1 7 2 6 3 4 4 5 5 3 7 76 8 86 9 77 10 78 11 2 12 1 13
REMARK SMILES IDX 79 16 80 17 81 18 85 19 82 20 84 21 83 22 9 23 10 24 11 25
REMARK SMILES IDX 12 27 13 28 14 29 75 30 15 31 74 32 16 33 17 34 18 35 68 36
REMARK SMILES IDX 19 37 73 38 67 39 69 40 20 41 72 42 66 43 65 44 21 46 53 47
REMARK SMILES IDX 33 48 52 49 34 50 37 51 51 52 70 53 35 54 36 55 50 57 71 58
REMARK SMILES IDX 38 59 22 60 23 61 31 62 24 63 30 64 32 65 29 66 25 67 26 68
REMARK SMILES IDX 27 69 28 70 54 71 55 72 63 73 56 74 62 75 64 76 61 77 57 78
REMARK SMILES IDX 58 79 59 80 60 81 39 82 40 83 48 84 41 85 47 86 49 87 46 88
REMARK SMILES IDX 42 89 43 90 44 91 45 92
REMARK H PARENT 6 6 2 14 2 15 10 26 69 45 37 56
REMARK Flexibility Score: inf
ROOT
ATOM      1  C   UNL A   1      32.292  28.900  27.114  1.00  0.00     0.042 C 
ENDROOT
BRANCH   1   2
ATOM      2  C   UNL A   1      32.307  27.432  26.731  1.00  0.00     0.118 C 
BRANCH   2   3
ATOM      3  N   UNL A   1      31.052  26.744  26.887  1.00  0.00    -0.351 N 
ATOM      4  C   UNL A   1      30.339  25.997  26.004  1.00  0.00     0.281 C 
ATOM      5  O   UNL A   1      29.527  25.216  26.528  1.00  0.00    -0.268 OA
ATOM      6  H   UNL A   1      30.645  26.826  27.780  1.00  0.00     0.163 HD
BRANCH   4   7
ATOM      7  C   UNL A   1      30.486  26.031  24.418  1.00  0.00     0.176 C 
ATOM      8  C   UNL A   1      31.651  26.938  23.986  1.00  0.00     0.080 C 
ATOM      9  C   UNL A   1      29.294  26.541  23.592  1.00  0.00     0.093 C 
ATOM     10  C   UNL A   1      31.030  28.276  23.588  1.00  0.00     0.022 C 
ATOM     11  C   UNL A   1      29.673  27.921  22.981  1.00  0.00     0.054 C 
BRANCH   7  12
ATOM     12  N   UNL A   1      30.863  24.633  24.009  1.00  0.00    -0.336 N 
ATOM     13  C   UNL A   1      32.187  24.215  24.476  1.00  0.00     0.331 C 
ATOM     14  H   UNL A   1      30.170  23.990  24.391  1.00  0.00     0.346 HD
ATOM     15  H   UNL A   1      30.891  24.621  22.989  1.00  0.00     0.346 HD
ENDBRANCH   7  12
BRANCH  11  16
ATOM     16  S   UNL A   1      28.145  28.949  23.067  1.00  0.00    -0.155 SA
BRANCH  16  17
ATOM     17  C   UNL A   1      28.415  30.631  22.371  1.00  0.00     0.051 C 
ATOM     18  C   UNL A   1      27.991  31.693  23.386  1.00  0.00     0.043 C 
ATOM     19  C   UNL A   1      27.929  30.994  20.974  1.00  0.00     0.043 C 
ATOM     20  C   UNL A   1      28.402  33.076  22.890  1.00  0.00     0.161 C 
ATOM     21  C   UNL A   1      28.368  32.411  20.621  1.00  0.00     0.161 C 
ATOM     22  O   UNL A   1      27.865  33.328  21.590  1.00  0.00    -0.381 OA
ENDBRANCH  16  17
ENDBRANCH  11  16
ENDBRANCH   4   7
ENDBRANCH   2   3
ENDBRANCH   1   2
BRANCH   1  23
ATOM     23  C   UNL A   1      33.265  29.735  26.302  1.00  0.00     0.118 C 
BRANCH  23  24
ATOM     24  N   UNL A   1      33.363  31.106  26.797  1.00  0.00    -0.352 N 
ATOM     25  C   UNL A   1      34.179  31.713  27.722  1.00  0.00     0.251 C 
ATOM     26  H   UNL A   1      32.713  31.720  26.385  1.00  0.00     0.163 HD
ATOM     27  O   UNL A   1      33.838  32.818  28.145  1.00  0.00    -0.269 OA
BRANCH  25  28
ATOM     28  C   UNL A   1      35.418  31.080  28.239  1.00  0.00     0.039 A 
ATOM     29  C   UNL A   1      36.647  31.725  28.040  1.00  0.00     0.014 A 
ATOM     30  C   UNL A   1      35.413  29.831  28.853  1.00  0.00     0.014 A 
ATOM     31  C   UNL A   1      37.834  31.151  28.514  1.00  0.00     0.010 A 
ATOM     32  C   UNL A   1      36.568  29.328  29.446  1.00  0.00     0.010 A 
ATOM     33  C   UNL A   1      37.801  29.967  29.266  1.00  0.00    -0.014 A 
BRANCH  33  34
ATOM     34  C   UNL A   1      39.028  29.345  29.838  1.00  0.00     0.031 A 
ATOM     35  C   UNL A   1      39.657  29.928  31.082  1.00  0.00     0.074 A 
ATOM     36  C   UNL A   1      39.631  28.325  29.195  1.00  0.00     0.049 A 
ATOM     37  N   UNL A   1      40.804  29.645  31.646  1.00  0.00    -0.248 NA
ATOM     38  C   UNL A   1      38.916  31.009  31.750  1.00  0.00     0.031 C 
ATOM     39  C   UNL A   1      39.151  27.701  27.960  1.00  0.00     0.029 A 
ATOM     40  N   UNL A   1      40.785  27.639  29.482  1.00  0.00    -0.354 N 
ATOM     41  C   UNL A   1      40.938  30.537  32.706  1.00  0.00     0.074 A 
ATOM     42  C   UNL A   1      39.789  31.415  32.658  1.00  0.00     0.031 C 
ATOM     43  C   UNL A   1      39.983  26.705  27.616  1.00  0.00     0.029 A 
ATOM     44  C   UNL A   1      41.088  26.657  28.567  1.00  0.00     0.049 A 
ATOM     45  H   UNL A   1      41.343  27.832  30.269  1.00  0.00     0.167 HD
ATOM     46  C   UNL A   1      41.911  30.600  33.649  1.00  0.00     0.034 A 
ATOM     47  C   UNL A   1      42.144  25.823  28.492  1.00  0.00     0.034 A 
ATOM     48  C   UNL A   1      43.027  29.688  33.705  1.00  0.00     0.049 A 
ATOM     49  C   UNL A   1      43.215  25.910  29.550  1.00  0.00     0.074 A 
ATOM     50  C   UNL A   1      44.031  29.610  34.654  1.00  0.00     0.029 A 
ATOM     51  N   UNL A   1      43.287  28.693  32.771  1.00  0.00    -0.354 N 
ATOM     52  N   UNL A   1      43.304  26.731  30.572  1.00  0.00    -0.248 NA
ATOM     53  C   UNL A   1      44.324  24.954  29.448  1.00  0.00     0.031 C 
ATOM     54  C   UNL A   1      44.933  28.616  34.259  1.00  0.00     0.029 A 
ATOM     55  C   UNL A   1      44.451  28.017  33.106  1.00  0.00     0.049 A 
ATOM     56  H   UNL A   1      42.727  28.496  31.985  1.00  0.00     0.167 HD
ATOM     57  C   UNL A   1      44.462  26.365  31.252  1.00  0.00     0.074 A 
ATOM     58  C   UNL A   1      45.029  25.243  30.532  1.00  0.00     0.031 C 
ATOM     59  C   UNL A   1      45.007  26.905  32.372  1.00  0.00     0.034 A 
BRANCH  46  60
ATOM     60  C   UNL A   1      41.814  31.704  34.680  1.00  0.00     0.023 A 
ATOM     61  C   UNL A   1      40.902  31.643  35.749  1.00  0.00     0.031 A 
ATOM     62  C   UNL A   1      42.619  32.853  34.573  1.00  0.00     0.131 A 
ATOM     63  C   UNL A   1      40.750  32.743  36.607  1.00  0.00     0.055 A 
ATOM     64  C   UNL A   1      42.528  33.905  35.488  1.00  0.00     0.041 A 
ATOM     65  F   UNL A   1      43.496  32.984  33.565  1.00  0.00    -0.206 F 
ATOM     66  C   UNL A   1      41.576  33.863  36.502  1.00  0.00     0.022 A 
BRANCH  63  67
ATOM     67  S   UNL A   1      39.344  32.753  37.753  1.00  0.00     0.124 S 
ATOM     68  O   UNL A   1      40.012  32.560  39.039  1.00  0.00    -0.237 OA
ATOM     69  O   UNL A   1      38.760  34.069  37.527  1.00  0.00    -0.237 OA
ATOM     70  O   UNL A   1      38.532  31.622  37.308  1.00  0.00    -0.744 OA
ENDBRANCH  63  67
ENDBRANCH  46  60
BRANCH  47  71
ATOM     71  C   UNL A   1      42.249  24.833  27.381  1.00  0.00     0.023 A 
ATOM     72  C   UNL A   1      41.514  23.638  27.410  1.00  0.00     0.031 A 
ATOM     73  C   UNL A   1      43.109  25.051  26.290  1.00  0.00     0.131 A 
ATOM     74  C   UNL A   1      41.685  22.685  26.395  1.00  0.00     0.055 A 
ATOM     75  C   UNL A   1      43.234  24.124  25.253  1.00  0.00     0.041 A 
ATOM     76  F   UNL A   1      43.830  26.181  26.207  1.00  0.00    -0.206 F 
ATOM     77  C   UNL A   1      42.530  22.926  25.309  1.00  0.00     0.022 A 
BRANCH  74  78
ATOM     78  S   UNL A   1      40.850  21.083  26.557  1.00  0.00     0.124 S 
ATOM     79  O   UNL A   1      41.761  20.199  25.839  1.00  0.00    -0.237 OA
ATOM     80  O   UNL A   1      40.799  20.914  28.006  1.00  0.00    -0.237 OA
ATOM     81  O   UNL A   1      39.557  21.306  25.913  1.00  0.00    -0.744 OA
ENDBRANCH  74  78
ENDBRANCH  47  71
BRANCH  59  82
ATOM     82  C   UNL A   1      46.255  26.250  32.912  1.00  0.00     0.023 A 
ATOM     83  C   UNL A   1      46.198  25.123  33.749  1.00  0.00     0.031 A 
ATOM     84  C   UNL A   1      47.521  26.772  32.589  1.00  0.00     0.131 A 
ATOM     85  C   UNL A   1      47.381  24.588  34.280  1.00  0.00     0.055 A 
ATOM     86  C   UNL A   1      48.698  26.197  33.069  1.00  0.00     0.041 A 
ATOM     87  F   UNL A   1      47.634  27.850  31.797  1.00  0.00    -0.206 F 
ATOM     88  C   UNL A   1      48.632  25.106  33.932  1.00  0.00     0.022 A 
BRANCH  85  89
ATOM     89  S   UNL A   1      47.260  23.263  35.514  1.00  0.00     0.124 S 
ATOM     90  O   UNL A   1      45.903  23.444  36.020  1.00  0.00    -0.237 OA
ATOM     91  O   UNL A   1      47.487  22.066  34.710  1.00  0.00    -0.237 OA
ATOM     92  O   UNL A   1      48.325  23.581  36.464  1.00  0.00    -0.744 OA
ENDBRANCH  85  89
ENDBRANCH  59  82
ENDBRANCH  33  34
ENDBRANCH  25  28
ENDBRANCH  23  24
ENDBRANCH   1  23
TORSDOF 16
ENDMDL
