MODEL 1
REMARK VINA RESULT:     -11.8      0.000      0.000
REMARK SMILES O=C(Cn1nc(-c2ccco2)ccc1=O)NCCCNC(=O)c1ccc(-c2c3nc(c(-c4cc(S(=O)(=O)[O-])ccc4F)c4ccc([nH]4)c(-c4cc(S(=O)(=O)[O-])ccc4F)c4nc(c(-c5cc(S(=O)(=O)[O-])ccc5F)c5ccc2[nH]5)C=C4)C=C3)cc1
REMARK SMILES IDX 18 1 17 2 16 3 1 4 2 5 3 7 4 8 5 9 14 10 6 11 13 12 15 13
REMARK SMILES IDX 12 14 7 15 8 16 11 17 9 18 10 19 19 20 20 21 21 22 22 24
REMARK SMILES IDX 23 25 24 26 85 27 25 28 84 29 26 30 27 31 28 32 78 33 29 34
REMARK SMILES IDX 83 35 77 36 79 37 30 38 82 39 76 40 75 41 31 43 63 44 43 45
REMARK SMILES IDX 62 46 44 47 47 48 61 49 80 50 45 51 46 52 60 54 81 55 48 56
REMARK SMILES IDX 32 57 33 58 41 59 34 60 40 61 42 62 39 63 35 64 36 65 37 66
REMARK SMILES IDX 38 67 64 68 65 69 73 70 66 71 72 72 74 73 71 74 67 75 68 76
REMARK SMILES IDX 69 77 70 78 49 79 50 80 58 81 51 82 57 83 59 84 56 85 52 86
REMARK SMILES IDX 53 87 54 88 55 89
REMARK H PARENT 16 6 20 23 79 42 47 53
REMARK Flexibility Score: inf
ROOT
ATOM      1  C   UNL A   1      41.989  19.563  27.376  1.00  0.00     0.042 C 
ENDROOT
BRANCH   1   2
ATOM      2  C   UNL A   1      42.784  18.843  26.295  1.00  0.00     0.117 C 
BRANCH   2   3
ATOM      3  N   UNL A   1      43.873  19.645  25.781  1.00  0.00    -0.354 N 
ATOM      4  O   UNL A   1      45.340  17.910  25.490  1.00  0.00    -0.273 OA
ATOM      5  C   UNL A   1      45.066  19.101  25.353  1.00  0.00     0.241 C 
ATOM      6  H   UNL A   1      43.758  20.621  25.737  1.00  0.00     0.163 HD
BRANCH   5   7
ATOM      7  C   UNL A   1      46.101  20.113  24.868  1.00  0.00     0.248 C 
BRANCH   7   8
ATOM      8  N   UNL A   1      45.640  21.495  24.991  1.00  0.00    -0.220 N 
ATOM      9  N   UNL A   1      46.110  22.198  26.083  1.00  0.00    -0.166 NA
ATOM     10  C   UNL A   1      44.800  22.038  24.033  1.00  0.00     0.267 A 
ATOM     11  C   UNL A   1      45.638  23.390  26.288  1.00  0.00     0.126 A 
ATOM     12  C   UNL A   1      44.249  23.375  24.330  1.00  0.00     0.076 A 
ATOM     13  O   UNL A   1      44.519  21.487  22.971  1.00  0.00    -0.268 OA
ATOM     14  C   UNL A   1      44.621  24.033  25.429  1.00  0.00     0.040 A 
BRANCH  11  15
ATOM     15  C   UNL A   1      46.144  24.142  27.410  1.00  0.00     0.154 A 
ATOM     16  C   UNL A   1      47.280  24.917  27.549  1.00  0.00     0.052 A 
ATOM     17  O   UNL A   1      45.455  24.125  28.593  1.00  0.00    -0.463 OA
ATOM     18  C   UNL A   1      47.289  25.390  28.882  1.00  0.00     0.043 A 
ATOM     19  C   UNL A   1      46.174  24.858  29.482  1.00  0.00     0.196 A 
ENDBRANCH  11  15
ENDBRANCH   7   8
ENDBRANCH   5   7
ENDBRANCH   2   3
ENDBRANCH   1   2
BRANCH   1  20
ATOM     20  C   UNL A   1      41.538  20.970  26.994  1.00  0.00     0.118 C 
BRANCH  20  21
ATOM     21  N   UNL A   1      40.236  21.006  26.337  1.00  0.00    -0.352 N 
ATOM     22  C   UNL A   1      39.289  22.002  26.296  1.00  0.00     0.251 C 
ATOM     23  H   UNL A   1      39.997  20.185  25.847  1.00  0.00     0.163 HD
ATOM     24  O   UNL A   1      38.197  21.776  25.778  1.00  0.00    -0.269 OA
BRANCH  22  25
ATOM     25  C   UNL A   1      39.565  23.321  26.907  1.00  0.00     0.039 A 
ATOM     26  C   UNL A   1      38.889  24.466  26.484  1.00  0.00     0.014 A 
ATOM     27  C   UNL A   1      40.539  23.415  27.905  1.00  0.00     0.014 A 
ATOM     28  C   UNL A   1      39.316  25.720  26.914  1.00  0.00     0.010 A 
ATOM     29  C   UNL A   1      40.910  24.670  28.399  1.00  0.00     0.010 A 
ATOM     30  C   UNL A   1      40.347  25.837  27.861  1.00  0.00    -0.014 A 
BRANCH  30  31
ATOM     31  C   UNL A   1      40.845  27.184  28.248  1.00  0.00     0.031 A 
ATOM     32  C   UNL A   1      42.274  27.579  27.973  1.00  0.00     0.074 A 
ATOM     33  C   UNL A   1      39.999  28.074  28.802  1.00  0.00     0.049 A 
ATOM     34  N   UNL A   1      42.878  28.711  28.225  1.00  0.00    -0.248 NA
ATOM     35  C   UNL A   1      43.136  26.572  27.333  1.00  0.00     0.031 C 
ATOM     36  C   UNL A   1      38.591  27.812  29.101  1.00  0.00     0.029 A 
ATOM     37  N   UNL A   1      40.186  29.377  29.194  1.00  0.00    -0.354 N 
ATOM     38  C   UNL A   1      44.190  28.550  27.792  1.00  0.00     0.074 A 
ATOM     39  C   UNL A   1      44.305  27.197  27.294  1.00  0.00     0.031 C 
ATOM     40  C   UNL A   1      38.031  28.929  29.586  1.00  0.00     0.029 A 
ATOM     41  C   UNL A   1      39.051  29.969  29.697  1.00  0.00     0.049 A 
ATOM     42  H   UNL A   1      41.051  29.841  29.122  1.00  0.00     0.167 HD
ATOM     43  C   UNL A   1      45.199  29.454  27.791  1.00  0.00     0.034 A 
ATOM     44  C   UNL A   1      38.852  31.203  30.205  1.00  0.00     0.034 A 
ATOM     45  C   UNL A   1      45.067  30.807  28.265  1.00  0.00     0.049 A 
ATOM     46  C   UNL A   1      40.002  32.175  30.234  1.00  0.00     0.074 A 
ATOM     47  C   UNL A   1      46.024  31.807  28.271  1.00  0.00     0.029 A 
ATOM     48  N   UNL A   1      43.914  31.357  28.808  1.00  0.00    -0.354 N 
ATOM     49  N   UNL A   1      41.224  32.020  29.781  1.00  0.00    -0.248 NA
ATOM     50  C   UNL A   1      39.755  33.489  30.845  1.00  0.00     0.031 C 
ATOM     51  C   UNL A   1      45.470  32.939  28.869  1.00  0.00     0.029 A 
ATOM     52  C   UNL A   1      44.146  32.671  29.179  1.00  0.00     0.049 A 
ATOM     53  H   UNL A   1      43.058  30.882  28.913  1.00  0.00     0.167 HD
ATOM     54  C   UNL A   1      41.885  33.217  30.039  1.00  0.00     0.074 A 
ATOM     55  C   UNL A   1      40.919  34.099  30.661  1.00  0.00     0.031 C 
ATOM     56  C   UNL A   1      43.176  33.549  29.790  1.00  0.00     0.034 A 
BRANCH  43  57
ATOM     57  C   UNL A   1      46.544  29.036  27.250  1.00  0.00     0.023 A 
ATOM     58  C   UNL A   1      46.671  28.638  25.906  1.00  0.00     0.031 A 
ATOM     59  C   UNL A   1      47.664  28.908  28.091  1.00  0.00     0.131 A 
ATOM     60  C   UNL A   1      47.883  28.103  25.451  1.00  0.00     0.055 A 
ATOM     61  C   UNL A   1      48.880  28.409  27.623  1.00  0.00     0.041 A 
ATOM     62  F   UNL A   1      47.592  29.275  29.382  1.00  0.00    -0.206 F 
ATOM     63  C   UNL A   1      48.989  27.992  26.299  1.00  0.00     0.022 A 
BRANCH  60  64
ATOM     64  S   UNL A   1      48.055  27.474  23.758  1.00  0.00     0.124 S 
ATOM     65  O   UNL A   1      47.049  28.259  23.043  1.00  0.00    -0.237 OA
ATOM     66  O   UNL A   1      49.442  27.809  23.447  1.00  0.00    -0.237 OA
ATOM     67  O   UNL A   1      47.759  26.051  23.879  1.00  0.00    -0.744 OA
ENDBRANCH  60  64
ENDBRANCH  43  57
BRANCH  44  68
ATOM     68  C   UNL A   1      37.489  31.577  30.685  1.00  0.00     0.023 A 
ATOM     69  C   UNL A   1      36.566  32.202  29.826  1.00  0.00     0.031 A 
ATOM     70  C   UNL A   1      37.133  31.419  32.034  1.00  0.00     0.131 A 
ATOM     71  C   UNL A   1      35.370  32.717  30.342  1.00  0.00     0.055 A 
ATOM     72  C   UNL A   1      35.907  31.868  32.529  1.00  0.00     0.041 A 
ATOM     73  F   UNL A   1      37.983  30.837  32.894  1.00  0.00    -0.206 F 
ATOM     74  C   UNL A   1      35.027  32.538  31.685  1.00  0.00     0.022 A 
BRANCH  71  75
ATOM     75  S   UNL A   1      34.291  33.759  29.321  1.00  0.00     0.124 S 
ATOM     76  O   UNL A   1      33.396  34.338  30.318  1.00  0.00    -0.237 OA
ATOM     77  O   UNL A   1      35.249  34.684  28.721  1.00  0.00    -0.237 OA
ATOM     78  O   UNL A   1      33.677  32.815  28.394  1.00  0.00    -0.744 OA
ENDBRANCH  71  75
ENDBRANCH  44  68
BRANCH  56  79
ATOM     79  C   UNL A   1      43.660  34.923  30.188  1.00  0.00     0.023 A 
ATOM     80  C   UNL A   1      44.013  35.187  31.527  1.00  0.00     0.031 A 
ATOM     81  C   UNL A   1      43.615  35.999  29.286  1.00  0.00     0.131 A 
ATOM     82  C   UNL A   1      44.262  36.503  31.934  1.00  0.00     0.055 A 
ATOM     83  C   UNL A   1      43.908  37.303  29.687  1.00  0.00     0.041 A 
ATOM     84  F   UNL A   1      43.275  35.798  28.003  1.00  0.00    -0.206 F 
ATOM     85  C   UNL A   1      44.218  37.563  31.020  1.00  0.00     0.022 A 
BRANCH  82  86
ATOM     86  S   UNL A   1      44.563  36.905  33.678  1.00  0.00     0.124 S 
ATOM     87  O   UNL A   1      44.168  35.666  34.345  1.00  0.00    -0.237 OA
ATOM     88  O   UNL A   1      45.995  37.188  33.685  1.00  0.00    -0.237 OA
ATOM     89  O   UNL A   1      43.695  38.051  33.930  1.00  0.00    -0.744 OA
ENDBRANCH  82  86
ENDBRANCH  56  79
ENDBRANCH  30  31
ENDBRANCH  22  25
ENDBRANCH  20  21
ENDBRANCH   1  20
TORSDOF 15
ENDMDL
MODEL 2
REMARK VINA RESULT:     -11.2      6.541     12.575
REMARK SMILES O=C(Cn1nc(-c2ccco2)ccc1=O)NCCCNC(=O)c1ccc(-c2c3nc(c(-c4cc(S(=O)(=O)[O-])ccc4F)c4ccc([nH]4)c(-c4cc(S(=O)(=O)[O-])ccc4F)c4nc(c(-c5cc(S(=O)(=O)[O-])ccc5F)c5ccc2[nH]5)C=C4)C=C3)cc1
REMARK SMILES IDX 18 1 17 2 16 3 1 4 2 5 3 7 4 8 5 9 14 10 6 11 13 12 15 13
REMARK SMILES IDX 12 14 7 15 8 16 11 17 9 18 10 19 19 20 20 21 21 22 22 24
REMARK SMILES IDX 23 25 24 26 85 27 25 28 84 29 26 30 27 31 28 32 78 33 29 34
REMARK SMILES IDX 83 35 77 36 79 37 30 38 82 39 76 40 75 41 31 43 63 44 43 45
REMARK SMILES IDX 62 46 44 47 47 48 61 49 80 50 45 51 46 52 60 54 81 55 48 56
REMARK SMILES IDX 32 57 33 58 41 59 34 60 40 61 42 62 39 63 35 64 36 65 37 66
REMARK SMILES IDX 38 67 64 68 65 69 73 70 66 71 72 72 74 73 71 74 67 75 68 76
REMARK SMILES IDX 69 77 70 78 49 79 50 80 58 81 51 82 57 83 59 84 56 85 52 86
REMARK SMILES IDX 53 87 54 88 55 89
REMARK H PARENT 16 6 20 23 79 42 47 53
REMARK Flexibility Score: inf
ROOT
ATOM      1  C   UNL A   1      31.918  31.102  26.864  1.00  0.00     0.042 C 
ENDROOT
BRANCH   1   2
ATOM      2  C   UNL A   1      32.091  29.614  27.138  1.00  0.00     0.117 C 
BRANCH   2   3
ATOM      3  N   UNL A   1      31.909  28.808  25.951  1.00  0.00    -0.354 N 
ATOM      4  O   UNL A   1      34.045  27.982  25.884  1.00  0.00    -0.273 OA
ATOM      5  C   UNL A   1      32.897  27.991  25.442  1.00  0.00     0.241 C 
ATOM      6  H   UNL A   1      31.042  28.843  25.487  1.00  0.00     0.163 HD
BRANCH   5   7
ATOM      7  C   UNL A   1      32.521  27.238  24.168  1.00  0.00     0.248 C 
BRANCH   7   8
ATOM      8  N   UNL A   1      31.093  27.317  23.866  1.00  0.00    -0.220 N 
ATOM      9  N   UNL A   1      30.646  28.517  23.349  1.00  0.00    -0.166 NA
ATOM     10  C   UNL A   1      30.274  26.221  24.079  1.00  0.00     0.267 A 
ATOM     11  C   UNL A   1      29.368  28.665  23.171  1.00  0.00     0.126 A 
ATOM     12  C   UNL A   1      28.825  26.447  23.912  1.00  0.00     0.076 A 
ATOM     13  O   UNL A   1      30.684  25.100  24.367  1.00  0.00    -0.268 OA
ATOM     14  C   UNL A   1      28.365  27.630  23.501  1.00  0.00     0.040 A 
BRANCH  11  15
ATOM     15  C   UNL A   1      28.896  29.904  22.606  1.00  0.00     0.154 A 
ATOM     16  C   UNL A   1      28.333  31.020  23.197  1.00  0.00     0.052 A 
ATOM     17  O   UNL A   1      28.955  30.087  21.250  1.00  0.00    -0.463 OA
ATOM     18  C   UNL A   1      28.027  31.924  22.152  1.00  0.00     0.043 A 
ATOM     19  C   UNL A   1      28.400  31.298  20.987  1.00  0.00     0.196 A 
ENDBRANCH  11  15
ENDBRANCH   7   8
ENDBRANCH   5   7
ENDBRANCH   2   3
ENDBRANCH   1   2
BRANCH   1  20
ATOM     20  C   UNL A   1      33.112  31.960  27.272  1.00  0.00     0.118 C 
BRANCH  20  21
ATOM     21  N   UNL A   1      32.757  33.339  27.588  1.00  0.00    -0.352 N 
ATOM     22  C   UNL A   1      33.279  34.199  28.525  1.00  0.00     0.251 C 
ATOM     23  H   UNL A   1      32.025  33.713  27.044  1.00  0.00     0.163 HD
ATOM     24  O   UNL A   1      32.746  35.292  28.706  1.00  0.00    -0.269 OA
BRANCH  22  25
ATOM     25  C   UNL A   1      34.447  33.797  29.340  1.00  0.00     0.039 A 
ATOM     26  C   UNL A   1      35.737  34.207  29.001  1.00  0.00     0.014 A 
ATOM     27  C   UNL A   1      34.247  32.969  30.449  1.00  0.00     0.014 A 
ATOM     28  C   UNL A   1      36.834  33.642  29.647  1.00  0.00     0.010 A 
ATOM     29  C   UNL A   1      35.348  32.467  31.151  1.00  0.00     0.010 A 
ATOM     30  C   UNL A   1      36.651  32.748  30.715  1.00  0.00    -0.014 A 
BRANCH  30  31
ATOM     31  C   UNL A   1      37.832  32.091  31.339  1.00  0.00     0.031 A 
ATOM     32  C   UNL A   1      38.299  32.503  32.711  1.00  0.00     0.074 A 
ATOM     33  C   UNL A   1      38.456  31.087  30.692  1.00  0.00     0.049 A 
ATOM     34  N   UNL A   1      39.296  32.034  33.417  1.00  0.00    -0.248 NA
ATOM     35  C   UNL A   1      37.552  33.582  33.379  1.00  0.00     0.031 C 
ATOM     36  C   UNL A   1      38.085  30.592  29.366  1.00  0.00     0.029 A 
ATOM     37  N   UNL A   1      39.514  30.294  31.061  1.00  0.00    -0.354 N 
ATOM     38  C   UNL A   1      39.307  32.766  34.599  1.00  0.00     0.074 A 
ATOM     39  C   UNL A   1      38.240  33.738  34.502  1.00  0.00     0.031 C 
ATOM     40  C   UNL A   1      38.869  29.552  29.053  1.00  0.00     0.029 A 
ATOM     41  C   UNL A   1      39.844  29.346  30.121  1.00  0.00     0.049 A 
ATOM     42  H   UNL A   1      39.990  30.395  31.916  1.00  0.00     0.167 HD
ATOM     43  C   UNL A   1      40.118  32.628  35.675  1.00  0.00     0.034 A 
ATOM     44  C   UNL A   1      40.828  28.422  30.109  1.00  0.00     0.034 A 
ATOM     45  C   UNL A   1      41.160  31.639  35.773  1.00  0.00     0.049 A 
ATOM     46  C   UNL A   1      41.746  28.318  31.298  1.00  0.00     0.074 A 
ATOM     47  C   UNL A   1      42.011  31.399  36.838  1.00  0.00     0.029 A 
ATOM     48  N   UNL A   1      41.494  30.725  34.783  1.00  0.00    -0.354 N 
ATOM     49  N   UNL A   1      41.715  28.989  32.425  1.00  0.00    -0.248 NA
ATOM     50  C   UNL A   1      42.837  27.335  31.220  1.00  0.00     0.031 C 
ATOM     51  C   UNL A   1      42.894  30.382  36.472  1.00  0.00     0.029 A 
ATOM     52  C   UNL A   1      42.556  29.941  35.202  1.00  0.00     0.049 A 
ATOM     53  H   UNL A   1      41.041  30.646  33.912  1.00  0.00     0.167 HD
ATOM     54  C   UNL A   1      42.769  28.503  33.193  1.00  0.00     0.074 A 
ATOM     55  C   UNL A   1      43.402  27.459  32.415  1.00  0.00     0.031 C 
ATOM     56  C   UNL A   1      43.177  28.894  34.426  1.00  0.00     0.034 A 
BRANCH  43  57
ATOM     57  C   UNL A   1      39.919  33.546  36.854  1.00  0.00     0.023 A 
ATOM     58  C   UNL A   1      39.226  33.094  37.993  1.00  0.00     0.031 A 
ATOM     59  C   UNL A   1      40.299  34.900  36.801  1.00  0.00     0.131 A 
ATOM     60  C   UNL A   1      38.908  33.994  39.017  1.00  0.00     0.055 A 
ATOM     61  C   UNL A   1      40.011  35.784  37.840  1.00  0.00     0.041 A 
ATOM     62  F   UNL A   1      40.962  35.379  35.735  1.00  0.00    -0.206 F 
ATOM     63  C   UNL A   1      39.302  35.335  38.951  1.00  0.00     0.022 A 
BRANCH  60  64
ATOM     64  S   UNL A   1      37.919  33.478  40.448  1.00  0.00     0.124 S 
ATOM     65  O   UNL A   1      38.806  32.511  41.092  1.00  0.00    -0.237 OA
ATOM     66  O   UNL A   1      37.743  34.737  41.168  1.00  0.00    -0.237 OA
ATOM     67  O   UNL A   1      36.711  32.914  39.856  1.00  0.00    -0.744 OA
ENDBRANCH  60  64
ENDBRANCH  43  57
BRANCH  44  68
ATOM     68  C   UNL A   1      40.950  27.509  28.934  1.00  0.00     0.023 A 
ATOM     69  C   UNL A   1      41.967  27.688  27.980  1.00  0.00     0.031 A 
ATOM     70  C   UNL A   1      39.983  26.519  28.691  1.00  0.00     0.131 A 
ATOM     71  C   UNL A   1      41.950  26.948  26.792  1.00  0.00     0.055 A 
ATOM     72  C   UNL A   1      40.012  25.730  27.538  1.00  0.00     0.041 A 
ATOM     73  F   UNL A   1      38.988  26.316  29.566  1.00  0.00    -0.206 F 
ATOM     74  C   UNL A   1      40.988  25.957  26.573  1.00  0.00     0.022 A 
BRANCH  71  75
ATOM     75  S   UNL A   1      43.085  27.344  25.432  1.00  0.00     0.124 S 
ATOM     76  O   UNL A   1      43.327  26.030  24.846  1.00  0.00    -0.237 OA
ATOM     77  O   UNL A   1      42.278  28.256  24.626  1.00  0.00    -0.237 OA
ATOM     78  O   UNL A   1      44.226  27.955  26.104  1.00  0.00    -0.744 OA
ENDBRANCH  71  75
ENDBRANCH  44  68
BRANCH  56  79
ATOM     79  C   UNL A   1      44.376  28.212  35.041  1.00  0.00     0.023 A 
ATOM     80  C   UNL A   1      44.199  27.096  35.884  1.00  0.00     0.031 A 
ATOM     81  C   UNL A   1      45.663  28.761  34.924  1.00  0.00     0.131 A 
ATOM     82  C   UNL A   1      45.285  26.596  36.612  1.00  0.00     0.055 A 
ATOM     83  C   UNL A   1      46.752  28.230  35.618  1.00  0.00     0.041 A 
ATOM     84  F   UNL A   1      45.879  29.830  34.141  1.00  0.00    -0.206 F 
ATOM     85  C   UNL A   1      46.562  27.152  36.478  1.00  0.00     0.022 A 
BRANCH  82  86
ATOM     86  S   UNL A   1      45.066  25.264  37.825  1.00  0.00     0.124 S 
ATOM     87  O   UNL A   1      43.698  24.828  37.552  1.00  0.00    -0.237 OA
ATOM     88  O   UNL A   1      46.110  24.320  37.438  1.00  0.00    -0.237 OA
ATOM     89  O   UNL A   1      45.263  25.925  39.112  1.00  0.00    -0.744 OA
ENDBRANCH  82  86
ENDBRANCH  56  79
ENDBRANCH  30  31
ENDBRANCH  22  25
ENDBRANCH  20  21
ENDBRANCH   1  20
TORSDOF 15
ENDMDL
MODEL 3
REMARK VINA RESULT:     -11.1      3.834      6.762
REMARK SMILES O=C(Cn1nc(-c2ccco2)ccc1=O)NCCCNC(=O)c1ccc(-c2c3nc(c(-c4cc(S(=O)(=O)[O-])ccc4F)c4ccc([nH]4)c(-c4cc(S(=O)(=O)[O-])ccc4F)c4nc(c(-c5cc(S(=O)(=O)[O-])ccc5F)c5ccc2[nH]5)C=C4)C=C3)cc1
REMARK SMILES IDX 18 1 17 2 16 3 1 4 2 5 3 7 4 8 5 9 14 10 6 11 13 12 15 13
REMARK SMILES IDX 12 14 7 15 8 16 11 17 9 18 10 19 19 20 20 21 21 22 22 24
REMARK SMILES IDX 23 25 24 26 85 27 25 28 84 29 26 30 27 31 28 32 78 33 29 34
REMARK SMILES IDX 83 35 77 36 79 37 30 38 82 39 76 40 75 41 31 43 63 44 43 45
REMARK SMILES IDX 62 46 44 47 47 48 61 49 80 50 45 51 46 52 60 54 81 55 48 56
REMARK SMILES IDX 32 57 33 58 41 59 34 60 40 61 42 62 39 63 35 64 36 65 37 66
REMARK SMILES IDX 38 67 64 68 65 69 73 70 66 71 72 72 74 73 71 74 67 75 68 76
REMARK SMILES IDX 69 77 70 78 49 79 50 80 58 81 51 82 57 83 59 84 56 85 52 86
REMARK SMILES IDX 53 87 54 88 55 89
REMARK H PARENT 16 6 20 23 79 42 47 53
REMARK Flexibility Score: inf
ROOT
ATOM      1  C   UNL A   1      38.005  20.304  24.930  1.00  0.00     0.042 C 
ENDROOT
BRANCH   1   2
ATOM      2  C   UNL A   1      37.437  21.666  24.554  1.00  0.00     0.117 C 
BRANCH   2   3
ATOM      3  N   UNL A   1      36.022  21.773  24.834  1.00  0.00    -0.354 N 
ATOM      4  O   UNL A   1      36.065  23.969  25.485  1.00  0.00    -0.273 OA
ATOM      5  C   UNL A   1      35.423  22.952  25.225  1.00  0.00     0.241 C 
ATOM      6  H   UNL A   1      35.462  20.968  24.742  1.00  0.00     0.163 HD
BRANCH   5   7
ATOM      7  C   UNL A   1      33.924  22.856  25.497  1.00  0.00     0.248 C 
BRANCH   7   8
ATOM      8  N   UNL A   1      33.243  21.931  24.592  1.00  0.00    -0.220 N 
ATOM      9  N   UNL A   1      33.349  20.589  24.900  1.00  0.00    -0.166 NA
ATOM     10  C   UNL A   1      32.523  22.416  23.513  1.00  0.00     0.267 A 
ATOM     11  C   UNL A   1      32.854  19.731  24.061  1.00  0.00     0.126 A 
ATOM     12  C   UNL A   1      32.019  21.408  22.560  1.00  0.00     0.076 A 
ATOM     13  O   UNL A   1      32.272  23.604  23.330  1.00  0.00    -0.268 OA
ATOM     14  C   UNL A   1      32.193  20.106  22.793  1.00  0.00     0.040 A 
BRANCH  11  15
ATOM     15  C   UNL A   1      32.936  18.330  24.389  1.00  0.00     0.154 A 
ATOM     16  C   UNL A   1      33.504  17.268  23.710  1.00  0.00     0.052 A 
ATOM     17  O   UNL A   1      32.359  17.877  25.545  1.00  0.00    -0.463 OA
ATOM     18  C   UNL A   1      33.255  16.110  24.485  1.00  0.00     0.043 A 
ATOM     19  C   UNL A   1      32.532  16.530  25.575  1.00  0.00     0.196 A 
ENDBRANCH  11  15
ENDBRANCH   7   8
ENDBRANCH   5   7
ENDBRANCH   2   3
ENDBRANCH   1   2
BRANCH   1  20
ATOM     20  C   UNL A   1      38.993  20.334  26.093  1.00  0.00     0.118 C 
BRANCH  20  21
ATOM     21  N   UNL A   1      40.038  19.322  25.994  1.00  0.00    -0.352 N 
ATOM     22  C   UNL A   1      41.405  19.443  26.086  1.00  0.00     0.251 C 
ATOM     23  H   UNL A   1      39.713  18.405  25.836  1.00  0.00     0.163 HD
ATOM     24  O   UNL A   1      42.116  18.468  25.852  1.00  0.00    -0.269 OA
BRANCH  22  25
ATOM     25  C   UNL A   1      42.019  20.748  26.420  1.00  0.00     0.039 A 
ATOM     26  C   UNL A   1      42.292  21.098  27.743  1.00  0.00     0.014 A 
ATOM     27  C   UNL A   1      42.301  21.648  25.388  1.00  0.00     0.014 A 
ATOM     28  C   UNL A   1      42.661  22.404  28.050  1.00  0.00     0.010 A 
ATOM     29  C   UNL A   1      42.753  22.936  25.693  1.00  0.00     0.010 A 
ATOM     30  C   UNL A   1      42.875  23.345  27.030  1.00  0.00    -0.014 A 
BRANCH  30  31
ATOM     31  C   UNL A   1      43.189  24.757  27.379  1.00  0.00     0.031 A 
ATOM     32  C   UNL A   1      44.546  25.337  27.071  1.00  0.00     0.074 A 
ATOM     33  C   UNL A   1      42.237  25.535  27.931  1.00  0.00     0.049 A 
ATOM     34  N   UNL A   1      44.992  26.547  27.289  1.00  0.00    -0.248 NA
ATOM     35  C   UNL A   1      45.528  24.444  26.436  1.00  0.00     0.031 C 
ATOM     36  C   UNL A   1      40.884  25.088  28.261  1.00  0.00     0.029 A 
ATOM     37  N   UNL A   1      42.250  26.859  28.293  1.00  0.00    -0.354 N 
ATOM     38  C   UNL A   1      46.307  26.558  26.835  1.00  0.00     0.074 A 
ATOM     39  C   UNL A   1      46.599  25.222  26.364  1.00  0.00     0.031 C 
ATOM     40  C   UNL A   1      40.183  26.129  28.732  1.00  0.00     0.029 A 
ATOM     41  C   UNL A   1      41.052  27.301  28.804  1.00  0.00     0.049 A 
ATOM     42  H   UNL A   1      43.041  27.436  28.196  1.00  0.00     0.167 HD
ATOM     43  C   UNL A   1      47.183  27.590  26.798  1.00  0.00     0.034 A 
ATOM     44  C   UNL A   1      40.693  28.508  29.290  1.00  0.00     0.034 A 
ATOM     45  C   UNL A   1      46.872  28.923  27.245  1.00  0.00     0.049 A 
ATOM     46  C   UNL A   1      41.699  29.629  29.278  1.00  0.00     0.074 A 
ATOM     47  C   UNL A   1      47.683  30.045  27.214  1.00  0.00     0.029 A 
ATOM     48  N   UNL A   1      45.663  29.322  27.798  1.00  0.00    -0.354 N 
ATOM     49  N   UNL A   1      42.923  29.632  28.806  1.00  0.00    -0.248 NA
ATOM     50  C   UNL A   1      41.282  30.910  29.866  1.00  0.00     0.031 C 
ATOM     51  C   UNL A   1      46.988  31.103  27.798  1.00  0.00     0.029 A 
ATOM     52  C   UNL A   1      45.718  30.663  28.138  1.00  0.00     0.049 A 
ATOM     53  H   UNL A   1      44.882  28.737  27.928  1.00  0.00     0.167 HD
ATOM     54  C   UNL A   1      43.417  30.914  29.027  1.00  0.00     0.074 A 
ATOM     55  C   UNL A   1      42.349  31.669  29.649  1.00  0.00     0.031 C 
ATOM     56  C   UNL A   1      44.647  31.415  28.748  1.00  0.00     0.034 A 
BRANCH  43  57
ATOM     57  C   UNL A   1      48.563  27.349  26.241  1.00  0.00     0.023 A 
ATOM     58  C   UNL A   1      48.826  27.585  24.878  1.00  0.00     0.031 A 
ATOM     59  C   UNL A   1      49.577  26.765  27.023  1.00  0.00     0.131 A 
ATOM     60  C   UNL A   1      50.061  27.212  24.333  1.00  0.00     0.055 A 
ATOM     61  C   UNL A   1      50.818  26.428  26.483  1.00  0.00     0.041 A 
ATOM     62  F   UNL A   1      49.373  26.519  28.328  1.00  0.00    -0.206 F 
ATOM     63  C   UNL A   1      51.061  26.641  25.128  1.00  0.00     0.022 A 
BRANCH  60  64
ATOM     64  S   UNL A   1      50.400  27.396  22.561  1.00  0.00     0.124 S 
ATOM     65  O   UNL A   1      49.324  26.605  21.966  1.00  0.00    -0.237 OA
ATOM     66  O   UNL A   1      50.286  28.841  22.376  1.00  0.00    -0.237 OA
ATOM     67  O   UNL A   1      51.739  26.842  22.398  1.00  0.00    -0.744 OA
ENDBRANCH  60  64
ENDBRANCH  43  57
BRANCH  44  68
ATOM     68  C   UNL A   1      39.298  28.702  29.787  1.00  0.00     0.023 A 
ATOM     69  C   UNL A   1      38.300  29.234  28.950  1.00  0.00     0.031 A 
ATOM     70  C   UNL A   1      38.975  28.468  31.133  1.00  0.00     0.131 A 
ATOM     71  C   UNL A   1      37.055  29.588  29.485  1.00  0.00     0.055 A 
ATOM     72  C   UNL A   1      37.708  28.753  31.647  1.00  0.00     0.041 A 
ATOM     73  F   UNL A   1      39.896  27.970  31.973  1.00  0.00    -0.206 F 
ATOM     74  C   UNL A   1      36.747  29.334  30.825  1.00  0.00     0.022 A 
BRANCH  71  75
ATOM     75  S   UNL A   1      35.850  30.518  28.499  1.00  0.00     0.124 S 
ATOM     76  O   UNL A   1      36.711  31.236  27.564  1.00  0.00    -0.237 OA
ATOM     77  O   UNL A   1      35.046  29.445  27.919  1.00  0.00    -0.237 OA
ATOM     78  O   UNL A   1      35.162  31.344  29.485  1.00  0.00    -0.744 OA
ENDBRANCH  71  75
ENDBRANCH  44  68
BRANCH  56  79
ATOM     79  C   UNL A   1      44.943  32.850  29.109  1.00  0.00     0.023 A 
ATOM     80  C   UNL A   1      44.839  33.861  28.133  1.00  0.00     0.031 A 
ATOM     81  C   UNL A   1      45.480  33.188  30.363  1.00  0.00     0.131 A 
ATOM     82  C   UNL A   1      45.308  35.150  28.413  1.00  0.00     0.055 A 
ATOM     83  C   UNL A   1      45.905  34.486  30.652  1.00  0.00     0.041 A 
ATOM     84  F   UNL A   1      45.608  32.257  31.322  1.00  0.00    -0.206 F 
ATOM     85  C   UNL A   1      45.835  35.470  29.670  1.00  0.00     0.022 A 
BRANCH  82  86
ATOM     86  S   UNL A   1      45.338  36.436  27.132  1.00  0.00     0.124 S 
ATOM     87  O   UNL A   1      46.145  37.475  27.768  1.00  0.00    -0.237 OA
ATOM     88  O   UNL A   1      45.978  35.745  26.017  1.00  0.00    -0.237 OA
ATOM     89  O   UNL A   1      43.931  36.773  26.939  1.00  0.00    -0.744 OA
ENDBRANCH  82  86
ENDBRANCH  56  79
ENDBRANCH  30  31
ENDBRANCH  22  25
ENDBRANCH  20  21
ENDBRANCH   1  20
TORSDOF 15
ENDMDL
