MODEL 1
REMARK VINA RESULT:     -11.6      0.000      0.000
REMARK SMILES COc1ccc(C)cc1S(=O)(=O)N[C@@H](C)C(=O)NCCCNC(=O)c1ccc(-c2c3nc(c(-c4cc(S(=O)(=O)[O-])ccc4F)c4ccc([nH]4)c(-c4cc(S(=O)(=O)[O-])ccc4F)c4nc(c(-c5cc(S(=O)(=O)[O-])ccc5F)c5ccc2[nH]5)C=C4)C=C3)cc1
REMARK SMILES IDX 19 1 18 2 16 3 17 4 14 6 15 7 13 8 10 10 11 11 12 12 9 13
REMARK SMILES IDX 3 14 4 15 5 16 8 17 6 18 7 19 2 20 1 21 20 22 21 23 22 24
REMARK SMILES IDX 23 25 24 27 25 28 26 29 87 30 27 31 86 32 28 33 29 34 30 35
REMARK SMILES IDX 80 36 31 37 85 38 79 39 81 40 32 41 84 42 78 43 77 44 33 46
REMARK SMILES IDX 65 47 45 48 64 49 46 50 49 51 63 52 82 53 47 54 48 55 62 57
REMARK SMILES IDX 83 58 50 59 34 60 35 61 43 62 36 63 42 64 44 65 41 66 37 67
REMARK SMILES IDX 38 68 39 69 40 70 66 71 67 72 75 73 68 74 74 75 76 76 73 77
REMARK SMILES IDX 69 78 70 79 71 80 72 81 51 82 52 83 60 84 53 85 59 86 61 87
REMARK SMILES IDX 58 88 54 89 55 90 56 91 57 92
REMARK H PARENT 18 5 13 9 22 26 81 45 49 56
REMARK Flexibility Score: inf
ROOT
ATOM      1  C   UNL A   1      32.113  29.308  25.488  1.00  0.00     0.117 C 
ENDROOT
BRANCH   1   2
ATOM      2  N   UNL A   1      31.759  28.070  26.163  1.00  0.00    -0.355 N 
ATOM      3  C   UNL A   1      31.251  26.915  25.642  1.00  0.00     0.237 C 
ATOM      4  O   UNL A   1      31.015  25.973  26.405  1.00  0.00    -0.273 OA
ATOM      5  H   UNL A   1      31.906  28.065  27.137  1.00  0.00     0.163 HD
BRANCH   3   6
ATOM      6  C   UNL A   1      30.881  26.813  24.150  1.00  0.00     0.155 C 
ATOM      7  C   UNL A   1      29.384  26.829  23.899  1.00  0.00     0.036 C 
BRANCH   6   8
ATOM      8  N   UNL A   1      31.632  25.662  23.621  1.00  0.00    -0.199 NA
ATOM      9  H   UNL A   1      31.353  24.867  24.195  1.00  0.00     0.142 HD
BRANCH   8  10
ATOM     10  S   UNL A   1      33.282  25.576  23.515  1.00  0.00     0.244 S 
ATOM     11  O   UNL A   1      33.803  26.829  24.047  1.00  0.00    -0.207 OA
ATOM     12  O   UNL A   1      33.579  25.183  22.162  1.00  0.00    -0.207 OA
BRANCH  10  13
ATOM     13  C   UNL A   1      33.914  24.286  24.559  1.00  0.00     0.124 A 
ATOM     14  C   UNL A   1      33.208  23.149  24.962  1.00  0.00     0.138 A 
ATOM     15  C   UNL A   1      33.871  22.196  25.752  1.00  0.00     0.048 A 
ATOM     16  C   UNL A   1      35.200  22.374  26.148  1.00  0.00     0.007 A 
ATOM     17  C   UNL A   1      35.256  24.456  24.957  1.00  0.00     0.029 A 
ATOM     18  C   UNL A   1      35.907  23.506  25.750  1.00  0.00    -0.050 A 
ATOM     19  C   UNL A   1      37.343  23.703  26.127  1.00  0.00     0.044 C 
BRANCH  14  20
ATOM     20  O   UNL A   1      31.933  22.927  24.520  1.00  0.00    -0.495 OA
ATOM     21  C   UNL A   1      30.970  22.711  25.562  1.00  0.00     0.278 C 
ENDBRANCH  14  20
ENDBRANCH  10  13
ENDBRANCH   8  10
ENDBRANCH   6   8
ENDBRANCH   3   6
ENDBRANCH   1   2
BRANCH   1  22
ATOM     22  C   UNL A   1      33.405  29.914  25.994  1.00  0.00     0.042 C 
BRANCH  22  23
ATOM     23  C   UNL A   1      33.357  30.265  27.464  1.00  0.00     0.118 C 
BRANCH  23  24
ATOM     24  N   UNL A   1      34.233  31.365  27.852  1.00  0.00    -0.352 N 
ATOM     25  C   UNL A   1      35.443  31.348  28.526  1.00  0.00     0.251 C 
ATOM     26  H   UNL A   1      33.914  32.261  27.596  1.00  0.00     0.163 HD
ATOM     27  O   UNL A   1      35.942  32.397  28.924  1.00  0.00    -0.269 OA
BRANCH  25  28
ATOM     28  C   UNL A   1      36.233  30.093  28.595  1.00  0.00     0.039 A 
ATOM     29  C   UNL A   1      36.563  29.630  29.879  1.00  0.00     0.014 A 
ATOM     30  C   UNL A   1      36.959  29.666  27.497  1.00  0.00     0.014 A 
ATOM     31  C   UNL A   1      37.792  29.023  30.081  1.00  0.00     0.010 A 
ATOM     32  C   UNL A   1      38.254  29.298  27.712  1.00  0.00     0.010 A 
ATOM     33  C   UNL A   1      38.673  29.010  29.012  1.00  0.00    -0.014 A 
BRANCH  33  34
ATOM     34  C   UNL A   1      40.047  28.582  29.063  1.00  0.00     0.031 A 
ATOM     35  C   UNL A   1      40.280  27.144  28.874  1.00  0.00     0.074 A 
ATOM     36  C   UNL A   1      41.012  29.523  29.002  1.00  0.00     0.049 A 
ATOM     37  N   UNL A   1      41.390  26.562  29.123  1.00  0.00    -0.248 NA
ATOM     38  C   UNL A   1      39.239  26.219  28.422  1.00  0.00     0.031 C 
ATOM     39  C   UNL A   1      42.407  29.363  28.619  1.00  0.00     0.029 A 
ATOM     40  N   UNL A   1      40.940  30.823  29.502  1.00  0.00    -0.354 N 
ATOM     41  C   UNL A   1      41.326  25.306  28.562  1.00  0.00     0.074 A 
ATOM     42  C   UNL A   1      39.937  25.093  28.260  1.00  0.00     0.031 C 
ATOM     43  C   UNL A   1      43.117  30.383  29.132  1.00  0.00     0.029 A 
ATOM     44  C   UNL A   1      42.224  31.127  30.006  1.00  0.00     0.049 A 
ATOM     45  H   UNL A   1      40.151  31.413  29.502  1.00  0.00     0.167 HD
ATOM     46  C   UNL A   1      42.501  24.679  28.290  1.00  0.00     0.034 A 
ATOM     47  C   UNL A   1      42.392  31.278  31.357  1.00  0.00     0.034 A 
ATOM     48  C   UNL A   1      43.622  25.497  28.755  1.00  0.00     0.049 A 
ATOM     49  C   UNL A   1      43.243  30.182  31.983  1.00  0.00     0.074 A 
ATOM     50  C   UNL A   1      44.512  26.367  28.151  1.00  0.00     0.029 A 
ATOM     51  N   UNL A   1      43.723  25.728  30.108  1.00  0.00    -0.354 N 
ATOM     52  N   UNL A   1      43.634  29.107  31.351  1.00  0.00    -0.248 NA
ATOM     53  C   UNL A   1      43.690  30.183  33.375  1.00  0.00     0.031 C 
ATOM     54  C   UNL A   1      45.127  27.144  29.181  1.00  0.00     0.029 A 
ATOM     55  C   UNL A   1      44.629  26.717  30.399  1.00  0.00     0.049 A 
ATOM     56  H   UNL A   1      43.204  25.241  30.788  1.00  0.00     0.167 HD
ATOM     57  C   UNL A   1      44.323  28.281  32.198  1.00  0.00     0.074 A 
ATOM     58  C   UNL A   1      44.319  28.996  33.465  1.00  0.00     0.031 C 
ATOM     59  C   UNL A   1      44.814  27.067  31.798  1.00  0.00     0.034 A 
BRANCH  46  60
ATOM     60  C   UNL A   1      42.703  23.454  27.441  1.00  0.00     0.023 A 
ATOM     61  C   UNL A   1      43.696  23.532  26.444  1.00  0.00     0.031 A 
ATOM     62  C   UNL A   1      42.001  22.236  27.496  1.00  0.00     0.131 A 
ATOM     63  C   UNL A   1      43.912  22.492  25.530  1.00  0.00     0.055 A 
ATOM     64  C   UNL A   1      42.207  21.198  26.576  1.00  0.00     0.041 A 
ATOM     65  F   UNL A   1      41.107  21.962  28.449  1.00  0.00    -0.206 F 
ATOM     66  C   UNL A   1      43.162  21.325  25.580  1.00  0.00     0.022 A 
BRANCH  63  67
ATOM     67  S   UNL A   1      45.188  22.721  24.269  1.00  0.00     0.124 S 
ATOM     68  O   UNL A   1      44.531  22.200  23.074  1.00  0.00    -0.237 OA
ATOM     69  O   UNL A   1      45.407  24.162  24.311  1.00  0.00    -0.237 OA
ATOM     70  O   UNL A   1      46.299  21.911  24.767  1.00  0.00    -0.744 OA
ENDBRANCH  63  67
ENDBRANCH  46  60
BRANCH  47  71
ATOM     71  C   UNL A   1      41.198  31.952  31.971  1.00  0.00     0.023 A 
ATOM     72  C   UNL A   1      40.463  31.197  32.917  1.00  0.00     0.031 A 
ATOM     73  C   UNL A   1      41.134  33.350  32.063  1.00  0.00     0.131 A 
ATOM     74  C   UNL A   1      39.888  31.829  34.032  1.00  0.00     0.055 A 
ATOM     75  C   UNL A   1      40.499  33.976  33.145  1.00  0.00     0.041 A 
ATOM     76  F   UNL A   1      41.820  34.123  31.208  1.00  0.00    -0.206 F 
ATOM     77  C   UNL A   1      39.928  33.217  34.166  1.00  0.00     0.022 A 
BRANCH  74  78
ATOM     78  S   UNL A   1      39.336  30.794  35.424  1.00  0.00     0.124 S 
ATOM     79  O   UNL A   1      40.163  29.602  35.264  1.00  0.00    -0.237 OA
ATOM     80  O   UNL A   1      39.641  31.634  36.580  1.00  0.00    -0.237 OA
ATOM     81  O   UNL A   1      37.908  30.604  35.177  1.00  0.00    -0.744 OA
ENDBRANCH  74  78
ENDBRANCH  47  71
BRANCH  59  82
ATOM     82  C   UNL A   1      45.493  26.069  32.706  1.00  0.00     0.023 A 
ATOM     83  C   UNL A   1      44.798  25.403  33.719  1.00  0.00     0.031 A 
ATOM     84  C   UNL A   1      46.887  25.802  32.633  1.00  0.00     0.131 A 
ATOM     85  C   UNL A   1      45.452  24.465  34.536  1.00  0.00     0.055 A 
ATOM     86  C   UNL A   1      47.552  24.954  33.519  1.00  0.00     0.041 A 
ATOM     87  F   UNL A   1      47.665  26.300  31.664  1.00  0.00    -0.206 F 
ATOM     88  C   UNL A   1      46.829  24.259  34.468  1.00  0.00     0.022 A 
BRANCH  85  89
ATOM     89  S   UNL A   1      44.441  23.431  35.620  1.00  0.00     0.124 S 
ATOM     90  O   UNL A   1      43.397  22.954  34.720  1.00  0.00    -0.237 OA
ATOM     91  O   UNL A   1      45.410  22.429  36.054  1.00  0.00    -0.237 OA
ATOM     92  O   UNL A   1      43.995  24.354  36.662  1.00  0.00    -0.744 OA
ENDBRANCH  85  89
ENDBRANCH  59  82
ENDBRANCH  33  34
ENDBRANCH  25  28
ENDBRANCH  23  24
ENDBRANCH  22  23
ENDBRANCH   1  22
TORSDOF 17
ENDMDL
MODEL 2
REMARK VINA RESULT:     -11.6      3.585      9.394
REMARK SMILES COc1ccc(C)cc1S(=O)(=O)N[C@@H](C)C(=O)NCCCNC(=O)c1ccc(-c2c3nc(c(-c4cc(S(=O)(=O)[O-])ccc4F)c4ccc([nH]4)c(-c4cc(S(=O)(=O)[O-])ccc4F)c4nc(c(-c5cc(S(=O)(=O)[O-])ccc5F)c5ccc2[nH]5)C=C4)C=C3)cc1
REMARK SMILES IDX 19 1 18 2 16 3 17 4 14 6 15 7 13 8 10 10 11 11 12 12 9 13
REMARK SMILES IDX 3 14 4 15 5 16 8 17 6 18 7 19 2 20 1 21 20 22 21 23 22 24
REMARK SMILES IDX 23 25 24 27 25 28 26 29 87 30 27 31 86 32 28 33 29 34 30 35
REMARK SMILES IDX 80 36 31 37 85 38 79 39 81 40 32 41 84 42 78 43 77 44 33 46
REMARK SMILES IDX 65 47 45 48 64 49 46 50 49 51 63 52 82 53 47 54 48 55 62 57
REMARK SMILES IDX 83 58 50 59 34 60 35 61 43 62 36 63 42 64 44 65 41 66 37 67
REMARK SMILES IDX 38 68 39 69 40 70 66 71 67 72 75 73 68 74 74 75 76 76 73 77
REMARK SMILES IDX 69 78 70 79 71 80 72 81 51 82 52 83 60 84 53 85 59 86 61 87
REMARK SMILES IDX 58 88 54 89 55 90 56 91 57 92
REMARK H PARENT 18 5 13 9 22 26 81 45 49 56
REMARK Flexibility Score: inf
ROOT
ATOM      1  C   UNL A   1      36.224  20.859  24.922  1.00  0.00     0.117 C 
ENDROOT
BRANCH   1   2
ATOM      2  N   UNL A   1      35.476  21.194  26.123  1.00  0.00    -0.355 N 
ATOM      3  C   UNL A   1      34.137  21.413  26.275  1.00  0.00     0.237 C 
ATOM      4  O   UNL A   1      33.706  21.693  27.398  1.00  0.00    -0.273 OA
ATOM      5  H   UNL A   1      36.013  21.275  26.944  1.00  0.00     0.163 HD
BRANCH   3   6
ATOM      6  C   UNL A   1      33.190  21.414  25.060  1.00  0.00     0.155 C 
ATOM      7  C   UNL A   1      32.870  20.022  24.545  1.00  0.00     0.036 C 
BRANCH   6   8
ATOM      8  N   UNL A   1      33.766  22.364  24.093  1.00  0.00    -0.199 NA
ATOM      9  H   UNL A   1      34.456  22.901  24.616  1.00  0.00     0.142 HD
BRANCH   8  10
ATOM     10  S   UNL A   1      32.897  23.480  23.231  1.00  0.00     0.244 S 
ATOM     11  O   UNL A   1      31.496  23.089  23.327  1.00  0.00    -0.207 OA
ATOM     12  O   UNL A   1      33.535  23.580  21.944  1.00  0.00    -0.207 OA
BRANCH  10  13
ATOM     13  C   UNL A   1      33.021  25.087  23.977  1.00  0.00     0.124 A 
ATOM     14  C   UNL A   1      32.739  25.386  25.311  1.00  0.00     0.138 A 
ATOM     15  C   UNL A   1      32.934  26.704  25.757  1.00  0.00     0.048 A 
ATOM     16  C   UNL A   1      33.386  27.706  24.893  1.00  0.00     0.007 A 
ATOM     17  C   UNL A   1      33.483  26.101  23.112  1.00  0.00     0.029 A 
ATOM     18  C   UNL A   1      33.668  27.412  23.561  1.00  0.00    -0.050 A 
ATOM     19  C   UNL A   1      34.191  28.458  22.625  1.00  0.00     0.044 C 
BRANCH  14  20
ATOM     20  O   UNL A   1      32.368  24.401  26.184  1.00  0.00    -0.495 OA
ATOM     21  C   UNL A   1      30.955  24.314  26.422  1.00  0.00     0.278 C 
ENDBRANCH  14  20
ENDBRANCH  10  13
ENDBRANCH   8  10
ENDBRANCH   6   8
ENDBRANCH   3   6
ENDBRANCH   1   2
BRANCH   1  22
ATOM     22  C   UNL A   1      37.723  20.860  25.135  1.00  0.00     0.042 C 
BRANCH  22  23
ATOM     23  C   UNL A   1      38.251  22.191  25.619  1.00  0.00     0.118 C 
BRANCH  23  24
ATOM     24  N   UNL A   1      39.551  22.124  26.277  1.00  0.00    -0.352 N 
ATOM     25  C   UNL A   1      40.405  23.140  26.674  1.00  0.00     0.251 C 
ATOM     26  H   UNL A   1      39.873  21.213  26.470  1.00  0.00     0.163 HD
ATOM     27  O   UNL A   1      41.544  22.876  27.049  1.00  0.00    -0.269 OA
BRANCH  25  28
ATOM     28  C   UNL A   1      39.885  24.521  26.837  1.00  0.00     0.039 A 
ATOM     29  C   UNL A   1      40.606  25.541  26.194  1.00  0.00     0.014 A 
ATOM     30  C   UNL A   1      39.038  24.827  27.887  1.00  0.00     0.014 A 
ATOM     31  C   UNL A   1      40.721  26.776  26.811  1.00  0.00     0.010 A 
ATOM     32  C   UNL A   1      39.334  25.938  28.621  1.00  0.00     0.010 A 
ATOM     33  C   UNL A   1      40.202  26.893  28.090  1.00  0.00    -0.014 A 
BRANCH  33  34
ATOM     34  C   UNL A   1      40.365  28.030  28.959  1.00  0.00     0.031 A 
ATOM     35  C   UNL A   1      39.458  29.159  28.717  1.00  0.00     0.074 A 
ATOM     36  C   UNL A   1      41.114  27.881  30.072  1.00  0.00     0.049 A 
ATOM     37  N   UNL A   1      39.615  30.323  29.224  1.00  0.00    -0.248 NA
ATOM     38  C   UNL A   1      38.300  29.077  27.825  1.00  0.00     0.031 C 
ATOM     39  C   UNL A   1      41.099  28.685  31.286  1.00  0.00     0.029 A 
ATOM     40  N   UNL A   1      42.226  27.052  30.222  1.00  0.00    -0.354 N 
ATOM     41  C   UNL A   1      38.445  31.018  29.018  1.00  0.00     0.074 A 
ATOM     42  C   UNL A   1      37.717  30.259  28.038  1.00  0.00     0.031 C 
ATOM     43  C   UNL A   1      42.271  28.524  31.926  1.00  0.00     0.029 A 
ATOM     44  C   UNL A   1      43.134  27.752  31.047  1.00  0.00     0.049 A 
ATOM     45  H   UNL A   1      42.353  26.157  29.832  1.00  0.00     0.167 HD
ATOM     46  C   UNL A   1      38.190  32.074  29.835  1.00  0.00     0.034 A 
ATOM     47  C   UNL A   1      44.314  28.200  30.512  1.00  0.00     0.034 A 
ATOM     48  C   UNL A   1      39.318  32.287  30.741  1.00  0.00     0.049 A 
ATOM     49  C   UNL A   1      44.400  29.717  30.433  1.00  0.00     0.074 A 
ATOM     50  C   UNL A   1      39.586  31.961  32.060  1.00  0.00     0.029 A 
ATOM     51  N   UNL A   1      40.526  32.637  30.183  1.00  0.00    -0.354 N 
ATOM     52  N   UNL A   1      43.399  30.522  30.679  1.00  0.00    -0.248 NA
ATOM     53  C   UNL A   1      45.599  30.452  30.036  1.00  0.00     0.031 C 
ATOM     54  C   UNL A   1      40.994  32.101  32.264  1.00  0.00     0.029 A 
ATOM     55  C   UNL A   1      41.561  32.538  31.081  1.00  0.00     0.049 A 
ATOM     56  H   UNL A   1      40.636  32.923  29.248  1.00  0.00     0.167 HD
ATOM     57  C   UNL A   1      43.769  31.822  30.457  1.00  0.00     0.074 A 
ATOM     58  C   UNL A   1      45.158  31.725  30.040  1.00  0.00     0.031 C 
ATOM     59  C   UNL A   1      42.895  32.866  30.605  1.00  0.00     0.034 A 
BRANCH  46  60
ATOM     60  C   UNL A   1      36.885  32.804  29.996  1.00  0.00     0.023 A 
ATOM     61  C   UNL A   1      36.389  32.930  31.309  1.00  0.00     0.031 A 
ATOM     62  C   UNL A   1      36.073  33.360  28.991  1.00  0.00     0.131 A 
ATOM     63  C   UNL A   1      35.140  33.505  31.579  1.00  0.00     0.055 A 
ATOM     64  C   UNL A   1      34.817  33.925  29.256  1.00  0.00     0.041 A 
ATOM     65  F   UNL A   1      36.449  33.421  27.711  1.00  0.00    -0.206 F 
ATOM     66  C   UNL A   1      34.340  33.994  30.555  1.00  0.00     0.022 A 
BRANCH  63  67
ATOM     67  S   UNL A   1      34.590  33.575  33.300  1.00  0.00     0.124 S 
ATOM     68  O   UNL A   1      34.709  34.999  33.599  1.00  0.00    -0.237 OA
ATOM     69  O   UNL A   1      33.237  33.042  33.213  1.00  0.00    -0.237 OA
ATOM     70  O   UNL A   1      35.550  32.717  33.993  1.00  0.00    -0.744 OA
ENDBRANCH  63  67
ENDBRANCH  46  60
BRANCH  47  71
ATOM     71  C   UNL A   1      44.855  27.215  29.516  1.00  0.00     0.023 A 
ATOM     72  C   UNL A   1      44.589  27.484  28.151  1.00  0.00     0.031 A 
ATOM     73  C   UNL A   1      45.984  26.439  29.818  1.00  0.00     0.131 A 
ATOM     74  C   UNL A   1      45.547  27.179  27.171  1.00  0.00     0.055 A 
ATOM     75  C   UNL A   1      46.904  26.079  28.821  1.00  0.00     0.041 A 
ATOM     76  F   UNL A   1      46.302  26.162  31.091  1.00  0.00    -0.206 F 
ATOM     77  C   UNL A   1      46.721  26.501  27.505  1.00  0.00     0.022 A 
BRANCH  74  78
ATOM     78  S   UNL A   1      45.360  27.918  25.518  1.00  0.00     0.124 S 
ATOM     79  O   UNL A   1      43.926  28.179  25.462  1.00  0.00    -0.237 OA
ATOM     80  O   UNL A   1      46.222  29.095  25.602  1.00  0.00    -0.237 OA
ATOM     81  O   UNL A   1      45.844  26.880  24.611  1.00  0.00    -0.744 OA
ENDBRANCH  74  78
ENDBRANCH  47  71
BRANCH  59  82
ATOM     82  C   UNL A   1      43.210  34.307  30.281  1.00  0.00     0.023 A 
ATOM     83  C   UNL A   1      43.396  34.742  28.966  1.00  0.00     0.031 A 
ATOM     84  C   UNL A   1      43.407  35.287  31.290  1.00  0.00     0.131 A 
ATOM     85  C   UNL A   1      43.669  36.093  28.693  1.00  0.00     0.055 A 
ATOM     86  C   UNL A   1      43.787  36.602  31.019  1.00  0.00     0.041 A 
ATOM     87  F   UNL A   1      43.182  35.040  32.587  1.00  0.00    -0.206 F 
ATOM     88  C   UNL A   1      43.899  37.020  29.708  1.00  0.00     0.022 A 
BRANCH  85  89
ATOM     89  S   UNL A   1      43.604  36.642  26.972  1.00  0.00     0.124 S 
ATOM     90  O   UNL A   1      42.171  36.787  26.739  1.00  0.00    -0.237 OA
ATOM     91  O   UNL A   1      44.365  37.887  27.034  1.00  0.00    -0.237 OA
ATOM     92  O   UNL A   1      44.251  35.557  26.238  1.00  0.00    -0.744 OA
ENDBRANCH  85  89
ENDBRANCH  59  82
ENDBRANCH  33  34
ENDBRANCH  25  28
ENDBRANCH  23  24
ENDBRANCH  22  23
ENDBRANCH   1  22
TORSDOF 17
ENDMDL
MODEL 3
REMARK VINA RESULT:     -11.4      2.652      3.777
REMARK SMILES COc1ccc(C)cc1S(=O)(=O)N[C@@H](C)C(=O)NCCCNC(=O)c1ccc(-c2c3nc(c(-c4cc(S(=O)(=O)[O-])ccc4F)c4ccc([nH]4)c(-c4cc(S(=O)(=O)[O-])ccc4F)c4nc(c(-c5cc(S(=O)(=O)[O-])ccc5F)c5ccc2[nH]5)C=C4)C=C3)cc1
REMARK SMILES IDX 19 1 18 2 16 3 17 4 14 6 15 7 13 8 10 10 11 11 12 12 9 13
REMARK SMILES IDX 3 14 4 15 5 16 8 17 6 18 7 19 2 20 1 21 20 22 21 23 22 24
REMARK SMILES IDX 23 25 24 27 25 28 26 29 87 30 27 31 86 32 28 33 29 34 30 35
REMARK SMILES IDX 80 36 31 37 85 38 79 39 81 40 32 41 84 42 78 43 77 44 33 46
REMARK SMILES IDX 65 47 45 48 64 49 46 50 49 51 63 52 82 53 47 54 48 55 62 57
REMARK SMILES IDX 83 58 50 59 34 60 35 61 43 62 36 63 42 64 44 65 41 66 37 67
REMARK SMILES IDX 38 68 39 69 40 70 66 71 67 72 75 73 68 74 74 75 76 76 73 77
REMARK SMILES IDX 69 78 70 79 71 80 72 81 51 82 52 83 60 84 53 85 59 86 61 87
REMARK SMILES IDX 58 88 54 89 55 90 56 91 57 92
REMARK H PARENT 18 5 13 9 22 26 81 45 49 56
REMARK Flexibility Score: inf
ROOT
ATOM      1  C   UNL A   1      35.022  29.175  27.337  1.00  0.00     0.117 C 
ENDROOT
BRANCH   1   2
ATOM      2  N   UNL A   1      34.292  29.530  26.131  1.00  0.00    -0.355 N 
ATOM      3  C   UNL A   1      33.337  28.824  25.459  1.00  0.00     0.237 C 
ATOM      4  O   UNL A   1      32.842  29.317  24.440  1.00  0.00    -0.273 OA
ATOM      5  H   UNL A   1      34.520  30.407  25.745  1.00  0.00     0.163 HD
BRANCH   3   6
ATOM      6  C   UNL A   1      32.950  27.399  25.896  1.00  0.00     0.155 C 
ATOM      7  C   UNL A   1      34.043  26.376  25.650  1.00  0.00     0.036 C 
BRANCH   6   8
ATOM      8  N   UNL A   1      31.636  27.127  25.287  1.00  0.00    -0.199 NA
ATOM      9  H   UNL A   1      31.016  27.856  25.638  1.00  0.00     0.142 HD
BRANCH   8  10
ATOM     10  S   UNL A   1      30.792  25.712  25.450  1.00  0.00     0.244 S 
ATOM     11  O   UNL A   1      29.445  25.965  24.956  1.00  0.00    -0.207 OA
ATOM     12  O   UNL A   1      30.997  25.276  26.808  1.00  0.00    -0.207 OA
BRANCH  10  13
ATOM     13  C   UNL A   1      31.479  24.446  24.411  1.00  0.00     0.124 A 
ATOM     14  C   UNL A   1      31.969  24.636  23.116  1.00  0.00     0.138 A 
ATOM     15  C   UNL A   1      32.525  23.535  22.444  1.00  0.00     0.048 A 
ATOM     16  C   UNL A   1      32.580  22.271  23.037  1.00  0.00     0.007 A 
ATOM     17  C   UNL A   1      31.543  23.169  25.005  1.00  0.00     0.029 A 
ATOM     18  C   UNL A   1      32.091  22.077  24.327  1.00  0.00    -0.050 A 
ATOM     19  C   UNL A   1      32.174  20.740  25.000  1.00  0.00     0.044 C 
BRANCH  14  20
ATOM     20  O   UNL A   1      31.989  25.882  22.554  1.00  0.00    -0.495 OA
ATOM     21  C   UNL A   1      33.275  26.297  22.068  1.00  0.00     0.278 C 
ENDBRANCH  14  20
ENDBRANCH  10  13
ENDBRANCH   8  10
ENDBRANCH   6   8
ENDBRANCH   3   6
ENDBRANCH   1   2
BRANCH   1  22
ATOM     22  C   UNL A   1      35.052  30.288  28.364  1.00  0.00     0.042 C 
BRANCH  22  23
ATOM     23  C   UNL A   1      35.191  31.660  27.746  1.00  0.00     0.118 C 
BRANCH  23  24
ATOM     24  N   UNL A   1      34.350  32.686  28.353  1.00  0.00    -0.352 N 
ATOM     25  C   UNL A   1      34.524  33.407  29.523  1.00  0.00     0.251 C 
ATOM     26  H   UNL A   1      33.530  32.900  27.853  1.00  0.00     0.163 HD
ATOM     27  O   UNL A   1      33.611  34.099  29.963  1.00  0.00    -0.269 OA
BRANCH  25  28
ATOM     28  C   UNL A   1      35.872  33.502  30.139  1.00  0.00     0.039 A 
ATOM     29  C   UNL A   1      36.916  33.927  29.300  1.00  0.00     0.014 A 
ATOM     30  C   UNL A   1      36.157  32.809  31.302  1.00  0.00     0.014 A 
ATOM     31  C   UNL A   1      38.177  33.375  29.462  1.00  0.00     0.010 A 
ATOM     32  C   UNL A   1      37.310  32.081  31.326  1.00  0.00     0.010 A 
ATOM     33  C   UNL A   1      38.303  32.348  30.382  1.00  0.00    -0.014 A 
BRANCH  33  34
ATOM     34  C   UNL A   1      39.477  31.538  30.578  1.00  0.00     0.031 A 
ATOM     35  C   UNL A   1      39.437  30.194  29.988  1.00  0.00     0.074 A 
ATOM     36  C   UNL A   1      40.599  32.138  31.027  1.00  0.00     0.049 A 
ATOM     37  N   UNL A   1      40.276  29.268  30.261  1.00  0.00    -0.248 NA
ATOM     38  C   UNL A   1      38.395  29.762  29.054  1.00  0.00     0.031 C 
ATOM     39  C   UNL A   1      41.977  31.680  30.912  1.00  0.00     0.029 A 
ATOM     40  N   UNL A   1      40.671  33.229  31.893  1.00  0.00    -0.354 N 
ATOM     41  C   UNL A   1      40.105  28.274  29.324  1.00  0.00     0.074 A 
ATOM     42  C   UNL A   1      38.849  28.562  28.687  1.00  0.00     0.031 C 
ATOM     43  C   UNL A   1      42.713  32.281  31.864  1.00  0.00     0.029 A 
ATOM     44  C   UNL A   1      41.791  33.003  32.724  1.00  0.00     0.049 A 
ATOM     45  H   UNL A   1      40.063  34.003  31.919  1.00  0.00     0.167 HD
ATOM     46  C   UNL A   1      41.143  27.423  29.115  1.00  0.00     0.034 A 
ATOM     47  C   UNL A   1      41.593  32.748  34.056  1.00  0.00     0.034 A 
ATOM     48  C   UNL A   1      42.233  27.728  30.043  1.00  0.00     0.049 A 
ATOM     49  C   UNL A   1      41.970  31.329  34.457  1.00  0.00     0.074 A 
ATOM     50  C   UNL A   1      43.426  28.424  29.951  1.00  0.00     0.029 A 
ATOM     51  N   UNL A   1      41.989  27.565  31.387  1.00  0.00    -0.354 N 
ATOM     52  N   UNL A   1      42.283  30.386  33.608  1.00  0.00    -0.248 NA
ATOM     53  C   UNL A   1      41.988  30.842  35.835  1.00  0.00     0.031 C 
ATOM     54  C   UNL A   1      43.872  28.696  31.282  1.00  0.00     0.029 A 
ATOM     55  C   UNL A   1      42.966  28.136  32.165  1.00  0.00     0.049 A 
ATOM     56  H   UNL A   1      41.204  27.094  31.749  1.00  0.00     0.167 HD
ATOM     57  C   UNL A   1      42.504  29.206  34.267  1.00  0.00     0.074 A 
ATOM     58  C   UNL A   1      42.292  29.541  35.666  1.00  0.00     0.031 C 
ATOM     59  C   UNL A   1      42.813  28.046  33.608  1.00  0.00     0.034 A 
BRANCH  46  60
ATOM     60  C   UNL A   1      41.309  26.452  27.978  1.00  0.00     0.023 A 
ATOM     61  C   UNL A   1      41.558  25.109  28.324  1.00  0.00     0.031 A 
ATOM     62  C   UNL A   1      41.277  26.721  26.598  1.00  0.00     0.131 A 
ATOM     63  C   UNL A   1      41.824  24.131  27.357  1.00  0.00     0.055 A 
ATOM     64  C   UNL A   1      41.554  25.748  25.627  1.00  0.00     0.041 A 
ATOM     65  F   UNL A   1      40.947  27.917  26.103  1.00  0.00    -0.206 F 
ATOM     66  C   UNL A   1      41.838  24.444  26.004  1.00  0.00     0.022 A 
BRANCH  63  67
ATOM     67  S   UNL A   1      42.168  22.448  27.922  1.00  0.00     0.124 S 
ATOM     68  O   UNL A   1      43.018  21.936  26.851  1.00  0.00    -0.237 OA
ATOM     69  O   UNL A   1      42.815  22.681  29.207  1.00  0.00    -0.237 OA
ATOM     70  O   UNL A   1      40.838  21.844  27.999  1.00  0.00    -0.744 OA
ENDBRANCH  63  67
ENDBRANCH  46  60
BRANCH  47  71
ATOM     71  C   UNL A   1      40.449  33.560  34.591  1.00  0.00     0.023 A 
ATOM     72  C   UNL A   1      39.433  32.849  35.275  1.00  0.00     0.031 A 
ATOM     73  C   UNL A   1      40.621  34.915  34.909  1.00  0.00     0.131 A 
ATOM     74  C   UNL A   1      38.791  33.425  36.383  1.00  0.00     0.055 A 
ATOM     75  C   UNL A   1      39.925  35.503  35.976  1.00  0.00     0.041 A 
ATOM     76  F   UNL A   1      41.576  35.642  34.310  1.00  0.00    -0.206 F 
ATOM     77  C   UNL A   1      39.053  34.744  36.756  1.00  0.00     0.022 A 
BRANCH  74  78
ATOM     78  S   UNL A   1      37.821  32.344  37.480  1.00  0.00     0.124 S 
ATOM     79  O   UNL A   1      36.560  33.070  37.587  1.00  0.00    -0.237 OA
ATOM     80  O   UNL A   1      37.777  31.092  36.727  1.00  0.00    -0.237 OA
ATOM     81  O   UNL A   1      38.615  32.282  38.705  1.00  0.00    -0.744 OA
ENDBRANCH  74  78
ENDBRANCH  47  71
BRANCH  59  82
ATOM     82  C   UNL A   1      42.970  26.696  34.265  1.00  0.00     0.023 A 
ATOM     83  C   UNL A   1      44.150  25.955  34.154  1.00  0.00     0.031 A 
ATOM     84  C   UNL A   1      41.909  26.067  34.972  1.00  0.00     0.131 A 
ATOM     85  C   UNL A   1      44.274  24.709  34.793  1.00  0.00     0.055 A 
ATOM     86  C   UNL A   1      42.001  24.783  35.509  1.00  0.00     0.041 A 
ATOM     87  F   UNL A   1      40.751  26.688  35.232  1.00  0.00    -0.206 F 
ATOM     88  C   UNL A   1      43.200  24.101  35.441  1.00  0.00     0.022 A 
BRANCH  85  89
ATOM     89  S   UNL A   1      45.911  23.946  34.856  1.00  0.00     0.124 S 
ATOM     90  O   UNL A   1      46.657  24.715  33.867  1.00  0.00    -0.237 OA
ATOM     91  O   UNL A   1      46.285  24.173  36.250  1.00  0.00    -0.237 OA
ATOM     92  O   UNL A   1      45.656  22.551  34.502  1.00  0.00    -0.744 OA
ENDBRANCH  85  89
ENDBRANCH  59  82
ENDBRANCH  33  34
ENDBRANCH  25  28
ENDBRANCH  23  24
ENDBRANCH  22  23
ENDBRANCH   1  22
TORSDOF 17
ENDMDL
