MODEL 1
REMARK VINA RESULT:     -12.1      0.000      0.000
REMARK SMILES C[NH+](C)Cc1ccccc1[C@H]1[NH2+][C@@H](C(=O)NCCCNC(=O)c2ccc(-c3c4nc(c(-c5cc(S(=O)(=O)[O-])ccc5F)c5ccc([nH]5)c(-c5cc(S(=O)(=O)[O-])ccc5F)c5nc(c(-c6cc(S(=O)(=O)[O-])ccc6F)c6ccc3[nH]6)C=C5)C=C4)cc2)C(C)(C)S1
REMARK SMILES IDX 18 1 17 2 16 3 14 4 15 5 13 7 11 8 12 9 89 10 86 13 87 14
REMARK SMILES IDX 88 15 10 16 5 17 6 18 7 19 9 20 8 21 4 22 2 23 1 24 3 25
REMARK SMILES IDX 19 27 20 28 21 29 22 31 23 32 24 33 85 34 25 35 84 36 26 37
REMARK SMILES IDX 27 38 28 39 78 40 29 41 83 42 77 43 79 44 30 45 82 46 76 47
REMARK SMILES IDX 75 48 31 50 63 51 43 52 62 53 44 54 47 55 61 56 80 57 45 58
REMARK SMILES IDX 46 59 60 61 81 62 48 63 32 64 33 65 41 66 34 67 40 68 42 69
REMARK SMILES IDX 39 70 35 71 36 72 37 73 38 74 64 75 65 76 73 77 66 78 72 79
REMARK SMILES IDX 74 80 71 81 67 82 68 83 69 84 70 85 49 86 50 87 58 88 51 89
REMARK SMILES IDX 57 90 59 91 56 92 52 93 53 94 54 95 55 96
REMARK H PARENT 16 6 12 11 12 12 2 26 20 30 79 49 47 60
REMARK Flexibility Score: inf
ROOT
ATOM      1  C   UNL A   1      32.475  29.699  25.094  1.00  0.00     0.042 C 
ENDROOT
BRANCH   1   2
ATOM      2  C   UNL A   1      33.473  28.562  24.982  1.00  0.00     0.118 C 
BRANCH   2   3
ATOM      3  N   UNL A   1      33.642  27.966  23.684  1.00  0.00    -0.351 N 
ATOM      4  C   UNL A   1      33.197  26.743  23.266  1.00  0.00     0.279 C 
ATOM      5  O   UNL A   1      33.086  26.598  22.041  1.00  0.00    -0.268 OA
ATOM      6  H   UNL A   1      34.134  28.501  23.020  1.00  0.00     0.163 HD
BRANCH   4   7
ATOM      7  C   UNL A   1      32.920  25.521  24.197  1.00  0.00     0.289 C 
ATOM      8  C   UNL A   1      33.104  23.207  24.767  1.00  0.00     0.275 C 
ATOM      9  N   UNL A   1      33.540  24.214  23.773  1.00  0.00    -0.320 N 
ATOM     10  S   UNL A   1      31.376  23.583  25.215  1.00  0.00    -0.081 SA
ATOM     11  H   UNL A   1      33.215  23.955  22.841  1.00  0.00     0.348 HD
ATOM     12  H   UNL A   1      34.557  24.281  23.734  1.00  0.00     0.348 HD
ATOM     13  C   UNL A   1      31.431  25.346  24.607  1.00  0.00     0.077 C 
ATOM     14  C   UNL A   1      30.354  25.544  23.531  1.00  0.00     0.030 C 
ATOM     15  C   UNL A   1      31.087  26.329  25.742  1.00  0.00     0.030 C 
BRANCH   8  16
ATOM     16  C   UNL A   1      33.528  21.700  24.667  1.00  0.00     0.029 A 
ATOM     17  C   UNL A   1      34.741  20.983  24.930  1.00  0.00     0.016 A 
ATOM     18  C   UNL A   1      34.785  19.566  24.694  1.00  0.00     0.010 A 
ATOM     19  C   UNL A   1      33.706  18.823  24.263  1.00  0.00     0.001 A 
ATOM     20  C   UNL A   1      32.452  20.876  24.194  1.00  0.00     0.011 A 
ATOM     21  C   UNL A   1      32.529  19.485  24.013  1.00  0.00     0.001 A 
BRANCH  17  22
ATOM     22  C   UNL A   1      36.132  21.371  25.419  1.00  0.00     0.299 C 
BRANCH  22  23
ATOM     23  N   UNL A   1      36.769  22.565  24.951  1.00  0.00    -0.336 N 
ATOM     24  C   UNL A   1      36.702  22.618  23.515  1.00  0.00     0.332 C 
ATOM     25  C   UNL A   1      36.465  23.696  25.808  1.00  0.00     0.332 C 
ATOM     26  H   UNL A   1      37.783  22.589  25.069  1.00  0.00     0.347 HD
ENDBRANCH  22  23
ENDBRANCH  17  22
ENDBRANCH   8  16
ENDBRANCH   4   7
ENDBRANCH   2   3
ENDBRANCH   1   2
BRANCH   1  27
ATOM     27  C   UNL A   1      32.082  30.045  26.522  1.00  0.00     0.118 C 
BRANCH  27  28
ATOM     28  N   UNL A   1      31.953  31.475  26.800  1.00  0.00    -0.352 N 
ATOM     29  C   UNL A   1      32.840  32.382  27.363  1.00  0.00     0.251 C 
ATOM     30  H   UNL A   1      31.087  31.863  26.542  1.00  0.00     0.163 HD
ATOM     31  O   UNL A   1      32.506  33.540  27.499  1.00  0.00    -0.269 OA
BRANCH  29  32
ATOM     32  C   UNL A   1      34.172  31.925  27.848  1.00  0.00     0.039 A 
ATOM     33  C   UNL A   1      35.198  32.863  28.003  1.00  0.00     0.014 A 
ATOM     34  C   UNL A   1      34.401  30.597  28.191  1.00  0.00     0.014 A 
ATOM     35  C   UNL A   1      36.401  32.485  28.614  1.00  0.00     0.010 A 
ATOM     36  C   UNL A   1      35.530  30.259  28.924  1.00  0.00     0.010 A 
ATOM     37  C   UNL A   1      36.552  31.194  29.142  1.00  0.00    -0.014 A 
BRANCH  37  38
ATOM     38  C   UNL A   1      37.762  30.775  29.902  1.00  0.00     0.031 A 
ATOM     39  C   UNL A   1      38.730  29.798  29.279  1.00  0.00     0.074 A 
ATOM     40  C   UNL A   1      37.939  31.177  31.178  1.00  0.00     0.049 A 
ATOM     41  N   UNL A   1      39.742  29.172  29.819  1.00  0.00    -0.248 NA
ATOM     42  C   UNL A   1      38.488  29.441  27.872  1.00  0.00     0.031 C 
ATOM     43  C   UNL A   1      37.048  32.076  31.917  1.00  0.00     0.029 A 
ATOM     44  N   UNL A   1      38.921  30.871  32.088  1.00  0.00    -0.354 N 
ATOM     45  C   UNL A   1      40.231  28.322  28.830  1.00  0.00     0.074 A 
ATOM     46  C   UNL A   1      39.352  28.456  27.691  1.00  0.00     0.031 C 
ATOM     47  C   UNL A   1      37.542  32.275  33.149  1.00  0.00     0.029 A 
ATOM     48  C   UNL A   1      38.752  31.477  33.314  1.00  0.00     0.049 A 
ATOM     49  H   UNL A   1      39.677  30.275  31.883  1.00  0.00     0.167 HD
ATOM     50  C   UNL A   1      41.329  27.527  28.857  1.00  0.00     0.034 A 
ATOM     51  C   UNL A   1      39.480  31.386  34.446  1.00  0.00     0.034 A 
ATOM     52  C   UNL A   1      42.219  27.439  29.988  1.00  0.00     0.049 A 
ATOM     53  C   UNL A   1      40.700  30.499  34.454  1.00  0.00     0.074 A 
ATOM     54  C   UNL A   1      43.399  26.725  30.103  1.00  0.00     0.029 A 
ATOM     55  N   UNL A   1      42.029  28.091  31.201  1.00  0.00    -0.354 N 
ATOM     56  N   UNL A   1      41.175  29.738  33.494  1.00  0.00    -0.248 NA
ATOM     57  C   UNL A   1      41.487  30.466  35.693  1.00  0.00     0.031 C 
ATOM     58  C   UNL A   1      43.886  26.891  31.404  1.00  0.00     0.029 A 
ATOM     59  C   UNL A   1      43.055  27.773  32.076  1.00  0.00     0.049 A 
ATOM     60  H   UNL A   1      41.276  28.690  31.407  1.00  0.00     0.167 HD
ATOM     61  C   UNL A   1      42.336  29.164  34.005  1.00  0.00     0.074 A 
ATOM     62  C   UNL A   1      42.495  29.676  35.351  1.00  0.00     0.031 C 
ATOM     63  C   UNL A   1      43.196  28.293  33.416  1.00  0.00     0.034 A 
BRANCH  50  64
ATOM     64  C   UNL A   1      41.613  26.689  27.632  1.00  0.00     0.023 A 
ATOM     65  C   UNL A   1      41.170  25.357  27.528  1.00  0.00     0.031 A 
ATOM     66  C   UNL A   1      42.369  27.211  26.567  1.00  0.00     0.131 A 
ATOM     67  C   UNL A   1      41.564  24.569  26.437  1.00  0.00     0.055 A 
ATOM     68  C   UNL A   1      42.678  26.450  25.439  1.00  0.00     0.041 A 
ATOM     69  F   UNL A   1      42.838  28.468  26.614  1.00  0.00    -0.206 F 
ATOM     70  C   UNL A   1      42.290  25.113  25.376  1.00  0.00     0.022 A 
BRANCH  67  71
ATOM     71  S   UNL A   1      41.249  22.784  26.502  1.00  0.00     0.124 S 
ATOM     72  O   UNL A   1      39.811  22.731  26.244  1.00  0.00    -0.237 OA
ATOM     73  O   UNL A   1      42.108  22.272  25.441  1.00  0.00    -0.237 OA
ATOM     74  O   UNL A   1      41.644  22.416  27.860  1.00  0.00    -0.744 OA
ENDBRANCH  67  71
ENDBRANCH  50  64
BRANCH  51  75
ATOM     75  C   UNL A   1      39.084  32.148  35.667  1.00  0.00     0.023 A 
ATOM     76  C   UNL A   1      38.386  31.522  36.713  1.00  0.00     0.031 A 
ATOM     77  C   UNL A   1      39.357  33.522  35.790  1.00  0.00     0.131 A 
ATOM     78  C   UNL A   1      37.942  32.276  37.811  1.00  0.00     0.055 A 
ATOM     79  C   UNL A   1      38.962  34.256  36.910  1.00  0.00     0.041 A 
ATOM     80  F   UNL A   1      40.023  34.171  34.822  1.00  0.00    -0.206 F 
ATOM     81  C   UNL A   1      38.237  33.636  37.923  1.00  0.00     0.022 A 
BRANCH  78  82
ATOM     82  S   UNL A   1      36.890  31.470  39.050  1.00  0.00     0.124 S 
ATOM     83  O   UNL A   1      37.732  31.532  40.240  1.00  0.00    -0.237 OA
ATOM     84  O   UNL A   1      35.711  32.329  39.053  1.00  0.00    -0.237 OA
ATOM     85  O   UNL A   1      36.682  30.131  38.501  1.00  0.00    -0.744 OA
ENDBRANCH  78  82
ENDBRANCH  51  75
BRANCH  63  86
ATOM     86  C   UNL A   1      44.414  27.888  34.209  1.00  0.00     0.023 A 
ATOM     87  C   UNL A   1      44.399  26.790  35.084  1.00  0.00     0.031 A 
ATOM     88  C   UNL A   1      45.611  28.616  34.079  1.00  0.00     0.131 A 
ATOM     89  C   UNL A   1      45.541  26.482  35.838  1.00  0.00     0.055 A 
ATOM     90  C   UNL A   1      46.763  28.267  34.785  1.00  0.00     0.041 A 
ATOM     91  F   UNL A   1      45.681  29.677  33.258  1.00  0.00    -0.206 F 
ATOM     92  C   UNL A   1      46.729  27.201  35.679  1.00  0.00     0.022 A 
BRANCH  89  93
ATOM     93  S   UNL A   1      45.431  25.179  37.094  1.00  0.00     0.124 S 
ATOM     94  O   UNL A   1      45.828  23.995  36.340  1.00  0.00    -0.237 OA
ATOM     95  O   UNL A   1      46.379  25.638  38.104  1.00  0.00    -0.237 OA
ATOM     96  O   UNL A   1      44.027  25.214  37.502  1.00  0.00    -0.744 OA
ENDBRANCH  89  93
ENDBRANCH  63  86
ENDBRANCH  37  38
ENDBRANCH  29  32
ENDBRANCH  27  28
ENDBRANCH   1  27
TORSDOF 16
ENDMDL
MODEL 2
REMARK VINA RESULT:     -12.0      5.074      8.153
REMARK SMILES C[NH+](C)Cc1ccccc1[C@H]1[NH2+][C@@H](C(=O)NCCCNC(=O)c2ccc(-c3c4nc(c(-c5cc(S(=O)(=O)[O-])ccc5F)c5ccc([nH]5)c(-c5cc(S(=O)(=O)[O-])ccc5F)c5nc(c(-c6cc(S(=O)(=O)[O-])ccc6F)c6ccc3[nH]6)C=C5)C=C4)cc2)C(C)(C)S1
REMARK SMILES IDX 18 1 17 2 16 3 14 4 15 5 13 7 11 8 12 9 89 10 86 13 87 14
REMARK SMILES IDX 88 15 10 16 5 17 6 18 7 19 9 20 8 21 4 22 2 23 1 24 3 25
REMARK SMILES IDX 19 27 20 28 21 29 22 31 23 32 24 33 85 34 25 35 84 36 26 37
REMARK SMILES IDX 27 38 28 39 78 40 29 41 83 42 77 43 79 44 30 45 82 46 76 47
REMARK SMILES IDX 75 48 31 50 63 51 43 52 62 53 44 54 47 55 61 56 80 57 45 58
REMARK SMILES IDX 46 59 60 61 81 62 48 63 32 64 33 65 41 66 34 67 40 68 42 69
REMARK SMILES IDX 39 70 35 71 36 72 37 73 38 74 64 75 65 76 73 77 66 78 72 79
REMARK SMILES IDX 74 80 71 81 67 82 68 83 69 84 70 85 49 86 50 87 58 88 51 89
REMARK SMILES IDX 57 90 59 91 56 92 52 93 53 94 54 95 55 96
REMARK H PARENT 16 6 12 11 12 12 2 26 20 30 79 49 47 60
REMARK Flexibility Score: inf
ROOT
ATOM      1  C   UNL A   1      35.720  21.704  25.999  1.00  0.00     0.042 C 
ENDROOT
BRANCH   1   2
ATOM      2  C   UNL A   1      34.479  21.006  25.476  1.00  0.00     0.118 C 
BRANCH   2   3
ATOM      3  N   UNL A   1      33.226  21.350  26.094  1.00  0.00    -0.351 N 
ATOM      4  C   UNL A   1      32.419  22.413  25.800  1.00  0.00     0.279 C 
ATOM      5  O   UNL A   1      31.233  22.302  26.143  1.00  0.00    -0.268 OA
ATOM      6  H   UNL A   1      32.915  20.750  26.810  1.00  0.00     0.163 HD
BRANCH   4   7
ATOM      7  C   UNL A   1      32.897  23.758  25.168  1.00  0.00     0.289 C 
ATOM      8  C   UNL A   1      33.098  26.139  25.153  1.00  0.00     0.275 C 
ATOM      9  N   UNL A   1      32.605  25.003  25.964  1.00  0.00    -0.320 N 
ATOM     10  S   UNL A   1      32.740  25.768  23.404  1.00  0.00    -0.081 SA
ATOM     11  H   UNL A   1      31.602  25.092  26.125  1.00  0.00     0.348 HD
ATOM     12  H   UNL A   1      33.059  24.974  26.878  1.00  0.00     0.348 HD
ATOM     13  C   UNL A   1      32.526  23.933  23.668  1.00  0.00     0.077 C 
ATOM     14  C   UNL A   1      31.120  23.516  23.215  1.00  0.00     0.030 C 
ATOM     15  C   UNL A   1      33.511  23.134  22.793  1.00  0.00     0.030 C 
BRANCH   8  16
ATOM     16  C   UNL A   1      32.963  27.626  25.634  1.00  0.00     0.029 A 
ATOM     17  C   UNL A   1      32.022  28.678  25.381  1.00  0.00     0.016 A 
ATOM     18  C   UNL A   1      32.228  29.966  25.984  1.00  0.00     0.010 A 
ATOM     19  C   UNL A   1      33.266  30.256  26.844  1.00  0.00     0.001 A 
ATOM     20  C   UNL A   1      34.034  28.000  26.513  1.00  0.00     0.011 A 
ATOM     21  C   UNL A   1      34.176  29.262  27.112  1.00  0.00     0.001 A 
BRANCH  17  22
ATOM     22  C   UNL A   1      30.756  28.804  24.541  1.00  0.00     0.299 C 
BRANCH  22  23
ATOM     23  N   UNL A   1      30.706  29.683  23.412  1.00  0.00    -0.336 N 
ATOM     24  C   UNL A   1      31.455  29.115  22.323  1.00  0.00     0.332 C 
ATOM     25  C   UNL A   1      29.386  30.267  23.255  1.00  0.00     0.332 C 
ATOM     26  H   UNL A   1      31.217  30.559  23.522  1.00  0.00     0.347 HD
ENDBRANCH  22  23
ENDBRANCH  17  22
ENDBRANCH   8  16
ENDBRANCH   4   7
ENDBRANCH   2   3
ENDBRANCH   1   2
BRANCH   1  27
ATOM     27  C   UNL A   1      36.884  21.725  25.019  1.00  0.00     0.118 C 
BRANCH  27  28
ATOM     28  N   UNL A   1      37.951  20.768  25.304  1.00  0.00    -0.352 N 
ATOM     29  C   UNL A   1      39.159  20.915  25.971  1.00  0.00     0.251 C 
ATOM     30  H   UNL A   1      37.784  19.860  24.965  1.00  0.00     0.163 HD
ATOM     31  O   UNL A   1      39.900  19.962  26.084  1.00  0.00    -0.269 OA
BRANCH  29  32
ATOM     32  C   UNL A   1      39.569  22.247  26.495  1.00  0.00     0.039 A 
ATOM     33  C   UNL A   1      40.660  22.331  27.367  1.00  0.00     0.014 A 
ATOM     34  C   UNL A   1      38.918  23.412  26.101  1.00  0.00     0.014 A 
ATOM     35  C   UNL A   1      41.163  23.585  27.736  1.00  0.00     0.010 A 
ATOM     36  C   UNL A   1      39.502  24.646  26.348  1.00  0.00     0.010 A 
ATOM     37  C   UNL A   1      40.629  24.755  27.175  1.00  0.00    -0.014 A 
BRANCH  37  38
ATOM     38  C   UNL A   1      41.199  26.105  27.442  1.00  0.00     0.031 A 
ATOM     39  C   UNL A   1      42.565  26.455  26.904  1.00  0.00     0.074 A 
ATOM     40  C   UNL A   1      40.550  26.971  28.248  1.00  0.00     0.049 A 
ATOM     41  N   UNL A   1      43.318  27.493  27.157  1.00  0.00    -0.248 NA
ATOM     42  C   UNL A   1      43.187  25.473  26.001  1.00  0.00     0.031 C 
ATOM     43  C   UNL A   1      39.249  26.734  28.877  1.00  0.00     0.029 A 
ATOM     44  N   UNL A   1      40.903  28.223  28.690  1.00  0.00    -0.354 N 
ATOM     45  C   UNL A   1      44.512  27.269  26.477  1.00  0.00     0.074 A 
ATOM     46  C   UNL A   1      44.410  25.961  25.871  1.00  0.00     0.031 C 
ATOM     47  C   UNL A   1      38.898  27.815  29.592  1.00  0.00     0.029 A 
ATOM     48  C   UNL A   1      39.971  28.801  29.523  1.00  0.00     0.049 A 
ATOM     49  H   UNL A   1      41.744  28.665  28.435  1.00  0.00     0.167 HD
ATOM     50  C   UNL A   1      45.582  28.091  26.342  1.00  0.00     0.034 A 
ATOM     51  C   UNL A   1      39.987  29.985  30.170  1.00  0.00     0.034 A 
ATOM     52  C   UNL A   1      45.648  29.412  26.918  1.00  0.00     0.049 A 
ATOM     53  C   UNL A   1      41.185  30.885  30.004  1.00  0.00     0.074 A 
ATOM     54  C   UNL A   1      46.648  30.360  26.789  1.00  0.00     0.029 A 
ATOM     55  N   UNL A   1      44.671  29.973  27.731  1.00  0.00    -0.354 N 
ATOM     56  N   UNL A   1      42.286  30.679  29.318  1.00  0.00    -0.248 NA
ATOM     57  C   UNL A   1      41.140  32.183  30.690  1.00  0.00     0.031 C 
ATOM     58  C   UNL A   1      46.307  31.465  27.576  1.00  0.00     0.029 A 
ATOM     59  C   UNL A   1      45.058  31.242  28.132  1.00  0.00     0.049 A 
ATOM     60  H   UNL A   1      43.828  29.533  27.986  1.00  0.00     0.167 HD
ATOM     61  C   UNL A   1      43.047  31.836  29.465  1.00  0.00     0.074 A 
ATOM     62  C   UNL A   1      42.274  32.739  30.292  1.00  0.00     0.031 C 
ATOM     63  C   UNL A   1      44.274  32.128  28.959  1.00  0.00     0.034 A 
BRANCH  50  64
ATOM     64  C   UNL A   1      46.762  27.575  25.552  1.00  0.00     0.023 A 
ATOM     65  C   UNL A   1      47.030  28.021  24.245  1.00  0.00     0.031 A 
ATOM     66  C   UNL A   1      47.611  26.594  26.094  1.00  0.00     0.131 A 
ATOM     67  C   UNL A   1      48.053  27.425  23.494  1.00  0.00     0.055 A 
ATOM     68  C   UNL A   1      48.688  26.070  25.375  1.00  0.00     0.041 A 
ATOM     69  F   UNL A   1      47.397  26.110  27.328  1.00  0.00    -0.206 F 
ATOM     70  C   UNL A   1      48.903  26.472  24.059  1.00  0.00     0.022 A 
BRANCH  67  71
ATOM     71  S   UNL A   1      48.153  27.796  21.722  1.00  0.00     0.124 S 
ATOM     72  O   UNL A   1      46.828  28.359  21.465  1.00  0.00    -0.237 OA
ATOM     73  O   UNL A   1      49.269  28.732  21.656  1.00  0.00    -0.237 OA
ATOM     74  O   UNL A   1      48.394  26.490  21.111  1.00  0.00    -0.744 OA
ENDBRANCH  67  71
ENDBRANCH  50  64
BRANCH  51  75
ATOM     75  C   UNL A   1      38.841  30.393  31.036  1.00  0.00     0.023 A 
ATOM     76  C   UNL A   1      37.731  31.064  30.494  1.00  0.00     0.031 A 
ATOM     77  C   UNL A   1      38.855  30.161  32.422  1.00  0.00     0.131 A 
ATOM     78  C   UNL A   1      36.707  31.521  31.338  1.00  0.00     0.055 A 
ATOM     79  C   UNL A   1      37.807  30.568  33.250  1.00  0.00     0.041 A 
ATOM     80  F   UNL A   1      39.888  29.522  32.993  1.00  0.00    -0.206 F 
ATOM     81  C   UNL A   1      36.731  31.266  32.711  1.00  0.00     0.022 A 
BRANCH  78  82
ATOM     82  S   UNL A   1      35.384  32.539  30.626  1.00  0.00     0.124 S 
ATOM     83  O   UNL A   1      36.042  33.835  30.501  1.00  0.00    -0.237 OA
ATOM     84  O   UNL A   1      35.102  31.839  29.377  1.00  0.00    -0.237 OA
ATOM     85  O   UNL A   1      34.324  32.471  31.630  1.00  0.00    -0.744 OA
ENDBRANCH  78  82
ENDBRANCH  51  75
BRANCH  63  86
ATOM     86  C   UNL A   1      44.824  33.504  29.244  1.00  0.00     0.023 A 
ATOM     87  C   UNL A   1      44.627  34.579  28.361  1.00  0.00     0.031 A 
ATOM     88  C   UNL A   1      45.555  33.739  30.423  1.00  0.00     0.131 A 
ATOM     89  C   UNL A   1      45.201  35.827  28.643  1.00  0.00     0.055 A 
ATOM     90  C   UNL A   1      46.070  34.999  30.728  1.00  0.00     0.041 A 
ATOM     91  F   UNL A   1      45.774  32.746  31.300  1.00  0.00    -0.206 F 
ATOM     92  C   UNL A   1      45.904  36.049  29.830  1.00  0.00     0.022 A 
BRANCH  89  93
ATOM     93  S   UNL A   1      45.089  37.139  27.397  1.00  0.00     0.124 S 
ATOM     94  O   UNL A   1      45.513  38.313  28.152  1.00  0.00    -0.237 OA
ATOM     95  O   UNL A   1      46.017  36.674  26.370  1.00  0.00    -0.237 OA
ATOM     96  O   UNL A   1      43.680  37.125  27.009  1.00  0.00    -0.744 OA
ENDBRANCH  89  93
ENDBRANCH  63  86
ENDBRANCH  37  38
ENDBRANCH  29  32
ENDBRANCH  27  28
ENDBRANCH   1  27
TORSDOF 16
ENDMDL
MODEL 3
REMARK VINA RESULT:     -12.0      1.689      7.782
REMARK SMILES C[NH+](C)Cc1ccccc1[C@H]1[NH2+][C@@H](C(=O)NCCCNC(=O)c2ccc(-c3c4nc(c(-c5cc(S(=O)(=O)[O-])ccc5F)c5ccc([nH]5)c(-c5cc(S(=O)(=O)[O-])ccc5F)c5nc(c(-c6cc(S(=O)(=O)[O-])ccc6F)c6ccc3[nH]6)C=C5)C=C4)cc2)C(C)(C)S1
REMARK SMILES IDX 18 1 17 2 16 3 14 4 15 5 13 7 11 8 12 9 89 10 86 13 87 14
REMARK SMILES IDX 88 15 10 16 5 17 6 18 7 19 9 20 8 21 4 22 2 23 1 24 3 25
REMARK SMILES IDX 19 27 20 28 21 29 22 31 23 32 24 33 85 34 25 35 84 36 26 37
REMARK SMILES IDX 27 38 28 39 78 40 29 41 83 42 77 43 79 44 30 45 82 46 76 47
REMARK SMILES IDX 75 48 31 50 63 51 43 52 62 53 44 54 47 55 61 56 80 57 45 58
REMARK SMILES IDX 46 59 60 61 81 62 48 63 32 64 33 65 41 66 34 67 40 68 42 69
REMARK SMILES IDX 39 70 35 71 36 72 37 73 38 74 64 75 65 76 73 77 66 78 72 79
REMARK SMILES IDX 74 80 71 81 67 82 68 83 69 84 70 85 49 86 50 87 58 88 51 89
REMARK SMILES IDX 57 90 59 91 56 92 52 93 53 94 54 95 55 96
REMARK H PARENT 16 6 12 11 12 12 2 26 20 30 79 49 47 60
REMARK Flexibility Score: inf
ROOT
ATOM      1  C   UNL A   1      31.027  30.633  25.375  1.00  0.00     0.042 C 
ENDROOT
BRANCH   1   2
ATOM      2  C   UNL A   1      31.275  29.390  24.542  1.00  0.00     0.118 C 
BRANCH   2   3
ATOM      3  N   UNL A   1      32.514  29.327  23.814  1.00  0.00    -0.351 N 
ATOM      4  C   UNL A   1      33.075  28.232  23.221  1.00  0.00     0.279 C 
ATOM      5  O   UNL A   1      33.900  28.465  22.325  1.00  0.00    -0.268 OA
ATOM      6  H   UNL A   1      33.014  30.172  23.733  1.00  0.00     0.163 HD
BRANCH   4   7
ATOM      7  C   UNL A   1      32.829  26.751  23.649  1.00  0.00     0.289 C 
ATOM      8  C   UNL A   1      33.583  24.557  24.224  1.00  0.00     0.275 C 
ATOM      9  N   UNL A   1      34.061  25.917  23.881  1.00  0.00    -0.320 N 
ATOM     10  S   UNL A   1      32.119  24.209  23.192  1.00  0.00    -0.081 SA
ATOM     11  H   UNL A   1      34.632  25.888  23.037  1.00  0.00     0.348 HD
ATOM     12  H   UNL A   1      34.638  26.306  24.627  1.00  0.00     0.348 HD
ATOM     13  C   UNL A   1      31.775  25.998  22.789  1.00  0.00     0.077 C 
ATOM     14  C   UNL A   1      31.811  26.190  21.266  1.00  0.00     0.030 C 
ATOM     15  C   UNL A   1      30.357  26.399  23.237  1.00  0.00     0.030 C 
BRANCH   8  16
ATOM     16  C   UNL A   1      34.572  23.378  24.523  1.00  0.00     0.029 A 
ATOM     17  C   UNL A   1      34.561  22.270  25.433  1.00  0.00     0.016 A 
ATOM     18  C   UNL A   1      35.683  21.371  25.460  1.00  0.00     0.010 A 
ATOM     19  C   UNL A   1      36.773  21.476  24.622  1.00  0.00     0.001 A 
ATOM     20  C   UNL A   1      35.746  23.447  23.700  1.00  0.00     0.011 A 
ATOM     21  C   UNL A   1      36.802  22.522  23.733  1.00  0.00     0.001 A 
BRANCH  17  22
ATOM     22  C   UNL A   1      33.591  21.764  26.496  1.00  0.00     0.299 C 
BRANCH  22  23
ATOM     23  N   UNL A   1      32.234  21.451  26.164  1.00  0.00    -0.336 N 
ATOM     24  C   UNL A   1      31.390  22.576  26.466  1.00  0.00     0.332 C 
ATOM     25  C   UNL A   1      32.154  20.703  24.922  1.00  0.00     0.332 C 
ATOM     26  H   UNL A   1      31.793  20.751  26.760  1.00  0.00     0.347 HD
ENDBRANCH  22  23
ENDBRANCH  17  22
ENDBRANCH   8  16
ENDBRANCH   4   7
ENDBRANCH   2   3
ENDBRANCH   1   2
BRANCH   1  27
ATOM     27  C   UNL A   1      32.121  30.935  26.387  1.00  0.00     0.118 C 
BRANCH  27  28
ATOM     28  N   UNL A   1      32.149  32.312  26.877  1.00  0.00    -0.352 N 
ATOM     29  C   UNL A   1      33.110  33.008  27.597  1.00  0.00     0.251 C 
ATOM     30  H   UNL A   1      31.347  32.838  26.658  1.00  0.00     0.163 HD
ATOM     31  O   UNL A   1      32.908  34.165  27.900  1.00  0.00    -0.269 OA
BRANCH  29  32
ATOM     32  C   UNL A   1      34.354  32.324  28.042  1.00  0.00     0.039 A 
ATOM     33  C   UNL A   1      35.525  33.075  28.201  1.00  0.00     0.014 A 
ATOM     34  C   UNL A   1      34.366  30.967  28.347  1.00  0.00     0.014 A 
ATOM     35  C   UNL A   1      36.658  32.486  28.777  1.00  0.00     0.010 A 
ATOM     36  C   UNL A   1      35.435  30.426  29.047  1.00  0.00     0.010 A 
ATOM     37  C   UNL A   1      36.601  31.173  29.268  1.00  0.00    -0.014 A 
BRANCH  37  38
ATOM     38  C   UNL A   1      37.737  30.537  29.992  1.00  0.00     0.031 A 
ATOM     39  C   UNL A   1      37.999  30.905  31.432  1.00  0.00     0.074 A 
ATOM     40  C   UNL A   1      38.591  29.721  29.339  1.00  0.00     0.049 A 
ATOM     41  N   UNL A   1      39.021  30.610  32.193  1.00  0.00    -0.248 NA
ATOM     42  C   UNL A   1      37.000  31.767  32.083  1.00  0.00     0.031 C 
ATOM     43  C   UNL A   1      38.482  29.329  27.931  1.00  0.00     0.029 A 
ATOM     44  N   UNL A   1      39.730  29.086  29.767  1.00  0.00    -0.354 N 
ATOM     45  C   UNL A   1      38.804  31.280  33.394  1.00  0.00     0.074 A 
ATOM     46  C   UNL A   1      37.598  32.059  33.226  1.00  0.00     0.031 C 
ATOM     47  C   UNL A   1      39.488  28.496  27.624  1.00  0.00     0.029 A 
ATOM     48  C   UNL A   1      40.349  28.336  28.791  1.00  0.00     0.049 A 
ATOM     49  H   UNL A   1      40.073  29.158  30.687  1.00  0.00     0.167 HD
ATOM     50  C   UNL A   1      39.524  31.227  34.541  1.00  0.00     0.034 A 
ATOM     51  C   UNL A   1      41.488  27.615  28.828  1.00  0.00     0.034 A 
ATOM     52  C   UNL A   1      40.701  30.410  34.703  1.00  0.00     0.049 A 
ATOM     53  C   UNL A   1      42.273  27.566  30.115  1.00  0.00     0.074 A 
ATOM     54  C   UNL A   1      41.469  30.221  35.839  1.00  0.00     0.029 A 
ATOM     55  N   UNL A   1      41.279  29.642  33.700  1.00  0.00    -0.354 N 
ATOM     56  N   UNL A   1      42.028  28.168  31.257  1.00  0.00    -0.248 NA
ATOM     57  C   UNL A   1      43.483  26.733  30.123  1.00  0.00     0.031 C 
ATOM     58  C   UNL A   1      42.547  29.394  35.505  1.00  0.00     0.029 A 
ATOM     59  C   UNL A   1      42.408  29.001  34.184  1.00  0.00     0.049 A 
ATOM     60  H   UNL A   1      40.937  29.566  32.780  1.00  0.00     0.167 HD
ATOM     61  C   UNL A   1      43.035  27.758  32.126  1.00  0.00     0.074 A 
ATOM     62  C   UNL A   1      43.881  26.848  31.381  1.00  0.00     0.031 C 
ATOM     63  C   UNL A   1      43.242  28.098  33.425  1.00  0.00     0.034 A 
BRANCH  50  64
ATOM     64  C   UNL A   1      39.059  32.084  35.696  1.00  0.00     0.023 A 
ATOM     65  C   UNL A   1      39.476  33.420  35.841  1.00  0.00     0.031 A 
ATOM     66  C   UNL A   1      38.219  31.551  36.689  1.00  0.00     0.131 A 
ATOM     67  C   UNL A   1      39.132  34.143  36.992  1.00  0.00     0.055 A 
ATOM     68  C   UNL A   1      37.802  32.306  37.787  1.00  0.00     0.041 A 
ATOM     69  F   UNL A   1      37.803  30.276  36.621  1.00  0.00    -0.206 F 
ATOM     70  C   UNL A   1      38.274  33.606  37.954  1.00  0.00     0.022 A 
BRANCH  67  71
ATOM     71  S   UNL A   1      39.952  35.733  37.291  1.00  0.00     0.124 S 
ATOM     72  O   UNL A   1      39.269  36.191  38.500  1.00  0.00    -0.237 OA
ATOM     73  O   UNL A   1      41.347  35.344  37.455  1.00  0.00    -0.237 OA
ATOM     74  O   UNL A   1      39.653  36.504  36.087  1.00  0.00    -0.744 OA
ENDBRANCH  67  71
ENDBRANCH  50  64
BRANCH  51  75
ATOM     75  C   UNL A   1      41.964  26.882  27.617  1.00  0.00     0.023 A 
ATOM     76  C   UNL A   1      41.768  25.496  27.490  1.00  0.00     0.031 A 
ATOM     77  C   UNL A   1      42.660  27.544  26.591  1.00  0.00     0.131 A 
ATOM     78  C   UNL A   1      42.304  24.810  26.389  1.00  0.00     0.055 A 
ATOM     79  C   UNL A   1      43.141  26.866  25.469  1.00  0.00     0.041 A 
ATOM     80  F   UNL A   1      42.872  28.867  26.658  1.00  0.00    -0.206 F 
ATOM     81  C   UNL A   1      42.977  25.488  25.370  1.00  0.00     0.022 A 
BRANCH  78  82
ATOM     82  S   UNL A   1      42.187  23.000  26.352  1.00  0.00     0.124 S 
ATOM     83  O   UNL A   1      43.089  22.623  27.435  1.00  0.00    -0.237 OA
ATOM     84  O   UNL A   1      40.765  22.783  26.597  1.00  0.00    -0.237 OA
ATOM     85  O   UNL A   1      42.646  22.656  25.008  1.00  0.00    -0.744 OA
ENDBRANCH  78  82
ENDBRANCH  51  75
BRANCH  63  86
ATOM     86  C   UNL A   1      44.398  27.437  34.133  1.00  0.00     0.023 A 
ATOM     87  C   UNL A   1      44.242  26.236  34.846  1.00  0.00     0.031 A 
ATOM     88  C   UNL A   1      45.677  28.020  34.088  1.00  0.00     0.131 A 
ATOM     89  C   UNL A   1      45.335  25.685  35.531  1.00  0.00     0.055 A 
ATOM     90  C   UNL A   1      46.774  27.433  34.720  1.00  0.00     0.041 A 
ATOM     91  F   UNL A   1      45.882  29.168  33.422  1.00  0.00    -0.206 F 
ATOM     92  C   UNL A   1      46.604  26.265  35.456  1.00  0.00     0.022 A 
BRANCH  89  93
ATOM     93  S   UNL A   1      45.059  24.242  36.594  1.00  0.00     0.124 S 
ATOM     94  O   UNL A   1      44.358  23.332  35.694  1.00  0.00    -0.237 OA
ATOM     95  O   UNL A   1      46.419  23.856  36.957  1.00  0.00    -0.237 OA
ATOM     96  O   UNL A   1      44.253  24.774  37.692  1.00  0.00    -0.744 OA
ENDBRANCH  89  93
ENDBRANCH  63  86
ENDBRANCH  37  38
ENDBRANCH  29  32
ENDBRANCH  27  28
ENDBRANCH   1  27
TORSDOF 16
ENDMDL
