MODEL 1
REMARK VINA RESULT:     -12.1      0.000      0.000
REMARK SMILES Cc1nc(NC(=O)[C@@H]2CCC[C@@H](C(=O)NCCCNC(=O)c3ccc(-c4c5nc(c(-c6cc(S(=O)(=O)[O-])ccc6F)c6ccc([nH]6)c(-c6cc(S(=O)(=O)[O-])ccc6F)c6nc(c(-c7cc(S(=O)(=O)[O-])ccc7F)c7ccc4[nH]7)C=C6)C=C5)cc3)C2)ccc1Br
REMARK SMILES IDX 17 1 16 2 15 3 13 4 14 5 12 7 8 8 9 9 85 10 10 11 11 12 6 13
REMARK SMILES IDX 5 14 7 16 4 17 1 18 2 19 3 20 88 21 87 22 89 23 86 24 18 25
REMARK SMILES IDX 19 26 20 27 21 29 22 30 23 31 84 32 24 33 83 34 25 35 26 36
REMARK SMILES IDX 27 37 77 38 28 39 82 40 76 41 78 42 29 43 81 44 75 45 74 46
REMARK SMILES IDX 30 48 62 49 42 50 61 51 43 52 46 53 60 54 79 55 44 56 45 57
REMARK SMILES IDX 59 59 80 60 47 61 31 62 32 63 40 64 33 65 39 66 41 67 38 68
REMARK SMILES IDX 34 69 35 70 36 71 37 72 63 73 64 74 72 75 65 76 71 77 73 78
REMARK SMILES IDX 70 79 66 80 67 81 68 82 69 83 48 84 49 85 57 86 50 87 56 88
REMARK SMILES IDX 58 89 55 90 51 91 52 92 53 93 54 94
REMARK H PARENT 15 6 5 15 19 28 78 47 46 58
REMARK Flexibility Score: inf
ROOT
ATOM      1  C   UNL A   1      33.759  28.818  24.323  1.00  0.00     0.042 C 
ENDROOT
BRANCH   1   2
ATOM      2  C   UNL A   1      33.086  27.906  23.297  1.00  0.00     0.117 C 
BRANCH   2   3
ATOM      3  N   UNL A   1      33.479  26.514  23.455  1.00  0.00    -0.356 N 
ATOM      4  C   UNL A   1      32.867  25.311  23.455  1.00  0.00     0.223 C 
ATOM      5  O   UNL A   1      33.650  24.356  23.583  1.00  0.00    -0.275 OA
ATOM      6  H   UNL A   1      34.449  26.426  23.602  1.00  0.00     0.163 HD
BRANCH   4   7
ATOM      7  C   UNL A   1      31.362  25.008  23.306  1.00  0.00     0.079 C 
ATOM      8  C   UNL A   1      30.979  24.416  25.716  1.00  0.00     0.079 C 
ATOM      9  C   UNL A   1      29.868  25.464  25.839  1.00  0.00     0.013 C 
ATOM     10  C   UNL A   1      30.986  23.859  24.286  1.00  0.00     0.027 C 
ATOM     11  C   UNL A   1      30.044  26.595  24.835  1.00  0.00     0.002 C 
ATOM     12  C   UNL A   1      30.298  26.099  23.413  1.00  0.00     0.013 C 
BRANCH   8  13
ATOM     13  C   UNL A   1      30.818  23.385  26.814  1.00  0.00     0.228 C 
ATOM     14  N   UNL A   1      31.857  22.572  27.167  1.00  0.00    -0.310 N 
ATOM     15  H   UNL A   1      31.637  22.014  27.947  1.00  0.00     0.171 HD
ATOM     16  O   UNL A   1      29.751  23.290  27.430  1.00  0.00    -0.274 OA
BRANCH  14  17
ATOM     17  C   UNL A   1      33.156  22.328  26.702  1.00  0.00     0.132 A 
ATOM     18  C   UNL A   1      34.482  19.543  24.682  1.00  0.00     0.068 C 
ATOM     19  C   UNL A   1      34.449  20.843  25.429  1.00  0.00     0.054 A 
ATOM     20  N   UNL A   1      33.244  21.199  25.969  1.00  0.00    -0.235 NA
ATOM     21  C   UNL A   1      35.583  21.639  25.551  1.00  0.00     0.039 A 
ATOM     22  C   UNL A   1      35.486  22.793  26.309  1.00  0.00     0.021 A 
ATOM     23  Br  UNL A   1      37.241  21.232  24.740  1.00  0.00    -0.049 Br
ATOM     24  C   UNL A   1      34.271  23.125  26.907  1.00  0.00     0.048 A 
ENDBRANCH  14  17
ENDBRANCH   8  13
ENDBRANCH   4   7
ENDBRANCH   2   3
ENDBRANCH   1   2
BRANCH   1  25
ATOM     25  C   UNL A   1      32.995  28.941  25.637  1.00  0.00     0.118 C 
BRANCH  25  26
ATOM     26  N   UNL A   1      32.602  30.314  25.908  1.00  0.00    -0.352 N 
ATOM     27  C   UNL A   1      33.071  31.171  26.874  1.00  0.00     0.251 C 
ATOM     28  H   UNL A   1      31.904  30.681  25.318  1.00  0.00     0.163 HD
ATOM     29  O   UNL A   1      32.443  32.201  27.129  1.00  0.00    -0.269 OA
BRANCH  27  30
ATOM     30  C   UNL A   1      34.315  30.862  27.611  1.00  0.00     0.039 A 
ATOM     31  C   UNL A   1      35.362  31.788  27.614  1.00  0.00     0.014 A 
ATOM     32  C   UNL A   1      34.471  29.632  28.254  1.00  0.00     0.014 A 
ATOM     33  C   UNL A   1      36.547  31.498  28.298  1.00  0.00     0.010 A 
ATOM     34  C   UNL A   1      35.628  29.371  28.987  1.00  0.00     0.010 A 
ATOM     35  C   UNL A   1      36.687  30.290  29.002  1.00  0.00    -0.014 A 
BRANCH  35  36
ATOM     36  C   UNL A   1      37.956  29.945  29.698  1.00  0.00     0.031 A 
ATOM     37  C   UNL A   1      38.240  30.510  31.064  1.00  0.00     0.074 A 
ATOM     38  C   UNL A   1      38.867  29.153  29.100  1.00  0.00     0.049 A 
ATOM     39  N   UNL A   1      39.282  30.327  31.831  1.00  0.00    -0.248 NA
ATOM     40  C   UNL A   1      37.230  31.417  31.635  1.00  0.00     0.031 C 
ATOM     41  C   UNL A   1      38.736  28.579  27.762  1.00  0.00     0.029 A 
ATOM     42  N   UNL A   1      40.086  28.693  29.541  1.00  0.00    -0.354 N 
ATOM     43  C   UNL A   1      39.055  31.093  32.969  1.00  0.00     0.074 A 
ATOM     44  C   UNL A   1      37.812  31.801  32.761  1.00  0.00     0.031 C 
ATOM     45  C   UNL A   1      39.815  27.822  27.502  1.00  0.00     0.029 A 
ATOM     46  C   UNL A   1      40.729  27.875  28.641  1.00  0.00     0.049 A 
ATOM     47  H   UNL A   1      40.462  28.928  30.420  1.00  0.00     0.167 HD
ATOM     48  C   UNL A   1      39.791  31.173  34.101  1.00  0.00     0.034 A 
ATOM     49  C   UNL A   1      41.913  27.232  28.726  1.00  0.00     0.034 A 
ATOM     50  C   UNL A   1      41.016  30.448  34.316  1.00  0.00     0.049 A 
ATOM     51  C   UNL A   1      42.719  27.331  29.996  1.00  0.00     0.074 A 
ATOM     52  C   UNL A   1      41.808  30.429  35.450  1.00  0.00     0.029 A 
ATOM     53  N   UNL A   1      41.620  29.612  33.389  1.00  0.00    -0.354 N 
ATOM     54  N   UNL A   1      42.446  27.994  31.095  1.00  0.00    -0.248 NA
ATOM     55  C   UNL A   1      43.985  26.584  30.051  1.00  0.00     0.031 C 
ATOM     56  C   UNL A   1      42.916  29.621  35.193  1.00  0.00     0.029 A 
ATOM     57  C   UNL A   1      42.782  29.083  33.923  1.00  0.00     0.049 A 
ATOM     58  H   UNL A   1      41.275  29.424  32.487  1.00  0.00     0.167 HD
ATOM     59  C   UNL A   1      43.482  27.711  31.983  1.00  0.00     0.074 A 
ATOM     60  C   UNL A   1      44.383  26.812  31.296  1.00  0.00     0.031 C 
ATOM     61  C   UNL A   1      43.661  28.156  33.251  1.00  0.00     0.034 A 
BRANCH  48  62
ATOM     62  C   UNL A   1      39.285  32.039  35.225  1.00  0.00     0.023 A 
ATOM     63  C   UNL A   1      39.776  33.347  35.386  1.00  0.00     0.031 A 
ATOM     64  C   UNL A   1      38.406  31.529  36.198  1.00  0.00     0.131 A 
ATOM     65  C   UNL A   1      39.408  34.090  36.514  1.00  0.00     0.055 A 
ATOM     66  C   UNL A   1      38.011  32.289  37.298  1.00  0.00     0.041 A 
ATOM     67  F   UNL A   1      37.910  30.286  36.084  1.00  0.00    -0.206 F 
ATOM     68  C   UNL A   1      38.523  33.572  37.466  1.00  0.00     0.022 A 
BRANCH  65  69
ATOM     69  S   UNL A   1      40.098  35.740  36.812  1.00  0.00     0.124 S 
ATOM     70  O   UNL A   1      39.602  36.488  35.658  1.00  0.00    -0.237 OA
ATOM     71  O   UNL A   1      39.494  36.094  38.093  1.00  0.00    -0.237 OA
ATOM     72  O   UNL A   1      41.540  35.519  36.831  1.00  0.00    -0.744 OA
ENDBRANCH  65  69
ENDBRANCH  48  62
BRANCH  49  73
ATOM     73  C   UNL A   1      42.350  26.366  27.594  1.00  0.00     0.023 A 
ATOM     74  C   UNL A   1      41.898  25.040  27.478  1.00  0.00     0.031 A 
ATOM     75  C   UNL A   1      43.300  26.827  26.666  1.00  0.00     0.131 A 
ATOM     76  C   UNL A   1      42.441  24.205  26.491  1.00  0.00     0.055 A 
ATOM     77  C   UNL A   1      43.791  26.010  25.645  1.00  0.00     0.041 A 
ATOM     78  F   UNL A   1      43.767  28.082  26.745  1.00  0.00    -0.206 F 
ATOM     79  C   UNL A   1      43.370  24.686  25.563  1.00  0.00     0.022 A 
BRANCH  76  80
ATOM     80  S   UNL A   1      42.025  22.441  26.440  1.00  0.00     0.124 S 
ATOM     81  O   UNL A   1      40.566  22.467  26.484  1.00  0.00    -0.237 OA
ATOM     82  O   UNL A   1      42.612  22.040  25.164  1.00  0.00    -0.237 OA
ATOM     83  O   UNL A   1      42.680  21.899  27.625  1.00  0.00    -0.744 OA
ENDBRANCH  76  80
ENDBRANCH  49  73
BRANCH  61  84
ATOM     84  C   UNL A   1      44.852  27.668  34.038  1.00  0.00     0.023 A 
ATOM     85  C   UNL A   1      44.704  26.570  34.909  1.00  0.00     0.031 A 
ATOM     86  C   UNL A   1      46.060  28.382  34.065  1.00  0.00     0.131 A 
ATOM     87  C   UNL A   1      45.731  26.247  35.804  1.00  0.00     0.055 A 
ATOM     88  C   UNL A   1      47.100  28.026  34.927  1.00  0.00     0.041 A 
ATOM     89  F   UNL A   1      46.243  29.443  33.263  1.00  0.00    -0.206 F 
ATOM     90  C   UNL A   1      46.931  26.965  35.812  1.00  0.00     0.022 A 
BRANCH  87  91
ATOM     91  S   UNL A   1      45.515  24.940  37.042  1.00  0.00     0.124 S 
ATOM     92  O   UNL A   1      44.344  25.409  37.778  1.00  0.00    -0.237 OA
ATOM     93  O   UNL A   1      45.298  23.761  36.208  1.00  0.00    -0.237 OA
ATOM     94  O   UNL A   1      46.766  24.956  37.794  1.00  0.00    -0.744 OA
ENDBRANCH  87  91
ENDBRANCH  61  84
ENDBRANCH  35  36
ENDBRANCH  27  30
ENDBRANCH  25  26
ENDBRANCH   1  25
TORSDOF 15
ENDMDL
MODEL 2
REMARK VINA RESULT:     -12.0      2.494      3.161
REMARK SMILES Cc1nc(NC(=O)[C@@H]2CCC[C@@H](C(=O)NCCCNC(=O)c3ccc(-c4c5nc(c(-c6cc(S(=O)(=O)[O-])ccc6F)c6ccc([nH]6)c(-c6cc(S(=O)(=O)[O-])ccc6F)c6nc(c(-c7cc(S(=O)(=O)[O-])ccc7F)c7ccc4[nH]7)C=C6)C=C5)cc3)C2)ccc1Br
REMARK SMILES IDX 17 1 16 2 15 3 13 4 14 5 12 7 8 8 9 9 85 10 10 11 11 12 6 13
REMARK SMILES IDX 5 14 7 16 4 17 1 18 2 19 3 20 88 21 87 22 89 23 86 24 18 25
REMARK SMILES IDX 19 26 20 27 21 29 22 30 23 31 84 32 24 33 83 34 25 35 26 36
REMARK SMILES IDX 27 37 77 38 28 39 82 40 76 41 78 42 29 43 81 44 75 45 74 46
REMARK SMILES IDX 30 48 62 49 42 50 61 51 43 52 46 53 60 54 79 55 44 56 45 57
REMARK SMILES IDX 59 59 80 60 47 61 31 62 32 63 40 64 33 65 39 66 41 67 38 68
REMARK SMILES IDX 34 69 35 70 36 71 37 72 63 73 64 74 72 75 65 76 71 77 73 78
REMARK SMILES IDX 70 79 66 80 67 81 68 82 69 83 48 84 49 85 57 86 50 87 56 88
REMARK SMILES IDX 58 89 55 90 51 91 52 92 53 93 54 94
REMARK H PARENT 15 6 5 15 19 28 78 47 46 58
REMARK Flexibility Score: inf
ROOT
ATOM      1  C   UNL A   1      32.853  28.575  25.037  1.00  0.00     0.042 C 
ENDROOT
BRANCH   1   2
ATOM      2  C   UNL A   1      33.317  27.996  23.700  1.00  0.00     0.117 C 
BRANCH   2   3
ATOM      3  N   UNL A   1      33.696  26.595  23.807  1.00  0.00    -0.356 N 
ATOM      4  C   UNL A   1      33.086  25.398  23.681  1.00  0.00     0.223 C 
ATOM      5  O   UNL A   1      33.855  24.433  23.818  1.00  0.00    -0.275 OA
ATOM      6  H   UNL A   1      34.649  26.494  24.032  1.00  0.00     0.163 HD
BRANCH   4   7
ATOM      7  C   UNL A   1      31.599  25.111  23.385  1.00  0.00     0.079 C 
ATOM      8  C   UNL A   1      30.987  24.472  25.734  1.00  0.00     0.079 C 
ATOM      9  C   UNL A   1      29.877  25.528  25.775  1.00  0.00     0.013 C 
ATOM     10  C   UNL A   1      31.125  23.945  24.299  1.00  0.00     0.027 C 
ATOM     11  C   UNL A   1      30.155  26.678  24.817  1.00  0.00     0.002 C 
ATOM     12  C   UNL A   1      30.538  26.210  23.415  1.00  0.00     0.013 C 
BRANCH   8  13
ATOM     13  C   UNL A   1      30.716  23.419  26.789  1.00  0.00     0.228 C 
ATOM     14  N   UNL A   1      31.687  22.532  27.156  1.00  0.00    -0.310 N 
ATOM     15  H   UNL A   1      31.400  21.965  27.908  1.00  0.00     0.171 HD
ATOM     16  O   UNL A   1      29.620  23.372  27.357  1.00  0.00    -0.274 OA
BRANCH  14  17
ATOM     17  C   UNL A   1      32.987  22.222  26.737  1.00  0.00     0.132 A 
ATOM     18  C   UNL A   1      34.219  19.453  24.636  1.00  0.00     0.068 C 
ATOM     19  C   UNL A   1      34.237  20.715  25.447  1.00  0.00     0.054 A 
ATOM     20  N   UNL A   1      33.034  21.126  25.951  1.00  0.00    -0.235 NA
ATOM     21  C   UNL A   1      35.415  21.424  25.660  1.00  0.00     0.039 A 
ATOM     22  C   UNL A   1      35.359  22.542  26.472  1.00  0.00     0.021 A 
ATOM     23  Br  UNL A   1      37.079  20.943  24.903  1.00  0.00    -0.049 Br
ATOM     24  C   UNL A   1      34.142  22.928  27.032  1.00  0.00     0.048 A 
ENDBRANCH  14  17
ENDBRANCH   8  13
ENDBRANCH   4   7
ENDBRANCH   2   3
ENDBRANCH   1   2
BRANCH   1  25
ATOM     25  C   UNL A   1      33.993  28.958  25.974  1.00  0.00     0.118 C 
BRANCH  25  26
ATOM     26  N   UNL A   1      33.794  30.275  26.557  1.00  0.00    -0.352 N 
ATOM     27  C   UNL A   1      34.472  30.873  27.592  1.00  0.00     0.251 C 
ATOM     28  H   UNL A   1      33.073  30.813  26.155  1.00  0.00     0.163 HD
ATOM     29  O   UNL A   1      34.000  31.878  28.127  1.00  0.00    -0.269 OA
BRANCH  27  30
ATOM     30  C   UNL A   1      35.755  30.314  28.069  1.00  0.00     0.039 A 
ATOM     31  C   UNL A   1      35.808  29.676  29.312  1.00  0.00     0.014 A 
ATOM     32  C   UNL A   1      36.921  30.469  27.315  1.00  0.00     0.014 A 
ATOM     33  C   UNL A   1      37.021  29.156  29.777  1.00  0.00     0.010 A 
ATOM     34  C   UNL A   1      38.114  29.895  27.752  1.00  0.00     0.010 A 
ATOM     35  C   UNL A   1      38.184  29.250  28.995  1.00  0.00    -0.014 A 
BRANCH  35  36
ATOM     36  C   UNL A   1      39.492  28.743  29.491  1.00  0.00     0.031 A 
ATOM     37  C   UNL A   1      40.180  29.437  30.636  1.00  0.00     0.074 A 
ATOM     38  C   UNL A   1      40.080  27.684  28.901  1.00  0.00     0.049 A 
ATOM     39  N   UNL A   1      41.317  29.147  31.211  1.00  0.00    -0.248 NA
ATOM     40  C   UNL A   1      39.513  30.625  31.196  1.00  0.00     0.031 C 
ATOM     41  C   UNL A   1      39.543  26.952  27.755  1.00  0.00     0.029 A 
ATOM     42  N   UNL A   1      41.260  27.038  29.185  1.00  0.00    -0.354 N 
ATOM     43  C   UNL A   1      41.502  30.113  32.194  1.00  0.00     0.074 A 
ATOM     44  C   UNL A   1      40.398  31.039  32.089  1.00  0.00     0.031 C 
ATOM     45  C   UNL A   1      40.374  25.942  27.451  1.00  0.00     0.029 A 
ATOM     46  C   UNL A   1      41.518  25.967  28.361  1.00  0.00     0.049 A 
ATOM     47  H   UNL A   1      41.864  27.317  29.910  1.00  0.00     0.167 HD
ATOM     48  C   UNL A   1      42.480  30.202  33.126  1.00  0.00     0.034 A 
ATOM     49  C   UNL A   1      42.549  25.096  28.346  1.00  0.00     0.034 A 
ATOM     50  C   UNL A   1      43.565  29.264  33.244  1.00  0.00     0.049 A 
ATOM     51  C   UNL A   1      43.629  25.210  29.393  1.00  0.00     0.074 A 
ATOM     52  C   UNL A   1      44.577  29.245  34.186  1.00  0.00     0.029 A 
ATOM     53  N   UNL A   1      43.775  28.180  32.406  1.00  0.00    -0.354 N 
ATOM     54  N   UNL A   1      43.742  26.080  30.367  1.00  0.00    -0.248 NA
ATOM     55  C   UNL A   1      44.712  24.216  29.353  1.00  0.00     0.031 C 
ATOM     56  C   UNL A   1      45.428  28.180  33.890  1.00  0.00     0.029 A 
ATOM     57  C   UNL A   1      44.910  27.494  32.803  1.00  0.00     0.049 A 
ATOM     58  H   UNL A   1      43.205  27.936  31.643  1.00  0.00     0.167 HD
ATOM     59  C   UNL A   1      44.882  25.715  31.080  1.00  0.00     0.074 A 
ATOM     60  C   UNL A   1      45.420  24.541  30.429  1.00  0.00     0.031 C 
ATOM     61  C   UNL A   1      45.425  26.301  32.176  1.00  0.00     0.034 A 
BRANCH  48  62
ATOM     62  C   UNL A   1      42.413  31.324  34.129  1.00  0.00     0.023 A 
ATOM     63  C   UNL A   1      41.429  31.316  35.133  1.00  0.00     0.031 A 
ATOM     64  C   UNL A   1      43.247  32.451  34.017  1.00  0.00     0.131 A 
ATOM     65  C   UNL A   1      41.284  32.431  35.968  1.00  0.00     0.055 A 
ATOM     66  C   UNL A   1      43.125  33.541  34.878  1.00  0.00     0.041 A 
ATOM     67  F   UNL A   1      44.203  32.501  33.075  1.00  0.00    -0.206 F 
ATOM     68  C   UNL A   1      42.131  33.538  35.851  1.00  0.00     0.022 A 
BRANCH  65  69
ATOM     69  S   UNL A   1      39.963  32.505  37.208  1.00  0.00     0.124 S 
ATOM     70  O   UNL A   1      39.339  33.793  36.908  1.00  0.00    -0.237 OA
ATOM     71  O   UNL A   1      39.165  31.331  36.872  1.00  0.00    -0.237 OA
ATOM     72  O   UNL A   1      40.674  32.446  38.481  1.00  0.00    -0.744 OA
ENDBRANCH  65  69
ENDBRANCH  48  62
BRANCH  49  73
ATOM     73  C   UNL A   1      42.549  23.989  27.348  1.00  0.00     0.023 A 
ATOM     74  C   UNL A   1      41.886  22.777  27.610  1.00  0.00     0.031 A 
ATOM     75  C   UNL A   1      43.291  24.096  26.159  1.00  0.00     0.131 A 
ATOM     76  C   UNL A   1      42.027  21.701  26.721  1.00  0.00     0.055 A 
ATOM     77  C   UNL A   1      43.377  23.043  25.246  1.00  0.00     0.041 A 
ATOM     78  F   UNL A   1      43.948  25.230  25.873  1.00  0.00    -0.206 F 
ATOM     79  C   UNL A   1      42.752  21.833  25.532  1.00  0.00     0.022 A 
BRANCH  76  80
ATOM     80  S   UNL A   1      41.349  20.070  27.126  1.00  0.00     0.124 S 
ATOM     81  O   UNL A   1      42.540  19.226  27.107  1.00  0.00    -0.237 OA
ATOM     82  O   UNL A   1      40.769  20.314  28.445  1.00  0.00    -0.237 OA
ATOM     83  O   UNL A   1      40.386  19.823  26.058  1.00  0.00    -0.744 OA
ENDBRANCH  76  80
ENDBRANCH  49  73
BRANCH  61  84
ATOM     84  C   UNL A   1      46.653  25.688  32.802  1.00  0.00     0.023 A 
ATOM     85  C   UNL A   1      47.900  25.824  32.160  1.00  0.00     0.031 A 
ATOM     86  C   UNL A   1      46.565  24.835  33.914  1.00  0.00     0.131 A 
ATOM     87  C   UNL A   1      48.999  25.081  32.607  1.00  0.00     0.055 A 
ATOM     88  C   UNL A   1      47.676  24.132  34.385  1.00  0.00     0.041 A 
ATOM     89  F   UNL A   1      45.396  24.663  34.551  1.00  0.00    -0.206 F 
ATOM     90  C   UNL A   1      48.895  24.242  33.722  1.00  0.00     0.022 A 
BRANCH  87  91
ATOM     91  S   UNL A   1      50.576  25.114  31.713  1.00  0.00     0.124 S 
ATOM     92  O   UNL A   1      51.322  26.130  32.451  1.00  0.00    -0.237 OA
ATOM     93  O   UNL A   1      51.051  23.744  31.882  1.00  0.00    -0.237 OA
ATOM     94  O   UNL A   1      50.202  25.486  30.352  1.00  0.00    -0.744 OA
ENDBRANCH  87  91
ENDBRANCH  61  84
ENDBRANCH  35  36
ENDBRANCH  27  30
ENDBRANCH  25  26
ENDBRANCH   1  25
TORSDOF 15
ENDMDL
MODEL 3
REMARK VINA RESULT:     -12.0      1.464      1.792
REMARK SMILES Cc1nc(NC(=O)[C@@H]2CCC[C@@H](C(=O)NCCCNC(=O)c3ccc(-c4c5nc(c(-c6cc(S(=O)(=O)[O-])ccc6F)c6ccc([nH]6)c(-c6cc(S(=O)(=O)[O-])ccc6F)c6nc(c(-c7cc(S(=O)(=O)[O-])ccc7F)c7ccc4[nH]7)C=C6)C=C5)cc3)C2)ccc1Br
REMARK SMILES IDX 17 1 16 2 15 3 13 4 14 5 12 7 8 8 9 9 85 10 10 11 11 12 6 13
REMARK SMILES IDX 5 14 7 16 4 17 1 18 2 19 3 20 88 21 87 22 89 23 86 24 18 25
REMARK SMILES IDX 19 26 20 27 21 29 22 30 23 31 84 32 24 33 83 34 25 35 26 36
REMARK SMILES IDX 27 37 77 38 28 39 82 40 76 41 78 42 29 43 81 44 75 45 74 46
REMARK SMILES IDX 30 48 62 49 42 50 61 51 43 52 46 53 60 54 79 55 44 56 45 57
REMARK SMILES IDX 59 59 80 60 47 61 31 62 32 63 40 64 33 65 39 66 41 67 38 68
REMARK SMILES IDX 34 69 35 70 36 71 37 72 63 73 64 74 72 75 65 76 71 77 73 78
REMARK SMILES IDX 70 79 66 80 67 81 68 82 69 83 48 84 49 85 57 86 50 87 56 88
REMARK SMILES IDX 58 89 55 90 51 91 52 92 53 93 54 94
REMARK H PARENT 15 6 5 15 19 28 78 47 46 58
REMARK Flexibility Score: inf
ROOT
ATOM      1  C   UNL A   1      32.304  28.970  24.867  1.00  0.00     0.042 C 
ENDROOT
BRANCH   1   2
ATOM      2  C   UNL A   1      32.846  28.267  23.622  1.00  0.00     0.117 C 
BRANCH   2   3
ATOM      3  N   UNL A   1      33.365  26.941  23.920  1.00  0.00    -0.356 N 
ATOM      4  C   UNL A   1      32.907  25.673  23.882  1.00  0.00     0.223 C 
ATOM      5  O   UNL A   1      33.760  24.826  24.192  1.00  0.00    -0.275 OA
ATOM      6  H   UNL A   1      34.298  26.979  24.232  1.00  0.00     0.163 HD
BRANCH   4   7
ATOM      7  C   UNL A   1      31.495  25.180  23.499  1.00  0.00     0.079 C 
ATOM      8  C   UNL A   1      30.826  24.487  25.817  1.00  0.00     0.079 C 
ATOM      9  C   UNL A   1      29.581  25.380  25.769  1.00  0.00     0.013 C 
ATOM     10  C   UNL A   1      31.127  23.969  24.405  1.00  0.00     0.027 C 
ATOM     11  C   UNL A   1      29.760  26.547  24.808  1.00  0.00     0.002 C 
ATOM     12  C   UNL A   1      30.293  26.122  23.442  1.00  0.00     0.013 C 
BRANCH   8  13
ATOM     13  C   UNL A   1      30.635  23.418  26.874  1.00  0.00     0.228 C 
ATOM     14  N   UNL A   1      31.659  22.580  27.213  1.00  0.00    -0.310 N 
ATOM     15  H   UNL A   1      31.419  21.996  27.969  1.00  0.00     0.171 HD
ATOM     16  O   UNL A   1      29.557  23.314  27.468  1.00  0.00    -0.274 OA
BRANCH  14  17
ATOM     17  C   UNL A   1      32.962  22.338  26.762  1.00  0.00     0.132 A 
ATOM     18  C   UNL A   1      34.283  19.635  24.629  1.00  0.00     0.068 C 
ATOM     19  C   UNL A   1      34.256  20.897  25.440  1.00  0.00     0.054 A 
ATOM     20  N   UNL A   1      33.047  21.245  25.974  1.00  0.00    -0.235 NA
ATOM     21  C   UNL A   1      35.400  21.667  25.624  1.00  0.00     0.039 A 
ATOM     22  C   UNL A   1      35.307  22.782  26.437  1.00  0.00     0.021 A 
ATOM     23  Br  UNL A   1      37.067  21.273  24.825  1.00  0.00    -0.049 Br
ATOM     24  C   UNL A   1      34.085  23.104  27.028  1.00  0.00     0.048 A 
ENDBRANCH  14  17
ENDBRANCH   8  13
ENDBRANCH   4   7
ENDBRANCH   2   3
ENDBRANCH   1   2
BRANCH   1  25
ATOM     25  C   UNL A   1      33.387  29.447  25.829  1.00  0.00     0.118 C 
BRANCH  25  26
ATOM     26  N   UNL A   1      33.146  30.807  26.284  1.00  0.00    -0.352 N 
ATOM     27  C   UNL A   1      33.767  31.503  27.292  1.00  0.00     0.251 C 
ATOM     28  H   UNL A   1      32.439  31.297  25.803  1.00  0.00     0.163 HD
ATOM     29  O   UNL A   1      33.259  32.544  27.714  1.00  0.00    -0.269 OA
BRANCH  27  30
ATOM     30  C   UNL A   1      35.032  31.008  27.876  1.00  0.00     0.039 A 
ATOM     31  C   UNL A   1      35.095  29.706  28.379  1.00  0.00     0.014 A 
ATOM     32  C   UNL A   1      36.143  31.849  27.978  1.00  0.00     0.014 A 
ATOM     33  C   UNL A   1      36.285  29.234  28.946  1.00  0.00     0.010 A 
ATOM     34  C   UNL A   1      37.345  31.357  28.484  1.00  0.00     0.010 A 
ATOM     35  C   UNL A   1      37.426  30.052  28.993  1.00  0.00    -0.014 A 
BRANCH  35  36
ATOM     36  C   UNL A   1      38.686  29.584  29.630  1.00  0.00     0.031 A 
ATOM     37  C   UNL A   1      39.104  30.142  30.964  1.00  0.00     0.074 A 
ATOM     38  C   UNL A   1      39.472  28.685  29.005  1.00  0.00     0.049 A 
ATOM     39  N   UNL A   1      40.161  29.861  31.680  1.00  0.00    -0.248 NA
ATOM     40  C   UNL A   1      38.231  31.165  31.563  1.00  0.00     0.031 C 
ATOM     41  C   UNL A   1      39.206  28.103  27.691  1.00  0.00     0.029 A 
ATOM     42  N   UNL A   1      40.656  28.104  29.393  1.00  0.00    -0.354 N 
ATOM     43  C   UNL A   1      40.082  30.670  32.807  1.00  0.00     0.074 A 
ATOM     44  C   UNL A   1      38.913  31.505  32.647  1.00  0.00     0.031 C 
ATOM     45  C   UNL A   1      40.180  27.227  27.394  1.00  0.00     0.029 A 
ATOM     46  C   UNL A   1      41.156  27.203  28.482  1.00  0.00     0.049 A 
ATOM     47  H   UNL A   1      41.104  28.314  30.244  1.00  0.00     0.167 HD
ATOM     48  C   UNL A   1      40.884  30.691  33.897  1.00  0.00     0.034 A 
ATOM     49  C   UNL A   1      42.267  26.436  28.521  1.00  0.00     0.034 A 
ATOM     50  C   UNL A   1      42.032  29.841  34.066  1.00  0.00     0.049 A 
ATOM     51  C   UNL A   1      43.148  26.472  29.744  1.00  0.00     0.074 A 
ATOM     52  C   UNL A   1      42.879  29.758  35.156  1.00  0.00     0.029 A 
ATOM     53  N   UNL A   1      42.490  28.926  33.130  1.00  0.00    -0.354 N 
ATOM     54  N   UNL A   1      43.009  27.182  30.838  1.00  0.00    -0.248 NA
ATOM     55  C   UNL A   1      44.326  25.591  29.751  1.00  0.00     0.031 C 
ATOM     56  C   UNL A   1      43.877  28.829  34.862  1.00  0.00     0.029 A 
ATOM     57  C   UNL A   1      43.616  28.283  33.616  1.00  0.00     0.049 A 
ATOM     58  H   UNL A   1      42.078  28.759  32.253  1.00  0.00     0.167 HD
ATOM     59  C   UNL A   1      44.056  26.805  31.677  1.00  0.00     0.074 A 
ATOM     60  C   UNL A   1      44.815  25.799  30.968  1.00  0.00     0.031 C 
ATOM     61  C   UNL A   1      44.351  27.253  32.923  1.00  0.00     0.034 A 
BRANCH  48  62
ATOM     62  C   UNL A   1      40.536  31.630  35.023  1.00  0.00     0.023 A 
ATOM     63  C   UNL A   1      39.498  31.310  35.915  1.00  0.00     0.031 A 
ATOM     64  C   UNL A   1      41.157  32.887  35.141  1.00  0.00     0.131 A 
ATOM     65  C   UNL A   1      39.088  32.252  36.866  1.00  0.00     0.055 A 
ATOM     66  C   UNL A   1      40.772  33.805  36.117  1.00  0.00     0.041 A 
ATOM     67  F   UNL A   1      42.156  33.235  34.313  1.00  0.00    -0.206 F 
ATOM     68  C   UNL A   1      39.724  33.493  36.978  1.00  0.00     0.022 A 
BRANCH  65  69
ATOM     69  S   UNL A   1      37.686  31.921  37.967  1.00  0.00     0.124 S 
ATOM     70  O   UNL A   1      37.403  30.515  37.681  1.00  0.00    -0.237 OA
ATOM     71  O   UNL A   1      38.262  32.187  39.281  1.00  0.00    -0.237 OA
ATOM     72  O   UNL A   1      36.661  32.860  37.522  1.00  0.00    -0.744 OA
ENDBRANCH  65  69
ENDBRANCH  48  62
BRANCH  49  73
ATOM     73  C   UNL A   1      42.545  25.506  27.390  1.00  0.00     0.023 A 
ATOM     74  C   UNL A   1      42.009  24.206  27.371  1.00  0.00     0.031 A 
ATOM     75  C   UNL A   1      43.428  25.874  26.361  1.00  0.00     0.131 A 
ATOM     76  C   UNL A   1      42.407  23.305  26.374  1.00  0.00     0.055 A 
ATOM     77  C   UNL A   1      43.772  24.993  25.333  1.00  0.00     0.041 A 
ATOM     78  F   UNL A   1      43.972  27.100  26.344  1.00  0.00    -0.206 F 
ATOM     79  C   UNL A   1      43.270  23.695  25.345  1.00  0.00     0.022 A 
BRANCH  76  80
ATOM     80  S   UNL A   1      41.888  21.569  26.434  1.00  0.00     0.124 S 
ATOM     81  O   UNL A   1      42.247  21.186  27.797  1.00  0.00    -0.237 OA
ATOM     82  O   UNL A   1      40.456  21.683  26.167  1.00  0.00    -0.237 OA
ATOM     83  O   UNL A   1      42.671  20.939  25.377  1.00  0.00    -0.744 OA
ENDBRANCH  76  80
ENDBRANCH  49  73
BRANCH  61  84
ATOM     84  C   UNL A   1      45.524  26.653  33.658  1.00  0.00     0.023 A 
ATOM     85  C   UNL A   1      45.306  25.601  34.570  1.00  0.00     0.031 A 
ATOM     86  C   UNL A   1      46.804  27.227  33.597  1.00  0.00     0.131 A 
ATOM     87  C   UNL A   1      46.340  25.186  35.416  1.00  0.00     0.055 A 
ATOM     88  C   UNL A   1      47.845  26.778  34.411  1.00  0.00     0.041 A 
ATOM     89  F   UNL A   1      47.057  28.240  32.754  1.00  0.00    -0.206 F 
ATOM     90  C   UNL A   1      47.611  25.765  35.336  1.00  0.00     0.022 A 
BRANCH  87  91
ATOM     91  S   UNL A   1      46.052  23.943  36.705  1.00  0.00     0.124 S 
ATOM     92  O   UNL A   1      45.375  24.725  37.736  1.00  0.00    -0.237 OA
ATOM     93  O   UNL A   1      45.216  22.969  36.009  1.00  0.00    -0.237 OA
ATOM     94  O   UNL A   1      47.392  23.483  37.057  1.00  0.00    -0.744 OA
ENDBRANCH  87  91
ENDBRANCH  61  84
ENDBRANCH  35  36
ENDBRANCH  27  30
ENDBRANCH  25  26
ENDBRANCH   1  25
TORSDOF 15
ENDMDL
