MODEL 1
REMARK VINA RESULT:     -12.6      0.000      0.000
REMARK SMILES Cc1cc(C[NH+]2C[C@@H](C)[C@H](C)C2)oc1C(=O)NCCCNC(=O)c1ccc(-c2c3nc(c(-c4cc(S(=O)(=O)[O-])ccc4F)c4ccc([nH]4)c(-c4cc(S(=O)(=O)[O-])ccc4F)c4nc(c(-c5cc(S(=O)(=O)[O-])ccc5F)c5ccc2[nH]5)C=C4)C=C3)cc1
REMARK SMILES IDX 19 1 18 2 17 3 15 4 16 5 14 7 1 8 2 9 3 10 4 11 13 12 5 13
REMARK SMILES IDX 6 14 7 15 12 16 8 18 10 19 9 20 11 21 20 22 21 23 22 24
REMARK SMILES IDX 23 26 24 27 25 28 86 29 26 30 85 31 27 32 28 33 29 34 79 35
REMARK SMILES IDX 30 36 84 37 78 38 80 39 31 40 83 41 77 42 76 43 32 45 64 46
REMARK SMILES IDX 44 47 63 48 45 49 48 50 62 51 81 52 46 53 47 54 61 56 82 57
REMARK SMILES IDX 49 58 33 59 34 60 42 61 35 62 41 63 43 64 40 65 36 66 37 67
REMARK SMILES IDX 38 68 39 69 65 70 66 71 74 72 67 73 73 74 75 75 72 76 68 77
REMARK SMILES IDX 69 78 70 79 71 80 50 81 51 82 59 83 52 84 58 85 60 86 57 87
REMARK SMILES IDX 53 88 54 89 55 90 56 91
REMARK H PARENT 17 6 6 17 21 25 80 44 48 55
REMARK Flexibility Score: inf
ROOT
ATOM      1  C   UNL A   1      35.759  21.696  25.894  1.00  0.00     0.042 C 
ENDROOT
BRANCH   1   2
ATOM      2  C   UNL A   1      35.199  23.087  26.132  1.00  0.00     0.118 C 
BRANCH   2   3
ATOM      3  N   UNL A   1      33.958  23.113  26.868  1.00  0.00    -0.349 N 
ATOM      4  C   UNL A   1      32.681  22.784  26.470  1.00  0.00     0.287 C 
ATOM      5  O   UNL A   1      31.806  22.991  27.311  1.00  0.00    -0.266 OA
ATOM      6  H   UNL A   1      34.036  23.412  27.802  1.00  0.00     0.163 HD
BRANCH   4   7
ATOM      7  C   UNL A   1      32.380  22.257  25.142  1.00  0.00     0.194 A 
ATOM      8  C   UNL A   1      31.388  24.073  23.515  1.00  0.00     0.049 C 
ATOM      9  C   UNL A   1      31.879  22.733  23.928  1.00  0.00     0.001 A 
ATOM     10  C   UNL A   1      31.924  21.635  23.021  1.00  0.00     0.056 A 
ATOM     11  C   UNL A   1      32.383  20.547  23.718  1.00  0.00     0.159 A 
ATOM     12  O   UNL A   1      32.697  20.923  24.983  1.00  0.00    -0.450 OA
BRANCH  11  13
ATOM     13  C   UNL A   1      32.578  19.110  23.367  1.00  0.00     0.338 C 
BRANCH  13  14
ATOM     14  N   UNL A   1      33.086  18.271  24.456  1.00  0.00    -0.328 N 
ATOM     15  C   UNL A   1      32.199  17.167  24.830  1.00  0.00     0.266 C 
ATOM     16  C   UNL A   1      34.446  17.751  24.287  1.00  0.00     0.266 C 
ATOM     17  H   UNL A   1      33.117  18.948  25.219  1.00  0.00     0.348 HD
ATOM     18  C   UNL A   1      33.131  16.219  25.577  1.00  0.00     0.049 C 
ATOM     19  C   UNL A   1      34.387  16.280  24.708  1.00  0.00     0.049 C 
ATOM     20  C   UNL A   1      32.547  14.821  25.720  1.00  0.00     0.014 C 
ATOM     21  C   UNL A   1      35.658  15.816  25.400  1.00  0.00     0.014 C 
ENDBRANCH  13  14
ENDBRANCH  11  13
ENDBRANCH   4   7
ENDBRANCH   2   3
ENDBRANCH   1   2
BRANCH   1  22
ATOM     22  C   UNL A   1      36.963  21.641  24.967  1.00  0.00     0.118 C 
BRANCH  22  23
ATOM     23  N   UNL A   1      37.977  20.680  25.387  1.00  0.00    -0.352 N 
ATOM     24  C   UNL A   1      39.217  20.844  25.963  1.00  0.00     0.251 C 
ATOM     25  H   UNL A   1      37.729  19.740  25.230  1.00  0.00     0.163 HD
ATOM     26  O   UNL A   1      39.950  19.862  26.067  1.00  0.00    -0.269 OA
BRANCH  24  27
ATOM     27  C   UNL A   1      39.697  22.173  26.414  1.00  0.00     0.039 A 
ATOM     28  C   UNL A   1      40.874  22.253  27.166  1.00  0.00     0.014 A 
ATOM     29  C   UNL A   1      38.994  23.341  26.128  1.00  0.00     0.014 A 
ATOM     30  C   UNL A   1      41.387  23.501  27.537  1.00  0.00     0.010 A 
ATOM     31  C   UNL A   1      39.567  24.583  26.384  1.00  0.00     0.010 A 
ATOM     32  C   UNL A   1      40.768  24.682  27.100  1.00  0.00    -0.014 A 
BRANCH  32  33
ATOM     33  C   UNL A   1      41.333  26.030  27.389  1.00  0.00     0.031 A 
ATOM     34  C   UNL A   1      42.701  26.400  26.871  1.00  0.00     0.074 A 
ATOM     35  C   UNL A   1      40.661  26.885  28.187  1.00  0.00     0.049 A 
ATOM     36  N   UNL A   1      43.429  27.457  27.127  1.00  0.00    -0.248 NA
ATOM     37  C   UNL A   1      43.354  25.427  25.980  1.00  0.00     0.031 C 
ATOM     38  C   UNL A   1      39.350  26.631  28.789  1.00  0.00     0.029 A 
ATOM     39  N   UNL A   1      40.991  28.139  28.640  1.00  0.00    -0.354 N 
ATOM     40  C   UNL A   1      44.634  27.258  26.461  1.00  0.00     0.074 A 
ATOM     41  C   UNL A   1      44.561  25.951  25.845  1.00  0.00     0.031 C 
ATOM     42  C   UNL A   1      38.974  27.707  29.499  1.00  0.00     0.029 A 
ATOM     43  C   UNL A   1      40.035  28.706  29.451  1.00  0.00     0.049 A 
ATOM     44  H   UNL A   1      41.834  28.591  28.405  1.00  0.00     0.167 HD
ATOM     45  C   UNL A   1      45.694  28.098  26.349  1.00  0.00     0.034 A 
ATOM     46  C   UNL A   1      40.020  29.890  30.095  1.00  0.00     0.034 A 
ATOM     47  C   UNL A   1      45.733  29.416  26.933  1.00  0.00     0.049 A 
ATOM     48  C   UNL A   1      41.208  30.809  29.955  1.00  0.00     0.074 A 
ATOM     49  C   UNL A   1      46.722  30.378  26.824  1.00  0.00     0.029 A 
ATOM     50  N   UNL A   1      44.738  29.960  27.735  1.00  0.00    -0.354 N 
ATOM     51  N   UNL A   1      42.323  30.621  29.287  1.00  0.00    -0.248 NA
ATOM     52  C   UNL A   1      41.131  32.100  30.649  1.00  0.00     0.031 C 
ATOM     53  C   UNL A   1      46.354  31.476  27.609  1.00  0.00     0.029 A 
ATOM     54  C   UNL A   1      45.102  31.231  28.148  1.00  0.00     0.049 A 
ATOM     55  H   UNL A   1      43.896  29.508  27.975  1.00  0.00     0.167 HD
ATOM     56  C   UNL A   1      43.064  31.789  29.454  1.00  0.00     0.074 A 
ATOM     57  C   UNL A   1      42.264  32.675  30.274  1.00  0.00     0.031 C 
ATOM     58  C   UNL A   1      44.293  32.101  28.970  1.00  0.00     0.034 A 
BRANCH  45  59
ATOM     59  C   UNL A   1      46.897  27.606  25.578  1.00  0.00     0.023 A 
ATOM     60  C   UNL A   1      47.139  28.003  24.251  1.00  0.00     0.031 A 
ATOM     61  C   UNL A   1      47.801  26.706  26.169  1.00  0.00     0.131 A 
ATOM     62  C   UNL A   1      48.205  27.440  23.534  1.00  0.00     0.055 A 
ATOM     63  C   UNL A   1      48.912  26.216  25.477  1.00  0.00     0.041 A 
ATOM     64  F   UNL A   1      47.613  26.274  27.426  1.00  0.00    -0.206 F 
ATOM     65  C   UNL A   1      49.111  26.571  24.146  1.00  0.00     0.022 A 
BRANCH  62  66
ATOM     66  S   UNL A   1      48.307  27.751  21.750  1.00  0.00     0.124 S 
ATOM     67  O   UNL A   1      46.985  28.308  21.473  1.00  0.00    -0.237 OA
ATOM     68  O   UNL A   1      49.425  28.683  21.655  1.00  0.00    -0.237 OA
ATOM     69  O   UNL A   1      48.548  26.426  21.184  1.00  0.00    -0.744 OA
ENDBRANCH  62  66
ENDBRANCH  45  59
BRANCH  46  70
ATOM     70  C   UNL A   1      38.848  30.288  30.928  1.00  0.00     0.023 A 
ATOM     71  C   UNL A   1      37.777  31.003  30.366  1.00  0.00     0.031 A 
ATOM     72  C   UNL A   1      38.797  29.999  32.302  1.00  0.00     0.131 A 
ATOM     73  C   UNL A   1      36.726  31.447  31.183  1.00  0.00     0.055 A 
ATOM     74  C   UNL A   1      37.723  30.397  33.101  1.00  0.00     0.041 A 
ATOM     75  F   UNL A   1      39.791  29.312  32.889  1.00  0.00    -0.206 F 
ATOM     76  C   UNL A   1      36.685  31.137  32.544  1.00  0.00     0.022 A 
BRANCH  73  77
ATOM     77  S   UNL A   1      35.449  32.509  30.453  1.00  0.00     0.124 S 
ATOM     78  O   UNL A   1      36.187  33.744  30.221  1.00  0.00    -0.237 OA
ATOM     79  O   UNL A   1      35.071  31.752  29.263  1.00  0.00    -0.237 OA
ATOM     80  O   UNL A   1      34.427  32.576  31.495  1.00  0.00    -0.744 OA
ENDBRANCH  73  77
ENDBRANCH  46  70
BRANCH  58  81
ATOM     81  C   UNL A   1      44.820  33.481  29.276  1.00  0.00     0.023 A 
ATOM     82  C   UNL A   1      44.659  34.551  28.380  1.00  0.00     0.031 A 
ATOM     83  C   UNL A   1      45.502  33.723  30.482  1.00  0.00     0.131 A 
ATOM     84  C   UNL A   1      45.219  35.802  28.677  1.00  0.00     0.055 A 
ATOM     85  C   UNL A   1      46.005  34.985  30.800  1.00  0.00     0.041 A 
ATOM     86  F   UNL A   1      45.686  32.736  31.373  1.00  0.00    -0.206 F 
ATOM     87  C   UNL A   1      45.877  36.030  29.889  1.00  0.00     0.022 A 
BRANCH  84  88
ATOM     88  S   UNL A   1      45.157  37.107  27.419  1.00  0.00     0.124 S 
ATOM     89  O   UNL A   1      43.731  37.162  27.111  1.00  0.00    -0.237 OA
ATOM     90  O   UNL A   1      45.698  38.257  28.135  1.00  0.00    -0.237 OA
ATOM     91  O   UNL A   1      46.004  36.590  26.346  1.00  0.00    -0.744 OA
ENDBRANCH  84  88
ENDBRANCH  58  81
ENDBRANCH  32  33
ENDBRANCH  24  27
ENDBRANCH  22  23
ENDBRANCH   1  22
TORSDOF 15
ENDMDL
MODEL 2
REMARK VINA RESULT:     -12.3      5.441      7.809
REMARK SMILES Cc1cc(C[NH+]2C[C@@H](C)[C@H](C)C2)oc1C(=O)NCCCNC(=O)c1ccc(-c2c3nc(c(-c4cc(S(=O)(=O)[O-])ccc4F)c4ccc([nH]4)c(-c4cc(S(=O)(=O)[O-])ccc4F)c4nc(c(-c5cc(S(=O)(=O)[O-])ccc5F)c5ccc2[nH]5)C=C4)C=C3)cc1
REMARK SMILES IDX 19 1 18 2 17 3 15 4 16 5 14 7 1 8 2 9 3 10 4 11 13 12 5 13
REMARK SMILES IDX 6 14 7 15 12 16 8 18 10 19 9 20 11 21 20 22 21 23 22 24
REMARK SMILES IDX 23 26 24 27 25 28 86 29 26 30 85 31 27 32 28 33 29 34 79 35
REMARK SMILES IDX 30 36 84 37 78 38 80 39 31 40 83 41 77 42 76 43 32 45 64 46
REMARK SMILES IDX 44 47 63 48 45 49 48 50 62 51 81 52 46 53 47 54 61 56 82 57
REMARK SMILES IDX 49 58 33 59 34 60 42 61 35 62 41 63 43 64 40 65 36 66 37 67
REMARK SMILES IDX 38 68 39 69 65 70 66 71 74 72 67 73 73 74 75 75 72 76 68 77
REMARK SMILES IDX 69 78 70 79 71 80 50 81 51 82 59 83 52 84 58 85 60 86 57 87
REMARK SMILES IDX 53 88 54 89 55 90 56 91
REMARK H PARENT 17 6 6 17 21 25 80 44 48 55
REMARK Flexibility Score: inf
ROOT
ATOM      1  C   UNL A   1      33.334  28.991  24.169  1.00  0.00     0.042 C 
ENDROOT
BRANCH   1   2
ATOM      2  C   UNL A   1      32.359  28.828  23.018  1.00  0.00     0.118 C 
BRANCH   2   3
ATOM      3  N   UNL A   1      32.775  27.878  22.013  1.00  0.00    -0.349 N 
ATOM      4  C   UNL A   1      32.779  26.502  22.039  1.00  0.00     0.287 C 
ATOM      5  O   UNL A   1      33.277  25.966  21.047  1.00  0.00    -0.266 OA
ATOM      6  H   UNL A   1      33.108  28.278  21.178  1.00  0.00     0.163 HD
BRANCH   4   7
ATOM      7  C   UNL A   1      32.260  25.731  23.165  1.00  0.00     0.194 A 
ATOM      8  C   UNL A   1      29.809  26.417  23.838  1.00  0.00     0.049 C 
ATOM      9  C   UNL A   1      31.079  25.649  23.907  1.00  0.00     0.001 A 
ATOM     10  C   UNL A   1      31.270  24.589  24.841  1.00  0.00     0.056 A 
ATOM     11  C   UNL A   1      32.547  24.121  24.673  1.00  0.00     0.159 A 
ATOM     12  O   UNL A   1      33.135  24.776  23.641  1.00  0.00    -0.450 OA
BRANCH  11  13
ATOM     13  C   UNL A   1      33.365  23.094  25.383  1.00  0.00     0.338 C 
BRANCH  13  14
ATOM     14  N   UNL A   1      34.750  22.978  24.917  1.00  0.00    -0.328 N 
ATOM     15  C   UNL A   1      35.668  23.957  25.507  1.00  0.00     0.266 C 
ATOM     16  C   UNL A   1      35.352  21.645  25.013  1.00  0.00     0.266 C 
ATOM     17  H   UNL A   1      34.635  23.184  23.924  1.00  0.00     0.348 HD
ATOM     18  C   UNL A   1      37.037  23.331  25.261  1.00  0.00     0.049 C 
ATOM     19  C   UNL A   1      36.760  21.861  25.575  1.00  0.00     0.049 C 
ATOM     20  C   UNL A   1      38.124  23.952  26.126  1.00  0.00     0.014 C 
ATOM     21  C   UNL A   1      37.777  20.888  25.000  1.00  0.00     0.014 C 
ENDBRANCH  13  14
ENDBRANCH  11  13
ENDBRANCH   4   7
ENDBRANCH   2   3
ENDBRANCH   1   2
BRANCH   1  22
ATOM     22  C   UNL A   1      32.695  29.023  25.549  1.00  0.00     0.118 C 
BRANCH  22  23
ATOM     23  N   UNL A   1      32.339  30.366  25.994  1.00  0.00    -0.352 N 
ATOM     24  C   UNL A   1      32.910  31.211  26.919  1.00  0.00     0.251 C 
ATOM     25  H   UNL A   1      31.542  30.737  25.551  1.00  0.00     0.163 HD
ATOM     26  O   UNL A   1      32.308  32.237  27.228  1.00  0.00    -0.269 OA
BRANCH  24  27
ATOM     27  C   UNL A   1      34.202  30.889  27.574  1.00  0.00     0.039 A 
ATOM     28  C   UNL A   1      35.121  31.917  27.809  1.00  0.00     0.014 A 
ATOM     29  C   UNL A   1      34.533  29.586  27.939  1.00  0.00     0.014 A 
ATOM     30  C   UNL A   1      36.312  31.651  28.494  1.00  0.00     0.010 A 
ATOM     31  C   UNL A   1      35.653  29.344  28.729  1.00  0.00     0.010 A 
ATOM     32  C   UNL A   1      36.564  30.371  29.012  1.00  0.00    -0.014 A 
BRANCH  32  33
ATOM     33  C   UNL A   1      37.771  30.067  29.829  1.00  0.00     0.031 A 
ATOM     34  C   UNL A   1      38.841  29.155  29.281  1.00  0.00     0.074 A 
ATOM     35  C   UNL A   1      37.867  30.534  31.091  1.00  0.00     0.049 A 
ATOM     36  N   UNL A   1      39.891  28.653  29.879  1.00  0.00    -0.248 NA
ATOM     37  C   UNL A   1      38.681  28.715  27.886  1.00  0.00     0.031 C 
ATOM     38  C   UNL A   1      36.879  31.388  31.756  1.00  0.00     0.029 A 
ATOM     39  N   UNL A   1      38.835  30.349  32.047  1.00  0.00    -0.354 N 
ATOM     40  C   UNL A   1      40.493  27.813  28.947  1.00  0.00     0.074 A 
ATOM     41  C   UNL A   1      39.653  27.825  27.769  1.00  0.00     0.031 C 
ATOM     42  C   UNL A   1      37.310  31.681  32.994  1.00  0.00     0.029 A 
ATOM     43  C   UNL A   1      38.574  30.994  33.234  1.00  0.00     0.049 A 
ATOM     44  H   UNL A   1      39.641  29.804  31.897  1.00  0.00     0.167 HD
ATOM     45  C   UNL A   1      41.653  27.117  29.051  1.00  0.00     0.034 A 
ATOM     46  C   UNL A   1      39.267  31.020  34.390  1.00  0.00     0.034 A 
ATOM     47  C   UNL A   1      42.501  27.150  30.217  1.00  0.00     0.049 A 
ATOM     48  C   UNL A   1      40.554  30.241  34.483  1.00  0.00     0.074 A 
ATOM     49  C   UNL A   1      43.731  26.543  30.405  1.00  0.00     0.029 A 
ATOM     50  N   UNL A   1      42.210  27.829  31.393  1.00  0.00    -0.354 N 
ATOM     51  N   UNL A   1      41.130  29.484  33.577  1.00  0.00    -0.248 NA
ATOM     52  C   UNL A   1      41.289  30.325  35.752  1.00  0.00     0.031 C 
ATOM     53  C   UNL A   1      44.153  26.803  31.713  1.00  0.00     0.029 A 
ATOM     54  C   UNL A   1      43.223  27.634  32.318  1.00  0.00     0.049 A 
ATOM     55  H   UNL A   1      41.402  28.370  31.547  1.00  0.00     0.167 HD
ATOM     56  C   UNL A   1      42.312  29.031  34.158  1.00  0.00     0.074 A 
ATOM     57  C   UNL A   1      42.371  29.610  35.484  1.00  0.00     0.031 C 
ATOM     58  C   UNL A   1      43.265  28.215  33.640  1.00  0.00     0.034 A 
BRANCH  45  59
ATOM     59  C   UNL A   1      42.058  26.254  27.878  1.00  0.00     0.023 A 
ATOM     60  C   UNL A   1      41.678  24.903  27.788  1.00  0.00     0.031 A 
ATOM     61  C   UNL A   1      42.855  26.782  26.848  1.00  0.00     0.131 A 
ATOM     62  C   UNL A   1      42.163  24.107  26.739  1.00  0.00     0.055 A 
ATOM     63  C   UNL A   1      43.263  26.006  25.760  1.00  0.00     0.041 A 
ATOM     64  F   UNL A   1      43.266  28.060  26.887  1.00  0.00    -0.206 F 
ATOM     65  C   UNL A   1      42.930  24.656  25.709  1.00  0.00     0.022 A 
BRANCH  62  66
ATOM     66  S   UNL A   1      41.895  22.315  26.819  1.00  0.00     0.124 S 
ATOM     67  O   UNL A   1      41.810  21.968  25.402  1.00  0.00    -0.237 OA
ATOM     68  O   UNL A   1      43.085  21.849  27.521  1.00  0.00    -0.237 OA
ATOM     69  O   UNL A   1      40.643  22.188  27.561  1.00  0.00    -0.744 OA
ENDBRANCH  62  66
ENDBRANCH  45  59
BRANCH  46  70
ATOM     70  C   UNL A   1      38.772  31.809  35.556  1.00  0.00     0.023 A 
ATOM     71  C   UNL A   1      38.209  31.166  36.671  1.00  0.00     0.031 A 
ATOM     72  C   UNL A   1      38.813  33.213  35.558  1.00  0.00     0.131 A 
ATOM     73  C   UNL A   1      37.666  31.926  37.718  1.00  0.00     0.055 A 
ATOM     74  C   UNL A   1      38.320  33.965  36.627  1.00  0.00     0.041 A 
ATOM     75  F   UNL A   1      39.347  33.879  34.521  1.00  0.00    -0.206 F 
ATOM     76  C   UNL A   1      37.730  33.321  37.710  1.00  0.00     0.022 A 
BRANCH  73  77
ATOM     77  S   UNL A   1      36.800  31.062  39.058  1.00  0.00     0.124 S 
ATOM     78  O   UNL A   1      36.651  29.723  38.501  1.00  0.00    -0.237 OA
ATOM     79  O   UNL A   1      37.743  31.198  40.164  1.00  0.00    -0.237 OA
ATOM     80  O   UNL A   1      35.560  31.821  39.204  1.00  0.00    -0.744 OA
ENDBRANCH  73  77
ENDBRANCH  46  70
BRANCH  58  81
ATOM     81  C   UNL A   1      44.476  27.946  34.497  1.00  0.00     0.023 A 
ATOM     82  C   UNL A   1      44.538  26.846  35.368  1.00  0.00     0.031 A 
ATOM     83  C   UNL A   1      45.582  28.813  34.444  1.00  0.00     0.131 A 
ATOM     84  C   UNL A   1      45.659  26.670  36.192  1.00  0.00     0.055 A 
ATOM     85  C   UNL A   1      46.721  28.599  35.222  1.00  0.00     0.041 A 
ATOM     86  F   UNL A   1      45.576  29.882  33.630  1.00  0.00    -0.206 F 
ATOM     87  C   UNL A   1      46.758  27.530  36.112  1.00  0.00     0.022 A 
BRANCH  84  88
ATOM     88  S   UNL A   1      45.628  25.351  37.437  1.00  0.00     0.124 S 
ATOM     89  O   UNL A   1      45.294  26.089  38.651  1.00  0.00    -0.237 OA
ATOM     90  O   UNL A   1      44.588  24.464  36.926  1.00  0.00    -0.237 OA
ATOM     91  O   UNL A   1      46.983  24.806  37.394  1.00  0.00    -0.744 OA
ENDBRANCH  84  88
ENDBRANCH  58  81
ENDBRANCH  32  33
ENDBRANCH  24  27
ENDBRANCH  22  23
ENDBRANCH   1  22
TORSDOF 15
ENDMDL
MODEL 3
REMARK VINA RESULT:     -12.3      2.094      3.785
REMARK SMILES Cc1cc(C[NH+]2C[C@@H](C)[C@H](C)C2)oc1C(=O)NCCCNC(=O)c1ccc(-c2c3nc(c(-c4cc(S(=O)(=O)[O-])ccc4F)c4ccc([nH]4)c(-c4cc(S(=O)(=O)[O-])ccc4F)c4nc(c(-c5cc(S(=O)(=O)[O-])ccc5F)c5ccc2[nH]5)C=C4)C=C3)cc1
REMARK SMILES IDX 19 1 18 2 17 3 15 4 16 5 14 7 1 8 2 9 3 10 4 11 13 12 5 13
REMARK SMILES IDX 6 14 7 15 12 16 8 18 10 19 9 20 11 21 20 22 21 23 22 24
REMARK SMILES IDX 23 26 24 27 25 28 86 29 26 30 85 31 27 32 28 33 29 34 79 35
REMARK SMILES IDX 30 36 84 37 78 38 80 39 31 40 83 41 77 42 76 43 32 45 64 46
REMARK SMILES IDX 44 47 63 48 45 49 48 50 62 51 81 52 46 53 47 54 61 56 82 57
REMARK SMILES IDX 49 58 33 59 34 60 42 61 35 62 41 63 43 64 40 65 36 66 37 67
REMARK SMILES IDX 38 68 39 69 65 70 66 71 74 72 67 73 73 74 75 75 72 76 68 77
REMARK SMILES IDX 69 78 70 79 71 80 50 81 51 82 59 83 52 84 58 85 60 86 57 87
REMARK SMILES IDX 53 88 54 89 55 90 56 91
REMARK H PARENT 17 6 6 17 21 25 80 44 48 55
REMARK Flexibility Score: inf
ROOT
ATOM      1  C   UNL A   1      35.896  21.454  24.612  1.00  0.00     0.042 C 
ENDROOT
BRANCH   1   2
ATOM      2  C   UNL A   1      35.109  21.119  25.866  1.00  0.00     0.118 C 
BRANCH   2   3
ATOM      3  N   UNL A   1      34.129  20.073  25.694  1.00  0.00    -0.349 N 
ATOM      4  C   UNL A   1      32.815  20.143  25.291  1.00  0.00     0.287 C 
ATOM      5  O   UNL A   1      32.204  19.073  25.321  1.00  0.00    -0.266 OA
ATOM      6  H   UNL A   1      34.453  19.165  25.895  1.00  0.00     0.163 HD
BRANCH   4   7
ATOM      7  C   UNL A   1      32.179  21.394  24.886  1.00  0.00     0.194 A 
ATOM      8  C   UNL A   1      32.555  21.961  22.343  1.00  0.00     0.049 C 
ATOM      9  C   UNL A   1      32.033  22.151  23.721  1.00  0.00     0.001 A 
ATOM     10  C   UNL A   1      31.201  23.256  24.066  1.00  0.00     0.056 A 
ATOM     11  C   UNL A   1      30.930  23.160  25.407  1.00  0.00     0.159 A 
ATOM     12  O   UNL A   1      31.481  22.021  25.898  1.00  0.00    -0.450 OA
BRANCH  11  13
ATOM     13  C   UNL A   1      30.195  24.031  26.370  1.00  0.00     0.338 C 
BRANCH  13  14
ATOM     14  N   UNL A   1      30.690  25.408  26.459  1.00  0.00    -0.328 N 
ATOM     15  C   UNL A   1      32.150  25.520  26.519  1.00  0.00     0.266 C 
ATOM     16  C   UNL A   1      30.183  26.340  25.448  1.00  0.00     0.266 C 
ATOM     17  H   UNL A   1      30.296  25.694  27.355  1.00  0.00     0.348 HD
ATOM     18  C   UNL A   1      32.397  26.970  26.116  1.00  0.00     0.049 C 
ATOM     19  C   UNL A   1      31.398  27.142  24.971  1.00  0.00     0.049 C 
ATOM     20  C   UNL A   1      33.843  27.225  25.716  1.00  0.00     0.014 C 
ATOM     21  C   UNL A   1      31.056  28.586  24.642  1.00  0.00     0.014 C 
ENDBRANCH  13  14
ENDBRANCH  11  13
ENDBRANCH   4   7
ENDBRANCH   2   3
ENDBRANCH   1   2
BRANCH   1  22
ATOM     22  C   UNL A   1      37.272  22.052  24.862  1.00  0.00     0.118 C 
BRANCH  22  23
ATOM     23  N   UNL A   1      38.218  21.111  25.452  1.00  0.00    -0.352 N 
ATOM     24  C   UNL A   1      39.358  21.299  26.199  1.00  0.00     0.251 C 
ATOM     25  H   UNL A   1      37.999  20.165  25.285  1.00  0.00     0.163 HD
ATOM     26  O   UNL A   1      40.072  20.327  26.436  1.00  0.00    -0.269 OA
BRANCH  24  27
ATOM     27  C   UNL A   1      39.761  22.644  26.680  1.00  0.00     0.039 A 
ATOM     28  C   UNL A   1      40.771  22.748  27.643  1.00  0.00     0.014 A 
ATOM     29  C   UNL A   1      39.142  23.803  26.217  1.00  0.00     0.014 A 
ATOM     30  C   UNL A   1      41.220  24.009  28.055  1.00  0.00     0.010 A 
ATOM     31  C   UNL A   1      39.672  25.051  26.528  1.00  0.00     0.010 A 
ATOM     32  C   UNL A   1      40.714  25.173  27.458  1.00  0.00    -0.014 A 
BRANCH  32  33
ATOM     33  C   UNL A   1      41.231  26.529  27.797  1.00  0.00     0.031 A 
ATOM     34  C   UNL A   1      42.650  26.903  27.446  1.00  0.00     0.074 A 
ATOM     35  C   UNL A   1      40.462  27.389  28.495  1.00  0.00     0.049 A 
ATOM     36  N   UNL A   1      43.335  27.968  27.775  1.00  0.00    -0.248 NA
ATOM     37  C   UNL A   1      43.414  25.923  26.655  1.00  0.00     0.031 C 
ATOM     38  C   UNL A   1      39.088  27.133  28.935  1.00  0.00     0.029 A 
ATOM     39  N   UNL A   1      40.726  28.651  28.968  1.00  0.00    -0.354 N 
ATOM     40  C   UNL A   1      44.614  27.770  27.265  1.00  0.00     0.074 A 
ATOM     41  C   UNL A   1      44.625  26.454  26.662  1.00  0.00     0.031 C 
ATOM     42  C   UNL A   1      38.621  28.215  29.579  1.00  0.00     0.029 A 
ATOM     43  C   UNL A   1      39.675  29.221  29.649  1.00  0.00     0.049 A 
ATOM     44  H   UNL A   1      41.589  29.106  28.833  1.00  0.00     0.167 HD
ATOM     45  C   UNL A   1      45.675  28.616  27.272  1.00  0.00     0.034 A 
ATOM     46  C   UNL A   1      39.574  30.413  30.269  1.00  0.00     0.034 A 
ATOM     47  C   UNL A   1      45.634  29.941  27.839  1.00  0.00     0.049 A 
ATOM     48  C   UNL A   1      40.764  31.338  30.264  1.00  0.00     0.074 A 
ATOM     49  C   UNL A   1      46.624  30.909  27.839  1.00  0.00     0.029 A 
ATOM     50  N   UNL A   1      44.545  30.488  28.506  1.00  0.00    -0.354 N 
ATOM     51  N   UNL A   1      41.955  31.151  29.740  1.00  0.00    -0.248 NA
ATOM     52  C   UNL A   1      40.596  32.638  30.926  1.00  0.00     0.031 C 
ATOM     53  C   UNL A   1      46.156  32.014  28.559  1.00  0.00     0.029 A 
ATOM     54  C   UNL A   1      44.848  31.767  28.943  1.00  0.00     0.049 A 
ATOM     55  H   UNL A   1      43.683  30.033  28.647  1.00  0.00     0.167 HD
ATOM     56  C   UNL A   1      42.663  32.326  29.982  1.00  0.00     0.074 A 
ATOM     57  C   UNL A   1      41.763  33.216  30.686  1.00  0.00     0.031 C 
ATOM     58  C   UNL A   1      43.940  32.641  29.648  1.00  0.00     0.034 A 
BRANCH  45  59
ATOM     59  C   UNL A   1      46.966  28.123  26.661  1.00  0.00     0.023 A 
ATOM     60  C   UNL A   1      47.200  28.181  25.276  1.00  0.00     0.031 A 
ATOM     61  C   UNL A   1      47.969  27.563  27.473  1.00  0.00     0.131 A 
ATOM     62  C   UNL A   1      48.364  27.615  24.736  1.00  0.00     0.055 A 
ATOM     63  C   UNL A   1      49.166  27.080  26.937  1.00  0.00     0.041 A 
ATOM     64  F   UNL A   1      47.797  27.461  28.800  1.00  0.00    -0.206 F 
ATOM     65  C   UNL A   1      49.362  27.089  25.560  1.00  0.00     0.022 A 
BRANCH  62  66
ATOM     66  S   UNL A   1      48.489  27.447  22.935  1.00  0.00     0.124 S 
ATOM     67  O   UNL A   1      49.794  28.050  22.674  1.00  0.00    -0.237 OA
ATOM     68  O   UNL A   1      48.403  26.004  22.745  1.00  0.00    -0.237 OA
ATOM     69  O   UNL A   1      47.347  28.212  22.439  1.00  0.00    -0.744 OA
ENDBRANCH  62  66
ENDBRANCH  45  59
BRANCH  46  70
ATOM     70  C   UNL A   1      38.306  30.812  30.947  1.00  0.00     0.023 A 
ATOM     71  C   UNL A   1      37.308  31.513  30.249  1.00  0.00     0.031 A 
ATOM     72  C   UNL A   1      38.088  30.540  32.308  1.00  0.00     0.131 A 
ATOM     73  C   UNL A   1      36.162  31.959  30.925  1.00  0.00     0.055 A 
ATOM     74  C   UNL A   1      36.922  30.940  32.964  1.00  0.00     0.041 A 
ATOM     75  F   UNL A   1      39.007  29.867  33.022  1.00  0.00    -0.206 F 
ATOM     76  C   UNL A   1      35.956  31.666  32.274  1.00  0.00     0.022 A 
BRANCH  73  77
ATOM     77  S   UNL A   1      34.979  33.003  30.029  1.00  0.00     0.124 S 
ATOM     78  O   UNL A   1      34.077  33.413  31.099  1.00  0.00    -0.237 OA
ATOM     79  O   UNL A   1      35.846  34.042  29.484  1.00  0.00    -0.237 OA
ATOM     80  O   UNL A   1      34.404  32.092  29.041  1.00  0.00    -0.744 OA
ENDBRANCH  73  77
ENDBRANCH  46  70
BRANCH  58  81
ATOM     81  C   UNL A   1      44.417  34.029  29.998  1.00  0.00     0.023 A 
ATOM     82  C   UNL A   1      45.058  34.307  31.216  1.00  0.00     0.031 A 
ATOM     83  C   UNL A   1      44.214  35.090  29.097  1.00  0.00     0.131 A 
ATOM     84  C   UNL A   1      45.429  35.624  31.525  1.00  0.00     0.055 A 
ATOM     85  C   UNL A   1      44.639  36.388  29.384  1.00  0.00     0.041 A 
ATOM     86  F   UNL A   1      43.604  34.881  27.919  1.00  0.00    -0.206 F 
ATOM     87  C   UNL A   1      45.238  36.663  30.610  1.00  0.00     0.022 A 
BRANCH  84  88
ATOM     88  S   UNL A   1      46.083  35.980  33.179  1.00  0.00     0.124 S 
ATOM     89  O   UNL A   1      45.357  35.019  34.005  1.00  0.00    -0.237 OA
ATOM     90  O   UNL A   1      47.510  35.726  33.012  1.00  0.00    -0.237 OA
ATOM     91  O   UNL A   1      45.724  37.380  33.396  1.00  0.00    -0.744 OA
ENDBRANCH  84  88
ENDBRANCH  58  81
ENDBRANCH  32  33
ENDBRANCH  24  27
ENDBRANCH  22  23
ENDBRANCH   1  22
TORSDOF 15
ENDMDL
