MODEL 1
REMARK VINA RESULT:     -12.1      0.000      0.000
REMARK SMILES COc1cc(OC)cc(-c2ccc(C(=O)NCCCNC(=O)c3ccc(-c4c5nc(c(-c6cc(S(=O)(=O)[O-])ccc6F)c6ccc([nH]6)c(-c6cc(S(=O)(=O)[O-])ccc6F)c6nc(c(-c7cc(S(=O)(=O)[O-])ccc7F)c7ccc4[nH]7)C=C6)C=C5)cc3)o2)c1
REMARK SMILES IDX 18 1 17 2 16 3 14 4 15 5 13 7 10 8 11 9 86 10 12 11 9 12
REMARK SMILES IDX 3 13 4 14 87 15 5 16 8 17 2 18 1 19 6 20 7 21 19 22 20 23
REMARK SMILES IDX 21 24 22 26 23 27 24 28 85 29 25 30 84 31 26 32 27 33 28 34
REMARK SMILES IDX 78 35 29 36 83 37 77 38 79 39 30 40 82 41 76 42 75 43 31 45
REMARK SMILES IDX 63 46 43 47 62 48 44 49 47 50 61 51 80 52 45 53 46 54 60 56
REMARK SMILES IDX 81 57 48 58 32 59 33 60 41 61 34 62 40 63 42 64 39 65 35 66
REMARK SMILES IDX 36 67 37 68 38 69 64 70 65 71 73 72 66 73 72 74 74 75 71 76
REMARK SMILES IDX 67 77 68 78 69 79 70 80 49 81 50 82 58 83 51 84 57 85 59 86
REMARK SMILES IDX 56 87 52 88 53 89 54 90 55 91
REMARK H PARENT 16 6 20 25 79 44 47 55
REMARK Flexibility Score: inf
ROOT
ATOM      1  C   UNL A   1      31.480  31.924  26.506  1.00  0.00     0.042 C 
ENDROOT
BRANCH   1   2
ATOM      2  C   UNL A   1      31.699  30.529  25.925  1.00  0.00     0.118 C 
BRANCH   2   3
ATOM      3  N   UNL A   1      30.854  30.291  24.773  1.00  0.00    -0.349 N 
ATOM      4  C   UNL A   1      30.890  29.300  23.816  1.00  0.00     0.287 C 
ATOM      5  O   UNL A   1      29.960  29.299  23.009  1.00  0.00    -0.266 OA
ATOM      6  H   UNL A   1      30.130  30.948  24.654  1.00  0.00     0.163 HD
BRANCH   4   7
ATOM      7  C   UNL A   1      31.957  28.316  23.798  1.00  0.00     0.192 A 
ATOM      8  C   UNL A   1      33.021  26.558  24.606  1.00  0.00     0.135 A 
ATOM      9  C   UNL A   1      33.758  26.984  23.528  1.00  0.00     0.052 A 
ATOM     10  O   UNL A   1      31.930  27.345  24.778  1.00  0.00    -0.451 OA
ATOM     11  C   UNL A   1      33.050  28.076  22.980  1.00  0.00     0.057 A 
BRANCH   8  12
ATOM     12  C   UNL A   1      33.184  25.439  25.509  1.00  0.00     0.025 A 
ATOM     13  C   UNL A   1      34.483  23.534  26.243  1.00  0.00     0.123 A 
ATOM     14  C   UNL A   1      33.361  23.053  26.922  1.00  0.00     0.092 A 
ATOM     15  C   UNL A   1      34.388  24.723  25.522  1.00  0.00     0.058 A 
ATOM     16  C   UNL A   1      32.161  23.769  26.928  1.00  0.00     0.123 A 
ATOM     17  C   UNL A   1      32.085  24.980  26.244  1.00  0.00     0.058 A 
BRANCH  13  18
ATOM     18  O   UNL A   1      35.586  22.725  26.280  1.00  0.00    -0.497 OA
ATOM     19  C   UNL A   1      35.383  21.386  25.841  1.00  0.00     0.278 C 
ENDBRANCH  13  18
BRANCH  16  20
ATOM     20  O   UNL A   1      31.133  23.173  27.609  1.00  0.00    -0.497 OA
ATOM     21  C   UNL A   1      29.916  23.001  26.889  1.00  0.00     0.278 C 
ENDBRANCH  16  20
ENDBRANCH   8  12
ENDBRANCH   4   7
ENDBRANCH   2   3
ENDBRANCH   1   2
BRANCH   1  22
ATOM     22  C   UNL A   1      32.698  32.451  27.262  1.00  0.00     0.118 C 
BRANCH  22  23
ATOM     23  N   UNL A   1      32.560  33.866  27.589  1.00  0.00    -0.352 N 
ATOM     24  C   UNL A   1      33.146  34.608  28.583  1.00  0.00     0.251 C 
ATOM     25  H   UNL A   1      31.948  34.367  27.004  1.00  0.00     0.163 HD
ATOM     26  O   UNL A   1      32.684  35.713  28.851  1.00  0.00    -0.269 OA
BRANCH  24  27
ATOM     27  C   UNL A   1      34.313  34.084  29.325  1.00  0.00     0.039 A 
ATOM     28  C   UNL A   1      34.096  33.248  30.423  1.00  0.00     0.014 A 
ATOM     29  C   UNL A   1      35.614  34.448  28.969  1.00  0.00     0.014 A 
ATOM     30  C   UNL A   1      35.186  32.731  31.126  1.00  0.00     0.010 A 
ATOM     31  C   UNL A   1      36.699  33.869  29.620  1.00  0.00     0.010 A 
ATOM     32  C   UNL A   1      36.497  33.008  30.708  1.00  0.00    -0.014 A 
BRANCH  32  33
ATOM     33  C   UNL A   1      37.669  32.409  31.397  1.00  0.00     0.031 A 
ATOM     34  C   UNL A   1      38.422  31.274  30.757  1.00  0.00     0.074 A 
ATOM     35  C   UNL A   1      38.008  32.841  32.627  1.00  0.00     0.049 A 
ATOM     36  N   UNL A   1      39.409  30.560  31.235  1.00  0.00    -0.248 NA
ATOM     37  C   UNL A   1      37.985  30.867  29.413  1.00  0.00     0.031 C 
ATOM     38  C   UNL A   1      37.324  33.908  33.363  1.00  0.00     0.029 A 
ATOM     39  N   UNL A   1      38.998  32.432  33.484  1.00  0.00    -0.354 N 
ATOM     40  C   UNL A   1      39.699  29.611  30.262  1.00  0.00     0.074 A 
ATOM     41  C   UNL A   1      38.742  29.803  29.193  1.00  0.00     0.031 C 
ATOM     42  C   UNL A   1      37.928  34.082  34.549  1.00  0.00     0.029 A 
ATOM     43  C   UNL A   1      39.005  33.106  34.683  1.00  0.00     0.049 A 
ATOM     44  H   UNL A   1      39.644  31.722  33.262  1.00  0.00     0.167 HD
ATOM     45  C   UNL A   1      40.684  28.679  30.253  1.00  0.00     0.034 A 
ATOM     46  C   UNL A   1      39.776  32.942  35.778  1.00  0.00     0.034 A 
ATOM     47  C   UNL A   1      41.634  28.511  31.327  1.00  0.00     0.049 A 
ATOM     48  C   UNL A   1      40.847  31.882  35.756  1.00  0.00     0.074 A 
ATOM     49  C   UNL A   1      42.711  27.646  31.398  1.00  0.00     0.029 A 
ATOM     50  N   UNL A   1      41.611  29.214  32.527  1.00  0.00    -0.354 N 
ATOM     51  N   UNL A   1      41.148  31.030  34.803  1.00  0.00    -0.248 NA
ATOM     52  C   UNL A   1      41.690  31.768  36.953  1.00  0.00     0.031 C 
ATOM     53  C   UNL A   1      43.287  27.766  32.666  1.00  0.00     0.029 A 
ATOM     54  C   UNL A   1      42.631  28.772  33.358  1.00  0.00     0.049 A 
ATOM     55  H   UNL A   1      40.967  29.922  32.753  1.00  0.00     0.167 HD
ATOM     56  C   UNL A   1      42.235  30.300  35.275  1.00  0.00     0.074 A 
ATOM     57  C   UNL A   1      42.545  30.823  36.590  1.00  0.00     0.031 C 
ATOM     58  C   UNL A   1      42.920  29.294  34.674  1.00  0.00     0.034 A 
BRANCH  45  59
ATOM     59  C   UNL A   1      40.760  27.752  29.062  1.00  0.00     0.023 A 
ATOM     60  C   UNL A   1      41.700  27.939  28.033  1.00  0.00     0.031 A 
ATOM     61  C   UNL A   1      39.860  26.678  28.939  1.00  0.00     0.131 A 
ATOM     62  C   UNL A   1      41.666  27.121  26.894  1.00  0.00     0.055 A 
ATOM     63  C   UNL A   1      39.890  25.811  27.843  1.00  0.00     0.041 A 
ATOM     64  F   UNL A   1      38.924  26.459  29.875  1.00  0.00    -0.206 F 
ATOM     65  C   UNL A   1      40.786  26.041  26.804  1.00  0.00     0.022 A 
BRANCH  62  66
ATOM     66  S   UNL A   1      42.680  27.587  25.464  1.00  0.00     0.124 S 
ATOM     67  O   UNL A   1      43.986  27.800  26.084  1.00  0.00    -0.237 OA
ATOM     68  O   UNL A   1      42.566  26.417  24.601  1.00  0.00    -0.237 OA
ATOM     69  O   UNL A   1      42.031  28.797  24.963  1.00  0.00    -0.744 OA
ENDBRANCH  62  66
ENDBRANCH  45  59
BRANCH  46  70
ATOM     70  C   UNL A   1      39.552  33.783  36.989  1.00  0.00     0.023 A 
ATOM     71  C   UNL A   1      38.930  33.259  38.133  1.00  0.00     0.031 A 
ATOM     72  C   UNL A   1      39.928  35.139  37.008  1.00  0.00     0.131 A 
ATOM     73  C   UNL A   1      38.661  34.094  39.229  1.00  0.00     0.055 A 
ATOM     74  C   UNL A   1      39.710  35.951  38.122  1.00  0.00     0.041 A 
ATOM     75  F   UNL A   1      40.530  35.692  35.942  1.00  0.00    -0.206 F 
ATOM     76  C   UNL A   1      39.061  35.432  39.237  1.00  0.00     0.022 A 
BRANCH  73  77
ATOM     77  S   UNL A   1      37.698  33.427  40.613  1.00  0.00     0.124 S 
ATOM     78  O   UNL A   1      37.659  34.567  41.523  1.00  0.00    -0.237 OA
ATOM     79  O   UNL A   1      36.437  33.079  39.966  1.00  0.00    -0.237 OA
ATOM     80  O   UNL A   1      38.497  32.292  41.068  1.00  0.00    -0.744 OA
ENDBRANCH  73  77
ENDBRANCH  46  70
BRANCH  58  81
ATOM     81  C   UNL A   1      44.104  28.724  35.420  1.00  0.00     0.023 A 
ATOM     82  C   UNL A   1      43.966  27.668  36.338  1.00  0.00     0.031 A 
ATOM     83  C   UNL A   1      45.390  29.251  35.206  1.00  0.00     0.131 A 
ATOM     84  C   UNL A   1      45.086  27.212  37.050  1.00  0.00     0.055 A 
ATOM     85  C   UNL A   1      46.511  28.746  35.867  1.00  0.00     0.041 A 
ATOM     86  F   UNL A   1      45.581  30.263  34.345  1.00  0.00    -0.206 F 
ATOM     87  C   UNL A   1      46.361  27.730  36.805  1.00  0.00     0.022 A 
BRANCH  84  88
ATOM     88  S   UNL A   1      44.841  25.995  38.372  1.00  0.00     0.124 S 
ATOM     89  O   UNL A   1      46.179  25.902  38.948  1.00  0.00    -0.237 OA
ATOM     90  O   UNL A   1      43.831  26.639  39.207  1.00  0.00    -0.237 OA
ATOM     91  O   UNL A   1      44.387  24.802  37.662  1.00  0.00    -0.744 OA
ENDBRANCH  84  88
ENDBRANCH  58  81
ENDBRANCH  32  33
ENDBRANCH  24  27
ENDBRANCH  22  23
ENDBRANCH   1  22
TORSDOF 16
ENDMDL
MODEL 2
REMARK VINA RESULT:     -11.7      3.503      8.780
REMARK SMILES COc1cc(OC)cc(-c2ccc(C(=O)NCCCNC(=O)c3ccc(-c4c5nc(c(-c6cc(S(=O)(=O)[O-])ccc6F)c6ccc([nH]6)c(-c6cc(S(=O)(=O)[O-])ccc6F)c6nc(c(-c7cc(S(=O)(=O)[O-])ccc7F)c7ccc4[nH]7)C=C6)C=C5)cc3)o2)c1
REMARK SMILES IDX 18 1 17 2 16 3 14 4 15 5 13 7 10 8 11 9 86 10 12 11 9 12
REMARK SMILES IDX 3 13 4 14 87 15 5 16 8 17 2 18 1 19 6 20 7 21 19 22 20 23
REMARK SMILES IDX 21 24 22 26 23 27 24 28 85 29 25 30 84 31 26 32 27 33 28 34
REMARK SMILES IDX 78 35 29 36 83 37 77 38 79 39 30 40 82 41 76 42 75 43 31 45
REMARK SMILES IDX 63 46 43 47 62 48 44 49 47 50 61 51 80 52 45 53 46 54 60 56
REMARK SMILES IDX 81 57 48 58 32 59 33 60 41 61 34 62 40 63 42 64 39 65 35 66
REMARK SMILES IDX 36 67 37 68 38 69 64 70 65 71 73 72 66 73 72 74 74 75 71 76
REMARK SMILES IDX 67 77 68 78 69 79 70 80 49 81 50 82 58 83 51 84 57 85 59 86
REMARK SMILES IDX 56 87 52 88 53 89 54 90 55 91
REMARK H PARENT 16 6 20 25 79 44 47 55
REMARK Flexibility Score: inf
ROOT
ATOM      1  C   UNL A   1      32.695  27.774  25.886  1.00  0.00     0.042 C 
ENDROOT
BRANCH   1   2
ATOM      2  C   UNL A   1      32.047  27.974  24.518  1.00  0.00     0.118 C 
BRANCH   2   3
ATOM      3  N   UNL A   1      32.952  27.627  23.441  1.00  0.00    -0.349 N 
ATOM      4  C   UNL A   1      33.140  26.441  22.766  1.00  0.00     0.287 C 
ATOM      5  O   UNL A   1      33.918  26.483  21.812  1.00  0.00    -0.266 OA
ATOM      6  H   UNL A   1      33.531  28.365  23.140  1.00  0.00     0.163 HD
BRANCH   4   7
ATOM      7  C   UNL A   1      32.433  25.235  23.160  1.00  0.00     0.192 A 
ATOM      8  C   UNL A   1      32.358  23.142  23.858  1.00  0.00     0.135 A 
ATOM      9  C   UNL A   1      31.053  23.519  23.651  1.00  0.00     0.052 A 
ATOM     10  O   UNL A   1      33.201  24.166  23.573  1.00  0.00    -0.451 OA
ATOM     11  C   UNL A   1      31.098  24.874  23.255  1.00  0.00     0.057 A 
BRANCH   8  12
ATOM     12  C   UNL A   1      32.944  21.913  24.349  1.00  0.00     0.025 A 
ATOM     13  C   UNL A   1      34.920  20.603  24.831  1.00  0.00     0.123 A 
ATOM     14  C   UNL A   1      34.124  19.455  24.885  1.00  0.00     0.092 A 
ATOM     15  C   UNL A   1      34.328  21.832  24.548  1.00  0.00     0.058 A 
ATOM     16  C   UNL A   1      32.740  19.530  24.704  1.00  0.00     0.123 A 
ATOM     17  C   UNL A   1      32.148  20.768  24.466  1.00  0.00     0.058 A 
BRANCH  13  18
ATOM     18  O   UNL A   1      36.264  20.396  24.987  1.00  0.00    -0.497 OA
ATOM     19  C   UNL A   1      37.018  21.532  25.397  1.00  0.00     0.278 C 
ENDBRANCH  13  18
BRANCH  16  20
ATOM     20  O   UNL A   1      32.084  18.329  24.754  1.00  0.00    -0.497 OA
ATOM     21  C   UNL A   1      32.662  17.328  25.586  1.00  0.00     0.278 C 
ENDBRANCH  16  20
ENDBRANCH   8  12
ENDBRANCH   4   7
ENDBRANCH   2   3
ENDBRANCH   1   2
BRANCH   1  22
ATOM     22  C   UNL A   1      34.024  28.514  26.027  1.00  0.00     0.118 C 
BRANCH  22  23
ATOM     23  N   UNL A   1      33.827  29.910  26.401  1.00  0.00    -0.352 N 
ATOM     24  C   UNL A   1      34.471  30.676  27.340  1.00  0.00     0.251 C 
ATOM     25  H   UNL A   1      33.119  30.376  25.901  1.00  0.00     0.163 HD
ATOM     26  O   UNL A   1      33.968  31.741  27.685  1.00  0.00    -0.269 OA
BRANCH  24  27
ATOM     27  C   UNL A   1      35.748  30.224  27.932  1.00  0.00     0.039 A 
ATOM     28  C   UNL A   1      35.735  29.635  29.198  1.00  0.00     0.014 A 
ATOM     29  C   UNL A   1      36.959  30.419  27.263  1.00  0.00     0.014 A 
ATOM     30  C   UNL A   1      36.930  29.188  29.767  1.00  0.00     0.010 A 
ATOM     31  C   UNL A   1      38.137  29.902  27.795  1.00  0.00     0.010 A 
ATOM     32  C   UNL A   1      38.136  29.285  29.054  1.00  0.00    -0.014 A 
BRANCH  32  33
ATOM     33  C   UNL A   1      39.405  28.749  29.609  1.00  0.00     0.031 A 
ATOM     34  C   UNL A   1      40.073  29.438  30.769  1.00  0.00     0.074 A 
ATOM     35  C   UNL A   1      39.989  27.685  29.023  1.00  0.00     0.049 A 
ATOM     36  N   UNL A   1      41.225  29.181  31.333  1.00  0.00    -0.248 NA
ATOM     37  C   UNL A   1      39.365  30.590  31.347  1.00  0.00     0.031 C 
ATOM     38  C   UNL A   1      39.454  26.961  27.867  1.00  0.00     0.029 A 
ATOM     39  N   UNL A   1      41.165  27.035  29.303  1.00  0.00    -0.354 N 
ATOM     40  C   UNL A   1      41.388  30.146  32.320  1.00  0.00     0.074 A 
ATOM     41  C   UNL A   1      40.245  31.030  32.234  1.00  0.00     0.031 C 
ATOM     42  C   UNL A   1      40.286  25.957  27.552  1.00  0.00     0.029 A 
ATOM     43  C   UNL A   1      41.440  25.996  28.445  1.00  0.00     0.049 A 
ATOM     44  H   UNL A   1      41.755  27.288  30.049  1.00  0.00     0.167 HD
ATOM     45  C   UNL A   1      42.390  30.271  33.226  1.00  0.00     0.034 A 
ATOM     46  C   UNL A   1      42.512  25.181  28.369  1.00  0.00     0.034 A 
ATOM     47  C   UNL A   1      43.517  29.372  33.300  1.00  0.00     0.049 A 
ATOM     48  C   UNL A   1      43.626  25.356  29.369  1.00  0.00     0.074 A 
ATOM     49  C   UNL A   1      44.555  29.364  34.215  1.00  0.00     0.029 A 
ATOM     50  N   UNL A   1      43.762  28.329  32.414  1.00  0.00    -0.354 N 
ATOM     51  N   UNL A   1      43.738  26.238  30.336  1.00  0.00    -0.248 NA
ATOM     52  C   UNL A   1      44.752  24.419  29.275  1.00  0.00     0.031 C 
ATOM     53  C   UNL A   1      45.466  28.374  33.835  1.00  0.00     0.029 A 
ATOM     54  C   UNL A   1      44.955  27.698  32.738  1.00  0.00     0.049 A 
ATOM     55  H   UNL A   1      43.175  28.074  31.666  1.00  0.00     0.167 HD
ATOM     56  C   UNL A   1      44.934  25.941  30.984  1.00  0.00     0.074 A 
ATOM     57  C   UNL A   1      45.496  24.790  30.307  1.00  0.00     0.031 C 
ATOM     58  C   UNL A   1      45.511  26.559  32.046  1.00  0.00     0.034 A 
BRANCH  45  59
ATOM     59  C   UNL A   1      42.325  31.439  34.183  1.00  0.00     0.023 A 
ATOM     60  C   UNL A   1      41.490  31.428  35.314  1.00  0.00     0.031 A 
ATOM     61  C   UNL A   1      43.093  32.595  33.948  1.00  0.00     0.131 A 
ATOM     62  C   UNL A   1      41.379  32.574  36.117  1.00  0.00     0.055 A 
ATOM     63  C   UNL A   1      43.046  33.699  34.802  1.00  0.00     0.041 A 
ATOM     64  F   UNL A   1      43.894  32.677  32.874  1.00  0.00    -0.206 F 
ATOM     65  C   UNL A   1      42.172  33.700  35.885  1.00  0.00     0.022 A 
BRANCH  62  66
ATOM     66  S   UNL A   1      40.069  32.628  37.370  1.00  0.00     0.124 S 
ATOM     67  O   UNL A   1      40.812  32.317  38.589  1.00  0.00    -0.237 OA
ATOM     68  O   UNL A   1      39.578  33.996  37.253  1.00  0.00    -0.237 OA
ATOM     69  O   UNL A   1      39.135  31.591  36.936  1.00  0.00    -0.744 OA
ENDBRANCH  62  66
ENDBRANCH  45  59
BRANCH  46  70
ATOM     70  C   UNL A   1      42.594  24.144  27.300  1.00  0.00     0.023 A 
ATOM     71  C   UNL A   1      41.964  22.899  27.446  1.00  0.00     0.031 A 
ATOM     72  C   UNL A   1      43.336  24.373  26.127  1.00  0.00     0.131 A 
ATOM     73  C   UNL A   1      42.123  21.913  26.458  1.00  0.00     0.055 A 
ATOM     74  C   UNL A   1      43.445  23.410  25.121  1.00  0.00     0.041 A 
ATOM     75  F   UNL A   1      43.957  25.548  25.933  1.00  0.00    -0.206 F 
ATOM     76  C   UNL A   1      42.846  22.166  25.290  1.00  0.00     0.022 A 
BRANCH  73  77
ATOM     77  S   UNL A   1      41.445  20.259  26.764  1.00  0.00     0.124 S 
ATOM     78  O   UNL A   1      40.086  20.571  27.192  1.00  0.00    -0.237 OA
ATOM     79  O   UNL A   1      41.577  19.631  25.453  1.00  0.00    -0.237 OA
ATOM     80  O   UNL A   1      42.319  19.720  27.803  1.00  0.00    -0.744 OA
ENDBRANCH  73  77
ENDBRANCH  46  70
BRANCH  58  81
ATOM     81  C   UNL A   1      46.800  25.969  32.569  1.00  0.00     0.023 A 
ATOM     82  C   UNL A   1      46.812  24.941  33.528  1.00  0.00     0.031 A 
ATOM     83  C   UNL A   1      48.035  26.448  32.098  1.00  0.00     0.131 A 
ATOM     84  C   UNL A   1      48.035  24.466  34.027  1.00  0.00     0.055 A 
ATOM     85  C   UNL A   1      49.248  25.924  32.548  1.00  0.00     0.041 A 
ATOM     86  F   UNL A   1      48.085  27.432  31.186  1.00  0.00    -0.206 F 
ATOM     87  C   UNL A   1      49.253  24.936  33.527  1.00  0.00     0.022 A 
BRANCH  84  88
ATOM     88  S   UNL A   1      48.015  23.291  35.408  1.00  0.00     0.124 S 
ATOM     89  O   UNL A   1      49.424  23.250  35.790  1.00  0.00    -0.237 OA
ATOM     90  O   UNL A   1      47.115  23.939  36.357  1.00  0.00    -0.237 OA
ATOM     91  O   UNL A   1      47.500  22.063  34.806  1.00  0.00    -0.744 OA
ENDBRANCH  84  88
ENDBRANCH  58  81
ENDBRANCH  32  33
ENDBRANCH  24  27
ENDBRANCH  22  23
ENDBRANCH   1  22
TORSDOF 16
ENDMDL
MODEL 3
REMARK VINA RESULT:     -11.7      2.556      3.391
REMARK SMILES COc1cc(OC)cc(-c2ccc(C(=O)NCCCNC(=O)c3ccc(-c4c5nc(c(-c6cc(S(=O)(=O)[O-])ccc6F)c6ccc([nH]6)c(-c6cc(S(=O)(=O)[O-])ccc6F)c6nc(c(-c7cc(S(=O)(=O)[O-])ccc7F)c7ccc4[nH]7)C=C6)C=C5)cc3)o2)c1
REMARK SMILES IDX 18 1 17 2 16 3 14 4 15 5 13 7 10 8 11 9 86 10 12 11 9 12
REMARK SMILES IDX 3 13 4 14 87 15 5 16 8 17 2 18 1 19 6 20 7 21 19 22 20 23
REMARK SMILES IDX 21 24 22 26 23 27 24 28 85 29 25 30 84 31 26 32 27 33 28 34
REMARK SMILES IDX 78 35 29 36 83 37 77 38 79 39 30 40 82 41 76 42 75 43 31 45
REMARK SMILES IDX 63 46 43 47 62 48 44 49 47 50 61 51 80 52 45 53 46 54 60 56
REMARK SMILES IDX 81 57 48 58 32 59 33 60 41 61 34 62 40 63 42 64 39 65 35 66
REMARK SMILES IDX 36 67 37 68 38 69 64 70 65 71 73 72 66 73 72 74 74 75 71 76
REMARK SMILES IDX 67 77 68 78 69 79 70 80 49 81 50 82 58 83 51 84 57 85 59 86
REMARK SMILES IDX 56 87 52 88 53 89 54 90 55 91
REMARK H PARENT 16 6 20 25 79 44 47 55
REMARK Flexibility Score: inf
ROOT
ATOM      1  C   UNL A   1      33.351  28.986  23.872  1.00  0.00     0.042 C 
ENDROOT
BRANCH   1   2
ATOM      2  C   UNL A   1      32.298  28.138  23.163  1.00  0.00     0.118 C 
BRANCH   2   3
ATOM      3  N   UNL A   1      32.850  27.447  22.016  1.00  0.00    -0.349 N 
ATOM      4  C   UNL A   1      32.804  26.119  21.653  1.00  0.00     0.287 C 
ATOM      5  O   UNL A   1      33.281  25.847  20.551  1.00  0.00    -0.266 OA
ATOM      6  H   UNL A   1      33.341  28.026  21.388  1.00  0.00     0.163 HD
BRANCH   4   7
ATOM      7  C   UNL A   1      32.203  25.126  22.525  1.00  0.00     0.192 A 
ATOM      8  C   UNL A   1      32.259  23.269  23.719  1.00  0.00     0.135 A 
ATOM      9  C   UNL A   1      30.971  23.739  23.809  1.00  0.00     0.052 A 
ATOM     10  O   UNL A   1      33.016  24.097  22.955  1.00  0.00    -0.451 OA
ATOM     11  C   UNL A   1      30.948  24.953  23.088  1.00  0.00     0.057 A 
BRANCH   8  12
ATOM     12  C   UNL A   1      32.916  22.125  24.314  1.00  0.00     0.025 A 
ATOM     13  C   UNL A   1      34.957  20.910  24.775  1.00  0.00     0.123 A 
ATOM     14  C   UNL A   1      34.195  19.775  25.063  1.00  0.00     0.092 A 
ATOM     15  C   UNL A   1      34.314  22.084  24.385  1.00  0.00     0.058 A 
ATOM     16  C   UNL A   1      32.799  19.812  25.010  1.00  0.00     0.123 A 
ATOM     17  C   UNL A   1      32.160  21.001  24.664  1.00  0.00     0.058 A 
BRANCH  13  18
ATOM     18  O   UNL A   1      36.314  20.738  24.824  1.00  0.00    -0.497 OA
ATOM     19  C   UNL A   1      37.062  21.866  25.267  1.00  0.00     0.278 C 
ENDBRANCH  13  18
BRANCH  16  20
ATOM     20  O   UNL A   1      32.176  18.625  25.289  1.00  0.00    -0.497 OA
ATOM     21  C   UNL A   1      32.499  17.529  24.439  1.00  0.00     0.278 C 
ENDBRANCH  16  20
ENDBRANCH   8  12
ENDBRANCH   4   7
ENDBRANCH   2   3
ENDBRANCH   1   2
BRANCH   1  22
ATOM     22  C   UNL A   1      33.144  29.047  25.384  1.00  0.00     0.118 C 
BRANCH  22  23
ATOM     23  N   UNL A   1      32.706  30.369  25.816  1.00  0.00    -0.352 N 
ATOM     24  C   UNL A   1      33.143  31.154  26.853  1.00  0.00     0.251 C 
ATOM     25  H   UNL A   1      31.981  30.760  25.278  1.00  0.00     0.163 HD
ATOM     26  O   UNL A   1      32.456  32.107  27.208  1.00  0.00    -0.269 OA
BRANCH  24  27
ATOM     27  C   UNL A   1      34.418  30.854  27.538  1.00  0.00     0.039 A 
ATOM     28  C   UNL A   1      35.376  31.863  27.656  1.00  0.00     0.014 A 
ATOM     29  C   UNL A   1      34.688  29.572  28.025  1.00  0.00     0.014 A 
ATOM     30  C   UNL A   1      36.581  31.602  28.314  1.00  0.00     0.010 A 
ATOM     31  C   UNL A   1      35.852  29.336  28.749  1.00  0.00     0.010 A 
ATOM     32  C   UNL A   1      36.813  30.346  28.898  1.00  0.00    -0.014 A 
BRANCH  32  33
ATOM     33  C   UNL A   1      38.055  30.070  29.666  1.00  0.00     0.031 A 
ATOM     34  C   UNL A   1      39.092  29.131  29.112  1.00  0.00     0.074 A 
ATOM     35  C   UNL A   1      38.212  30.611  30.890  1.00  0.00     0.049 A 
ATOM     36  N   UNL A   1      40.193  28.692  29.667  1.00  0.00    -0.248 NA
ATOM     37  C   UNL A   1      38.839  28.587  27.769  1.00  0.00     0.031 C 
ATOM     38  C   UNL A   1      37.253  31.505  31.545  1.00  0.00     0.029 A 
ATOM     39  N   UNL A   1      39.222  30.482  31.809  1.00  0.00    -0.354 N 
ATOM     40  C   UNL A   1      40.755  27.810  28.751  1.00  0.00     0.074 A 
ATOM     41  C   UNL A   1      39.840  27.731  27.632  1.00  0.00     0.031 C 
ATOM     42  C   UNL A   1      37.732  31.858  32.748  1.00  0.00     0.029 A 
ATOM     43  C   UNL A   1      39.002  31.176  32.975  1.00  0.00     0.049 A 
ATOM     44  H   UNL A   1      40.030  29.942  31.648  1.00  0.00     0.167 HD
ATOM     45  C   UNL A   1      41.933  27.144  28.829  1.00  0.00     0.034 A 
ATOM     46  C   UNL A   1      39.728  31.239  34.110  1.00  0.00     0.034 A 
ATOM     47  C   UNL A   1      42.835  27.246  29.952  1.00  0.00     0.049 A 
ATOM     48  C   UNL A   1      41.021  30.469  34.185  1.00  0.00     0.074 A 
ATOM     49  C   UNL A   1      44.082  26.669  30.110  1.00  0.00     0.029 A 
ATOM     50  N   UNL A   1      42.578  27.960  31.117  1.00  0.00    -0.354 N 
ATOM     51  N   UNL A   1      41.570  29.684  33.285  1.00  0.00    -0.248 NA
ATOM     52  C   UNL A   1      41.800  30.601  35.423  1.00  0.00     0.031 C 
ATOM     53  C   UNL A   1      44.542  26.965  31.397  1.00  0.00     0.029 A 
ATOM     54  C   UNL A   1      43.627  27.805  32.012  1.00  0.00     0.049 A 
ATOM     55  H   UNL A   1      41.772  28.499  31.281  1.00  0.00     0.167 HD
ATOM     56  C   UNL A   1      42.772  29.254  33.839  1.00  0.00     0.074 A 
ATOM     57  C   UNL A   1      42.875  29.879  35.142  1.00  0.00     0.031 C 
ATOM     58  C   UNL A   1      43.710  28.424  33.315  1.00  0.00     0.034 A 
BRANCH  45  59
ATOM     59  C   UNL A   1      42.294  26.224  27.685  1.00  0.00     0.023 A 
ATOM     60  C   UNL A   1      41.857  24.889  27.638  1.00  0.00     0.031 A 
ATOM     61  C   UNL A   1      43.111  26.683  26.635  1.00  0.00     0.131 A 
ATOM     62  C   UNL A   1      42.302  24.039  26.614  1.00  0.00     0.055 A 
ATOM     63  C   UNL A   1      43.478  25.856  25.571  1.00  0.00     0.041 A 
ATOM     64  F   UNL A   1      43.579  27.940  26.632  1.00  0.00    -0.206 F 
ATOM     65  C   UNL A   1      43.088  24.520  25.565  1.00  0.00     0.022 A 
BRANCH  62  66
ATOM     66  S   UNL A   1      41.973  22.261  26.761  1.00  0.00     0.124 S 
ATOM     67  O   UNL A   1      42.892  21.708  25.769  1.00  0.00    -0.237 OA
ATOM     68  O   UNL A   1      42.302  21.994  28.156  1.00  0.00    -0.237 OA
ATOM     69  O   UNL A   1      40.556  22.146  26.420  1.00  0.00    -0.744 OA
ENDBRANCH  62  66
ENDBRANCH  45  59
BRANCH  46  70
ATOM     70  C   UNL A   1      39.242  32.040  35.271  1.00  0.00     0.023 A 
ATOM     71  C   UNL A   1      38.625  31.425  36.371  1.00  0.00     0.031 A 
ATOM     72  C   UNL A   1      39.360  33.442  35.281  1.00  0.00     0.131 A 
ATOM     73  C   UNL A   1      38.108  32.210  37.413  1.00  0.00     0.055 A 
ATOM     74  C   UNL A   1      38.895  34.215  36.347  1.00  0.00     0.041 A 
ATOM     75  F   UNL A   1      39.945  34.083  34.257  1.00  0.00    -0.206 F 
ATOM     76  C   UNL A   1      38.252  33.599  37.416  1.00  0.00     0.022 A 
BRANCH  73  77
ATOM     77  S   UNL A   1      37.161  31.395  38.727  1.00  0.00     0.124 S 
ATOM     78  O   UNL A   1      38.045  31.558  39.876  1.00  0.00    -0.237 OA
ATOM     79  O   UNL A   1      35.931  32.180  38.747  1.00  0.00    -0.237 OA
ATOM     80  O   UNL A   1      37.015  30.024  38.241  1.00  0.00    -0.744 OA
ENDBRANCH  73  77
ENDBRANCH  46  70
BRANCH  58  81
ATOM     81  C   UNL A   1      44.953  28.181  34.139  1.00  0.00     0.023 A 
ATOM     82  C   UNL A   1      45.052  27.103  35.036  1.00  0.00     0.031 A 
ATOM     83  C   UNL A   1      46.054  29.048  34.023  1.00  0.00     0.131 A 
ATOM     84  C   UNL A   1      46.205  26.953  35.822  1.00  0.00     0.055 A 
ATOM     85  C   UNL A   1      47.224  28.853  34.758  1.00  0.00     0.041 A 
ATOM     86  F   UNL A   1      46.015  30.098  33.187  1.00  0.00    -0.206 F 
ATOM     87  C   UNL A   1      47.300  27.809  35.674  1.00  0.00     0.022 A 
BRANCH  84  88
ATOM     88  S   UNL A   1      46.218  25.679  37.113  1.00  0.00     0.124 S 
ATOM     89  O   UNL A   1      47.509  25.034  36.887  1.00  0.00    -0.237 OA
ATOM     90  O   UNL A   1      46.106  26.469  38.334  1.00  0.00    -0.237 OA
ATOM     91  O   UNL A   1      45.052  24.858  36.797  1.00  0.00    -0.744 OA
ENDBRANCH  84  88
ENDBRANCH  58  81
ENDBRANCH  32  33
ENDBRANCH  24  27
ENDBRANCH  22  23
ENDBRANCH   1  22
TORSDOF 16
ENDMDL
