MODEL 1
REMARK VINA RESULT:     -10.2      0.000      0.000
REMARK SMILES CC[C@H](C)CN(CC)C(=O)c1ccc(/C=C/C(=O)NCCCNC(=O)c2ccc(-c3c4nc(c(-c5cc(S(=O)(=O)[O-])ccc5F)c5ccc([nH]5)c(-c5cc(S(=O)(=O)[O-])ccc5F)c5nc(c(-c6cc(S(=O)(=O)[O-])ccc6F)c6ccc3[nH]6)C=C5)C=C4)cc2)cn1
REMARK SMILES IDX 17 1 18 2 19 3 16 5 15 6 14 7 11 8 12 9 90 10 13 11 89 12
REMARK SMILES IDX 9 13 10 14 6 15 5 16 3 17 4 18 2 19 1 20 7 21 8 22 20 23
REMARK SMILES IDX 21 24 22 25 23 26 24 27 25 29 26 30 27 31 88 32 28 33 87 34
REMARK SMILES IDX 29 35 30 36 31 37 81 38 32 39 86 40 80 41 82 42 33 43 85 44
REMARK SMILES IDX 79 45 78 46 34 48 66 49 46 50 65 51 47 52 50 53 64 54 83 55
REMARK SMILES IDX 48 56 49 57 63 59 84 60 51 61 35 62 36 63 44 64 37 65 43 66
REMARK SMILES IDX 45 67 42 68 38 69 39 70 40 71 41 72 67 73 68 74 76 75 69 76
REMARK SMILES IDX 75 77 77 78 74 79 70 80 71 81 72 82 73 83 52 84 53 85 61 86
REMARK SMILES IDX 54 87 60 88 62 89 59 90 55 91 56 92 57 93 58 94
REMARK H PARENT 19 4 23 28 82 47 50 58
REMARK Flexibility Score: inf
ROOT
ATOM      1  C   UNL A   1      35.696  32.820  28.253  1.00  0.00     0.244 C 
ATOM      2  O   UNL A   1      36.833  32.411  28.484  1.00  0.00    -0.270 OA
ATOM      3  N   UNL A   1      35.444  34.157  28.226  1.00  0.00    -0.352 N 
ATOM      4  H   UNL A   1      36.191  34.726  28.525  1.00  0.00     0.163 HD
ENDROOT
BRANCH   1   5
ATOM      5  C   UNL A   1      34.629  31.852  27.919  1.00  0.00     0.072 C 
ATOM      6  C   UNL A   1      34.895  30.590  27.551  1.00  0.00     0.015 C 
BRANCH   6   7
ATOM      7  C   UNL A   1      33.910  29.559  27.207  1.00  0.00    -0.007 A 
ATOM      8  C   UNL A   1      32.115  27.671  26.351  1.00  0.00     0.128 A 
ATOM      9  C   UNL A   1      33.465  27.414  26.180  1.00  0.00     0.035 A 
ATOM     10  N   UNL A   1      31.619  28.784  26.950  1.00  0.00    -0.250 NA
ATOM     11  C   UNL A   1      34.370  28.365  26.637  1.00  0.00     0.012 A 
ATOM     12  C   UNL A   1      32.530  29.709  27.338  1.00  0.00     0.120 A 
BRANCH   8  13
ATOM     13  C   UNL A   1      31.130  26.779  25.698  1.00  0.00     0.272 C 
ATOM     14  O   UNL A   1      30.304  26.225  26.424  1.00  0.00    -0.267 OA
BRANCH  13  15
ATOM     15  N   UNL A   1      31.183  26.593  24.314  1.00  0.00    -0.337 N 
BRANCH  15  16
ATOM     16  C   UNL A   1      31.080  27.780  23.464  1.00  0.00     0.123 C 
BRANCH  16  17
ATOM     17  C   UNL A   1      29.857  28.676  23.793  1.00  0.00     0.005 C 
ATOM     18  C   UNL A   1      30.244  30.151  23.961  1.00  0.00     0.009 C 
BRANCH  17  19
ATOM     19  C   UNL A   1      28.787  28.467  22.695  1.00  0.00     0.002 C 
ATOM     20  C   UNL A   1      27.343  28.646  23.143  1.00  0.00     0.004 C 
ENDBRANCH  17  19
ENDBRANCH  16  17
ENDBRANCH  15  16
BRANCH  15  21
ATOM     21  C   UNL A   1      31.417  25.303  23.663  1.00  0.00     0.116 C 
ATOM     22  C   UNL A   1      32.451  25.417  22.547  1.00  0.00     0.027 C 
ENDBRANCH  15  21
ENDBRANCH  13  15
ENDBRANCH   8  13
ENDBRANCH   6   7
ENDBRANCH   1   5
BRANCH   3  23
ATOM     23  C   UNL A   1      34.247  34.881  27.825  1.00  0.00     0.118 C 
BRANCH  23  24
ATOM     24  C   UNL A   1      33.256  35.028  28.978  1.00  0.00     0.042 C 
BRANCH  24  25
ATOM     25  C   UNL A   1      33.398  36.341  29.743  1.00  0.00     0.118 C 
BRANCH  25  26
ATOM     26  N   UNL A   1      32.495  36.407  30.883  1.00  0.00    -0.352 N 
ATOM     27  C   UNL A   1      32.543  35.753  32.087  1.00  0.00     0.251 C 
ATOM     28  H   UNL A   1      31.731  37.017  30.771  1.00  0.00     0.163 HD
ATOM     29  O   UNL A   1      31.546  35.770  32.810  1.00  0.00    -0.269 OA
BRANCH  27  30
ATOM     30  C   UNL A   1      33.758  35.026  32.514  1.00  0.00     0.039 A 
ATOM     31  C   UNL A   1      33.621  33.749  33.067  1.00  0.00     0.014 A 
ATOM     32  C   UNL A   1      35.025  35.611  32.421  1.00  0.00     0.014 A 
ATOM     33  C   UNL A   1      34.754  33.042  33.479  1.00  0.00     0.010 A 
ATOM     34  C   UNL A   1      36.158  34.876  32.764  1.00  0.00     0.010 A 
ATOM     35  C   UNL A   1      36.035  33.588  33.306  1.00  0.00    -0.014 A 
BRANCH  35  36
ATOM     36  C   UNL A   1      37.254  32.837  33.702  1.00  0.00     0.031 A 
ATOM     37  C   UNL A   1      38.021  33.237  34.934  1.00  0.00     0.074 A 
ATOM     38  C   UNL A   1      37.701  31.831  32.924  1.00  0.00     0.049 A 
ATOM     39  N   UNL A   1      39.146  32.762  35.404  1.00  0.00    -0.248 NA
ATOM     40  C   UNL A   1      37.459  34.342  35.726  1.00  0.00     0.031 C 
ATOM     41  C   UNL A   1      37.060  31.369  31.691  1.00  0.00     0.029 A 
ATOM     42  N   UNL A   1      38.800  31.019  33.050  1.00  0.00    -0.354 N 
ATOM     43  C   UNL A   1      39.434  33.515  36.537  1.00  0.00     0.074 A 
ATOM     44  C   UNL A   1      38.399  34.522  36.641  1.00  0.00     0.031 C 
ATOM     45  C   UNL A   1      37.761  30.340  31.190  1.00  0.00     0.029 A 
ATOM     46  C   UNL A   1      38.925  30.097  32.036  1.00  0.00     0.049 A 
ATOM     47  H   UNL A   1      39.439  31.089  33.795  1.00  0.00     0.167 HD
ATOM     48  C   UNL A   1      40.451  33.365  37.423  1.00  0.00     0.034 A 
ATOM     49  C   UNL A   1      39.876  29.171  31.808  1.00  0.00     0.034 A 
ATOM     50  C   UNL A   1      41.472  32.351  37.305  1.00  0.00     0.049 A 
ATOM     51  C   UNL A   1      41.020  29.047  32.783  1.00  0.00     0.074 A 
ATOM     52  C   UNL A   1      42.526  32.081  38.161  1.00  0.00     0.029 A 
ATOM     53  N   UNL A   1      41.572  31.441  36.258  1.00  0.00    -0.354 N 
ATOM     54  N   UNL A   1      41.257  29.742  33.871  1.00  0.00    -0.248 NA
ATOM     55  C   UNL A   1      42.017  28.008  32.501  1.00  0.00     0.031 C 
ATOM     56  C   UNL A   1      43.298  31.057  37.601  1.00  0.00     0.029 A 
ATOM     57  C   UNL A   1      42.684  30.631  36.434  1.00  0.00     0.049 A 
ATOM     58  H   UNL A   1      40.945  31.381  35.502  1.00  0.00     0.167 HD
ATOM     59  C   UNL A   1      42.413  29.197  34.424  1.00  0.00     0.074 A 
ATOM     60  C   UNL A   1      42.815  28.111  33.554  1.00  0.00     0.031 C 
ATOM     61  C   UNL A   1      43.079  29.557  35.551  1.00  0.00     0.034 A 
BRANCH  48  62
ATOM     62  C   UNL A   1      40.513  34.341  38.576  1.00  0.00     0.023 A 
ATOM     63  C   UNL A   1      39.882  34.073  39.804  1.00  0.00     0.031 A 
ATOM     64  C   UNL A   1      41.170  35.577  38.435  1.00  0.00     0.131 A 
ATOM     65  C   UNL A   1      39.840  35.058  40.803  1.00  0.00     0.055 A 
ATOM     66  C   UNL A   1      41.202  36.517  39.467  1.00  0.00     0.041 A 
ATOM     67  F   UNL A   1      41.774  35.902  37.281  1.00  0.00    -0.206 F 
ATOM     68  C   UNL A   1      40.518  36.268  40.653  1.00  0.00     0.022 A 
BRANCH  65  69
ATOM     69  S   UNL A   1      38.742  34.799  42.224  1.00  0.00     0.124 S 
ATOM     70  O   UNL A   1      39.419  35.572  43.263  1.00  0.00    -0.237 OA
ATOM     71  O   UNL A   1      37.475  35.341  41.747  1.00  0.00    -0.237 OA
ATOM     72  O   UNL A   1      38.769  33.351  42.419  1.00  0.00    -0.744 OA
ENDBRANCH  65  69
ENDBRANCH  48  62
BRANCH  49  73
ATOM     73  C   UNL A   1      39.795  28.282  30.614  1.00  0.00     0.023 A 
ATOM     74  C   UNL A   1      40.483  28.601  29.433  1.00  0.00     0.031 A 
ATOM     75  C   UNL A   1      39.001  27.122  30.622  1.00  0.00     0.131 A 
ATOM     76  C   UNL A   1      40.328  27.797  28.293  1.00  0.00     0.055 A 
ATOM     77  C   UNL A   1      38.892  26.295  29.502  1.00  0.00     0.041 A 
ATOM     78  F   UNL A   1      38.328  26.766  31.728  1.00  0.00    -0.206 F 
ATOM     79  C   UNL A   1      39.548  26.639  28.323  1.00  0.00     0.022 A 
BRANCH  76  80
ATOM     80  S   UNL A   1      41.100  28.333  26.742  1.00  0.00     0.124 S 
ATOM     81  O   UNL A   1      41.205  27.075  26.013  1.00  0.00    -0.237 OA
ATOM     82  O   UNL A   1      40.125  29.292  26.234  1.00  0.00    -0.237 OA
ATOM     83  O   UNL A   1      42.370  28.911  27.178  1.00  0.00    -0.744 OA
ENDBRANCH  76  80
ENDBRANCH  49  73
BRANCH  61  84
ATOM     84  C   UNL A   1      44.282  28.728  35.928  1.00  0.00     0.023 A 
ATOM     85  C   UNL A   1      44.163  27.544  36.678  1.00  0.00     0.031 A 
ATOM     86  C   UNL A   1      45.571  29.139  35.545  1.00  0.00     0.131 A 
ATOM     87  C   UNL A   1      45.315  26.847  37.072  1.00  0.00     0.055 A 
ATOM     88  C   UNL A   1      46.709  28.407  35.886  1.00  0.00     0.041 A 
ATOM     89  F   UNL A   1      45.746  30.263  34.830  1.00  0.00    -0.206 F 
ATOM     90  C   UNL A   1      46.585  27.261  36.667  1.00  0.00     0.022 A 
BRANCH  87  91
ATOM     91  S   UNL A   1      45.137  25.443  38.207  1.00  0.00     0.124 S 
ATOM     92  O   UNL A   1      46.516  24.982  38.338  1.00  0.00    -0.237 OA
ATOM     93  O   UNL A   1      44.559  26.070  39.391  1.00  0.00    -0.237 OA
ATOM     94  O   UNL A   1      44.244  24.533  37.490  1.00  0.00    -0.744 OA
ENDBRANCH  87  91
ENDBRANCH  61  84
ENDBRANCH  35  36
ENDBRANCH  27  30
ENDBRANCH  25  26
ENDBRANCH  24  25
ENDBRANCH  23  24
ENDBRANCH   3  23
TORSDOF 20
ENDMDL
MODEL 2
REMARK VINA RESULT:      -9.7      1.611      2.491
REMARK SMILES CC[C@H](C)CN(CC)C(=O)c1ccc(/C=C/C(=O)NCCCNC(=O)c2ccc(-c3c4nc(c(-c5cc(S(=O)(=O)[O-])ccc5F)c5ccc([nH]5)c(-c5cc(S(=O)(=O)[O-])ccc5F)c5nc(c(-c6cc(S(=O)(=O)[O-])ccc6F)c6ccc3[nH]6)C=C5)C=C4)cc2)cn1
REMARK SMILES IDX 17 1 18 2 19 3 16 5 15 6 14 7 11 8 12 9 90 10 13 11 89 12
REMARK SMILES IDX 9 13 10 14 6 15 5 16 3 17 4 18 2 19 1 20 7 21 8 22 20 23
REMARK SMILES IDX 21 24 22 25 23 26 24 27 25 29 26 30 27 31 88 32 28 33 87 34
REMARK SMILES IDX 29 35 30 36 31 37 81 38 32 39 86 40 80 41 82 42 33 43 85 44
REMARK SMILES IDX 79 45 78 46 34 48 66 49 46 50 65 51 47 52 50 53 64 54 83 55
REMARK SMILES IDX 48 56 49 57 63 59 84 60 51 61 35 62 36 63 44 64 37 65 43 66
REMARK SMILES IDX 45 67 42 68 38 69 39 70 40 71 41 72 67 73 68 74 76 75 69 76
REMARK SMILES IDX 75 77 77 78 74 79 70 80 71 81 72 82 73 83 52 84 53 85 61 86
REMARK SMILES IDX 54 87 60 88 62 89 59 90 55 91 56 92 57 93 58 94
REMARK H PARENT 19 4 23 28 82 47 50 58
REMARK Flexibility Score: inf
ROOT
ATOM      1  C   UNL A   1      35.932  33.332  28.388  1.00  0.00     0.244 C 
ATOM      2  O   UNL A   1      37.030  32.953  28.793  1.00  0.00    -0.270 OA
ATOM      3  N   UNL A   1      35.577  34.641  28.500  1.00  0.00    -0.352 N 
ATOM      4  H   UNL A   1      36.197  35.194  29.029  1.00  0.00     0.163 HD
ENDROOT
BRANCH   1   5
ATOM      5  C   UNL A   1      35.041  32.373  27.699  1.00  0.00     0.072 C 
ATOM      6  C   UNL A   1      35.005  31.071  28.019  1.00  0.00     0.015 C 
BRANCH   6   7
ATOM      7  C   UNL A   1      34.156  30.047  27.402  1.00  0.00    -0.007 A 
ATOM      8  C   UNL A   1      32.482  28.095  26.449  1.00  0.00     0.128 A 
ATOM      9  C   UNL A   1      31.921  29.292  26.863  1.00  0.00     0.035 A 
ATOM     10  N   UNL A   1      33.814  27.835  26.449  1.00  0.00    -0.250 NA
ATOM     11  C   UNL A   1      32.778  30.285  27.324  1.00  0.00     0.012 A 
ATOM     12  C   UNL A   1      34.612  28.809  26.949  1.00  0.00     0.120 A 
BRANCH   8  13
ATOM     13  C   UNL A   1      31.587  26.955  26.147  1.00  0.00     0.272 C 
ATOM     14  O   UNL A   1      30.820  26.590  27.039  1.00  0.00    -0.267 OA
BRANCH  13  15
ATOM     15  N   UNL A   1      31.655  26.340  24.894  1.00  0.00    -0.337 N 
BRANCH  15  16
ATOM     16  C   UNL A   1      32.076  24.940  24.846  1.00  0.00     0.123 C 
BRANCH  16  17
ATOM     17  C   UNL A   1      32.971  24.517  26.041  1.00  0.00     0.005 C 
ATOM     18  C   UNL A   1      32.369  23.352  26.836  1.00  0.00     0.009 C 
BRANCH  17  19
ATOM     19  C   UNL A   1      34.386  24.198  25.504  1.00  0.00     0.002 C 
ATOM     20  C   UNL A   1      35.168  23.154  26.290  1.00  0.00     0.004 C 
ENDBRANCH  17  19
ENDBRANCH  16  17
ENDBRANCH  15  16
BRANCH  15  21
ATOM     21  C   UNL A   1      31.256  26.979  23.639  1.00  0.00     0.116 C 
ATOM     22  C   UNL A   1      29.780  27.366  23.651  1.00  0.00     0.027 C 
ENDBRANCH  15  21
ENDBRANCH  13  15
ENDBRANCH   8  13
ENDBRANCH   6   7
ENDBRANCH   1   5
BRANCH   3  23
ATOM     23  C   UNL A   1      34.428  35.354  27.962  1.00  0.00     0.118 C 
BRANCH  23  24
ATOM     24  C   UNL A   1      33.281  35.428  28.968  1.00  0.00     0.042 C 
BRANCH  24  25
ATOM     25  C   UNL A   1      33.445  36.540  29.999  1.00  0.00     0.118 C 
BRANCH  25  26
ATOM     26  N   UNL A   1      32.501  36.405  31.099  1.00  0.00    -0.352 N 
ATOM     27  C   UNL A   1      32.530  35.579  32.193  1.00  0.00     0.251 C 
ATOM     28  H   UNL A   1      31.718  37.001  31.050  1.00  0.00     0.163 HD
ATOM     29  O   UNL A   1      31.509  35.456  32.870  1.00  0.00    -0.269 OA
BRANCH  27  30
ATOM     30  C   UNL A   1      33.756  34.834  32.554  1.00  0.00     0.039 A 
ATOM     31  C   UNL A   1      34.993  35.476  32.441  1.00  0.00     0.014 A 
ATOM     32  C   UNL A   1      33.701  33.495  32.954  1.00  0.00     0.014 A 
ATOM     33  C   UNL A   1      36.166  34.793  32.775  1.00  0.00     0.010 A 
ATOM     34  C   UNL A   1      34.863  32.840  33.356  1.00  0.00     0.010 A 
ATOM     35  C   UNL A   1      36.109  33.478  33.262  1.00  0.00    -0.014 A 
BRANCH  35  36
ATOM     36  C   UNL A   1      37.342  32.748  33.658  1.00  0.00     0.031 A 
ATOM     37  C   UNL A   1      38.064  33.118  34.925  1.00  0.00     0.074 A 
ATOM     38  C   UNL A   1      37.839  31.790  32.850  1.00  0.00     0.049 A 
ATOM     39  N   UNL A   1      39.192  32.658  35.404  1.00  0.00    -0.248 NA
ATOM     40  C   UNL A   1      37.448  34.170  35.747  1.00  0.00     0.031 C 
ATOM     41  C   UNL A   1      37.243  31.363  31.583  1.00  0.00     0.029 A 
ATOM     42  N   UNL A   1      38.960  31.007  32.971  1.00  0.00    -0.354 N 
ATOM     43  C   UNL A   1      39.427  33.370  36.575  1.00  0.00     0.074 A 
ATOM     44  C   UNL A   1      38.358  34.340  36.694  1.00  0.00     0.031 C 
ATOM     45  C   UNL A   1      37.989  30.377  31.058  1.00  0.00     0.029 A 
ATOM     46  C   UNL A   1      39.139  30.134  31.922  1.00  0.00     0.049 A 
ATOM     47  H   UNL A   1      39.577  31.065  33.735  1.00  0.00     0.167 HD
ATOM     48  C   UNL A   1      40.426  33.213  37.481  1.00  0.00     0.034 A 
ATOM     49  C   UNL A   1      40.123  29.247  31.681  1.00  0.00     0.034 A 
ATOM     50  C   UNL A   1      41.481  32.237  37.347  1.00  0.00     0.049 A 
ATOM     51  C   UNL A   1      41.246  29.117  32.680  1.00  0.00     0.074 A 
ATOM     52  C   UNL A   1      42.521  31.963  38.219  1.00  0.00     0.029 A 
ATOM     53  N   UNL A   1      41.635  31.376  36.266  1.00  0.00    -0.354 N 
ATOM     54  N   UNL A   1      41.434  29.771  33.802  1.00  0.00    -0.248 NA
ATOM     55  C   UNL A   1      42.282  28.122  32.381  1.00  0.00     0.031 C 
ATOM     56  C   UNL A   1      43.339  30.988  37.636  1.00  0.00     0.029 A 
ATOM     57  C   UNL A   1      42.768  30.594  36.436  1.00  0.00     0.049 A 
ATOM     58  H   UNL A   1      41.030  31.329  35.492  1.00  0.00     0.167 HD
ATOM     59  C   UNL A   1      42.592  29.239  34.362  1.00  0.00     0.074 A 
ATOM     60  C   UNL A   1      43.050  28.204  33.458  1.00  0.00     0.031 C 
ATOM     61  C   UNL A   1      43.219  29.571  35.520  1.00  0.00     0.034 A 
BRANCH  48  62
ATOM     62  C   UNL A   1      40.428  34.141  38.675  1.00  0.00     0.023 A 
ATOM     63  C   UNL A   1      39.805  33.787  39.884  1.00  0.00     0.031 A 
ATOM     64  C   UNL A   1      41.020  35.414  38.592  1.00  0.00     0.131 A 
ATOM     65  C   UNL A   1      39.704  34.724  40.924  1.00  0.00     0.055 A 
ATOM     66  C   UNL A   1      40.995  36.309  39.664  1.00  0.00     0.041 A 
ATOM     67  F   UNL A   1      41.613  35.821  37.459  1.00  0.00    -0.206 F 
ATOM     68  C   UNL A   1      40.317  35.974  40.832  1.00  0.00     0.022 A 
BRANCH  65  69
ATOM     69  S   UNL A   1      38.612  34.346  42.323  1.00  0.00     0.124 S 
ATOM     70  O   UNL A   1      38.109  33.024  41.956  1.00  0.00    -0.237 OA
ATOM     71  O   UNL A   1      39.528  34.390  43.458  1.00  0.00    -0.237 OA
ATOM     72  O   UNL A   1      37.618  35.416  42.281  1.00  0.00    -0.744 OA
ENDBRANCH  65  69
ENDBRANCH  48  62
BRANCH  49  73
ATOM     73  C   UNL A   1      40.101  28.409  30.449  1.00  0.00     0.023 A 
ATOM     74  C   UNL A   1      40.890  28.742  29.338  1.00  0.00     0.031 A 
ATOM     75  C   UNL A   1      39.263  27.284  30.349  1.00  0.00     0.131 A 
ATOM     76  C   UNL A   1      40.793  27.989  28.157  1.00  0.00     0.055 A 
ATOM     77  C   UNL A   1      39.208  26.506  29.191  1.00  0.00     0.041 A 
ATOM     78  F   UNL A   1      38.492  26.916  31.385  1.00  0.00    -0.206 F 
ATOM     79  C   UNL A   1      39.967  26.865  28.081  1.00  0.00     0.022 A 
BRANCH  76  80
ATOM     80  S   UNL A   1      41.705  28.549  26.694  1.00  0.00     0.124 S 
ATOM     81  O   UNL A   1      42.297  27.304  26.219  1.00  0.00    -0.237 OA
ATOM     82  O   UNL A   1      40.638  29.110  25.869  1.00  0.00    -0.237 OA
ATOM     83  O   UNL A   1      42.649  29.524  27.235  1.00  0.00    -0.744 OA
ENDBRANCH  76  80
ENDBRANCH  49  73
BRANCH  61  84
ATOM     84  C   UNL A   1      44.437  28.763  35.893  1.00  0.00     0.023 A 
ATOM     85  C   UNL A   1      45.732  29.147  35.500  1.00  0.00     0.031 A 
ATOM     86  C   UNL A   1      44.298  27.579  36.639  1.00  0.00     0.131 A 
ATOM     87  C   UNL A   1      46.828  28.325  35.803  1.00  0.00     0.055 A 
ATOM     88  C   UNL A   1      45.399  26.797  36.992  1.00  0.00     0.041 A 
ATOM     89  F   UNL A   1      43.086  27.162  37.039  1.00  0.00    -0.206 F 
ATOM     90  C   UNL A   1      46.672  27.162  36.560  1.00  0.00     0.022 A 
BRANCH  87  91
ATOM     91  S   UNL A   1      48.450  28.745  35.109  1.00  0.00     0.124 S 
ATOM     92  O   UNL A   1      48.098  29.199  33.767  1.00  0.00    -0.237 OA
ATOM     93  O   UNL A   1      48.924  29.776  36.027  1.00  0.00    -0.237 OA
ATOM     94  O   UNL A   1      49.184  27.481  35.163  1.00  0.00    -0.744 OA
ENDBRANCH  87  91
ENDBRANCH  61  84
ENDBRANCH  35  36
ENDBRANCH  27  30
ENDBRANCH  25  26
ENDBRANCH  24  25
ENDBRANCH  23  24
ENDBRANCH   3  23
TORSDOF 20
ENDMDL
MODEL 3
REMARK VINA RESULT:      -9.7      5.604     11.388
REMARK SMILES CC[C@H](C)CN(CC)C(=O)c1ccc(/C=C/C(=O)NCCCNC(=O)c2ccc(-c3c4nc(c(-c5cc(S(=O)(=O)[O-])ccc5F)c5ccc([nH]5)c(-c5cc(S(=O)(=O)[O-])ccc5F)c5nc(c(-c6cc(S(=O)(=O)[O-])ccc6F)c6ccc3[nH]6)C=C5)C=C4)cc2)cn1
REMARK SMILES IDX 17 1 18 2 19 3 16 5 15 6 14 7 11 8 12 9 90 10 13 11 89 12
REMARK SMILES IDX 9 13 10 14 6 15 5 16 3 17 4 18 2 19 1 20 7 21 8 22 20 23
REMARK SMILES IDX 21 24 22 25 23 26 24 27 25 29 26 30 27 31 88 32 28 33 87 34
REMARK SMILES IDX 29 35 30 36 31 37 81 38 32 39 86 40 80 41 82 42 33 43 85 44
REMARK SMILES IDX 79 45 78 46 34 48 66 49 46 50 65 51 47 52 50 53 64 54 83 55
REMARK SMILES IDX 48 56 49 57 63 59 84 60 51 61 35 62 36 63 44 64 37 65 43 66
REMARK SMILES IDX 45 67 42 68 38 69 39 70 40 71 41 72 67 73 68 74 76 75 69 76
REMARK SMILES IDX 75 77 77 78 74 79 70 80 71 81 72 82 73 83 52 84 53 85 61 86
REMARK SMILES IDX 54 87 60 88 62 89 59 90 55 91 56 92 57 93 58 94
REMARK H PARENT 19 4 23 28 82 47 50 58
REMARK Flexibility Score: inf
ROOT
ATOM      1  C   UNL A   1      45.051  24.634  25.031  1.00  0.00     0.244 C 
ATOM      2  O   UNL A   1      46.005  24.460  24.275  1.00  0.00    -0.270 OA
ATOM      3  N   UNL A   1      44.069  23.695  25.119  1.00  0.00    -0.352 N 
ATOM      4  H   UNL A   1      44.129  22.970  24.456  1.00  0.00     0.163 HD
ENDROOT
BRANCH   1   5
ATOM      5  C   UNL A   1      45.025  25.826  25.907  1.00  0.00     0.072 C 
ATOM      6  C   UNL A   1      44.398  26.958  25.558  1.00  0.00     0.015 C 
BRANCH   6   7
ATOM      7  C   UNL A   1      44.311  28.186  26.356  1.00  0.00    -0.007 A 
ATOM      8  C   UNL A   1      44.147  30.595  27.656  1.00  0.00     0.128 A 
ATOM      9  C   UNL A   1      43.036  30.153  26.957  1.00  0.00     0.035 A 
ATOM     10  N   UNL A   1      45.305  29.896  27.772  1.00  0.00    -0.250 NA
ATOM     11  C   UNL A   1      43.119  28.920  26.318  1.00  0.00     0.012 A 
ATOM     12  C   UNL A   1      45.364  28.723  27.097  1.00  0.00     0.120 A 
BRANCH   8  13
ATOM     13  C   UNL A   1      44.159  31.982  28.172  1.00  0.00     0.272 C 
ATOM     14  O   UNL A   1      44.027  32.133  29.386  1.00  0.00    -0.267 OA
BRANCH  13  15
ATOM     15  N   UNL A   1      44.304  33.047  27.277  1.00  0.00    -0.337 N 
BRANCH  15  16
ATOM     16  C   UNL A   1      43.315  34.124  27.338  1.00  0.00     0.123 C 
BRANCH  16  17
ATOM     17  C   UNL A   1      43.870  35.446  27.933  1.00  0.00     0.005 C 
ATOM     18  C   UNL A   1      43.983  36.555  26.880  1.00  0.00     0.009 C 
BRANCH  17  19
ATOM     19  C   UNL A   1      42.982  35.855  29.131  1.00  0.00     0.002 C 
ATOM     20  C   UNL A   1      41.861  34.885  29.480  1.00  0.00     0.004 C 
ENDBRANCH  17  19
ENDBRANCH  16  17
ENDBRANCH  15  16
BRANCH  15  21
ATOM     21  C   UNL A   1      45.421  33.194  26.343  1.00  0.00     0.116 C 
ATOM     22  C   UNL A   1      46.765  33.015  27.043  1.00  0.00     0.027 C 
ENDBRANCH  15  21
ENDBRANCH  13  15
ENDBRANCH   8  13
ENDBRANCH   6   7
ENDBRANCH   1   5
BRANCH   3  23
ATOM     23  C   UNL A   1      42.945  23.593  26.037  1.00  0.00     0.118 C 
BRANCH  23  24
ATOM     24  C   UNL A   1      42.215  22.258  25.899  1.00  0.00     0.042 C 
BRANCH  24  25
ATOM     25  C   UNL A   1      40.969  22.151  26.774  1.00  0.00     0.118 C 
BRANCH  25  26
ATOM     26  N   UNL A   1      39.760  22.502  26.044  1.00  0.00    -0.352 N 
ATOM     27  C   UNL A   1      38.918  23.574  26.192  1.00  0.00     0.251 C 
ATOM     28  H   UNL A   1      39.508  21.871  25.331  1.00  0.00     0.163 HD
ATOM     29  O   UNL A   1      37.821  23.546  25.633  1.00  0.00    -0.269 OA
BRANCH  27  30
ATOM     30  C   UNL A   1      39.303  24.739  27.017  1.00  0.00     0.039 A 
ATOM     31  C   UNL A   1      40.054  25.762  26.430  1.00  0.00     0.014 A 
ATOM     32  C   UNL A   1      38.976  24.809  28.374  1.00  0.00     0.014 A 
ATOM     33  C   UNL A   1      40.432  26.873  27.188  1.00  0.00     0.010 A 
ATOM     34  C   UNL A   1      39.290  25.950  29.109  1.00  0.00     0.010 A 
ATOM     35  C   UNL A   1      40.030  26.991  28.527  1.00  0.00    -0.014 A 
BRANCH  35  36
ATOM     36  C   UNL A   1      40.389  28.182  29.340  1.00  0.00     0.031 A 
ATOM     37  C   UNL A   1      41.780  28.327  29.896  1.00  0.00     0.074 A 
ATOM     38  C   UNL A   1      39.448  29.105  29.623  1.00  0.00     0.049 A 
ATOM     39  N   UNL A   1      42.267  29.246  30.688  1.00  0.00    -0.248 NA
ATOM     40  C   UNL A   1      42.743  27.275  29.533  1.00  0.00     0.031 C 
ATOM     41  C   UNL A   1      38.058  29.061  29.165  1.00  0.00     0.029 A 
ATOM     42  N   UNL A   1      39.515  30.257  30.366  1.00  0.00    -0.354 N 
ATOM     43  C   UNL A   1      43.587  28.881  30.930  1.00  0.00     0.074 A 
ATOM     44  C   UNL A   1      43.800  27.618  30.253  1.00  0.00     0.031 C 
ATOM     45  C   UNL A   1      37.412  30.149  29.614  1.00  0.00     0.029 A 
ATOM     46  C   UNL A   1      38.325  30.944  30.429  1.00  0.00     0.049 A 
ATOM     47  H   UNL A   1      40.337  30.562  30.812  1.00  0.00     0.167 HD
ATOM     48  C   UNL A   1      44.542  29.548  31.628  1.00  0.00     0.034 A 
ATOM     49  C   UNL A   1      38.003  32.079  31.079  1.00  0.00     0.034 A 
ATOM     50  C   UNL A   1      44.312  30.808  32.292  1.00  0.00     0.049 A 
ATOM     51  C   UNL A   1      39.068  32.783  31.883  1.00  0.00     0.074 A 
ATOM     52  C   UNL A   1      45.212  31.592  32.995  1.00  0.00     0.029 A 
ATOM     53  N   UNL A   1      43.089  31.470  32.343  1.00  0.00    -0.354 N 
ATOM     54  N   UNL A   1      40.322  32.445  32.070  1.00  0.00    -0.248 NA
ATOM     55  C   UNL A   1      38.671  34.027  32.555  1.00  0.00     0.031 C 
ATOM     56  C   UNL A   1      44.521  32.688  33.524  1.00  0.00     0.029 A 
ATOM     57  C   UNL A   1      43.207  32.634  33.088  1.00  0.00     0.049 A 
ATOM     58  H   UNL A   1      42.262  31.157  31.913  1.00  0.00     0.167 HD
ATOM     59  C   UNL A   1      40.875  33.455  32.852  1.00  0.00     0.074 A 
ATOM     60  C   UNL A   1      39.819  34.419  33.089  1.00  0.00     0.031 C 
ATOM     61  C   UNL A   1      42.141  33.581  33.326  1.00  0.00     0.034 A 
BRANCH  48  62
ATOM     62  C   UNL A   1      45.906  28.902  31.723  1.00  0.00     0.023 A 
ATOM     63  C   UNL A   1      46.901  29.137  30.758  1.00  0.00     0.031 A 
ATOM     64  C   UNL A   1      46.203  28.006  32.765  1.00  0.00     0.131 A 
ATOM     65  C   UNL A   1      48.104  28.416  30.799  1.00  0.00     0.055 A 
ATOM     66  C   UNL A   1      47.439  27.360  32.851  1.00  0.00     0.041 A 
ATOM     67  F   UNL A   1      45.290  27.723  33.707  1.00  0.00    -0.206 F 
ATOM     68  C   UNL A   1      48.391  27.548  31.854  1.00  0.00     0.022 A 
BRANCH  65  69
ATOM     69  S   UNL A   1      49.211  28.502  29.364  1.00  0.00     0.124 S 
ATOM     70  O   UNL A   1      48.673  29.655  28.645  1.00  0.00    -0.237 OA
ATOM     71  O   UNL A   1      50.518  28.688  29.984  1.00  0.00    -0.237 OA
ATOM     72  O   UNL A   1      49.012  27.215  28.700  1.00  0.00    -0.744 OA
ENDBRANCH  65  69
ENDBRANCH  48  62
BRANCH  49  73
ATOM     73  C   UNL A   1      36.620  32.629  31.002  1.00  0.00     0.023 A 
ATOM     74  C   UNL A   1      36.123  33.159  29.802  1.00  0.00     0.031 A 
ATOM     75  C   UNL A   1      35.788  32.666  32.135  1.00  0.00     0.131 A 
ATOM     76  C   UNL A   1      34.849  33.748  29.771  1.00  0.00     0.055 A 
ATOM     77  C   UNL A   1      34.500  33.204  32.086  1.00  0.00     0.041 A 
ATOM     78  F   UNL A   1      36.211  32.165  33.307  1.00  0.00    -0.206 F 
ATOM     79  C   UNL A   1      34.029  33.762  30.901  1.00  0.00     0.022 A 
BRANCH  76  80
ATOM     80  S   UNL A   1      34.309  34.567  28.245  1.00  0.00     0.124 S 
ATOM     81  O   UNL A   1      32.963  34.033  28.082  1.00  0.00    -0.237 OA
ATOM     82  O   UNL A   1      34.403  35.977  28.611  1.00  0.00    -0.237 OA
ATOM     83  O   UNL A   1      35.285  34.116  27.255  1.00  0.00    -0.744 OA
ENDBRANCH  76  80
ENDBRANCH  49  73
BRANCH  61  84
ATOM     84  C   UNL A   1      42.459  34.834  34.104  1.00  0.00     0.023 A 
ATOM     85  C   UNL A   1      42.835  36.029  33.465  1.00  0.00     0.031 A 
ATOM     86  C   UNL A   1      42.401  34.827  35.508  1.00  0.00     0.131 A 
ATOM     87  C   UNL A   1      43.197  37.148  34.231  1.00  0.00     0.055 A 
ATOM     88  C   UNL A   1      42.701  35.961  36.264  1.00  0.00     0.041 A 
ATOM     89  F   UNL A   1      42.050  33.713  36.172  1.00  0.00    -0.206 F 
ATOM     90  C   UNL A   1      43.116  37.126  35.625  1.00  0.00     0.022 A 
BRANCH  87  91
ATOM     91  S   UNL A   1      43.871  38.603  33.384  1.00  0.00     0.124 S 
ATOM     92  O   UNL A   1      44.856  39.085  34.346  1.00  0.00    -0.237 OA
ATOM     93  O   UNL A   1      44.408  38.027  32.155  1.00  0.00    -0.237 OA
ATOM     94  O   UNL A   1      42.704  39.466  33.205  1.00  0.00    -0.744 OA
ENDBRANCH  87  91
ENDBRANCH  61  84
ENDBRANCH  35  36
ENDBRANCH  27  30
ENDBRANCH  25  26
ENDBRANCH  24  25
ENDBRANCH  23  24
ENDBRANCH   3  23
TORSDOF 20
ENDMDL
