MODEL 1
REMARK VINA RESULT:     -12.0      0.000      0.000
REMARK SMILES Cc1ccccc1C[C@H](CCSc1ccccc1)C(=O)NCCCNC(=O)c1ccc(-c2c3nc(c(-c4cc(S(=O)(=O)[O-])ccc4F)c4ccc([nH]4)c(-c4cc(S(=O)(=O)[O-])ccc4F)c4nc(c(-c5cc(S(=O)(=O)[O-])ccc5F)c5ccc2[nH]5)C=C4)C=C3)cc1
REMARK SMILES IDX 22 1 21 2 19 3 20 4 9 6 8 7 7 8 1 9 2 10 3 11 4 12 6 13 5 14
REMARK SMILES IDX 10 15 11 16 12 17 13 18 14 19 18 20 15 21 17 22 16 23 23 24
REMARK SMILES IDX 24 25 25 26 26 27 27 29 28 30 29 31 90 32 30 33 89 34 31 35
REMARK SMILES IDX 32 36 33 37 83 38 34 39 88 40 82 41 84 42 35 43 87 44 81 45
REMARK SMILES IDX 80 46 36 48 68 49 48 50 67 51 49 52 52 53 66 54 85 55 50 56
REMARK SMILES IDX 51 57 65 59 86 60 53 61 37 62 38 63 46 64 39 65 45 66 47 67
REMARK SMILES IDX 44 68 40 69 41 70 42 71 43 72 69 73 70 74 78 75 71 76 77 77
REMARK SMILES IDX 79 78 76 79 72 80 73 81 74 82 75 83 54 84 55 85 63 86 56 87
REMARK SMILES IDX 62 88 64 89 61 90 57 91 58 92 59 93 60 94
REMARK H PARENT 21 5 25 28 84 47 52 58
REMARK Flexibility Score: inf
ROOT
ATOM      1  C   UNL A   1      31.837  29.956  26.208  1.00  0.00     0.117 C 
ENDROOT
BRANCH   1   2
ATOM      2  N   UNL A   1      31.114  30.197  24.970  1.00  0.00    -0.356 N 
ATOM      3  C   UNL A   1      30.766  29.339  23.974  1.00  0.00     0.223 C 
ATOM      4  O   UNL A   1      30.126  29.792  23.023  1.00  0.00    -0.275 OA
ATOM      5  H   UNL A   1      30.831  31.130  24.829  1.00  0.00     0.163 HD
BRANCH   3   6
ATOM      6  C   UNL A   1      31.231  27.888  23.967  1.00  0.00     0.083 C 
BRANCH   6   7
ATOM      7  C   UNL A   1      32.574  27.584  23.264  1.00  0.00     0.049 C 
BRANCH   7   8
ATOM      8  C   UNL A   1      33.322  26.319  23.656  1.00  0.00    -0.044 A 
ATOM      9  C   UNL A   1      33.080  25.228  21.328  1.00  0.00     0.044 C 
ATOM     10  C   UNL A   1      33.529  25.242  22.764  1.00  0.00    -0.048 A 
ATOM     11  C   UNL A   1      34.310  24.141  23.176  1.00  0.00     0.004 A 
ATOM     12  C   UNL A   1      34.899  24.098  24.435  1.00  0.00     0.000 A 
ATOM     13  C   UNL A   1      33.956  26.256  24.913  1.00  0.00     0.004 A 
ATOM     14  C   UNL A   1      34.727  25.162  25.300  1.00  0.00     0.000 A 
ENDBRANCH   7   8
ENDBRANCH   6   7
BRANCH   6  15
ATOM     15  C   UNL A   1      30.031  27.033  23.490  1.00  0.00     0.025 C 
BRANCH  15  16
ATOM     16  C   UNL A   1      29.351  26.121  24.514  1.00  0.00     0.076 C 
BRANCH  16  17
ATOM     17  S   UNL A   1      30.267  25.931  26.086  1.00  0.00    -0.126 SA
BRANCH  17  18
ATOM     18  C   UNL A   1      31.004  24.325  25.879  1.00  0.00     0.007 A 
ATOM     19  C   UNL A   1      30.887  23.655  24.659  1.00  0.00     0.015 A 
ATOM     20  C   UNL A   1      31.772  23.753  26.898  1.00  0.00     0.015 A 
ATOM     21  C   UNL A   1      31.459  22.395  24.481  1.00  0.00     0.001 A 
ATOM     22  C   UNL A   1      32.386  22.512  26.705  1.00  0.00     0.001 A 
ATOM     23  C   UNL A   1      32.217  21.827  25.501  1.00  0.00     0.000 A 
ENDBRANCH  17  18
ENDBRANCH  16  17
ENDBRANCH  15  16
ENDBRANCH   6  15
ENDBRANCH   3   6
ENDBRANCH   1   2
BRANCH   1  24
ATOM     24  C   UNL A   1      33.339  29.948  25.998  1.00  0.00     0.042 C 
BRANCH  24  25
ATOM     25  C   UNL A   1      34.078  29.751  27.300  1.00  0.00     0.118 C 
BRANCH  25  26
ATOM     26  N   UNL A   1      34.785  30.918  27.794  1.00  0.00    -0.352 N 
ATOM     27  C   UNL A   1      35.955  30.991  28.539  1.00  0.00     0.251 C 
ATOM     28  H   UNL A   1      34.378  31.785  27.566  1.00  0.00     0.163 HD
ATOM     29  O   UNL A   1      36.272  32.044  29.059  1.00  0.00    -0.269 OA
BRANCH  27  30
ATOM     30  C   UNL A   1      36.882  29.823  28.585  1.00  0.00     0.039 A 
ATOM     31  C   UNL A   1      37.036  29.154  29.809  1.00  0.00     0.014 A 
ATOM     32  C   UNL A   1      37.755  29.546  27.544  1.00  0.00     0.014 A 
ATOM     33  C   UNL A   1      38.188  28.407  30.045  1.00  0.00     0.010 A 
ATOM     34  C   UNL A   1      38.972  28.991  27.834  1.00  0.00     0.010 A 
ATOM     35  C   UNL A   1      39.195  28.434  29.090  1.00  0.00    -0.014 A 
BRANCH  35  36
ATOM     36  C   UNL A   1      40.531  27.897  29.248  1.00  0.00     0.031 A 
ATOM     37  C   UNL A   1      40.802  26.535  28.755  1.00  0.00     0.074 A 
ATOM     38  C   UNL A   1      41.524  28.727  29.628  1.00  0.00     0.049 A 
ATOM     39  N   UNL A   1      41.829  25.842  29.090  1.00  0.00    -0.248 NA
ATOM     40  C   UNL A   1      39.909  25.823  27.843  1.00  0.00     0.031 C 
ATOM     41  C   UNL A   1      42.963  28.511  29.512  1.00  0.00     0.029 A 
ATOM     42  N   UNL A   1      41.405  29.870  30.417  1.00  0.00    -0.354 N 
ATOM     43  C   UNL A   1      41.892  24.752  28.254  1.00  0.00     0.074 A 
ATOM     44  C   UNL A   1      40.647  24.756  27.529  1.00  0.00     0.031 C 
ATOM     45  C   UNL A   1      43.588  29.292  30.408  1.00  0.00     0.029 A 
ATOM     46  C   UNL A   1      42.559  29.909  31.227  1.00  0.00     0.049 A 
ATOM     47  H   UNL A   1      40.666  30.520  30.410  1.00  0.00     0.167 HD
ATOM     48  C   UNL A   1      43.053  24.050  28.185  1.00  0.00     0.034 A 
ATOM     49  C   UNL A   1      42.445  29.760  32.580  1.00  0.00     0.034 A 
ATOM     50  C   UNL A   1      44.042  24.597  29.112  1.00  0.00     0.049 A 
ATOM     51  C   UNL A   1      43.142  28.524  33.109  1.00  0.00     0.074 A 
ATOM     52  C   UNL A   1      45.116  25.457  28.952  1.00  0.00     0.029 A 
ATOM     53  N   UNL A   1      43.789  24.532  30.474  1.00  0.00    -0.354 N 
ATOM     54  N   UNL A   1      43.514  27.512  32.374  1.00  0.00    -0.248 NA
ATOM     55  C   UNL A   1      43.487  28.345  34.512  1.00  0.00     0.031 C 
ATOM     56  C   UNL A   1      45.482  25.939  30.238  1.00  0.00     0.029 A 
ATOM     57  C   UNL A   1      44.653  25.346  31.175  1.00  0.00     0.049 A 
ATOM     58  H   UNL A   1      43.086  23.978  30.885  1.00  0.00     0.167 HD
ATOM     59  C   UNL A   1      44.127  26.562  33.158  1.00  0.00     0.074 A 
ATOM     60  C   UNL A   1      44.095  27.145  34.488  1.00  0.00     0.031 C 
ATOM     61  C   UNL A   1      44.592  25.383  32.631  1.00  0.00     0.034 A 
BRANCH  48  62
ATOM     62  C   UNL A   1      43.391  23.047  27.113  1.00  0.00     0.023 A 
ATOM     63  C   UNL A   1      42.765  21.785  27.150  1.00  0.00     0.031 A 
ATOM     64  C   UNL A   1      44.306  23.240  26.060  1.00  0.00     0.131 A 
ATOM     65  C   UNL A   1      43.106  20.767  26.245  1.00  0.00     0.055 A 
ATOM     66  C   UNL A   1      44.684  22.211  25.186  1.00  0.00     0.041 A 
ATOM     67  F   UNL A   1      44.832  24.442  25.793  1.00  0.00    -0.206 F 
ATOM     68  C   UNL A   1      44.088  20.961  25.280  1.00  0.00     0.022 A 
BRANCH  65  69
ATOM     69  S   UNL A   1      42.228  19.184  26.344  1.00  0.00     0.124 S 
ATOM     70  O   UNL A   1      43.057  18.320  25.510  1.00  0.00    -0.237 OA
ATOM     71  O   UNL A   1      42.245  18.910  27.777  1.00  0.00    -0.237 OA
ATOM     72  O   UNL A   1      40.910  19.494  25.792  1.00  0.00    -0.744 OA
ENDBRANCH  65  69
ENDBRANCH  48  62
BRANCH  49  73
ATOM     73  C   UNL A   1      41.196  30.379  33.115  1.00  0.00     0.023 A 
ATOM     74  C   UNL A   1      41.166  31.790  33.177  1.00  0.00     0.031 A 
ATOM     75  C   UNL A   1      39.969  29.700  33.094  1.00  0.00     0.131 A 
ATOM     76  C   UNL A   1      39.953  32.480  33.028  1.00  0.00     0.055 A 
ATOM     77  C   UNL A   1      38.754  30.395  33.013  1.00  0.00     0.041 A 
ATOM     78  F   UNL A   1      39.930  28.361  33.003  1.00  0.00    -0.206 F 
ATOM     79  C   UNL A   1      38.746  31.788  32.923  1.00  0.00     0.022 A 
BRANCH  76  80
ATOM     80  S   UNL A   1      39.973  34.269  32.695  1.00  0.00     0.124 S 
ATOM     81  O   UNL A   1      41.398  34.574  32.763  1.00  0.00    -0.237 OA
ATOM     82  O   UNL A   1      39.368  34.371  31.370  1.00  0.00    -0.237 OA
ATOM     83  O   UNL A   1      39.155  34.809  33.780  1.00  0.00    -0.744 OA
ENDBRANCH  76  80
ENDBRANCH  49  73
BRANCH  61  84
ATOM     84  C   UNL A   1      45.076  24.151  33.389  1.00  0.00     0.023 A 
ATOM     85  C   UNL A   1      46.386  23.980  33.851  1.00  0.00     0.031 A 
ATOM     86  C   UNL A   1      44.181  23.100  33.734  1.00  0.00     0.131 A 
ATOM     87  C   UNL A   1      46.772  22.828  34.566  1.00  0.00     0.055 A 
ATOM     88  C   UNL A   1      44.548  21.992  34.504  1.00  0.00     0.041 A 
ATOM     89  F   UNL A   1      42.898  23.093  33.349  1.00  0.00    -0.206 F 
ATOM     90  C   UNL A   1      45.856  21.843  34.920  1.00  0.00     0.022 A 
BRANCH  87  91
ATOM     91  S   UNL A   1      48.525  22.627  34.972  1.00  0.00     0.124 S 
ATOM     92  O   UNL A   1      49.138  23.706  34.202  1.00  0.00    -0.237 OA
ATOM     93  O   UNL A   1      48.530  22.802  36.421  1.00  0.00    -0.237 OA
ATOM     94  O   UNL A   1      48.836  21.277  34.507  1.00  0.00    -0.744 OA
ENDBRANCH  87  91
ENDBRANCH  61  84
ENDBRANCH  35  36
ENDBRANCH  27  30
ENDBRANCH  25  26
ENDBRANCH  24  25
ENDBRANCH   1  24
TORSDOF 19
ENDMDL
MODEL 2
REMARK VINA RESULT:     -11.9      2.254      2.665
REMARK SMILES Cc1ccccc1C[C@H](CCSc1ccccc1)C(=O)NCCCNC(=O)c1ccc(-c2c3nc(c(-c4cc(S(=O)(=O)[O-])ccc4F)c4ccc([nH]4)c(-c4cc(S(=O)(=O)[O-])ccc4F)c4nc(c(-c5cc(S(=O)(=O)[O-])ccc5F)c5ccc2[nH]5)C=C4)C=C3)cc1
REMARK SMILES IDX 22 1 21 2 19 3 20 4 9 6 8 7 7 8 1 9 2 10 3 11 4 12 6 13 5 14
REMARK SMILES IDX 10 15 11 16 12 17 13 18 14 19 18 20 15 21 17 22 16 23 23 24
REMARK SMILES IDX 24 25 25 26 26 27 27 29 28 30 29 31 90 32 30 33 89 34 31 35
REMARK SMILES IDX 32 36 33 37 83 38 34 39 88 40 82 41 84 42 35 43 87 44 81 45
REMARK SMILES IDX 80 46 36 48 68 49 48 50 67 51 49 52 52 53 66 54 85 55 50 56
REMARK SMILES IDX 51 57 65 59 86 60 53 61 37 62 38 63 46 64 39 65 45 66 47 67
REMARK SMILES IDX 44 68 40 69 41 70 42 71 43 72 69 73 70 74 78 75 71 76 77 77
REMARK SMILES IDX 79 78 76 79 72 80 73 81 74 82 75 83 54 84 55 85 63 86 56 87
REMARK SMILES IDX 62 88 64 89 61 90 57 91 58 92 59 93 60 94
REMARK H PARENT 21 5 25 28 84 47 52 58
REMARK Flexibility Score: inf
ROOT
ATOM      1  C   UNL A   1      31.517  29.815  25.941  1.00  0.00     0.117 C 
ENDROOT
BRANCH   1   2
ATOM      2  N   UNL A   1      31.042  30.074  24.591  1.00  0.00    -0.356 N 
ATOM      3  C   UNL A   1      30.858  29.223  23.546  1.00  0.00     0.223 C 
ATOM      4  O   UNL A   1      30.418  29.693  22.494  1.00  0.00    -0.275 OA
ATOM      5  H   UNL A   1      30.817  31.015  24.403  1.00  0.00     0.163 HD
BRANCH   3   6
ATOM      6  C   UNL A   1      31.273  27.759  23.621  1.00  0.00     0.083 C 
BRANCH   6   7
ATOM      7  C   UNL A   1      32.630  27.381  22.982  1.00  0.00     0.049 C 
BRANCH   7   8
ATOM      8  C   UNL A   1      33.362  26.160  23.518  1.00  0.00    -0.044 A 
ATOM      9  C   UNL A   1      33.137  24.823  21.322  1.00  0.00     0.044 C 
ATOM     10  C   UNL A   1      33.571  24.991  22.752  1.00  0.00    -0.048 A 
ATOM     11  C   UNL A   1      34.338  23.936  23.291  1.00  0.00     0.004 A 
ATOM     12  C   UNL A   1      34.913  24.027  24.554  1.00  0.00     0.000 A 
ATOM     13  C   UNL A   1      33.982  26.231  24.782  1.00  0.00     0.004 A 
ATOM     14  C   UNL A   1      34.740  25.181  25.296  1.00  0.00     0.000 A 
ENDBRANCH   7   8
ENDBRANCH   6   7
BRANCH   6  15
ATOM     15  C   UNL A   1      30.063  26.923  23.139  1.00  0.00     0.025 C 
BRANCH  15  16
ATOM     16  C   UNL A   1      29.392  25.988  24.148  1.00  0.00     0.076 C 
BRANCH  16  17
ATOM     17  S   UNL A   1      30.190  25.952  25.794  1.00  0.00    -0.126 SA
BRANCH  17  18
ATOM     18  C   UNL A   1      31.004  24.370  25.762  1.00  0.00     0.007 A 
ATOM     19  C   UNL A   1      31.688  23.915  26.892  1.00  0.00     0.015 A 
ATOM     20  C   UNL A   1      30.902  23.534  24.646  1.00  0.00     0.015 A 
ATOM     21  C   UNL A   1      32.331  22.677  26.883  1.00  0.00     0.001 A 
ATOM     22  C   UNL A   1      31.505  22.272  24.654  1.00  0.00     0.001 A 
ATOM     23  C   UNL A   1      32.232  21.851  25.767  1.00  0.00     0.000 A 
ENDBRANCH  17  18
ENDBRANCH  16  17
ENDBRANCH  15  16
ENDBRANCH   6  15
ENDBRANCH   3   6
ENDBRANCH   1   2
BRANCH   1  24
ATOM     24  C   UNL A   1      32.970  30.210  26.119  1.00  0.00     0.042 C 
BRANCH  24  25
ATOM     25  C   UNL A   1      33.393  30.123  27.566  1.00  0.00     0.118 C 
BRANCH  25  26
ATOM     26  N   UNL A   1      34.050  31.306  28.091  1.00  0.00    -0.352 N 
ATOM     27  C   UNL A   1      35.243  31.413  28.795  1.00  0.00     0.251 C 
ATOM     28  H   UNL A   1      33.584  32.156  27.922  1.00  0.00     0.163 HD
ATOM     29  O   UNL A   1      35.519  32.457  29.355  1.00  0.00    -0.269 OA
BRANCH  27  30
ATOM     30  C   UNL A   1      36.237  30.302  28.748  1.00  0.00     0.039 A 
ATOM     31  C   UNL A   1      36.558  29.656  29.952  1.00  0.00     0.014 A 
ATOM     32  C   UNL A   1      37.011  30.066  27.622  1.00  0.00     0.014 A 
ATOM     33  C   UNL A   1      37.771  28.980  30.068  1.00  0.00     0.010 A 
ATOM     34  C   UNL A   1      38.283  29.586  27.784  1.00  0.00     0.010 A 
ATOM     35  C   UNL A   1      38.669  29.056  29.012  1.00  0.00    -0.014 A 
BRANCH  35  36
ATOM     36  C   UNL A   1      40.043  28.601  29.030  1.00  0.00     0.031 A 
ATOM     37  C   UNL A   1      40.312  27.171  28.793  1.00  0.00     0.074 A 
ATOM     38  C   UNL A   1      41.032  29.518  29.038  1.00  0.00     0.049 A 
ATOM     39  N   UNL A   1      41.424  26.594  29.071  1.00  0.00    -0.248 NA
ATOM     40  C   UNL A   1      39.321  26.255  28.232  1.00  0.00     0.031 C 
ATOM     41  C   UNL A   1      42.440  29.319  28.707  1.00  0.00     0.029 A 
ATOM     42  N   UNL A   1      40.980  30.803  29.577  1.00  0.00    -0.354 N 
ATOM     43  C   UNL A   1      41.410  25.350  28.486  1.00  0.00     0.074 A 
ATOM     44  C   UNL A   1      40.060  25.164  28.019  1.00  0.00     0.031 C 
ATOM     45  C   UNL A   1      43.160  30.292  29.288  1.00  0.00     0.029 A 
ATOM     46  C   UNL A   1      42.252  31.046  30.134  1.00  0.00     0.049 A 
ATOM     47  H   UNL A   1      40.210  31.417  29.570  1.00  0.00     0.167 HD
ATOM     48  C   UNL A   1      42.584  24.679  28.354  1.00  0.00     0.034 A 
ATOM     49  C   UNL A   1      42.386  31.194  31.485  1.00  0.00     0.034 A 
ATOM     50  C   UNL A   1      43.682  25.439  28.946  1.00  0.00     0.049 A 
ATOM     51  C   UNL A   1      43.242  30.121  32.125  1.00  0.00     0.074 A 
ATOM     52  C   UNL A   1      44.655  26.271  28.414  1.00  0.00     0.029 A 
ATOM     53  N   UNL A   1      43.675  25.667  30.315  1.00  0.00    -0.354 N 
ATOM     54  N   UNL A   1      43.545  28.982  31.563  1.00  0.00    -0.248 NA
ATOM     55  C   UNL A   1      43.838  30.261  33.446  1.00  0.00     0.031 C 
ATOM     56  C   UNL A   1      45.207  27.031  29.481  1.00  0.00     0.029 A 
ATOM     57  C   UNL A   1      44.594  26.637  30.657  1.00  0.00     0.049 A 
ATOM     58  H   UNL A   1      43.091  25.199  30.955  1.00  0.00     0.167 HD
ATOM     59  C   UNL A   1      44.345  28.242  32.402  1.00  0.00     0.074 A 
ATOM     60  C   UNL A   1      44.508  29.101  33.563  1.00  0.00     0.031 C 
ATOM     61  C   UNL A   1      44.786  26.989  32.059  1.00  0.00     0.034 A 
BRANCH  48  62
ATOM     62  C   UNL A   1      42.794  23.475  27.473  1.00  0.00     0.023 A 
ATOM     63  C   UNL A   1      43.764  23.548  26.453  1.00  0.00     0.031 A 
ATOM     64  C   UNL A   1      42.089  22.259  27.554  1.00  0.00     0.131 A 
ATOM     65  C   UNL A   1      43.943  22.504  25.530  1.00  0.00     0.055 A 
ATOM     66  C   UNL A   1      42.230  21.236  26.606  1.00  0.00     0.041 A 
ATOM     67  F   UNL A   1      41.275  21.982  28.581  1.00  0.00    -0.206 F 
ATOM     68  C   UNL A   1      43.157  21.358  25.580  1.00  0.00     0.022 A 
BRANCH  65  69
ATOM     69  S   UNL A   1      45.235  22.667  24.270  1.00  0.00     0.124 S 
ATOM     70  O   UNL A   1      44.553  22.199  23.068  1.00  0.00    -0.237 OA
ATOM     71  O   UNL A   1      45.543  24.093  24.326  1.00  0.00    -0.237 OA
ATOM     72  O   UNL A   1      46.296  21.789  24.759  1.00  0.00    -0.744 OA
ENDBRANCH  65  69
ENDBRANCH  48  62
BRANCH  49  73
ATOM     73  C   UNL A   1      41.212  31.883  32.099  1.00  0.00     0.023 A 
ATOM     74  C   UNL A   1      40.343  31.082  32.874  1.00  0.00     0.031 A 
ATOM     75  C   UNL A   1      41.207  33.266  32.332  1.00  0.00     0.131 A 
ATOM     76  C   UNL A   1      39.651  31.636  33.962  1.00  0.00     0.055 A 
ATOM     77  C   UNL A   1      40.461  33.824  33.378  1.00  0.00     0.041 A 
ATOM     78  F   UNL A   1      42.033  34.076  31.651  1.00  0.00    -0.206 F 
ATOM     79  C   UNL A   1      39.723  33.003  34.233  1.00  0.00     0.022 A 
BRANCH  76  80
ATOM     80  S   UNL A   1      38.876  30.537  35.187  1.00  0.00     0.124 S 
ATOM     81  O   UNL A   1      40.037  29.904  35.805  1.00  0.00    -0.237 OA
ATOM     82  O   UNL A   1      38.131  31.458  36.041  1.00  0.00    -0.237 OA
ATOM     83  O   UNL A   1      38.043  29.666  34.360  1.00  0.00    -0.744 OA
ENDBRANCH  76  80
ENDBRANCH  49  73
BRANCH  61  84
ATOM     84  C   UNL A   1      45.473  25.965  32.956  1.00  0.00     0.023 A 
ATOM     85  C   UNL A   1      44.798  24.969  33.670  1.00  0.00     0.031 A 
ATOM     86  C   UNL A   1      46.891  25.925  33.077  1.00  0.00     0.131 A 
ATOM     87  C   UNL A   1      45.488  24.035  34.468  1.00  0.00     0.055 A 
ATOM     88  C   UNL A   1      47.579  24.955  33.812  1.00  0.00     0.041 A 
ATOM     89  F   UNL A   1      47.689  26.821  32.480  1.00  0.00    -0.206 F 
ATOM     90  C   UNL A   1      46.877  24.003  34.524  1.00  0.00     0.022 A 
BRANCH  87  91
ATOM     91  S   UNL A   1      44.511  22.895  35.481  1.00  0.00     0.124 S 
ATOM     92  O   UNL A   1      44.588  21.661  34.704  1.00  0.00    -0.237 OA
ATOM     93  O   UNL A   1      45.246  22.895  36.743  1.00  0.00    -0.237 OA
ATOM     94  O   UNL A   1      43.191  23.518  35.529  1.00  0.00    -0.744 OA
ENDBRANCH  87  91
ENDBRANCH  61  84
ENDBRANCH  35  36
ENDBRANCH  27  30
ENDBRANCH  25  26
ENDBRANCH  24  25
ENDBRANCH   1  24
TORSDOF 19
ENDMDL
MODEL 3
REMARK VINA RESULT:     -11.4      4.247      9.898
REMARK SMILES Cc1ccccc1C[C@H](CCSc1ccccc1)C(=O)NCCCNC(=O)c1ccc(-c2c3nc(c(-c4cc(S(=O)(=O)[O-])ccc4F)c4ccc([nH]4)c(-c4cc(S(=O)(=O)[O-])ccc4F)c4nc(c(-c5cc(S(=O)(=O)[O-])ccc5F)c5ccc2[nH]5)C=C4)C=C3)cc1
REMARK SMILES IDX 22 1 21 2 19 3 20 4 9 6 8 7 7 8 1 9 2 10 3 11 4 12 6 13 5 14
REMARK SMILES IDX 10 15 11 16 12 17 13 18 14 19 18 20 15 21 17 22 16 23 23 24
REMARK SMILES IDX 24 25 25 26 26 27 27 29 28 30 29 31 90 32 30 33 89 34 31 35
REMARK SMILES IDX 32 36 33 37 83 38 34 39 88 40 82 41 84 42 35 43 87 44 81 45
REMARK SMILES IDX 80 46 36 48 68 49 48 50 67 51 49 52 52 53 66 54 85 55 50 56
REMARK SMILES IDX 51 57 65 59 86 60 53 61 37 62 38 63 46 64 39 65 45 66 47 67
REMARK SMILES IDX 44 68 40 69 41 70 42 71 43 72 69 73 70 74 78 75 71 76 77 77
REMARK SMILES IDX 79 78 76 79 72 80 73 81 74 82 75 83 54 84 55 85 63 86 56 87
REMARK SMILES IDX 62 88 64 89 61 90 57 91 58 92 59 93 60 94
REMARK H PARENT 21 5 25 28 84 47 52 58
REMARK Flexibility Score: inf
ROOT
ATOM      1  C   UNL A   1      36.481  21.370  24.596  1.00  0.00     0.117 C 
ENDROOT
BRANCH   1   2
ATOM      2  N   UNL A   1      35.424  20.494  25.075  1.00  0.00    -0.356 N 
ATOM      3  C   UNL A   1      34.102  20.741  25.275  1.00  0.00     0.223 C 
ATOM      4  O   UNL A   1      33.398  19.810  25.674  1.00  0.00    -0.275 OA
ATOM      5  H   UNL A   1      35.710  19.576  25.287  1.00  0.00     0.163 HD
BRANCH   3   6
ATOM      6  C   UNL A   1      33.514  22.138  25.119  1.00  0.00     0.083 C 
BRANCH   6   7
ATOM      7  C   UNL A   1      33.493  23.037  26.378  1.00  0.00     0.049 C 
BRANCH   7   8
ATOM      8  C   UNL A   1      32.983  24.462  26.236  1.00  0.00    -0.044 A 
ATOM      9  C   UNL A   1      30.549  23.855  26.846  1.00  0.00     0.044 C 
ATOM     10  C   UNL A   1      31.630  24.818  26.436  1.00  0.00    -0.048 A 
ATOM     11  C   UNL A   1      31.253  26.176  26.374  1.00  0.00     0.004 A 
ATOM     12  C   UNL A   1      32.187  27.180  26.139  1.00  0.00     0.000 A 
ATOM     13  C   UNL A   1      33.908  25.505  26.028  1.00  0.00     0.004 A 
ATOM     14  C   UNL A   1      33.518  26.842  25.974  1.00  0.00     0.000 A 
ENDBRANCH   7   8
ENDBRANCH   6   7
BRANCH   6  15
ATOM     15  C   UNL A   1      32.149  21.975  24.405  1.00  0.00     0.025 C 
BRANCH  15  16
ATOM     16  C   UNL A   1      31.949  22.701  23.072  1.00  0.00     0.076 C 
BRANCH  16  17
ATOM     17  S   UNL A   1      30.618  23.955  23.085  1.00  0.00    -0.126 SA
BRANCH  17  18
ATOM     18  C   UNL A   1      31.537  25.455  22.820  1.00  0.00     0.007 A 
ATOM     19  C   UNL A   1      32.901  25.395  22.524  1.00  0.00     0.015 A 
ATOM     20  C   UNL A   1      30.897  26.698  22.824  1.00  0.00     0.015 A 
ATOM     21  C   UNL A   1      33.636  26.561  22.314  1.00  0.00     0.001 A 
ATOM     22  C   UNL A   1      31.622  27.865  22.565  1.00  0.00     0.001 A 
ATOM     23  C   UNL A   1      32.995  27.797  22.325  1.00  0.00     0.000 A 
ENDBRANCH  17  18
ENDBRANCH  16  17
ENDBRANCH  15  16
ENDBRANCH   6  15
ENDBRANCH   3   6
ENDBRANCH   1   2
BRANCH   1  24
ATOM     24  C   UNL A   1      37.803  21.098  25.287  1.00  0.00     0.042 C 
BRANCH  24  25
ATOM     25  C   UNL A   1      38.463  22.378  25.740  1.00  0.00     0.118 C 
BRANCH  25  26
ATOM     26  N   UNL A   1      39.862  22.256  26.111  1.00  0.00    -0.352 N 
ATOM     27  C   UNL A   1      40.779  23.248  26.433  1.00  0.00     0.251 C 
ATOM     28  H   UNL A   1      40.211  21.336  26.140  1.00  0.00     0.163 HD
ATOM     29  O   UNL A   1      41.963  22.976  26.491  1.00  0.00    -0.269 OA
BRANCH  27  30
ATOM     30  C   UNL A   1      40.299  24.601  26.838  1.00  0.00     0.039 A 
ATOM     31  C   UNL A   1      40.857  25.717  26.194  1.00  0.00     0.014 A 
ATOM     32  C   UNL A   1      39.523  24.789  27.971  1.00  0.00     0.014 A 
ATOM     33  C   UNL A   1      40.828  26.960  26.821  1.00  0.00     0.010 A 
ATOM     34  C   UNL A   1      39.665  25.949  28.684  1.00  0.00     0.010 A 
ATOM     35  C   UNL A   1      40.331  27.031  28.116  1.00  0.00    -0.014 A 
BRANCH  35  36
ATOM     36  C   UNL A   1      40.410  28.179  28.995  1.00  0.00     0.031 A 
ATOM     37  C   UNL A   1      39.438  29.271  28.811  1.00  0.00     0.074 A 
ATOM     38  C   UNL A   1      41.209  28.114  30.079  1.00  0.00     0.049 A 
ATOM     39  N   UNL A   1      39.577  30.446  29.307  1.00  0.00    -0.248 NA
ATOM     40  C   UNL A   1      38.217  29.129  28.020  1.00  0.00     0.031 C 
ATOM     41  C   UNL A   1      41.184  28.969  31.262  1.00  0.00     0.029 A 
ATOM     42  N   UNL A   1      42.378  27.365  30.216  1.00  0.00    -0.354 N 
ATOM     43  C   UNL A   1      38.381  31.109  29.159  1.00  0.00     0.074 A 
ATOM     44  C   UNL A   1      37.582  30.267  28.306  1.00  0.00     0.031 C 
ATOM     45  C   UNL A   1      42.387  28.918  31.856  1.00  0.00     0.029 A 
ATOM     46  C   UNL A   1      43.261  28.153  30.982  1.00  0.00     0.049 A 
ATOM     47  H   UNL A   1      42.552  26.468  29.851  1.00  0.00     0.167 HD
ATOM     48  C   UNL A   1      38.166  32.236  29.887  1.00  0.00     0.034 A 
ATOM     49  C   UNL A   1      44.411  28.629  30.419  1.00  0.00     0.034 A 
ATOM     50  C   UNL A   1      39.344  32.565  30.687  1.00  0.00     0.049 A 
ATOM     51  C   UNL A   1      44.465  30.140  30.348  1.00  0.00     0.074 A 
ATOM     52  C   UNL A   1      39.677  32.351  32.015  1.00  0.00     0.029 A 
ATOM     53  N   UNL A   1      40.521  32.906  30.036  1.00  0.00    -0.354 N 
ATOM     54  N   UNL A   1      43.428  30.925  30.468  1.00  0.00    -0.248 NA
ATOM     55  C   UNL A   1      45.701  30.885  30.152  1.00  0.00     0.031 C 
ATOM     56  C   UNL A   1      41.081  32.532  32.146  1.00  0.00     0.029 A 
ATOM     57  C   UNL A   1      41.589  32.886  30.908  1.00  0.00     0.049 A 
ATOM     58  H   UNL A   1      40.583  33.132  29.080  1.00  0.00     0.167 HD
ATOM     59  C   UNL A   1      43.819  32.240  30.368  1.00  0.00     0.074 A 
ATOM     60  C   UNL A   1      45.259  32.155  30.186  1.00  0.00     0.031 C 
ATOM     61  C   UNL A   1      42.914  33.269  30.437  1.00  0.00     0.034 A 
BRANCH  48  62
ATOM     62  C   UNL A   1      36.825  32.893  30.082  1.00  0.00     0.023 A 
ATOM     63  C   UNL A   1      36.321  33.020  31.393  1.00  0.00     0.031 A 
ATOM     64  C   UNL A   1      35.992  33.391  29.061  1.00  0.00     0.131 A 
ATOM     65  C   UNL A   1      35.036  33.529  31.642  1.00  0.00     0.055 A 
ATOM     66  C   UNL A   1      34.691  33.852  29.303  1.00  0.00     0.041 A 
ATOM     67  F   UNL A   1      36.417  33.504  27.796  1.00  0.00    -0.206 F 
ATOM     68  C   UNL A   1      34.201  33.916  30.599  1.00  0.00     0.022 A 
BRANCH  65  69
ATOM     69  S   UNL A   1      34.481  33.687  33.360  1.00  0.00     0.124 S 
ATOM     70  O   UNL A   1      35.533  32.986  34.088  1.00  0.00    -0.237 OA
ATOM     71  O   UNL A   1      34.426  35.135  33.535  1.00  0.00    -0.237 OA
ATOM     72  O   UNL A   1      33.181  33.019  33.357  1.00  0.00    -0.744 OA
ENDBRANCH  65  69
ENDBRANCH  48  62
BRANCH  49  73
ATOM     73  C   UNL A   1      45.003  27.668  29.441  1.00  0.00     0.023 A 
ATOM     74  C   UNL A   1      44.989  28.058  28.084  1.00  0.00     0.031 A 
ATOM     75  C   UNL A   1      45.940  26.700  29.834  1.00  0.00     0.131 A 
ATOM     76  C   UNL A   1      46.003  27.631  27.213  1.00  0.00     0.055 A 
ATOM     77  C   UNL A   1      46.911  26.225  28.941  1.00  0.00     0.041 A 
ATOM     78  F   UNL A   1      46.025  26.312  31.115  1.00  0.00    -0.206 F 
ATOM     79  C   UNL A   1      46.980  26.731  27.642  1.00  0.00     0.022 A 
BRANCH  76  80
ATOM     80  S   UNL A   1      46.212  28.455  25.604  1.00  0.00     0.124 S 
ATOM     81  O   UNL A   1      47.646  28.315  25.376  1.00  0.00    -0.237 OA
ATOM     82  O   UNL A   1      45.353  27.678  24.715  1.00  0.00    -0.237 OA
ATOM     83  O   UNL A   1      45.740  29.812  25.873  1.00  0.00    -0.744 OA
ENDBRANCH  76  80
ENDBRANCH  49  73
BRANCH  61  84
ATOM     84  C   UNL A   1      43.152  34.741  30.117  1.00  0.00     0.023 A 
ATOM     85  C   UNL A   1      42.915  35.320  28.866  1.00  0.00     0.031 A 
ATOM     86  C   UNL A   1      43.586  35.652  31.121  1.00  0.00     0.131 A 
ATOM     87  C   UNL A   1      43.133  36.693  28.633  1.00  0.00     0.055 A 
ATOM     88  C   UNL A   1      43.733  37.027  30.909  1.00  0.00     0.041 A 
ATOM     89  F   UNL A   1      43.882  35.261  32.367  1.00  0.00    -0.206 F 
ATOM     90  C   UNL A   1      43.515  37.558  29.652  1.00  0.00     0.022 A 
BRANCH  87  91
ATOM     91  S   UNL A   1      42.957  37.307  26.939  1.00  0.00     0.124 S 
ATOM     92  O   UNL A   1      44.215  38.023  26.746  1.00  0.00    -0.237 OA
ATOM     93  O   UNL A   1      42.810  36.072  26.174  1.00  0.00    -0.237 OA
ATOM     94  O   UNL A   1      41.765  38.149  26.997  1.00  0.00    -0.744 OA
ENDBRANCH  87  91
ENDBRANCH  61  84
ENDBRANCH  35  36
ENDBRANCH  27  30
ENDBRANCH  25  26
ENDBRANCH  24  25
ENDBRANCH   1  24
TORSDOF 19
ENDMDL
