MODEL 1
REMARK VINA RESULT:     -12.7      0.000      0.000
REMARK SMILES CC(=O)c1nnn(-c2ccc(C(=O)NCCCNC(=O)c3ccc(-c4c5nc(c(-c6cc(S(=O)(=O)[O-])ccc6F)c6ccc([nH]6)c(-c6cc(S(=O)(=O)[O-])ccc6F)c6nc(c(-c7cc(S(=O)(=O)[O-])ccc7F)c7ccc4[nH]7)C=C6)C=C5)cc3)cc2)c1C
REMARK SMILES IDX 16 1 15 2 14 3 12 4 13 5 11 7 8 8 9 9 85 10 10 11 84 12 7 13
REMARK SMILES IDX 4 14 5 15 86 16 6 17 87 18 2 19 1 20 3 21 17 22 18 23 19 24
REMARK SMILES IDX 20 26 21 27 22 28 83 29 23 30 82 31 24 32 25 33 26 34 76 35
REMARK SMILES IDX 27 36 81 37 75 38 77 39 28 40 80 41 74 42 73 43 29 45 61 46
REMARK SMILES IDX 41 47 60 48 42 49 45 50 59 51 78 52 43 53 44 54 58 56 79 57
REMARK SMILES IDX 46 58 30 59 31 60 39 61 32 62 38 63 40 64 37 65 33 66 34 67
REMARK SMILES IDX 35 68 36 69 62 70 63 71 71 72 64 73 70 74 72 75 69 76 65 77
REMARK SMILES IDX 66 78 67 79 68 80 47 81 48 82 56 83 49 84 55 85 57 86 54 87
REMARK SMILES IDX 50 88 51 89 52 90 53 91
REMARK H PARENT 14 6 18 25 77 44 45 55
REMARK Flexibility Score: inf
ROOT
ATOM      1  C   UNL A   1      34.113  29.737  26.594  1.00  0.00     0.042 C 
ENDROOT
BRANCH   1   2
ATOM      2  C   UNL A   1      32.610  29.560  26.852  1.00  0.00     0.118 C 
BRANCH   2   3
ATOM      3  N   UNL A   1      31.863  29.312  25.626  1.00  0.00    -0.352 N 
ATOM      4  C   UNL A   1      31.614  28.163  24.910  1.00  0.00     0.251 C 
ATOM      5  O   UNL A   1      30.825  28.222  23.969  1.00  0.00    -0.269 OA
ATOM      6  H   UNL A   1      31.460  30.120  25.235  1.00  0.00     0.163 HD
BRANCH   4   7
ATOM      7  C   UNL A   1      32.203  26.842  25.267  1.00  0.00     0.039 A 
ATOM      8  C   UNL A   1      33.224  24.271  25.650  1.00  0.00     0.067 A 
ATOM      9  C   UNL A   1      33.884  25.137  24.778  1.00  0.00     0.029 A 
ATOM     10  C   UNL A   1      32.157  24.717  26.427  1.00  0.00     0.029 A 
ATOM     11  C   UNL A   1      33.349  26.415  24.570  1.00  0.00     0.016 A 
ATOM     12  C   UNL A   1      31.683  26.012  26.260  1.00  0.00     0.016 A 
BRANCH   8  13
ATOM     13  N   UNL A   1      33.567  22.911  25.695  1.00  0.00    -0.217 N 
ATOM     14  C   UNL A   1      33.589  20.745  25.511  1.00  0.00     0.151 A 
ATOM     15  N   UNL A   1      34.605  21.133  26.346  1.00  0.00    -0.126 NA
ATOM     16  C   UNL A   1      32.929  21.867  25.042  1.00  0.00     0.073 A 
ATOM     17  N   UNL A   1      34.645  22.459  26.363  1.00  0.00    -0.061 NA
ATOM     18  C   UNL A   1      31.871  22.056  24.018  1.00  0.00     0.069 C 
BRANCH  14  19
ATOM     19  C   UNL A   1      33.371  19.354  25.154  1.00  0.00     0.181 C 
ATOM     20  C   UNL A   1      34.551  18.593  24.603  1.00  0.00     0.095 C 
ATOM     21  O   UNL A   1      32.282  18.804  25.311  1.00  0.00    -0.293 OA
ENDBRANCH  14  19
ENDBRANCH   8  13
ENDBRANCH   4   7
ENDBRANCH   2   3
ENDBRANCH   1   2
BRANCH   1  22
ATOM     22  C   UNL A   1      34.978  29.108  27.671  1.00  0.00     0.118 C 
BRANCH  22  23
ATOM     23  N   UNL A   1      35.233  30.025  28.782  1.00  0.00    -0.352 N 
ATOM     24  C   UNL A   1      36.292  30.022  29.673  1.00  0.00     0.251 C 
ATOM     25  H   UNL A   1      34.565  30.737  28.912  1.00  0.00     0.163 HD
ATOM     26  O   UNL A   1      36.192  30.584  30.750  1.00  0.00    -0.269 OA
BRANCH  24  27
ATOM     27  C   UNL A   1      37.529  29.313  29.294  1.00  0.00     0.039 A 
ATOM     28  C   UNL A   1      38.204  29.611  28.105  1.00  0.00     0.014 A 
ATOM     29  C   UNL A   1      38.036  28.371  30.182  1.00  0.00     0.014 A 
ATOM     30  C   UNL A   1      39.444  29.017  27.866  1.00  0.00     0.010 A 
ATOM     31  C   UNL A   1      39.320  27.921  30.026  1.00  0.00     0.010 A 
ATOM     32  C   UNL A   1      40.009  28.188  28.844  1.00  0.00    -0.014 A 
BRANCH  32  33
ATOM     33  C   UNL A   1      41.377  27.684  28.730  1.00  0.00     0.031 A 
ATOM     34  C   UNL A   1      41.520  26.411  27.968  1.00  0.00     0.074 A 
ATOM     35  C   UNL A   1      42.447  28.460  29.015  1.00  0.00     0.049 A 
ATOM     36  N   UNL A   1      41.970  25.277  28.392  1.00  0.00    -0.248 NA
ATOM     37  C   UNL A   1      40.965  26.349  26.606  1.00  0.00     0.031 C 
ATOM     38  C   UNL A   1      42.440  29.851  29.484  1.00  0.00     0.029 A 
ATOM     39  N   UNL A   1      43.771  28.232  28.788  1.00  0.00    -0.354 N 
ATOM     40  C   UNL A   1      41.992  24.431  27.284  1.00  0.00     0.074 A 
ATOM     41  C   UNL A   1      41.158  25.065  26.299  1.00  0.00     0.031 C 
ATOM     42  C   UNL A   1      43.643  30.414  29.248  1.00  0.00     0.029 A 
ATOM     43  C   UNL A   1      44.553  29.386  28.777  1.00  0.00     0.049 A 
ATOM     44  H   UNL A   1      44.142  27.332  28.643  1.00  0.00     0.167 HD
ATOM     45  C   UNL A   1      42.901  23.418  27.185  1.00  0.00     0.034 A 
ATOM     46  C   UNL A   1      45.847  29.510  28.379  1.00  0.00     0.034 A 
ATOM     47  C   UNL A   1      43.511  23.154  28.473  1.00  0.00     0.049 A 
ATOM     48  C   UNL A   1      46.444  28.154  28.448  1.00  0.00     0.074 A 
ATOM     49  C   UNL A   1      43.020  22.827  29.724  1.00  0.00     0.029 A 
ATOM     50  N   UNL A   1      44.795  23.608  28.693  1.00  0.00    -0.354 N 
ATOM     51  N   UNL A   1      46.594  27.500  29.568  1.00  0.00    -0.248 NA
ATOM     52  C   UNL A   1      46.414  27.325  27.252  1.00  0.00     0.031 C 
ATOM     53  C   UNL A   1      43.812  23.587  30.635  1.00  0.00     0.029 A 
ATOM     54  C   UNL A   1      44.800  24.251  29.906  1.00  0.00     0.049 A 
ATOM     55  H   UNL A   1      45.565  23.491  28.091  1.00  0.00     0.167 HD
ATOM     56  C   UNL A   1      46.217  26.198  29.273  1.00  0.00     0.074 A 
ATOM     57  C   UNL A   1      46.238  26.124  27.813  1.00  0.00     0.031 C 
ATOM     58  C   UNL A   1      45.636  25.397  30.218  1.00  0.00     0.034 A 
BRANCH  45  59
ATOM     59  C   UNL A   1      43.529  22.923  25.892  1.00  0.00     0.023 A 
ATOM     60  C   UNL A   1      43.610  21.526  25.721  1.00  0.00     0.031 A 
ATOM     61  C   UNL A   1      44.295  23.685  24.980  1.00  0.00     0.131 A 
ATOM     62  C   UNL A   1      44.519  20.953  24.815  1.00  0.00     0.055 A 
ATOM     63  C   UNL A   1      45.146  23.110  24.029  1.00  0.00     0.041 A 
ATOM     64  F   UNL A   1      44.336  25.021  24.997  1.00  0.00    -0.206 F 
ATOM     65  C   UNL A   1      45.295  21.736  23.971  1.00  0.00     0.022 A 
BRANCH  62  66
ATOM     66  S   UNL A   1      44.814  19.169  24.919  1.00  0.00     0.124 S 
ATOM     67  O   UNL A   1      44.789  18.788  23.511  1.00  0.00    -0.237 OA
ATOM     68  O   UNL A   1      46.115  19.121  25.579  1.00  0.00    -0.237 OA
ATOM     69  O   UNL A   1      43.690  18.688  25.717  1.00  0.00    -0.744 OA
ENDBRANCH  62  66
ENDBRANCH  45  59
BRANCH  46  70
ATOM     70  C   UNL A   1      46.490  30.682  27.720  1.00  0.00     0.023 A 
ATOM     71  C   UNL A   1      45.777  31.608  26.928  1.00  0.00     0.031 A 
ATOM     72  C   UNL A   1      47.819  31.031  28.053  1.00  0.00     0.131 A 
ATOM     73  C   UNL A   1      46.395  32.810  26.505  1.00  0.00     0.055 A 
ATOM     74  C   UNL A   1      48.426  32.214  27.627  1.00  0.00     0.041 A 
ATOM     75  F   UNL A   1      48.550  30.269  28.882  1.00  0.00    -0.206 F 
ATOM     76  C   UNL A   1      47.712  33.115  26.855  1.00  0.00     0.022 A 
BRANCH  73  77
ATOM     77  S   UNL A   1      45.452  34.056  25.565  1.00  0.00     0.124 S 
ATOM     78  O   UNL A   1      46.508  34.807  24.896  1.00  0.00    -0.237 OA
ATOM     79  O   UNL A   1      44.602  33.233  24.713  1.00  0.00    -0.237 OA
ATOM     80  O   UNL A   1      44.736  34.799  26.603  1.00  0.00    -0.744 OA
ENDBRANCH  73  77
ENDBRANCH  46  70
BRANCH  58  81
ATOM     81  C   UNL A   1      45.663  25.848  31.667  1.00  0.00     0.023 A 
ATOM     82  C   UNL A   1      44.536  26.294  32.396  1.00  0.00     0.031 A 
ATOM     83  C   UNL A   1      46.868  25.686  32.373  1.00  0.00     0.131 A 
ATOM     84  C   UNL A   1      44.647  26.569  33.774  1.00  0.00     0.055 A 
ATOM     85  C   UNL A   1      46.970  25.937  33.741  1.00  0.00     0.041 A 
ATOM     86  F   UNL A   1      47.969  25.235  31.747  1.00  0.00    -0.206 F 
ATOM     87  C   UNL A   1      45.859  26.386  34.446  1.00  0.00     0.022 A 
BRANCH  84  88
ATOM     88  S   UNL A   1      43.215  27.185  34.720  1.00  0.00     0.124 S 
ATOM     89  O   UNL A   1      42.361  26.011  34.852  1.00  0.00    -0.237 OA
ATOM     90  O   UNL A   1      43.831  27.671  35.951  1.00  0.00    -0.237 OA
ATOM     91  O   UNL A   1      42.670  28.239  33.860  1.00  0.00    -0.744 OA
ENDBRANCH  84  88
ENDBRANCH  58  81
ENDBRANCH  32  33
ENDBRANCH  24  27
ENDBRANCH  22  23
ENDBRANCH   1  22
TORSDOF 15
ENDMDL
MODEL 2
REMARK VINA RESULT:     -12.5      2.600      8.667
REMARK SMILES CC(=O)c1nnn(-c2ccc(C(=O)NCCCNC(=O)c3ccc(-c4c5nc(c(-c6cc(S(=O)(=O)[O-])ccc6F)c6ccc([nH]6)c(-c6cc(S(=O)(=O)[O-])ccc6F)c6nc(c(-c7cc(S(=O)(=O)[O-])ccc7F)c7ccc4[nH]7)C=C6)C=C5)cc3)cc2)c1C
REMARK SMILES IDX 16 1 15 2 14 3 12 4 13 5 11 7 8 8 9 9 85 10 10 11 84 12 7 13
REMARK SMILES IDX 4 14 5 15 86 16 6 17 87 18 2 19 1 20 3 21 17 22 18 23 19 24
REMARK SMILES IDX 20 26 21 27 22 28 83 29 23 30 82 31 24 32 25 33 26 34 76 35
REMARK SMILES IDX 27 36 81 37 75 38 77 39 28 40 80 41 74 42 73 43 29 45 61 46
REMARK SMILES IDX 41 47 60 48 42 49 45 50 59 51 78 52 43 53 44 54 58 56 79 57
REMARK SMILES IDX 46 58 30 59 31 60 39 61 32 62 38 63 40 64 37 65 33 66 34 67
REMARK SMILES IDX 35 68 36 69 62 70 63 71 71 72 64 73 70 74 72 75 69 76 65 77
REMARK SMILES IDX 66 78 67 79 68 80 47 81 48 82 56 83 49 84 55 85 57 86 54 87
REMARK SMILES IDX 50 88 51 89 52 90 53 91
REMARK H PARENT 14 6 18 25 77 44 45 55
REMARK Flexibility Score: inf
ROOT
ATOM      1  C   UNL A   1      37.747  19.975  24.663  1.00  0.00     0.042 C 
ENDROOT
BRANCH   1   2
ATOM      2  C   UNL A   1      36.384  20.561  25.060  1.00  0.00     0.118 C 
BRANCH   2   3
ATOM      3  N   UNL A   1      35.308  19.585  24.954  1.00  0.00    -0.352 N 
ATOM      4  C   UNL A   1      33.941  19.696  25.072  1.00  0.00     0.251 C 
ATOM      5  O   UNL A   1      33.251  18.717  24.796  1.00  0.00    -0.269 OA
ATOM      6  H   UNL A   1      35.619  18.670  24.762  1.00  0.00     0.163 HD
BRANCH   4   7
ATOM      7  C   UNL A   1      33.262  20.967  25.452  1.00  0.00     0.039 A 
ATOM      8  C   UNL A   1      32.188  23.491  25.973  1.00  0.00     0.067 A 
ATOM      9  C   UNL A   1      31.964  22.905  24.727  1.00  0.00     0.029 A 
ATOM     10  C   UNL A   1      32.814  22.779  26.994  1.00  0.00     0.029 A 
ATOM     11  C   UNL A   1      32.531  21.651  24.464  1.00  0.00     0.016 A 
ATOM     12  C   UNL A   1      33.308  21.506  26.738  1.00  0.00     0.016 A 
BRANCH   8  13
ATOM     13  N   UNL A   1      31.866  24.839  26.191  1.00  0.00    -0.217 N 
ATOM     14  C   UNL A   1      31.931  26.994  26.471  1.00  0.00     0.151 A 
ATOM     15  N   UNL A   1      30.693  26.533  26.839  1.00  0.00    -0.126 NA
ATOM     16  C   UNL A   1      32.695  25.936  26.011  1.00  0.00     0.073 A 
ATOM     17  N   UNL A   1      30.634  25.237  26.562  1.00  0.00    -0.061 NA
ATOM     18  C   UNL A   1      34.027  25.867  25.360  1.00  0.00     0.069 C 
BRANCH  14  19
ATOM     19  C   UNL A   1      32.271  28.406  26.503  1.00  0.00     0.181 C 
ATOM     20  C   UNL A   1      33.569  28.785  27.173  1.00  0.00     0.095 C 
ATOM     21  O   UNL A   1      31.552  29.261  25.990  1.00  0.00    -0.293 OA
ENDBRANCH  14  19
ENDBRANCH   8  13
ENDBRANCH   4   7
ENDBRANCH   2   3
ENDBRANCH   1   2
BRANCH   1  22
ATOM     22  C   UNL A   1      38.862  20.372  25.614  1.00  0.00     0.118 C 
BRANCH  22  23
ATOM     23  N   UNL A   1      39.837  19.297  25.803  1.00  0.00    -0.352 N 
ATOM     24  C   UNL A   1      41.193  19.403  26.061  1.00  0.00     0.251 C 
ATOM     25  H   UNL A   1      39.482  18.381  25.739  1.00  0.00     0.163 HD
ATOM     26  O   UNL A   1      41.938  18.468  25.824  1.00  0.00    -0.269 OA
BRANCH  24  27
ATOM     27  C   UNL A   1      41.708  20.672  26.611  1.00  0.00     0.039 A 
ATOM     28  C   UNL A   1      42.361  21.605  25.799  1.00  0.00     0.014 A 
ATOM     29  C   UNL A   1      41.479  20.936  27.956  1.00  0.00     0.014 A 
ATOM     30  C   UNL A   1      42.697  22.848  26.336  1.00  0.00     0.010 A 
ATOM     31  C   UNL A   1      41.658  22.208  28.432  1.00  0.00     0.010 A 
ATOM     32  C   UNL A   1      42.321  23.153  27.651  1.00  0.00    -0.014 A 
BRANCH  32  33
ATOM     33  C   UNL A   1      42.484  24.496  28.208  1.00  0.00     0.031 A 
ATOM     34  C   UNL A   1      41.296  25.385  28.073  1.00  0.00     0.074 A 
ATOM     35  C   UNL A   1      43.502  24.799  29.045  1.00  0.00     0.049 A 
ATOM     36  N   UNL A   1      41.211  26.507  27.440  1.00  0.00    -0.248 NA
ATOM     37  C   UNL A   1      40.004  24.903  28.588  1.00  0.00     0.031 C 
ATOM     38  C   UNL A   1      44.576  23.908  29.504  1.00  0.00     0.029 A 
ATOM     39  N   UNL A   1      43.704  25.916  29.799  1.00  0.00    -0.354 N 
ATOM     40  C   UNL A   1      39.928  26.995  27.689  1.00  0.00     0.074 A 
ATOM     41  C   UNL A   1      39.181  25.874  28.190  1.00  0.00     0.031 C 
ATOM     42  C   UNL A   1      45.131  24.409  30.626  1.00  0.00     0.029 A 
ATOM     43  C   UNL A   1      44.579  25.729  30.868  1.00  0.00     0.049 A 
ATOM     44  H   UNL A   1      43.269  26.778  29.606  1.00  0.00     0.167 HD
ATOM     45  C   UNL A   1      39.672  28.335  27.704  1.00  0.00     0.034 A 
ATOM     46  C   UNL A   1      44.818  26.576  31.904  1.00  0.00     0.034 A 
ATOM     47  C   UNL A   1      40.761  29.069  27.089  1.00  0.00     0.049 A 
ATOM     48  C   UNL A   1      44.399  27.926  31.454  1.00  0.00     0.074 A 
ATOM     49  C   UNL A   1      41.377  29.023  25.852  1.00  0.00     0.029 A 
ATOM     50  N   UNL A   1      41.642  29.740  27.911  1.00  0.00    -0.354 N 
ATOM     51  N   UNL A   1      44.986  28.564  30.477  1.00  0.00    -0.248 NA
ATOM     52  C   UNL A   1      43.039  28.357  31.739  1.00  0.00     0.031 C 
ATOM     53  C   UNL A   1      42.767  29.182  26.132  1.00  0.00     0.029 A 
ATOM     54  C   UNL A   1      42.912  29.415  27.500  1.00  0.00     0.049 A 
ATOM     55  H   UNL A   1      41.404  30.341  28.653  1.00  0.00     0.167 HD
ATOM     56  C   UNL A   1      43.949  29.124  29.745  1.00  0.00     0.074 A 
ATOM     57  C   UNL A   1      42.790  29.069  30.634  1.00  0.00     0.031 C 
ATOM     58  C   UNL A   1      44.053  29.301  28.392  1.00  0.00     0.034 A 
BRANCH  45  59
ATOM     59  C   UNL A   1      38.653  29.026  28.597  1.00  0.00     0.023 A 
ATOM     60  C   UNL A   1      38.940  29.059  29.976  1.00  0.00     0.031 A 
ATOM     61  C   UNL A   1      37.330  29.381  28.248  1.00  0.00     0.131 A 
ATOM     62  C   UNL A   1      37.926  29.269  30.928  1.00  0.00     0.055 A 
ATOM     63  C   UNL A   1      36.340  29.661  29.198  1.00  0.00     0.041 A 
ATOM     64  F   UNL A   1      36.886  29.403  26.989  1.00  0.00    -0.206 F 
ATOM     65  C   UNL A   1      36.623  29.563  30.547  1.00  0.00     0.022 A 
BRANCH  62  66
ATOM     66  S   UNL A   1      38.308  28.937  32.666  1.00  0.00     0.124 S 
ATOM     67  O   UNL A   1      37.355  29.809  33.344  1.00  0.00    -0.237 OA
ATOM     68  O   UNL A   1      38.052  27.504  32.759  1.00  0.00    -0.237 OA
ATOM     69  O   UNL A   1      39.709  29.332  32.784  1.00  0.00    -0.744 OA
ENDBRANCH  62  66
ENDBRANCH  45  59
BRANCH  46  70
ATOM     70  C   UNL A   1      45.149  26.222  33.313  1.00  0.00     0.023 A 
ATOM     71  C   UNL A   1      44.194  26.217  34.352  1.00  0.00     0.031 A 
ATOM     72  C   UNL A   1      46.410  25.658  33.615  1.00  0.00     0.131 A 
ATOM     73  C   UNL A   1      44.518  25.670  35.618  1.00  0.00     0.055 A 
ATOM     74  C   UNL A   1      46.728  25.128  34.868  1.00  0.00     0.041 A 
ATOM     75  F   UNL A   1      47.356  25.524  32.672  1.00  0.00    -0.206 F 
ATOM     76  C   UNL A   1      45.778  25.125  35.875  1.00  0.00     0.022 A 
BRANCH  73  77
ATOM     77  S   UNL A   1      43.260  25.570  36.935  1.00  0.00     0.124 S 
ATOM     78  O   UNL A   1      42.184  24.832  36.282  1.00  0.00    -0.237 OA
ATOM     79  O   UNL A   1      43.972  24.873  37.999  1.00  0.00    -0.237 OA
ATOM     80  O   UNL A   1      42.954  26.972  37.223  1.00  0.00    -0.744 OA
ENDBRANCH  73  77
ENDBRANCH  46  70
BRANCH  58  81
ATOM     81  C   UNL A   1      45.414  29.139  27.741  1.00  0.00     0.023 A 
ATOM     82  C   UNL A   1      46.437  30.116  27.750  1.00  0.00     0.031 A 
ATOM     83  C   UNL A   1      45.729  27.877  27.206  1.00  0.00     0.131 A 
ATOM     84  C   UNL A   1      47.710  29.815  27.224  1.00  0.00     0.055 A 
ATOM     85  C   UNL A   1      46.996  27.575  26.708  1.00  0.00     0.041 A 
ATOM     86  F   UNL A   1      44.814  26.893  27.196  1.00  0.00    -0.206 F 
ATOM     87  C   UNL A   1      47.991  28.546  26.710  1.00  0.00     0.022 A 
BRANCH  84  88
ATOM     88  S   UNL A   1      49.025  31.077  27.189  1.00  0.00     0.124 S 
ATOM     89  O   UNL A   1      48.390  32.217  26.538  1.00  0.00    -0.237 OA
ATOM     90  O   UNL A   1      49.343  31.244  28.605  1.00  0.00    -0.237 OA
ATOM     91  O   UNL A   1      50.085  30.440  26.403  1.00  0.00    -0.744 OA
ENDBRANCH  84  88
ENDBRANCH  58  81
ENDBRANCH  32  33
ENDBRANCH  24  27
ENDBRANCH  22  23
ENDBRANCH   1  22
TORSDOF 15
ENDMDL
MODEL 3
REMARK VINA RESULT:     -12.3      4.535     10.640
REMARK SMILES CC(=O)c1nnn(-c2ccc(C(=O)NCCCNC(=O)c3ccc(-c4c5nc(c(-c6cc(S(=O)(=O)[O-])ccc6F)c6ccc([nH]6)c(-c6cc(S(=O)(=O)[O-])ccc6F)c6nc(c(-c7cc(S(=O)(=O)[O-])ccc7F)c7ccc4[nH]7)C=C6)C=C5)cc3)cc2)c1C
REMARK SMILES IDX 16 1 15 2 14 3 12 4 13 5 11 7 8 8 9 9 85 10 10 11 84 12 7 13
REMARK SMILES IDX 4 14 5 15 86 16 6 17 87 18 2 19 1 20 3 21 17 22 18 23 19 24
REMARK SMILES IDX 20 26 21 27 22 28 83 29 23 30 82 31 24 32 25 33 26 34 76 35
REMARK SMILES IDX 27 36 81 37 75 38 77 39 28 40 80 41 74 42 73 43 29 45 61 46
REMARK SMILES IDX 41 47 60 48 42 49 45 50 59 51 78 52 43 53 44 54 58 56 79 57
REMARK SMILES IDX 46 58 30 59 31 60 39 61 32 62 38 63 40 64 37 65 33 66 34 67
REMARK SMILES IDX 35 68 36 69 62 70 63 71 71 72 64 73 70 74 72 75 69 76 65 77
REMARK SMILES IDX 66 78 67 79 68 80 47 81 48 82 56 83 49 84 55 85 57 86 54 87
REMARK SMILES IDX 50 88 51 89 52 90 53 91
REMARK H PARENT 14 6 18 25 77 44 45 55
REMARK Flexibility Score: inf
ROOT
ATOM      1  C   UNL A   1      36.994  23.592  25.168  1.00  0.00     0.042 C 
ENDROOT
BRANCH   1   2
ATOM      2  C   UNL A   1      35.558  24.123  25.049  1.00  0.00     0.118 C 
BRANCH   2   3
ATOM      3  N   UNL A   1      34.570  23.160  25.516  1.00  0.00    -0.352 N 
ATOM      4  C   UNL A   1      33.194  23.149  25.473  1.00  0.00     0.251 C 
ATOM      5  O   UNL A   1      32.608  22.128  25.826  1.00  0.00    -0.269 OA
ATOM      6  H   UNL A   1      34.962  22.364  25.945  1.00  0.00     0.163 HD
BRANCH   4   7
ATOM      7  C   UNL A   1      32.391  24.292  24.954  1.00  0.00     0.039 A 
ATOM      8  C   UNL A   1      30.644  26.311  24.137  1.00  0.00     0.067 A 
ATOM      9  C   UNL A   1      31.056  26.272  25.469  1.00  0.00     0.029 A 
ATOM     10  C   UNL A   1      31.198  25.449  23.193  1.00  0.00     0.029 A 
ATOM     11  C   UNL A   1      31.909  25.239  25.877  1.00  0.00     0.016 A 
ATOM     12  C   UNL A   1      32.100  24.474  23.602  1.00  0.00     0.016 A 
BRANCH   8  13
ATOM     13  N   UNL A   1      29.599  27.160  23.742  1.00  0.00    -0.217 N 
ATOM     14  C   UNL A   1      28.395  28.868  23.140  1.00  0.00     0.151 A 
ATOM     15  N   UNL A   1      27.564  27.823  23.457  1.00  0.00    -0.126 NA
ATOM     16  C   UNL A   1      29.711  28.460  23.272  1.00  0.00     0.073 A 
ATOM     17  N   UNL A   1      28.314  26.761  23.719  1.00  0.00    -0.061 NA
ATOM     18  C   UNL A   1      31.002  29.106  22.927  1.00  0.00     0.069 C 
BRANCH  14  19
ATOM     19  C   UNL A   1      27.888  30.140  22.657  1.00  0.00     0.181 C 
ATOM     20  C   UNL A   1      28.091  30.451  21.195  1.00  0.00     0.095 C 
ATOM     21  O   UNL A   1      27.296  30.927  23.394  1.00  0.00    -0.293 OA
ENDBRANCH  14  19
ENDBRANCH   8  13
ENDBRANCH   4   7
ENDBRANCH   2   3
ENDBRANCH   1   2
BRANCH   1  22
ATOM     22  C   UNL A   1      37.782  24.256  26.283  1.00  0.00     0.118 C 
BRANCH  22  23
ATOM     23  N   UNL A   1      39.223  24.056  26.136  1.00  0.00    -0.352 N 
ATOM     24  C   UNL A   1      40.245  24.955  26.391  1.00  0.00     0.251 C 
ATOM     25  H   UNL A   1      39.503  23.168  25.816  1.00  0.00     0.163 HD
ATOM     26  O   UNL A   1      41.342  24.799  25.881  1.00  0.00    -0.269 OA
BRANCH  24  27
ATOM     27  C   UNL A   1      39.970  26.103  27.276  1.00  0.00     0.039 A 
ATOM     28  C   UNL A   1      39.471  25.921  28.570  1.00  0.00     0.014 A 
ATOM     29  C   UNL A   1      40.270  27.374  26.801  1.00  0.00     0.014 A 
ATOM     30  C   UNL A   1      39.366  27.027  29.414  1.00  0.00     0.010 A 
ATOM     31  C   UNL A   1      40.325  28.425  27.679  1.00  0.00     0.010 A 
ATOM     32  C   UNL A   1      39.819  28.276  28.969  1.00  0.00    -0.014 A 
BRANCH  32  33
ATOM     33  C   UNL A   1      39.902  29.430  29.865  1.00  0.00     0.031 A 
ATOM     34  C   UNL A   1      38.637  30.201  30.021  1.00  0.00     0.074 A 
ATOM     35  C   UNL A   1      40.941  29.596  30.715  1.00  0.00     0.049 A 
ATOM     36  N   UNL A   1      38.417  31.438  29.722  1.00  0.00    -0.248 NA
ATOM     37  C   UNL A   1      37.425  29.473  30.432  1.00  0.00     0.031 C 
ATOM     38  C   UNL A   1      42.112  28.725  30.873  1.00  0.00     0.029 A 
ATOM     39  N   UNL A   1      41.093  30.484  31.737  1.00  0.00    -0.354 N 
ATOM     40  C   UNL A   1      37.116  31.712  30.141  1.00  0.00     0.074 A 
ATOM     41  C   UNL A   1      36.499  30.430  30.344  1.00  0.00     0.031 C 
ATOM     42  C   UNL A   1      42.691  28.958  32.069  1.00  0.00     0.029 A 
ATOM     43  C   UNL A   1      42.046  30.105  32.682  1.00  0.00     0.049 A 
ATOM     44  H   UNL A   1      40.576  31.319  31.803  1.00  0.00     0.167 HD
ATOM     45  C   UNL A   1      36.748  32.967  30.531  1.00  0.00     0.034 A 
ATOM     46  C   UNL A   1      42.276  30.662  33.901  1.00  0.00     0.034 A 
ATOM     47  C   UNL A   1      37.731  33.942  30.100  1.00  0.00     0.049 A 
ATOM     48  C   UNL A   1      41.716  32.035  33.851  1.00  0.00     0.074 A 
ATOM     49  C   UNL A   1      38.271  34.291  28.876  1.00  0.00     0.029 A 
ATOM     50  N   UNL A   1      38.601  34.452  31.041  1.00  0.00    -0.354 N 
ATOM     51  N   UNL A   1      42.185  32.966  33.065  1.00  0.00    -0.248 NA
ATOM     52  C   UNL A   1      40.344  32.237  34.292  1.00  0.00     0.031 C 
ATOM     53  C   UNL A   1      39.657  34.505  29.137  1.00  0.00     0.029 A 
ATOM     54  C   UNL A   1      39.867  34.376  30.511  1.00  0.00     0.049 A 
ATOM     55  H   UNL A   1      38.360  34.805  31.927  1.00  0.00     0.167 HD
ATOM     56  C   UNL A   1      41.062  33.597  32.552  1.00  0.00     0.074 A 
ATOM     57  C   UNL A   1      39.969  33.192  33.434  1.00  0.00     0.031 C 
ATOM     58  C   UNL A   1      41.066  34.139  31.296  1.00  0.00     0.034 A 
BRANCH  45  59
ATOM     59  C   UNL A   1      35.732  33.289  31.615  1.00  0.00     0.023 A 
ATOM     60  C   UNL A   1      34.734  34.230  31.288  1.00  0.00     0.031 A 
ATOM     61  C   UNL A   1      35.838  32.977  32.989  1.00  0.00     0.131 A 
ATOM     62  C   UNL A   1      34.024  34.918  32.288  1.00  0.00     0.055 A 
ATOM     63  C   UNL A   1      35.076  33.614  33.977  1.00  0.00     0.041 A 
ATOM     64  F   UNL A   1      36.728  32.108  33.476  1.00  0.00    -0.206 F 
ATOM     65  C   UNL A   1      34.194  34.621  33.634  1.00  0.00     0.022 A 
BRANCH  62  66
ATOM     66  S   UNL A   1      33.034  36.352  31.795  1.00  0.00     0.124 S 
ATOM     67  O   UNL A   1      31.946  36.300  32.765  1.00  0.00    -0.237 OA
ATOM     68  O   UNL A   1      33.990  37.442  31.953  1.00  0.00    -0.237 OA
ATOM     69  O   UNL A   1      32.658  36.044  30.417  1.00  0.00    -0.744 OA
ENDBRANCH  62  66
ENDBRANCH  45  59
BRANCH  46  70
ATOM     70  C   UNL A   1      42.722  29.977  35.146  1.00  0.00     0.023 A 
ATOM     71  C   UNL A   1      42.210  28.730  35.567  1.00  0.00     0.031 A 
ATOM     72  C   UNL A   1      43.852  30.461  35.845  1.00  0.00     0.131 A 
ATOM     73  C   UNL A   1      42.820  28.033  36.638  1.00  0.00     0.055 A 
ATOM     74  C   UNL A   1      44.445  29.773  36.907  1.00  0.00     0.041 A 
ATOM     75  F   UNL A   1      44.475  31.587  35.463  1.00  0.00    -0.206 F 
ATOM     76  C   UNL A   1      43.934  28.549  37.303  1.00  0.00     0.022 A 
BRANCH  73  77
ATOM     77  S   UNL A   1      42.228  26.378  37.123  1.00  0.00     0.124 S 
ATOM     78  O   UNL A   1      42.346  25.627  35.878  1.00  0.00    -0.237 OA
ATOM     79  O   UNL A   1      43.151  26.012  38.191  1.00  0.00    -0.237 OA
ATOM     80  O   UNL A   1      40.853  26.621  37.563  1.00  0.00    -0.744 OA
ENDBRANCH  73  77
ENDBRANCH  46  70
BRANCH  58  81
ATOM     81  C   UNL A   1      42.393  34.293  30.576  1.00  0.00     0.023 A 
ATOM     82  C   UNL A   1      42.853  33.450  29.537  1.00  0.00     0.031 A 
ATOM     83  C   UNL A   1      43.161  35.434  30.871  1.00  0.00     0.131 A 
ATOM     84  C   UNL A   1      44.045  33.757  28.850  1.00  0.00     0.055 A 
ATOM     85  C   UNL A   1      44.327  35.747  30.175  1.00  0.00     0.041 A 
ATOM     86  F   UNL A   1      42.764  36.294  31.825  1.00  0.00    -0.206 F 
ATOM     87  C   UNL A   1      44.777  34.906  29.163  1.00  0.00     0.022 A 
BRANCH  84  88
ATOM     88  S   UNL A   1      44.673  32.657  27.538  1.00  0.00     0.124 S 
ATOM     89  O   UNL A   1      46.111  32.630  27.773  1.00  0.00    -0.237 OA
ATOM     90  O   UNL A   1      43.957  31.411  27.799  1.00  0.00    -0.237 OA
ATOM     91  O   UNL A   1      44.271  33.338  26.305  1.00  0.00    -0.744 OA
ENDBRANCH  84  88
ENDBRANCH  58  81
ENDBRANCH  32  33
ENDBRANCH  24  27
ENDBRANCH  22  23
ENDBRANCH   1  22
TORSDOF 15
ENDMDL
