MODEL 1
REMARK VINA RESULT:     -11.7      0.000      0.000
REMARK SMILES [NH3+][C@H](C(=O)NCCCNC(=O)c1ccc(-c2c3nc(c(-c4cc(S(=O)(=O)[O-])ccc4F)c4ccc([nH]4)c(-c4cc(S(=O)(=O)[O-])ccc4F)c4nc(c(-c5cc(S(=O)(=O)[O-])ccc5F)c5ccc2[nH]5)C=C4)C=C3)cc1)c1ccc(OCC(=O)N2CCCC2)cc1
REMARK SMILES IDX 6 1 5 2 3 3 4 4 2 6 1 7 75 11 76 12 89 13 77 14 88 15 78 16
REMARK SMILES IDX 79 17 80 18 81 19 82 20 83 21 84 22 87 23 85 24 86 25 7 26
REMARK SMILES IDX 8 27 9 28 10 29 11 31 12 32 13 33 74 34 14 35 73 36 15 37
REMARK SMILES IDX 16 38 17 39 67 40 18 41 72 42 66 43 68 44 19 45 71 46 65 47
REMARK SMILES IDX 64 48 20 50 52 51 32 52 51 53 33 54 36 55 50 56 69 57 34 58
REMARK SMILES IDX 35 59 49 61 70 62 37 63 21 64 22 65 30 66 23 67 29 68 31 69
REMARK SMILES IDX 28 70 24 71 25 72 26 73 27 74 53 75 54 76 62 77 55 78 61 79
REMARK SMILES IDX 63 80 60 81 56 82 57 83 58 84 59 85 38 86 39 87 47 88 40 89
REMARK SMILES IDX 46 90 48 91 45 92 41 93 42 94 43 95 44 96
REMARK H PARENT 5 5 1 8 1 9 1 10 9 30 68 49 36 60
REMARK Flexibility Score: inf
ROOT
ATOM      1  C   UNL A   1      31.389  30.536  26.284  1.00  0.00     0.118 C 
ENDROOT
BRANCH   1   2
ATOM      2  N   UNL A   1      32.446  30.114  25.383  1.00  0.00    -0.351 N 
ATOM      3  C   UNL A   1      32.404  29.276  24.306  1.00  0.00     0.283 C 
ATOM      4  O   UNL A   1      33.471  29.041  23.724  1.00  0.00    -0.268 OA
ATOM      5  H   UNL A   1      33.333  30.493  25.578  1.00  0.00     0.163 HD
BRANCH   3   6
ATOM      6  C   UNL A   1      31.055  28.699  23.777  1.00  0.00     0.302 C 
BRANCH   6   7
ATOM      7  N   UNL A   1      31.034  28.894  22.302  1.00  0.00    -0.343 N 
ATOM      8  H   UNL A   1      31.123  29.887  22.089  1.00  0.00     0.345 HD
ATOM      9  H   UNL A   1      30.153  28.542  21.925  1.00  0.00     0.345 HD
ATOM     10  H   UNL A   1      31.810  28.384  21.881  1.00  0.00     0.345 HD
ENDBRANCH   6   7
BRANCH   6  11
ATOM     11  C   UNL A   1      30.869  27.245  24.181  1.00  0.00     0.019 A 
ATOM     12  C   UNL A   1      30.565  26.231  23.262  1.00  0.00     0.014 A 
ATOM     13  C   UNL A   1      31.054  26.871  25.521  1.00  0.00     0.014 A 
ATOM     14  C   UNL A   1      30.500  24.896  23.668  1.00  0.00     0.047 A 
ATOM     15  C   UNL A   1      31.039  25.532  25.920  1.00  0.00     0.047 A 
ATOM     16  C   UNL A   1      30.780  24.538  24.986  1.00  0.00     0.120 A 
BRANCH  16  17
ATOM     17  O   UNL A   1      30.753  23.199  25.236  1.00  0.00    -0.484 OA
BRANCH  17  18
ATOM     18  C   UNL A   1      31.806  22.663  26.017  1.00  0.00     0.329 C 
BRANCH  18  19
ATOM     19  C   UNL A   1      32.525  21.380  25.559  1.00  0.00     0.260 C 
ATOM     20  O   UNL A   1      31.885  20.474  25.021  1.00  0.00    -0.271 OA
ATOM     21  N   UNL A   1      33.898  21.343  25.654  1.00  0.00    -0.340 N 
ATOM     22  C   UNL A   1      34.748  22.139  26.516  1.00  0.00     0.119 C 
ATOM     23  C   UNL A   1      34.681  20.405  24.867  1.00  0.00     0.119 C 
ATOM     24  C   UNL A   1      36.091  22.125  25.811  1.00  0.00     0.023 C 
ATOM     25  C   UNL A   1      36.139  20.746  25.161  1.00  0.00     0.023 C 
ENDBRANCH  18  19
ENDBRANCH  17  18
ENDBRANCH  16  17
ENDBRANCH   6  11
ENDBRANCH   3   6
ENDBRANCH   1   2
BRANCH   1  26
ATOM     26  C   UNL A   1      31.402  32.045  26.512  1.00  0.00     0.042 C 
BRANCH  26  27
ATOM     27  C   UNL A   1      32.721  32.584  27.051  1.00  0.00     0.118 C 
BRANCH  27  28
ATOM     28  N   UNL A   1      32.584  33.912  27.630  1.00  0.00    -0.352 N 
ATOM     29  C   UNL A   1      33.238  34.484  28.693  1.00  0.00     0.251 C 
ATOM     30  H   UNL A   1      31.919  34.491  27.190  1.00  0.00     0.163 HD
ATOM     31  O   UNL A   1      32.820  35.551  29.146  1.00  0.00    -0.269 OA
BRANCH  29  32
ATOM     32  C   UNL A   1      34.413  33.824  29.307  1.00  0.00     0.039 A 
ATOM     33  C   UNL A   1      35.695  34.242  28.935  1.00  0.00     0.014 A 
ATOM     34  C   UNL A   1      34.264  32.784  30.229  1.00  0.00     0.014 A 
ATOM     35  C   UNL A   1      36.818  33.666  29.537  1.00  0.00     0.010 A 
ATOM     36  C   UNL A   1      35.378  32.274  30.890  1.00  0.00     0.010 A 
ATOM     37  C   UNL A   1      36.670  32.706  30.551  1.00  0.00    -0.014 A 
BRANCH  37  38
ATOM     38  C   UNL A   1      37.847  32.139  31.261  1.00  0.00     0.031 A 
ATOM     39  C   UNL A   1      38.630  31.010  30.645  1.00  0.00     0.074 A 
ATOM     40  C   UNL A   1      38.172  32.591  32.489  1.00  0.00     0.049 A 
ATOM     41  N   UNL A   1      39.619  30.316  31.146  1.00  0.00    -0.248 NA
ATOM     42  C   UNL A   1      38.219  30.585  29.299  1.00  0.00     0.031 C 
ATOM     43  C   UNL A   1      37.465  33.652  33.209  1.00  0.00     0.029 A 
ATOM     44  N   UNL A   1      39.166  32.208  33.356  1.00  0.00    -0.354 N 
ATOM     45  C   UNL A   1      39.941  29.364  30.183  1.00  0.00     0.074 A 
ATOM     46  C   UNL A   1      38.994  29.531  29.100  1.00  0.00     0.031 C 
ATOM     47  C   UNL A   1      38.056  33.845  34.399  1.00  0.00     0.029 A 
ATOM     48  C   UNL A   1      39.145  32.886  34.554  1.00  0.00     0.049 A 
ATOM     49  H   UNL A   1      39.828  31.513  33.142  1.00  0.00     0.167 HD
ATOM     50  C   UNL A   1      40.946  28.452  30.193  1.00  0.00     0.034 A 
ATOM     51  C   UNL A   1      39.899  32.737  35.662  1.00  0.00     0.034 A 
ATOM     52  C   UNL A   1      41.880  28.303  31.283  1.00  0.00     0.049 A 
ATOM     53  C   UNL A   1      40.984  31.690  35.670  1.00  0.00     0.074 A 
ATOM     54  C   UNL A   1      42.967  27.451  31.375  1.00  0.00     0.029 A 
ATOM     55  N   UNL A   1      41.830  29.010  32.479  1.00  0.00    -0.354 N 
ATOM     56  N   UNL A   1      41.312  30.833  34.729  1.00  0.00    -0.248 NA
ATOM     57  C   UNL A   1      41.806  31.594  36.883  1.00  0.00     0.031 C 
ATOM     58  C   UNL A   1      43.522  27.583  32.652  1.00  0.00     0.029 A 
ATOM     59  C   UNL A   1      42.842  28.584  33.327  1.00  0.00     0.049 A 
ATOM     60  H   UNL A   1      41.173  29.711  32.692  1.00  0.00     0.167 HD
ATOM     61  C   UNL A   1      42.397  30.118  35.228  1.00  0.00     0.074 A 
ATOM     62  C   UNL A   1      42.675  30.653  36.546  1.00  0.00     0.031 C 
ATOM     63  C   UNL A   1      43.104  29.115  34.646  1.00  0.00     0.034 A 
BRANCH  50  64
ATOM     64  C   UNL A   1      41.056  27.526  29.001  1.00  0.00     0.023 A 
ATOM     65  C   UNL A   1      42.029  27.717  28.004  1.00  0.00     0.031 A 
ATOM     66  C   UNL A   1      40.152  26.462  28.837  1.00  0.00     0.131 A 
ATOM     67  C   UNL A   1      42.017  26.921  26.849  1.00  0.00     0.055 A 
ATOM     68  C   UNL A   1      40.206  25.612  27.731  1.00  0.00     0.041 A 
ATOM     69  F   UNL A   1      39.186  26.237  29.742  1.00  0.00    -0.206 F 
ATOM     70  C   UNL A   1      41.130  25.851  26.717  1.00  0.00     0.022 A 
BRANCH  67  71
ATOM     71  S   UNL A   1      43.057  27.417  25.448  1.00  0.00     0.124 S 
ATOM     72  O   UNL A   1      42.215  28.415  24.793  1.00  0.00    -0.237 OA
ATOM     73  O   UNL A   1      44.255  27.923  26.108  1.00  0.00    -0.237 OA
ATOM     74  O   UNL A   1      43.234  26.175  24.697  1.00  0.00    -0.744 OA
ENDBRANCH  67  71
ENDBRANCH  50  64
BRANCH  51  75
ATOM     75  C   UNL A   1      39.636  33.576  36.868  1.00  0.00     0.023 A 
ATOM     76  C   UNL A   1      39.003  33.045  38.003  1.00  0.00     0.031 A 
ATOM     77  C   UNL A   1      39.991  34.937  36.889  1.00  0.00     0.131 A 
ATOM     78  C   UNL A   1      38.708  33.878  39.094  1.00  0.00     0.055 A 
ATOM     79  C   UNL A   1      39.750  35.747  38.000  1.00  0.00     0.041 A 
ATOM     80  F   UNL A   1      40.594  35.499  35.829  1.00  0.00    -0.206 F 
ATOM     81  C   UNL A   1      39.093  35.220  39.107  1.00  0.00     0.022 A 
BRANCH  78  82
ATOM     82  S   UNL A   1      37.732  33.203  40.466  1.00  0.00     0.124 S 
ATOM     83  O   UNL A   1      38.538  32.054  40.866  1.00  0.00    -0.237 OA
ATOM     84  O   UNL A   1      37.705  34.323  41.399  1.00  0.00    -0.237 OA
ATOM     85  O   UNL A   1      36.449  32.880  39.845  1.00  0.00    -0.744 OA
ENDBRANCH  78  82
ENDBRANCH  51  75
BRANCH  63  86
ATOM     86  C   UNL A   1      44.282  28.563  35.413  1.00  0.00     0.023 A 
ATOM     87  C   UNL A   1      44.149  27.493  36.316  1.00  0.00     0.031 A 
ATOM     88  C   UNL A   1      45.562  29.116  35.228  1.00  0.00     0.131 A 
ATOM     89  C   UNL A   1      45.267  27.042  37.034  1.00  0.00     0.055 A 
ATOM     90  C   UNL A   1      46.682  28.620  35.897  1.00  0.00     0.041 A 
ATOM     91  F   UNL A   1      45.749  30.142  34.383  1.00  0.00    -0.206 F 
ATOM     92  C   UNL A   1      46.536  27.585  36.816  1.00  0.00     0.022 A 
BRANCH  89  93
ATOM     93  S   UNL A   1      45.029  25.792  38.326  1.00  0.00     0.124 S 
ATOM     94  O   UNL A   1      44.110  26.466  39.236  1.00  0.00    -0.237 OA
ATOM     95  O   UNL A   1      44.476  24.669  37.576  1.00  0.00    -0.237 OA
ATOM     96  O   UNL A   1      46.377  25.580  38.851  1.00  0.00    -0.744 OA
ENDBRANCH  89  93
ENDBRANCH  63  86
ENDBRANCH  37  38
ENDBRANCH  29  32
ENDBRANCH  27  28
ENDBRANCH  26  27
ENDBRANCH   1  26
TORSDOF 18
ENDMDL
MODEL 2
REMARK VINA RESULT:     -11.7      5.588     10.988
REMARK SMILES [NH3+][C@H](C(=O)NCCCNC(=O)c1ccc(-c2c3nc(c(-c4cc(S(=O)(=O)[O-])ccc4F)c4ccc([nH]4)c(-c4cc(S(=O)(=O)[O-])ccc4F)c4nc(c(-c5cc(S(=O)(=O)[O-])ccc5F)c5ccc2[nH]5)C=C4)C=C3)cc1)c1ccc(OCC(=O)N2CCCC2)cc1
REMARK SMILES IDX 6 1 5 2 3 3 4 4 2 6 1 7 75 11 76 12 89 13 77 14 88 15 78 16
REMARK SMILES IDX 79 17 80 18 81 19 82 20 83 21 84 22 87 23 85 24 86 25 7 26
REMARK SMILES IDX 8 27 9 28 10 29 11 31 12 32 13 33 74 34 14 35 73 36 15 37
REMARK SMILES IDX 16 38 17 39 67 40 18 41 72 42 66 43 68 44 19 45 71 46 65 47
REMARK SMILES IDX 64 48 20 50 52 51 32 52 51 53 33 54 36 55 50 56 69 57 34 58
REMARK SMILES IDX 35 59 49 61 70 62 37 63 21 64 22 65 30 66 23 67 29 68 31 69
REMARK SMILES IDX 28 70 24 71 25 72 26 73 27 74 53 75 54 76 62 77 55 78 61 79
REMARK SMILES IDX 63 80 60 81 56 82 57 83 58 84 59 85 38 86 39 87 47 88 40 89
REMARK SMILES IDX 46 90 48 91 45 92 41 93 42 94 43 95 44 96
REMARK H PARENT 5 5 1 8 1 9 1 10 9 30 68 49 36 60
REMARK Flexibility Score: inf
ROOT
ATOM      1  C   UNL A   1      34.204  20.777  25.389  1.00  0.00     0.118 C 
ENDROOT
BRANCH   1   2
ATOM      2  N   UNL A   1      33.823  21.355  26.664  1.00  0.00    -0.351 N 
ATOM      3  C   UNL A   1      32.796  22.198  26.978  1.00  0.00     0.283 C 
ATOM      4  O   UNL A   1      32.715  22.587  28.150  1.00  0.00    -0.268 OA
ATOM      5  H   UNL A   1      34.395  21.099  27.423  1.00  0.00     0.163 HD
BRANCH   3   6
ATOM      6  C   UNL A   1      31.716  22.592  25.924  1.00  0.00     0.302 C 
BRANCH   6   7
ATOM      7  N   UNL A   1      30.390  22.207  26.477  1.00  0.00    -0.343 N 
ATOM      8  H   UNL A   1      30.496  21.389  27.077  1.00  0.00     0.345 HD
ATOM      9  H   UNL A   1      29.752  21.988  25.711  1.00  0.00     0.345 HD
ATOM     10  H   UNL A   1      30.011  22.981  27.023  1.00  0.00     0.345 HD
ENDBRANCH   6   7
BRANCH   6  11
ATOM     11  C   UNL A   1      31.797  24.067  25.562  1.00  0.00     0.019 A 
ATOM     12  C   UNL A   1      30.875  25.017  26.025  1.00  0.00     0.014 A 
ATOM     13  C   UNL A   1      32.860  24.528  24.771  1.00  0.00     0.014 A 
ATOM     14  C   UNL A   1      31.048  26.374  25.744  1.00  0.00     0.047 A 
ATOM     15  C   UNL A   1      33.063  25.889  24.531  1.00  0.00     0.047 A 
ATOM     16  C   UNL A   1      32.164  26.819  25.036  1.00  0.00     0.120 A 
BRANCH  16  17
ATOM     17  O   UNL A   1      32.252  28.171  24.891  1.00  0.00    -0.484 OA
BRANCH  17  18
ATOM     18  C   UNL A   1      31.047  28.877  24.659  1.00  0.00     0.329 C 
BRANCH  18  19
ATOM     19  C   UNL A   1      30.577  29.141  23.216  1.00  0.00     0.260 C 
ATOM     20  O   UNL A   1      31.000  28.441  22.293  1.00  0.00    -0.271 OA
ATOM     21  N   UNL A   1      29.591  30.083  23.021  1.00  0.00    -0.340 N 
ATOM     22  C   UNL A   1      29.227  31.177  23.898  1.00  0.00     0.119 C 
ATOM     23  C   UNL A   1      28.788  30.090  21.811  1.00  0.00     0.119 C 
ATOM     24  C   UNL A   1      27.792  31.483  23.515  1.00  0.00     0.023 C 
ATOM     25  C   UNL A   1      27.750  31.189  22.018  1.00  0.00     0.023 C 
ENDBRANCH  18  19
ENDBRANCH  17  18
ENDBRANCH  16  17
ENDBRANCH   6  11
ENDBRANCH   3   6
ENDBRANCH   1   2
BRANCH   1  26
ATOM     26  C   UNL A   1      35.272  21.607  24.681  1.00  0.00     0.042 C 
BRANCH  26  27
ATOM     27  C   UNL A   1      36.452  21.989  25.564  1.00  0.00     0.118 C 
BRANCH  27  28
ATOM     28  N   UNL A   1      37.443  20.927  25.658  1.00  0.00    -0.352 N 
ATOM     29  C   UNL A   1      38.783  20.992  25.951  1.00  0.00     0.251 C 
ATOM     30  H   UNL A   1      37.098  20.020  25.485  1.00  0.00     0.163 HD
ATOM     31  O   UNL A   1      39.481  19.993  25.773  1.00  0.00    -0.269 OA
BRANCH  29  32
ATOM     32  C   UNL A   1      39.392  22.247  26.450  1.00  0.00     0.039 A 
ATOM     33  C   UNL A   1      40.461  22.169  27.348  1.00  0.00     0.014 A 
ATOM     34  C   UNL A   1      38.906  23.497  26.058  1.00  0.00     0.014 A 
ATOM     35  C   UNL A   1      41.082  23.339  27.794  1.00  0.00     0.010 A 
ATOM     36  C   UNL A   1      39.580  24.656  26.434  1.00  0.00     0.010 A 
ATOM     37  C   UNL A   1      40.675  24.592  27.310  1.00  0.00    -0.014 A 
BRANCH  37  38
ATOM     38  C   UNL A   1      41.373  25.843  27.709  1.00  0.00     0.031 A 
ATOM     39  C   UNL A   1      40.634  26.912  28.470  1.00  0.00     0.074 A 
ATOM     40  C   UNL A   1      42.651  26.049  27.330  1.00  0.00     0.049 A 
ATOM     41  N   UNL A   1      41.032  28.108  28.819  1.00  0.00    -0.248 NA
ATOM     42  C   UNL A   1      39.249  26.603  28.857  1.00  0.00     0.031 C 
ATOM     43  C   UNL A   1      43.460  25.107  26.555  1.00  0.00     0.029 A 
ATOM     44  N   UNL A   1      43.487  27.120  27.528  1.00  0.00    -0.354 N 
ATOM     45  C   UNL A   1      39.945  28.699  29.456  1.00  0.00     0.074 A 
ATOM     46  C   UNL A   1      38.853  27.752  29.380  1.00  0.00     0.031 C 
ATOM     47  C   UNL A   1      44.679  25.634  26.358  1.00  0.00     0.029 A 
ATOM     48  C   UNL A   1      44.723  26.972  26.939  1.00  0.00     0.049 A 
ATOM     49  H   UNL A   1      43.227  27.918  28.042  1.00  0.00     0.167 HD
ATOM     50  C   UNL A   1      39.873  29.910  30.064  1.00  0.00     0.034 A 
ATOM     51  C   UNL A   1      45.764  27.825  26.853  1.00  0.00     0.034 A 
ATOM     52  C   UNL A   1      40.975  30.840  30.130  1.00  0.00     0.049 A 
ATOM     53  C   UNL A   1      45.650  29.182  27.499  1.00  0.00     0.074 A 
ATOM     54  C   UNL A   1      41.029  32.067  30.767  1.00  0.00     0.029 A 
ATOM     55  N   UNL A   1      42.212  30.654  29.524  1.00  0.00    -0.354 N 
ATOM     56  N   UNL A   1      44.633  29.706  28.145  1.00  0.00    -0.248 NA
ATOM     57  C   UNL A   1      46.824  30.060  27.414  1.00  0.00     0.031 C 
ATOM     58  C   UNL A   1      42.264  32.658  30.478  1.00  0.00     0.029 A 
ATOM     59  C   UNL A   1      43.019  31.762  29.739  1.00  0.00     0.049 A 
ATOM     60  H   UNL A   1      42.476  29.853  29.017  1.00  0.00     0.167 HD
ATOM     61  C   UNL A   1      45.058  30.963  28.567  1.00  0.00     0.074 A 
ATOM     62  C   UNL A   1      46.426  31.111  28.115  1.00  0.00     0.031 C 
ATOM     63  C   UNL A   1      44.380  31.905  29.273  1.00  0.00     0.034 A 
BRANCH  50  64
ATOM     64  C   UNL A   1      38.545  30.303  30.673  1.00  0.00     0.023 A 
ATOM     65  C   UNL A   1      37.537  30.923  29.913  1.00  0.00     0.031 A 
ATOM     66  C   UNL A   1      38.294  30.092  32.041  1.00  0.00     0.131 A 
ATOM     67  C   UNL A   1      36.373  31.393  30.539  1.00  0.00     0.055 A 
ATOM     68  C   UNL A   1      37.092  30.475  32.639  1.00  0.00     0.041 A 
ATOM     69  F   UNL A   1      39.222  29.523  32.827  1.00  0.00    -0.206 F 
ATOM     70  C   UNL A   1      36.130  31.149  31.891  1.00  0.00     0.022 A 
BRANCH  67  71
ATOM     71  S   UNL A   1      35.266  32.481  29.599  1.00  0.00     0.124 S 
ATOM     72  O   UNL A   1      34.354  32.946  30.643  1.00  0.00    -0.237 OA
ATOM     73  O   UNL A   1      36.184  33.477  29.062  1.00  0.00    -0.237 OA
ATOM     74  O   UNL A   1      34.664  31.587  28.611  1.00  0.00    -0.744 OA
ENDBRANCH  67  71
ENDBRANCH  50  64
BRANCH  51  75
ATOM     75  C   UNL A   1      46.991  27.437  26.098  1.00  0.00     0.023 A 
ATOM     76  C   UNL A   1      47.163  27.792  24.751  1.00  0.00     0.031 A 
ATOM     77  C   UNL A   1      48.003  26.676  26.712  1.00  0.00     0.131 A 
ATOM     78  C   UNL A   1      48.298  27.353  24.050  1.00  0.00     0.055 A 
ATOM     79  C   UNL A   1      49.158  26.293  26.029  1.00  0.00     0.041 A 
ATOM     80  F   UNL A   1      47.889  26.305  27.997  1.00  0.00    -0.206 F 
ATOM     81  C   UNL A   1      49.304  26.621  24.685  1.00  0.00     0.022 A 
BRANCH  78  82
ATOM     82  S   UNL A   1      48.401  27.676  22.269  1.00  0.00     0.124 S 
ATOM     83  O   UNL A   1      47.143  28.373  22.021  1.00  0.00    -0.237 OA
ATOM     84  O   UNL A   1      49.611  28.484  22.176  1.00  0.00    -0.237 OA
ATOM     85  O   UNL A   1      48.500  26.340  21.685  1.00  0.00    -0.744 OA
ENDBRANCH  78  82
ENDBRANCH  51  75
BRANCH  63  86
ATOM     86  C   UNL A   1      45.129  33.164  29.642  1.00  0.00     0.023 A 
ATOM     87  C   UNL A   1      45.107  34.310  28.828  1.00  0.00     0.031 A 
ATOM     88  C   UNL A   1      45.870  33.216  30.837  1.00  0.00     0.131 A 
ATOM     89  C   UNL A   1      45.851  35.443  29.196  1.00  0.00     0.055 A 
ATOM     90  C   UNL A   1      46.555  34.367  31.229  1.00  0.00     0.041 A 
ATOM     91  F   UNL A   1      45.931  32.150  31.650  1.00  0.00    -0.206 F 
ATOM     92  C   UNL A   1      46.558  35.485  30.401  1.00  0.00     0.022 A 
BRANCH  89  93
ATOM     93  S   UNL A   1      45.956  36.833  28.037  1.00  0.00     0.124 S 
ATOM     94  O   UNL A   1      46.312  37.939  28.920  1.00  0.00    -0.237 OA
ATOM     95  O   UNL A   1      46.998  36.393  27.114  1.00  0.00    -0.237 OA
ATOM     96  O   UNL A   1      44.613  36.905  27.464  1.00  0.00    -0.744 OA
ENDBRANCH  89  93
ENDBRANCH  63  86
ENDBRANCH  37  38
ENDBRANCH  29  32
ENDBRANCH  27  28
ENDBRANCH  26  27
ENDBRANCH   1  26
TORSDOF 18
ENDMDL
MODEL 3
REMARK VINA RESULT:     -11.6      1.536      1.817
REMARK SMILES [NH3+][C@H](C(=O)NCCCNC(=O)c1ccc(-c2c3nc(c(-c4cc(S(=O)(=O)[O-])ccc4F)c4ccc([nH]4)c(-c4cc(S(=O)(=O)[O-])ccc4F)c4nc(c(-c5cc(S(=O)(=O)[O-])ccc5F)c5ccc2[nH]5)C=C4)C=C3)cc1)c1ccc(OCC(=O)N2CCCC2)cc1
REMARK SMILES IDX 6 1 5 2 3 3 4 4 2 6 1 7 75 11 76 12 89 13 77 14 88 15 78 16
REMARK SMILES IDX 79 17 80 18 81 19 82 20 83 21 84 22 87 23 85 24 86 25 7 26
REMARK SMILES IDX 8 27 9 28 10 29 11 31 12 32 13 33 74 34 14 35 73 36 15 37
REMARK SMILES IDX 16 38 17 39 67 40 18 41 72 42 66 43 68 44 19 45 71 46 65 47
REMARK SMILES IDX 64 48 20 50 52 51 32 52 51 53 33 54 36 55 50 56 69 57 34 58
REMARK SMILES IDX 35 59 49 61 70 62 37 63 21 64 22 65 30 66 23 67 29 68 31 69
REMARK SMILES IDX 28 70 24 71 25 72 26 73 27 74 53 75 54 76 62 77 55 78 61 79
REMARK SMILES IDX 63 80 60 81 56 82 57 83 58 84 59 85 38 86 39 87 47 88 40 89
REMARK SMILES IDX 46 90 48 91 45 92 41 93 42 94 43 95 44 96
REMARK H PARENT 5 5 1 8 1 9 1 10 9 30 68 49 36 60
REMARK Flexibility Score: inf
ROOT
ATOM      1  C   UNL A   1      31.357  30.387  26.151  1.00  0.00     0.118 C 
ENDROOT
BRANCH   1   2
ATOM      2  N   UNL A   1      32.490  30.067  25.303  1.00  0.00    -0.351 N 
ATOM      3  C   UNL A   1      32.536  29.426  24.098  1.00  0.00     0.283 C 
ATOM      4  O   UNL A   1      33.651  29.235  23.595  1.00  0.00    -0.268 OA
ATOM      5  H   UNL A   1      33.363  30.358  25.650  1.00  0.00     0.163 HD
BRANCH   3   6
ATOM      6  C   UNL A   1      31.233  29.022  23.342  1.00  0.00     0.302 C 
BRANCH   6   7
ATOM      7  N   UNL A   1      31.266  29.683  22.009  1.00  0.00    -0.343 N 
ATOM      8  H   UNL A   1      32.052  30.331  21.971  1.00  0.00     0.345 HD
ATOM      9  H   UNL A   1      30.395  30.193  21.861  1.00  0.00     0.345 HD
ATOM     10  H   UNL A   1      31.373  28.976  21.282  1.00  0.00     0.345 HD
ENDBRANCH   6   7
BRANCH   6  11
ATOM     11  C   UNL A   1      31.085  27.511  23.246  1.00  0.00     0.019 A 
ATOM     12  C   UNL A   1      31.747  26.740  22.280  1.00  0.00     0.014 A 
ATOM     13  C   UNL A   1      30.294  26.832  24.186  1.00  0.00     0.014 A 
ATOM     14  C   UNL A   1      31.655  25.347  22.293  1.00  0.00     0.047 A 
ATOM     15  C   UNL A   1      30.242  25.438  24.232  1.00  0.00     0.047 A 
ATOM     16  C   UNL A   1      30.940  24.690  23.294  1.00  0.00     0.120 A 
BRANCH  16  17
ATOM     17  O   UNL A   1      30.988  23.329  23.236  1.00  0.00    -0.484 OA
BRANCH  17  18
ATOM     18  C   UNL A   1      32.235  22.737  22.919  1.00  0.00     0.329 C 
BRANCH  18  19
ATOM     19  C   UNL A   1      33.075  22.077  24.029  1.00  0.00     0.260 C 
ATOM     20  O   UNL A   1      32.552  21.267  24.797  1.00  0.00    -0.271 OA
ATOM     21  N   UNL A   1      34.430  22.324  24.043  1.00  0.00    -0.340 N 
ATOM     22  C   UNL A   1      35.132  23.445  23.453  1.00  0.00     0.119 C 
ATOM     23  C   UNL A   1      35.348  21.436  24.737  1.00  0.00     0.119 C 
ATOM     24  C   UNL A   1      36.541  22.923  23.253  1.00  0.00     0.023 C 
ATOM     25  C   UNL A   1      36.742  21.974  24.431  1.00  0.00     0.023 C 
ENDBRANCH  18  19
ENDBRANCH  17  18
ENDBRANCH  16  17
ENDBRANCH   6  11
ENDBRANCH   3   6
ENDBRANCH   1   2
BRANCH   1  26
ATOM     26  C   UNL A   1      31.318  31.869  26.517  1.00  0.00     0.042 C 
BRANCH  26  27
ATOM     27  C   UNL A   1      32.680  32.465  26.850  1.00  0.00     0.118 C 
BRANCH  27  28
ATOM     28  N   UNL A   1      32.575  33.772  27.481  1.00  0.00    -0.352 N 
ATOM     29  C   UNL A   1      33.284  34.306  28.529  1.00  0.00     0.251 C 
ATOM     30  H   UNL A   1      31.890  34.366  27.096  1.00  0.00     0.163 HD
ATOM     31  O   UNL A   1      32.891  35.356  29.039  1.00  0.00    -0.269 OA
BRANCH  29  32
ATOM     32  C   UNL A   1      34.488  33.625  29.059  1.00  0.00     0.039 A 
ATOM     33  C   UNL A   1      35.746  34.177  28.801  1.00  0.00     0.014 A 
ATOM     34  C   UNL A   1      34.388  32.437  29.787  1.00  0.00     0.014 A 
ATOM     35  C   UNL A   1      36.892  33.578  29.332  1.00  0.00     0.010 A 
ATOM     36  C   UNL A   1      35.521  31.891  30.388  1.00  0.00     0.010 A 
ATOM     37  C   UNL A   1      36.787  32.453  30.165  1.00  0.00    -0.014 A 
BRANCH  37  38
ATOM     38  C   UNL A   1      37.985  31.846  30.805  1.00  0.00     0.031 A 
ATOM     39  C   UNL A   1      38.763  30.773  30.091  1.00  0.00     0.074 A 
ATOM     40  C   UNL A   1      38.334  32.211  32.056  1.00  0.00     0.049 A 
ATOM     41  N   UNL A   1      39.768  30.054  30.518  1.00  0.00    -0.248 NA
ATOM     42  C   UNL A   1      38.325  30.444  28.726  1.00  0.00     0.031 C 
ATOM     43  C   UNL A   1      37.635  33.209  32.867  1.00  0.00     0.029 A 
ATOM     44  N   UNL A   1      39.351  31.774  32.870  1.00  0.00    -0.354 N 
ATOM     45  C   UNL A   1      40.076  29.179  29.481  1.00  0.00     0.074 A 
ATOM     46  C   UNL A   1      39.104  29.415  28.434  1.00  0.00     0.031 C 
ATOM     47  C   UNL A   1      38.252  33.321  34.055  1.00  0.00     0.029 A 
ATOM     48  C   UNL A   1      39.352  32.363  34.114  1.00  0.00     0.049 A 
ATOM     49  H   UNL A   1      40.014  31.104  32.591  1.00  0.00     0.167 HD
ATOM     50  C   UNL A   1      41.088  28.278  29.401  1.00  0.00     0.034 A 
ATOM     51  C   UNL A   1      40.133  32.141  35.191  1.00  0.00     0.034 A 
ATOM     52  C   UNL A   1      42.049  28.059  30.456  1.00  0.00     0.049 A 
ATOM     53  C   UNL A   1      41.226  31.107  35.099  1.00  0.00     0.074 A 
ATOM     54  C   UNL A   1      43.144  27.213  30.461  1.00  0.00     0.029 A 
ATOM     55  N   UNL A   1      42.020  28.676  31.702  1.00  0.00    -0.354 N 
ATOM     56  N   UNL A   1      41.539  30.325  34.091  1.00  0.00    -0.248 NA
ATOM     57  C   UNL A   1      42.076  30.930  36.283  1.00  0.00     0.031 C 
ATOM     58  C   UNL A   1      43.727  27.256  31.732  1.00  0.00     0.029 A 
ATOM     59  C   UNL A   1      43.054  28.198  32.494  1.00  0.00     0.049 A 
ATOM     60  H   UNL A   1      41.363  29.353  31.980  1.00  0.00     0.167 HD
ATOM     61  C   UNL A   1      42.641  29.585  34.511  1.00  0.00     0.074 A 
ATOM     62  C   UNL A   1      42.944  30.025  35.858  1.00  0.00     0.031 C 
ATOM     63  C   UNL A   1      43.342  28.635  33.841  1.00  0.00     0.034 A 
BRANCH  50  64
ATOM     64  C   UNL A   1      41.178  27.443  28.142  1.00  0.00     0.023 A 
ATOM     65  C   UNL A   1      40.814  26.085  28.128  1.00  0.00     0.031 A 
ATOM     66  C   UNL A   1      41.671  28.000  26.949  1.00  0.00     0.131 A 
ATOM     67  C   UNL A   1      41.035  25.310  26.980  1.00  0.00     0.055 A 
ATOM     68  C   UNL A   1      41.799  27.247  25.780  1.00  0.00     0.041 A 
ATOM     69  F   UNL A   1      42.055  29.286  26.901  1.00  0.00    -0.206 F 
ATOM     70  C   UNL A   1      41.499  25.887  25.796  1.00  0.00     0.022 A 
BRANCH  67  71
ATOM     71  S   UNL A   1      40.877  23.508  27.110  1.00  0.00     0.124 S 
ATOM     72  O   UNL A   1      39.428  23.333  27.033  1.00  0.00    -0.237 OA
ATOM     73  O   UNL A   1      41.641  23.040  25.960  1.00  0.00    -0.237 OA
ATOM     74  O   UNL A   1      41.463  23.206  28.415  1.00  0.00    -0.744 OA
ENDBRANCH  67  71
ENDBRANCH  50  64
BRANCH  51  75
ATOM     75  C   UNL A   1      39.890  32.887  36.461  1.00  0.00     0.023 A 
ATOM     76  C   UNL A   1      39.009  32.397  37.438  1.00  0.00     0.031 A 
ATOM     77  C   UNL A   1      40.519  34.122  36.702  1.00  0.00     0.131 A 
ATOM     78  C   UNL A   1      38.751  33.156  38.591  1.00  0.00     0.055 A 
ATOM     79  C   UNL A   1      40.305  34.844  37.877  1.00  0.00     0.041 A 
ATOM     80  F   UNL A   1      41.368  34.639  35.800  1.00  0.00    -0.206 F 
ATOM     81  C   UNL A   1      39.406  34.367  38.825  1.00  0.00     0.022 A 
BRANCH  78  82
ATOM     82  S   UNL A   1      37.475  32.581  39.745  1.00  0.00     0.124 S 
ATOM     83  O   UNL A   1      37.347  33.725  40.640  1.00  0.00    -0.237 OA
ATOM     84  O   UNL A   1      36.348  32.335  38.853  1.00  0.00    -0.237 OA
ATOM     85  O   UNL A   1      38.068  31.385  40.340  1.00  0.00    -0.744 OA
ENDBRANCH  78  82
ENDBRANCH  51  75
BRANCH  63  86
ATOM     86  C   UNL A   1      44.542  28.039  34.540  1.00  0.00     0.023 A 
ATOM     87  C   UNL A   1      44.427  26.953  35.425  1.00  0.00     0.031 A 
ATOM     88  C   UNL A   1      45.825  28.567  34.306  1.00  0.00     0.131 A 
ATOM     89  C   UNL A   1      45.567  26.461  36.080  1.00  0.00     0.055 A 
ATOM     90  C   UNL A   1      46.963  28.032  34.910  1.00  0.00     0.041 A 
ATOM     91  F   UNL A   1      45.995  29.608  33.475  1.00  0.00    -0.206 F 
ATOM     92  C   UNL A   1      46.837  26.980  35.812  1.00  0.00     0.022 A 
BRANCH  89  93
ATOM     93  S   UNL A   1      45.361  25.188  37.354  1.00  0.00     0.124 S 
ATOM     94  O   UNL A   1      44.013  25.461  37.841  1.00  0.00    -0.237 OA
ATOM     95  O   UNL A   1      45.527  23.954  36.593  1.00  0.00    -0.237 OA
ATOM     96  O   UNL A   1      46.434  25.477  38.305  1.00  0.00    -0.744 OA
ENDBRANCH  89  93
ENDBRANCH  63  86
ENDBRANCH  37  38
ENDBRANCH  29  32
ENDBRANCH  27  28
ENDBRANCH  26  27
ENDBRANCH   1  26
TORSDOF 18
ENDMDL
