MODEL 1
REMARK VINA RESULT:     -12.1      0.000      0.000
REMARK SMILES O=C(NCCCNC(=O)[C@]12CCC[NH2+][C@@H]1CCN(C(=O)Cc1c(F)cccc1Cl)C2)c1ccc(-c2c3nc(c(-c4cc(S(=O)(=O)[O-])ccc4F)c4ccc([nH]4)c(-c4cc(S(=O)(=O)[O-])ccc4F)c4nc(c(-c5cc(S(=O)(=O)[O-])ccc5F)c5ccc2[nH]5)C=C4)C=C3)cc1
REMARK SMILES IDX 5 1 4 2 3 3 1 4 2 5 31 7 32 8 93 9 33 10 92 11 34 12 35 13
REMARK SMILES IDX 36 14 86 15 37 16 91 17 85 18 87 19 38 20 90 21 84 22 83 23
REMARK SMILES IDX 39 25 71 26 51 27 70 28 52 29 55 30 69 31 88 32 53 33 54 34
REMARK SMILES IDX 68 36 89 37 56 38 40 39 41 40 49 41 42 42 48 43 50 44 47 45
REMARK SMILES IDX 43 46 44 47 45 48 46 49 72 50 73 51 81 52 74 53 80 54 82 55
REMARK SMILES IDX 79 56 75 57 76 58 77 59 78 60 57 61 58 62 66 63 59 64 65 65
REMARK SMILES IDX 67 66 64 67 60 68 61 69 62 70 63 71 6 72 7 73 8 74 9 76
REMARK SMILES IDX 10 77 11 78 15 79 30 80 12 81 14 82 16 83 18 84 13 85 17 88
REMARK SMILES IDX 19 89 20 90 21 91 22 92 23 93 28 94 24 95 25 96 27 97 29 98
REMARK SMILES IDX 26 99
REMARK H PARENT 3 6 87 24 55 35 7 75 14 86 14 87
REMARK Flexibility Score: inf
ROOT
ATOM      1  C   UNL A   1      35.302  23.639  25.523  1.00  0.00     0.042 C 
ENDROOT
BRANCH   1   2
ATOM      2  C   UNL A   1      35.850  22.720  26.597  1.00  0.00     0.118 C 
BRANCH   2   3
ATOM      3  N   UNL A   1      36.681  21.645  26.052  1.00  0.00    -0.352 N 
ATOM      4  O   UNL A   1      38.570  20.682  25.247  1.00  0.00    -0.269 OA
ATOM      5  C   UNL A   1      38.036  21.622  25.830  1.00  0.00     0.251 C 
ATOM      6  H   UNL A   1      36.199  20.821  25.810  1.00  0.00     0.163 HD
BRANCH   5   7
ATOM      7  C   UNL A   1      38.841  22.760  26.296  1.00  0.00     0.039 A 
ATOM      8  C   UNL A   1      38.582  24.021  25.764  1.00  0.00     0.014 A 
ATOM      9  C   UNL A   1      39.869  22.571  27.223  1.00  0.00     0.014 A 
ATOM     10  C   UNL A   1      39.468  25.052  26.001  1.00  0.00     0.010 A 
ATOM     11  C   UNL A   1      40.671  23.656  27.581  1.00  0.00     0.010 A 
ATOM     12  C   UNL A   1      40.484  24.899  26.956  1.00  0.00    -0.014 A 
BRANCH  12  13
ATOM     13  C   UNL A   1      41.223  26.114  27.367  1.00  0.00     0.031 A 
ATOM     14  C   UNL A   1      42.597  26.410  26.853  1.00  0.00     0.074 A 
ATOM     15  C   UNL A   1      40.577  26.972  28.182  1.00  0.00     0.049 A 
ATOM     16  N   UNL A   1      43.350  27.453  27.088  1.00  0.00    -0.248 NA
ATOM     17  C   UNL A   1      43.214  25.405  25.978  1.00  0.00     0.031 C 
ATOM     18  C   UNL A   1      39.238  26.745  28.740  1.00  0.00     0.029 A 
ATOM     19  N   UNL A   1      40.924  28.206  28.656  1.00  0.00    -0.354 N 
ATOM     20  C   UNL A   1      44.542  27.224  26.409  1.00  0.00     0.074 A 
ATOM     21  C   UNL A   1      44.417  25.926  25.777  1.00  0.00     0.031 C 
ATOM     22  C   UNL A   1      38.849  27.832  29.414  1.00  0.00     0.029 A 
ATOM     23  C   UNL A   1      39.946  28.787  29.428  1.00  0.00     0.049 A 
ATOM     24  H   UNL A   1      41.787  28.637  28.462  1.00  0.00     0.167 HD
ATOM     25  C   UNL A   1      45.629  28.032  26.330  1.00  0.00     0.034 A 
ATOM     26  C   UNL A   1      39.943  29.948  30.108  1.00  0.00     0.034 A 
ATOM     27  C   UNL A   1      45.707  29.320  26.983  1.00  0.00     0.049 A 
ATOM     28  C   UNL A   1      41.167  30.811  30.020  1.00  0.00     0.074 A 
ATOM     29  C   UNL A   1      46.739  30.242  26.956  1.00  0.00     0.029 A 
ATOM     30  N   UNL A   1      44.716  29.863  27.796  1.00  0.00    -0.354 N 
ATOM     31  N   UNL A   1      42.280  30.591  29.358  1.00  0.00    -0.248 NA
ATOM     32  C   UNL A   1      41.139  32.071  30.766  1.00  0.00     0.031 C 
ATOM     33  C   UNL A   1      46.405  31.302  27.807  1.00  0.00     0.029 A 
ATOM     34  C   UNL A   1      45.129  31.086  28.306  1.00  0.00     0.049 A 
ATOM     35  H   UNL A   1      43.847  29.440  27.984  1.00  0.00     0.167 HD
ATOM     36  C   UNL A   1      43.087  31.693  29.602  1.00  0.00     0.074 A 
ATOM     37  C   UNL A   1      42.317  32.586  30.450  1.00  0.00     0.031 C 
ATOM     38  C   UNL A   1      44.350  31.945  29.172  1.00  0.00     0.034 A 
BRANCH  25  39
ATOM     39  C   UNL A   1      46.829  27.513  25.570  1.00  0.00     0.023 A 
ATOM     40  C   UNL A   1      47.131  27.944  24.265  1.00  0.00     0.031 A 
ATOM     41  C   UNL A   1      47.664  26.537  26.144  1.00  0.00     0.131 A 
ATOM     42  C   UNL A   1      48.183  27.345  23.553  1.00  0.00     0.055 A 
ATOM     43  C   UNL A   1      48.759  26.003  25.460  1.00  0.00     0.041 A 
ATOM     44  F   UNL A   1      47.419  26.068  27.378  1.00  0.00    -0.206 F 
ATOM     45  C   UNL A   1      49.013  26.395  24.150  1.00  0.00     0.022 A 
BRANCH  42  46
ATOM     46  S   UNL A   1      48.349  27.707  21.782  1.00  0.00     0.124 S 
ATOM     47  O   UNL A   1      47.029  28.245  21.467  1.00  0.00    -0.237 OA
ATOM     48  O   UNL A   1      49.453  28.660  21.759  1.00  0.00    -0.237 OA
ATOM     49  O   UNL A   1      48.640  26.401  21.192  1.00  0.00    -0.744 OA
ENDBRANCH  42  46
ENDBRANCH  25  39
BRANCH  26  50
ATOM     50  C   UNL A   1      38.772  30.307  30.955  1.00  0.00     0.023 A 
ATOM     51  C   UNL A   1      37.708  31.067  30.453  1.00  0.00     0.031 A 
ATOM     52  C   UNL A   1      38.696  29.864  32.291  1.00  0.00     0.131 A 
ATOM     53  C   UNL A   1      36.623  31.384  31.287  1.00  0.00     0.055 A 
ATOM     54  C   UNL A   1      37.591  30.133  33.097  1.00  0.00     0.041 A 
ATOM     55  F   UNL A   1      39.684  29.124  32.819  1.00  0.00    -0.206 F 
ATOM     56  C   UNL A   1      36.549  30.907  32.598  1.00  0.00     0.022 A 
BRANCH  53  57
ATOM     57  S   UNL A   1      35.331  32.487  30.654  1.00  0.00     0.124 S 
ATOM     58  O   UNL A   1      34.302  32.360  31.681  1.00  0.00    -0.237 OA
ATOM     59  O   UNL A   1      36.026  33.768  30.598  1.00  0.00    -0.237 OA
ATOM     60  O   UNL A   1      34.993  31.906  29.357  1.00  0.00    -0.744 OA
ENDBRANCH  53  57
ENDBRANCH  26  50
BRANCH  38  61
ATOM     61  C   UNL A   1      44.953  33.257  29.603  1.00  0.00     0.023 A 
ATOM     62  C   UNL A   1      44.805  34.424  28.832  1.00  0.00     0.031 A 
ATOM     63  C   UNL A   1      45.708  33.332  30.787  1.00  0.00     0.131 A 
ATOM     64  C   UNL A   1      45.452  35.603  29.224  1.00  0.00     0.055 A 
ATOM     65  C   UNL A   1      46.296  34.526  31.205  1.00  0.00     0.041 A 
ATOM     66  F   UNL A   1      45.886  32.246  31.554  1.00  0.00    -0.206 F 
ATOM     67  C   UNL A   1      46.180  35.667  30.416  1.00  0.00     0.022 A 
BRANCH  64  68
ATOM     68  S   UNL A   1      45.409  37.031  28.107  1.00  0.00     0.124 S 
ATOM     69  O   UNL A   1      46.808  37.140  27.704  1.00  0.00    -0.237 OA
ATOM     70  O   UNL A   1      44.480  36.592  27.072  1.00  0.00    -0.237 OA
ATOM     71  O   UNL A   1      44.922  38.117  28.957  1.00  0.00    -0.744 OA
ENDBRANCH  64  68
ENDBRANCH  38  61
ENDBRANCH  12  13
ENDBRANCH   5   7
ENDBRANCH   2   3
ENDBRANCH   1   2
BRANCH   1  72
ATOM     72  C   UNL A   1      34.787  24.923  26.119  1.00  0.00     0.117 C 
BRANCH  72  73
ATOM     73  N   UNL A   1      33.930  25.667  25.230  1.00  0.00    -0.355 N 
ATOM     74  C   UNL A   1      33.143  26.672  25.717  1.00  0.00     0.234 C 
ATOM     75  H   UNL A   1      33.911  25.450  24.270  1.00  0.00     0.163 HD
ATOM     76  O   UNL A   1      32.451  26.521  26.721  1.00  0.00    -0.274 OA
BRANCH  74  77
ATOM     77  C   UNL A   1      33.410  28.053  25.096  1.00  0.00     0.118 C 
ATOM     78  C   UNL A   1      34.545  28.715  25.916  1.00  0.00     0.031 C 
ATOM     79  C   UNL A   1      32.248  29.079  25.101  1.00  0.00     0.201 C 
ATOM     80  C   UNL A   1      33.868  27.718  23.646  1.00  0.00     0.142 C 
ATOM     81  C   UNL A   1      34.060  29.087  27.327  1.00  0.00     0.063 C 
ATOM     82  N   UNL A   1      31.692  29.233  26.451  1.00  0.00    -0.343 N 
ATOM     83  C   UNL A   1      31.165  28.859  24.035  1.00  0.00     0.087 C 
ATOM     84  N   UNL A   1      32.747  27.584  22.683  1.00  0.00    -0.341 N 
ATOM     85  C   UNL A   1      32.704  29.806  27.354  1.00  0.00     0.260 C 
ATOM     86  H   UNL A   1      30.883  29.853  26.415  1.00  0.00     0.346 HD
ATOM     87  H   UNL A   1      31.411  28.318  26.803  1.00  0.00     0.346 HD
ATOM     88  C   UNL A   1      31.834  28.711  22.675  1.00  0.00     0.125 C 
BRANCH  84  89
ATOM     89  C   UNL A   1      32.677  26.476  21.839  1.00  0.00     0.227 C 
ATOM     90  O   UNL A   1      33.573  26.251  21.019  1.00  0.00    -0.275 OA
BRANCH  89  91
ATOM     91  C   UNL A   1      31.471  25.528  21.890  1.00  0.00     0.140 C 
BRANCH  91  92
ATOM     92  C   UNL A   1      31.509  24.490  22.994  1.00  0.00     0.016 A 
ATOM     93  C   UNL A   1      32.310  23.349  22.817  1.00  0.00     0.128 A 
ATOM     94  C   UNL A   1      30.770  24.565  24.187  1.00  0.00     0.047 A 
ATOM     95  F   UNL A   1      32.982  23.180  21.671  1.00  0.00    -0.207 F 
ATOM     96  C   UNL A   1      32.410  22.349  23.785  1.00  0.00     0.039 A 
ATOM     97  C   UNL A   1      30.886  23.575  25.174  1.00  0.00     0.021 A 
ATOM     98  Cl  UNL A   1      29.614  25.806  24.506  1.00  0.00    -0.084 Cl
ATOM     99  C   UNL A   1      31.703  22.468  24.973  1.00  0.00     0.005 A 
ENDBRANCH  91  92
ENDBRANCH  89  91
ENDBRANCH  84  89
ENDBRANCH  74  77
ENDBRANCH  72  73
ENDBRANCH   1  72
TORSDOF 16
ENDMDL
MODEL 2
REMARK VINA RESULT:     -11.8      1.942      3.100
REMARK SMILES O=C(NCCCNC(=O)[C@]12CCC[NH2+][C@@H]1CCN(C(=O)Cc1c(F)cccc1Cl)C2)c1ccc(-c2c3nc(c(-c4cc(S(=O)(=O)[O-])ccc4F)c4ccc([nH]4)c(-c4cc(S(=O)(=O)[O-])ccc4F)c4nc(c(-c5cc(S(=O)(=O)[O-])ccc5F)c5ccc2[nH]5)C=C4)C=C3)cc1
REMARK SMILES IDX 5 1 4 2 3 3 1 4 2 5 31 7 32 8 93 9 33 10 92 11 34 12 35 13
REMARK SMILES IDX 36 14 86 15 37 16 91 17 85 18 87 19 38 20 90 21 84 22 83 23
REMARK SMILES IDX 39 25 71 26 51 27 70 28 52 29 55 30 69 31 88 32 53 33 54 34
REMARK SMILES IDX 68 36 89 37 56 38 40 39 41 40 49 41 42 42 48 43 50 44 47 45
REMARK SMILES IDX 43 46 44 47 45 48 46 49 72 50 73 51 81 52 74 53 80 54 82 55
REMARK SMILES IDX 79 56 75 57 76 58 77 59 78 60 57 61 58 62 66 63 59 64 65 65
REMARK SMILES IDX 67 66 64 67 60 68 61 69 62 70 63 71 6 72 7 73 8 74 9 76
REMARK SMILES IDX 10 77 11 78 15 79 30 80 12 81 14 82 16 83 18 84 13 85 17 88
REMARK SMILES IDX 19 89 20 90 21 91 22 92 23 93 28 94 24 95 25 96 27 97 29 98
REMARK SMILES IDX 26 99
REMARK H PARENT 3 6 87 24 55 35 7 75 14 86 14 87
REMARK Flexibility Score: inf
ROOT
ATOM      1  C   UNL A   1      36.268  22.985  23.547  1.00  0.00     0.042 C 
ENDROOT
BRANCH   1   2
ATOM      2  C   UNL A   1      36.441  22.691  25.024  1.00  0.00     0.118 C 
BRANCH   2   3
ATOM      3  N   UNL A   1      37.131  21.424  25.272  1.00  0.00    -0.352 N 
ATOM      4  O   UNL A   1      38.878  20.077  25.800  1.00  0.00    -0.269 OA
ATOM      5  C   UNL A   1      38.394  21.205  25.768  1.00  0.00     0.251 C 
ATOM      6  H   UNL A   1      36.617  20.613  25.051  1.00  0.00     0.163 HD
BRANCH   5   7
ATOM      7  C   UNL A   1      39.166  22.359  26.252  1.00  0.00     0.039 A 
ATOM      8  C   UNL A   1      38.823  23.629  25.792  1.00  0.00     0.014 A 
ATOM      9  C   UNL A   1      40.243  22.178  27.122  1.00  0.00     0.014 A 
ATOM     10  C   UNL A   1      39.670  24.690  26.038  1.00  0.00     0.010 A 
ATOM     11  C   UNL A   1      41.010  23.284  27.495  1.00  0.00     0.010 A 
ATOM     12  C   UNL A   1      40.736  24.543  26.938  1.00  0.00    -0.014 A 
BRANCH  12  13
ATOM     13  C   UNL A   1      41.436  25.773  27.373  1.00  0.00     0.031 A 
ATOM     14  C   UNL A   1      42.847  26.059  26.967  1.00  0.00     0.074 A 
ATOM     15  C   UNL A   1      40.723  26.652  28.105  1.00  0.00     0.049 A 
ATOM     16  N   UNL A   1      43.576  27.112  27.233  1.00  0.00    -0.248 NA
ATOM     17  C   UNL A   1      43.537  25.031  26.177  1.00  0.00     0.031 C 
ATOM     18  C   UNL A   1      39.341  26.436  28.556  1.00  0.00     0.029 A 
ATOM     19  N   UNL A   1      41.026  27.901  28.569  1.00  0.00    -0.354 N 
ATOM     20  C   UNL A   1      44.821  26.868  26.664  1.00  0.00     0.074 A 
ATOM     21  C   UNL A   1      44.752  25.551  26.063  1.00  0.00     0.031 C 
ATOM     22  C   UNL A   1      38.896  27.541  29.162  1.00  0.00     0.029 A 
ATOM     23  C   UNL A   1      39.986  28.501  29.239  1.00  0.00     0.049 A 
ATOM     24  H   UNL A   1      41.902  28.330  28.436  1.00  0.00     0.167 HD
ATOM     25  C   UNL A   1      45.910  27.678  26.651  1.00  0.00     0.034 A 
ATOM     26  C   UNL A   1      39.925  29.681  29.881  1.00  0.00     0.034 A 
ATOM     27  C   UNL A   1      45.931  28.985  27.270  1.00  0.00     0.049 A 
ATOM     28  C   UNL A   1      41.149  30.546  29.871  1.00  0.00     0.074 A 
ATOM     29  C   UNL A   1      46.959  29.910  27.301  1.00  0.00     0.029 A 
ATOM     30  N   UNL A   1      44.874  29.548  27.980  1.00  0.00    -0.354 N 
ATOM     31  N   UNL A   1      42.314  30.312  29.310  1.00  0.00    -0.248 NA
ATOM     32  C   UNL A   1      41.057  31.828  30.573  1.00  0.00     0.031 C 
ATOM     33  C   UNL A   1      46.554  30.993  28.090  1.00  0.00     0.029 A 
ATOM     34  C   UNL A   1      45.241  30.788  28.486  1.00  0.00     0.049 A 
ATOM     35  H   UNL A   1      43.993  29.127  28.107  1.00  0.00     0.167 HD
ATOM     36  C   UNL A   1      43.096  31.424  29.588  1.00  0.00     0.074 A 
ATOM     37  C   UNL A   1      42.257  32.338  30.341  1.00  0.00     0.031 C 
ATOM     38  C   UNL A   1      44.391  31.668  29.257  1.00  0.00     0.034 A 
BRANCH  25  39
ATOM     39  C   UNL A   1      47.170  27.142  26.010  1.00  0.00     0.023 A 
ATOM     40  C   UNL A   1      48.127  26.410  26.736  1.00  0.00     0.031 A 
ATOM     41  C   UNL A   1      47.441  27.403  24.653  1.00  0.00     0.131 A 
ATOM     42  C   UNL A   1      49.337  26.038  26.128  1.00  0.00     0.055 A 
ATOM     43  C   UNL A   1      48.611  26.960  24.033  1.00  0.00     0.041 A 
ATOM     44  F   UNL A   1      46.578  28.114  23.909  1.00  0.00    -0.206 F 
ATOM     45  C   UNL A   1      49.576  26.288  24.776  1.00  0.00     0.022 A 
BRANCH  42  46
ATOM     46  S   UNL A   1      50.663  25.370  27.172  1.00  0.00     0.124 S 
ATOM     47  O   UNL A   1      51.646  24.960  26.173  1.00  0.00    -0.237 OA
ATOM     48  O   UNL A   1      51.025  26.519  27.994  1.00  0.00    -0.237 OA
ATOM     49  O   UNL A   1      50.015  24.271  27.886  1.00  0.00    -0.744 OA
ENDBRANCH  42  46
ENDBRANCH  25  39
BRANCH  26  50
ATOM     50  C   UNL A   1      38.686  30.060  30.617  1.00  0.00     0.023 A 
ATOM     51  C   UNL A   1      37.693  30.852  30.024  1.00  0.00     0.031 A 
ATOM     52  C   UNL A   1      38.471  29.606  31.933  1.00  0.00     0.131 A 
ATOM     53  C   UNL A   1      36.541  31.187  30.754  1.00  0.00     0.055 A 
ATOM     54  C   UNL A   1      37.299  29.894  32.633  1.00  0.00     0.041 A 
ATOM     55  F   UNL A   1      39.385  28.836  32.545  1.00  0.00    -0.206 F 
ATOM     56  C   UNL A   1      36.329  30.698  32.046  1.00  0.00     0.022 A 
BRANCH  53  57
ATOM     57  S   UNL A   1      35.342  32.328  30.014  1.00  0.00     0.124 S 
ATOM     58  O   UNL A   1      34.862  31.556  28.872  1.00  0.00    -0.237 OA
ATOM     59  O   UNL A   1      34.393  32.519  31.104  1.00  0.00    -0.237 OA
ATOM     60  O   UNL A   1      36.149  33.499  29.680  1.00  0.00    -0.744 OA
ENDBRANCH  53  57
ENDBRANCH  26  50
BRANCH  38  61
ATOM     61  C   UNL A   1      44.954  32.995  29.698  1.00  0.00     0.023 A 
ATOM     62  C   UNL A   1      44.859  34.140  28.888  1.00  0.00     0.031 A 
ATOM     63  C   UNL A   1      45.616  33.106  30.933  1.00  0.00     0.131 A 
ATOM     64  C   UNL A   1      45.469  35.333  29.296  1.00  0.00     0.055 A 
ATOM     65  C   UNL A   1      46.165  34.314  31.363  1.00  0.00     0.041 A 
ATOM     66  F   UNL A   1      45.740  32.041  31.740  1.00  0.00    -0.206 F 
ATOM     67  C   UNL A   1      46.104  35.433  30.537  1.00  0.00     0.022 A 
BRANCH  64  68
ATOM     68  S   UNL A   1      45.505  36.731  28.141  1.00  0.00     0.124 S 
ATOM     69  O   UNL A   1      45.328  37.869  29.039  1.00  0.00    -0.237 OA
ATOM     70  O   UNL A   1      46.823  36.600  27.530  1.00  0.00    -0.237 OA
ATOM     71  O   UNL A   1      44.378  36.466  27.248  1.00  0.00    -0.744 OA
ENDBRANCH  64  68
ENDBRANCH  38  61
ENDBRANCH  12  13
ENDBRANCH   5   7
ENDBRANCH   2   3
ENDBRANCH   1   2
BRANCH   1  72
ATOM     72  C   UNL A   1      34.849  23.386  23.236  1.00  0.00     0.117 C 
BRANCH  72  73
ATOM     73  N   UNL A   1      34.384  24.506  24.015  1.00  0.00    -0.355 N 
ATOM     74  C   UNL A   1      33.056  24.638  24.302  1.00  0.00     0.234 C 
ATOM     75  H   UNL A   1      35.026  25.178  24.341  1.00  0.00     0.163 HD
ATOM     76  O   UNL A   1      32.192  24.514  23.436  1.00  0.00    -0.274 OA
BRANCH  74  77
ATOM     77  C   UNL A   1      32.723  24.662  25.803  1.00  0.00     0.118 C 
ATOM     78  C   UNL A   1      33.119  23.281  26.385  1.00  0.00     0.031 C 
ATOM     79  C   UNL A   1      31.242  24.868  26.208  1.00  0.00     0.201 C 
ATOM     80  C   UNL A   1      33.629  25.800  26.358  1.00  0.00     0.142 C 
ATOM     81  C   UNL A   1      32.182  22.176  25.867  1.00  0.00     0.063 C 
ATOM     82  N   UNL A   1      30.371  23.908  25.515  1.00  0.00    -0.343 N 
ATOM     83  C   UNL A   1      30.724  26.310  26.117  1.00  0.00     0.087 C 
ATOM     84  N   UNL A   1      33.011  27.147  26.277  1.00  0.00    -0.341 N 
ATOM     85  C   UNL A   1      30.691  22.536  25.941  1.00  0.00     0.260 C 
ATOM     86  H   UNL A   1      29.398  24.113  25.738  1.00  0.00     0.346 HD
ATOM     87  H   UNL A   1      30.520  23.988  24.509  1.00  0.00     0.346 HD
ATOM     88  C   UNL A   1      31.686  27.227  26.859  1.00  0.00     0.125 C 
BRANCH  84  89
ATOM     89  C   UNL A   1      33.728  28.214  25.735  1.00  0.00     0.227 C 
ATOM     90  O   UNL A   1      34.492  28.881  26.438  1.00  0.00    -0.275 OA
BRANCH  89  91
ATOM     91  C   UNL A   1      33.559  28.600  24.258  1.00  0.00     0.140 C 
BRANCH  91  92
ATOM     92  C   UNL A   1      32.126  28.691  23.772  1.00  0.00     0.016 A 
ATOM     93  C   UNL A   1      31.734  27.894  22.683  1.00  0.00     0.128 A 
ATOM     94  C   UNL A   1      31.152  29.546  24.313  1.00  0.00     0.047 A 
ATOM     95  F   UNL A   1      32.635  27.111  22.074  1.00  0.00    -0.207 F 
ATOM     96  C   UNL A   1      30.434  27.908  22.176  1.00  0.00     0.039 A 
ATOM     97  C   UNL A   1      29.837  29.546  23.825  1.00  0.00     0.021 A 
ATOM     98  Cl  UNL A   1      31.491  30.709  25.542  1.00  0.00    -0.084 Cl
ATOM     99  C   UNL A   1      29.479  28.730  22.757  1.00  0.00     0.005 A 
ENDBRANCH  91  92
ENDBRANCH  89  91
ENDBRANCH  84  89
ENDBRANCH  74  77
ENDBRANCH  72  73
ENDBRANCH   1  72
TORSDOF 16
ENDMDL
MODEL 3
REMARK VINA RESULT:     -11.8      2.056      2.634
REMARK SMILES O=C(NCCCNC(=O)[C@]12CCC[NH2+][C@@H]1CCN(C(=O)Cc1c(F)cccc1Cl)C2)c1ccc(-c2c3nc(c(-c4cc(S(=O)(=O)[O-])ccc4F)c4ccc([nH]4)c(-c4cc(S(=O)(=O)[O-])ccc4F)c4nc(c(-c5cc(S(=O)(=O)[O-])ccc5F)c5ccc2[nH]5)C=C4)C=C3)cc1
REMARK SMILES IDX 5 1 4 2 3 3 1 4 2 5 31 7 32 8 93 9 33 10 92 11 34 12 35 13
REMARK SMILES IDX 36 14 86 15 37 16 91 17 85 18 87 19 38 20 90 21 84 22 83 23
REMARK SMILES IDX 39 25 71 26 51 27 70 28 52 29 55 30 69 31 88 32 53 33 54 34
REMARK SMILES IDX 68 36 89 37 56 38 40 39 41 40 49 41 42 42 48 43 50 44 47 45
REMARK SMILES IDX 43 46 44 47 45 48 46 49 72 50 73 51 81 52 74 53 80 54 82 55
REMARK SMILES IDX 79 56 75 57 76 58 77 59 78 60 57 61 58 62 66 63 59 64 65 65
REMARK SMILES IDX 67 66 64 67 60 68 61 69 62 70 63 71 6 72 7 73 8 74 9 76
REMARK SMILES IDX 10 77 11 78 15 79 30 80 12 81 14 82 16 83 18 84 13 85 17 88
REMARK SMILES IDX 19 89 20 90 21 91 22 92 23 93 28 94 24 95 25 96 27 97 29 98
REMARK SMILES IDX 26 99
REMARK H PARENT 3 6 87 24 55 35 7 75 14 86 14 87
REMARK Flexibility Score: inf
ROOT
ATOM      1  C   UNL A   1      35.235  23.608  25.806  1.00  0.00     0.042 C 
ENDROOT
BRANCH   1   2
ATOM      2  C   UNL A   1      36.696  23.920  25.542  1.00  0.00     0.118 C 
BRANCH   2   3
ATOM      3  N   UNL A   1      37.579  22.794  25.852  1.00  0.00    -0.352 N 
ATOM      4  O   UNL A   1      39.507  21.776  26.476  1.00  0.00    -0.269 OA
ATOM      5  C   UNL A   1      38.842  22.804  26.392  1.00  0.00     0.251 C 
ATOM      6  H   UNL A   1      37.215  21.903  25.644  1.00  0.00     0.163 HD
BRANCH   5   7
ATOM      7  C   UNL A   1      39.394  24.085  26.858  1.00  0.00     0.039 A 
ATOM      8  C   UNL A   1      39.254  24.419  28.203  1.00  0.00     0.014 A 
ATOM      9  C   UNL A   1      40.008  24.962  25.961  1.00  0.00     0.014 A 
ATOM     10  C   UNL A   1      39.545  25.704  28.616  1.00  0.00     0.010 A 
ATOM     11  C   UNL A   1      40.445  26.207  26.418  1.00  0.00     0.010 A 
ATOM     12  C   UNL A   1      40.198  26.590  27.746  1.00  0.00    -0.014 A 
BRANCH  12  13
ATOM     13  C   UNL A   1      40.729  27.845  28.323  1.00  0.00     0.031 A 
ATOM     14  C   UNL A   1      42.199  28.116  28.399  1.00  0.00     0.074 A 
ATOM     15  C   UNL A   1      39.824  28.760  28.725  1.00  0.00     0.049 A 
ATOM     16  N   UNL A   1      42.811  29.185  28.836  1.00  0.00    -0.248 NA
ATOM     17  C   UNL A   1      43.099  27.048  27.943  1.00  0.00     0.031 C 
ATOM     18  C   UNL A   1      38.369  28.563  28.697  1.00  0.00     0.029 A 
ATOM     19  N   UNL A   1      39.972  30.035  29.194  1.00  0.00    -0.354 N 
ATOM     20  C   UNL A   1      44.171  28.916  28.732  1.00  0.00     0.074 A 
ATOM     21  C   UNL A   1      44.289  27.567  28.215  1.00  0.00     0.031 C 
ATOM     22  C   UNL A   1      37.762  29.698  29.058  1.00  0.00     0.029 A 
ATOM     23  C   UNL A   1      38.776  30.666  29.443  1.00  0.00     0.049 A 
ATOM     24  H   UNL A   1      40.848  30.460  29.339  1.00  0.00     0.167 HD
ATOM     25  C   UNL A   1      45.212  29.729  29.041  1.00  0.00     0.034 A 
ATOM     26  C   UNL A   1      38.520  31.881  29.962  1.00  0.00     0.034 A 
ATOM     27  C   UNL A   1      45.043  31.069  29.559  1.00  0.00     0.049 A 
ATOM     28  C   UNL A   1      39.689  32.750  30.316  1.00  0.00     0.074 A 
ATOM     29  C   UNL A   1      46.015  31.999  29.882  1.00  0.00     0.029 A 
ATOM     30  N   UNL A   1      43.818  31.666  29.841  1.00  0.00    -0.354 N 
ATOM     31  N   UNL A   1      40.972  32.490  30.192  1.00  0.00    -0.248 NA
ATOM     32  C   UNL A   1      39.385  34.068  30.875  1.00  0.00     0.031 C 
ATOM     33  C   UNL A   1      45.384  33.123  30.429  1.00  0.00     0.029 A 
ATOM     34  C   UNL A   1      44.011  32.933  30.373  1.00  0.00     0.049 A 
ATOM     35  H   UNL A   1      42.939  31.248  29.688  1.00  0.00     0.167 HD
ATOM     36  C   UNL A   1      41.631  33.620  30.655  1.00  0.00     0.074 A 
ATOM     37  C   UNL A   1      40.601  34.571  31.032  1.00  0.00     0.031 C 
ATOM     38  C   UNL A   1      42.965  33.852  30.765  1.00  0.00     0.034 A 
BRANCH  25  39
ATOM     39  C   UNL A   1      46.607  29.164  28.889  1.00  0.00     0.023 A 
ATOM     40  C   UNL A   1      47.250  29.083  27.640  1.00  0.00     0.031 A 
ATOM     41  C   UNL A   1      47.292  28.657  30.009  1.00  0.00     0.131 A 
ATOM     42  C   UNL A   1      48.494  28.440  27.531  1.00  0.00     0.055 A 
ATOM     43  C   UNL A   1      48.565  28.092  29.906  1.00  0.00     0.041 A 
ATOM     44  F   UNL A   1      46.726  28.685  31.227  1.00  0.00    -0.206 F 
ATOM     45  C   UNL A   1      49.166  27.965  28.658  1.00  0.00     0.022 A 
BRANCH  42  46
ATOM     46  S   UNL A   1      49.145  28.087  25.874  1.00  0.00     0.124 S 
ATOM     47  O   UNL A   1      47.980  28.359  25.036  1.00  0.00    -0.237 OA
ATOM     48  O   UNL A   1      50.250  29.033  25.763  1.00  0.00    -0.237 OA
ATOM     49  O   UNL A   1      49.533  26.680  25.951  1.00  0.00    -0.744 OA
ENDBRANCH  42  46
ENDBRANCH  25  39
BRANCH  26  50
ATOM     50  C   UNL A   1      37.112  32.294  30.217  1.00  0.00     0.023 A 
ATOM     51  C   UNL A   1      36.345  32.936  29.236  1.00  0.00     0.031 A 
ATOM     52  C   UNL A   1      36.503  32.025  31.460  1.00  0.00     0.131 A 
ATOM     53  C   UNL A   1      35.022  33.310  29.519  1.00  0.00     0.055 A 
ATOM     54  C   UNL A   1      35.171  32.347  31.716  1.00  0.00     0.041 A 
ATOM     55  F   UNL A   1      37.190  31.403  32.432  1.00  0.00    -0.206 F 
ATOM     56  C   UNL A   1      34.425  33.003  30.745  1.00  0.00     0.022 A 
BRANCH  53  57
ATOM     57  S   UNL A   1      34.102  34.264  28.282  1.00  0.00     0.124 S 
ATOM     58  O   UNL A   1      33.659  35.415  29.063  1.00  0.00    -0.237 OA
ATOM     59  O   UNL A   1      35.128  34.527  27.279  1.00  0.00    -0.237 OA
ATOM     60  O   UNL A   1      33.044  33.349  27.864  1.00  0.00    -0.744 OA
ENDBRANCH  53  57
ENDBRANCH  26  50
BRANCH  38  61
ATOM     61  C   UNL A   1      43.366  35.204  31.296  1.00  0.00     0.023 A 
ATOM     62  C   UNL A   1      43.587  36.295  30.438  1.00  0.00     0.031 A 
ATOM     63  C   UNL A   1      43.555  35.393  32.676  1.00  0.00     0.131 A 
ATOM     64  C   UNL A   1      44.040  37.512  30.963  1.00  0.00     0.055 A 
ATOM     65  C   UNL A   1      43.945  36.626  33.199  1.00  0.00     0.041 A 
ATOM     66  F   UNL A   1      43.365  34.381  33.537  1.00  0.00    -0.206 F 
ATOM     67  C   UNL A   1      44.202  37.691  32.340  1.00  0.00     0.022 A 
BRANCH  64  68
ATOM     68  S   UNL A   1      44.509  38.835  29.814  1.00  0.00     0.124 S 
ATOM     69  O   UNL A   1      45.946  38.940  30.045  1.00  0.00    -0.237 OA
ATOM     70  O   UNL A   1      44.109  38.285  28.523  1.00  0.00    -0.237 OA
ATOM     71  O   UNL A   1      43.723  39.980  30.270  1.00  0.00    -0.744 OA
ENDBRANCH  64  68
ENDBRANCH  38  61
ENDBRANCH  12  13
ENDBRANCH   5   7
ENDBRANCH   2   3
ENDBRANCH   1   2
BRANCH   1  72
ATOM     72  C   UNL A   1      34.521  24.804  26.382  1.00  0.00     0.117 C 
BRANCH  72  73
ATOM     73  N   UNL A   1      33.803  25.574  25.397  1.00  0.00    -0.355 N 
ATOM     74  C   UNL A   1      33.017  26.621  25.786  1.00  0.00     0.234 C 
ATOM     75  H   UNL A   1      33.879  25.345  24.443  1.00  0.00     0.163 HD
ATOM     76  O   UNL A   1      32.213  26.517  26.709  1.00  0.00    -0.274 OA
BRANCH  74  77
ATOM     77  C   UNL A   1      33.415  27.979  25.185  1.00  0.00     0.118 C 
ATOM     78  C   UNL A   1      34.557  28.553  26.062  1.00  0.00     0.031 C 
ATOM     79  C   UNL A   1      32.335  29.090  25.142  1.00  0.00     0.201 C 
ATOM     80  C   UNL A   1      33.915  27.613  23.757  1.00  0.00     0.142 C 
ATOM     81  C   UNL A   1      34.036  28.957  27.451  1.00  0.00     0.063 C 
ATOM     82  N   UNL A   1      31.729  29.283  26.466  1.00  0.00    -0.343 N 
ATOM     83  C   UNL A   1      31.290  28.954  24.026  1.00  0.00     0.087 C 
ATOM     84  N   UNL A   1      32.834  27.567  22.742  1.00  0.00    -0.341 N 
ATOM     85  C   UNL A   1      32.738  29.776  27.418  1.00  0.00     0.260 C 
ATOM     86  H   UNL A   1      30.971  29.962  26.395  1.00  0.00     0.346 HD
ATOM     87  H   UNL A   1      31.363  28.390  26.799  1.00  0.00     0.346 HD
ATOM     88  C   UNL A   1      32.009  28.759  22.698  1.00  0.00     0.125 C 
BRANCH  84  89
ATOM     89  C   UNL A   1      32.721  26.468  21.889  1.00  0.00     0.227 C 
ATOM     90  O   UNL A   1      33.604  26.219  21.063  1.00  0.00    -0.275 OA
BRANCH  89  91
ATOM     91  C   UNL A   1      31.482  25.563  21.939  1.00  0.00     0.140 C 
BRANCH  91  92
ATOM     92  C   UNL A   1      31.488  24.517  23.036  1.00  0.00     0.016 A 
ATOM     93  C   UNL A   1      32.278  23.368  22.866  1.00  0.00     0.128 A 
ATOM     94  C   UNL A   1      30.728  24.593  24.216  1.00  0.00     0.047 A 
ATOM     95  F   UNL A   1      32.969  23.198  21.730  1.00  0.00    -0.207 F 
ATOM     96  C   UNL A   1      32.349  22.359  23.828  1.00  0.00     0.039 A 
ATOM     97  C   UNL A   1      30.815  23.595  25.198  1.00  0.00     0.021 A 
ATOM     98  Cl  UNL A   1      29.582  25.845  24.524  1.00  0.00    -0.084 Cl
ATOM     99  C   UNL A   1      31.622  22.479  25.004  1.00  0.00     0.005 A 
ENDBRANCH  91  92
ENDBRANCH  89  91
ENDBRANCH  84  89
ENDBRANCH  74  77
ENDBRANCH  72  73
ENDBRANCH   1  72
TORSDOF 16
ENDMDL
