MODEL 1
REMARK VINA RESULT:     -11.2      0.000      0.000
REMARK SMILES CCc1c([N+](=O)[O-])cc(C(=O)NCCCNC(=O)c2ccc(-c3c4nc(c(-c5cc(S(=O)(=O)[O-])ccc5F)c5ccc([nH]5)c(-c5cc(S(=O)(=O)[O-])ccc5F)c5nc(c(-c6cc(S(=O)(=O)[O-])ccc6F)c6ccc3[nH]6)C=C5)C=C4)cc2)n1C
REMARK SMILES IDX 15 1 14 2 13 3 12 4 10 5 11 6 9 8 3 9 4 10 82 11 8 12 83 13
REMARK SMILES IDX 2 14 1 15 5 16 6 17 7 18 16 19 17 20 18 22 19 23 20 24 81 25
REMARK SMILES IDX 21 26 80 27 22 28 23 29 24 30 74 31 25 32 79 33 73 34 75 35
REMARK SMILES IDX 26 36 78 37 72 38 71 39 27 41 59 42 39 43 58 44 40 45 43 46
REMARK SMILES IDX 57 47 76 48 41 49 42 50 56 52 77 53 44 54 28 55 29 56 37 57
REMARK SMILES IDX 30 58 36 59 38 60 35 61 31 62 32 63 33 64 34 65 60 66 61 67
REMARK SMILES IDX 69 68 62 69 68 70 70 71 67 72 63 73 64 74 65 75 66 76 45 77
REMARK SMILES IDX 46 78 54 79 47 80 53 81 55 82 52 83 48 84 49 85 50 86 51 87
REMARK H PARENT 12 7 16 21 75 40 43 51
REMARK Flexibility Score: inf
ROOT
ATOM      1  C   UNL A   1      32.973  30.099  26.286  1.00  0.00     0.118 C 
ENDROOT
BRANCH   1   2
ATOM      2  C   UNL A   1      31.790  29.292  26.805  1.00  0.00     0.042 C 
BRANCH   2   3
ATOM      3  C   UNL A   1      32.121  27.898  27.321  1.00  0.00     0.118 C 
BRANCH   3   4
ATOM      4  N   UNL A   1      31.037  26.943  27.187  1.00  0.00    -0.351 N 
ATOM      5  C   UNL A   1      30.863  25.888  26.329  1.00  0.00     0.268 C 
ATOM      6  O   UNL A   1      29.795  25.282  26.400  1.00  0.00    -0.268 OA
ATOM      7  H   UNL A   1      30.297  27.075  27.822  1.00  0.00     0.163 HD
BRANCH   5   8
ATOM      8  C   UNL A   1      31.874  25.548  25.348  1.00  0.00     0.114 A 
ATOM      9  C   UNL A   1      33.771  24.795  24.348  1.00  0.00     0.096 A 
ATOM     10  C   UNL A   1      33.015  25.450  23.377  1.00  0.00     0.290 A 
ATOM     11  N   UNL A   1      32.935  24.664  25.451  1.00  0.00    -0.338 N 
ATOM     12  C   UNL A   1      31.852  25.943  24.018  1.00  0.00     0.119 A 
ATOM     13  C   UNL A   1      33.043  23.620  26.453  1.00  0.00     0.150 C 
BRANCH   9  14
ATOM     14  C   UNL A   1      35.167  24.236  24.258  1.00  0.00     0.058 C 
ATOM     15  C   UNL A   1      35.289  22.916  23.507  1.00  0.00     0.011 C 
ENDBRANCH   9  14
BRANCH  10  16
ATOM     16  N   UNL A   1      33.333  25.623  21.973  1.00  0.00     0.064 N 
ATOM     17  O   UNL A   1      33.864  26.685  21.626  1.00  0.00    -0.258 OA
ATOM     18  O   UNL A   1      33.088  24.668  21.225  1.00  0.00    -0.258 OA
ENDBRANCH  10  16
ENDBRANCH   5   8
ENDBRANCH   3   4
ENDBRANCH   2   3
ENDBRANCH   1   2
BRANCH   1  19
ATOM     19  N   UNL A   1      33.034  31.459  26.802  1.00  0.00    -0.352 N 
ATOM     20  C   UNL A   1      33.929  32.098  27.628  1.00  0.00     0.251 C 
ATOM     21  H   UNL A   1      32.292  32.031  26.502  1.00  0.00     0.163 HD
ATOM     22  O   UNL A   1      33.658  33.239  28.000  1.00  0.00    -0.269 OA
BRANCH  20  23
ATOM     23  C   UNL A   1      35.168  31.441  28.115  1.00  0.00     0.039 A 
ATOM     24  C   UNL A   1      36.343  32.199  28.188  1.00  0.00     0.014 A 
ATOM     25  C   UNL A   1      35.209  30.095  28.473  1.00  0.00     0.014 A 
ATOM     26  C   UNL A   1      37.515  31.635  28.704  1.00  0.00     0.010 A 
ATOM     27  C   UNL A   1      36.340  29.568  29.098  1.00  0.00     0.010 A 
ATOM     28  C   UNL A   1      37.510  30.329  29.219  1.00  0.00    -0.014 A 
BRANCH  28  29
ATOM     29  C   UNL A   1      38.713  29.745  29.877  1.00  0.00     0.031 A 
ATOM     30  C   UNL A   1      39.135  30.201  31.251  1.00  0.00     0.074 A 
ATOM     31  C   UNL A   1      39.476  28.856  29.207  1.00  0.00     0.049 A 
ATOM     32  N   UNL A   1      40.196  29.877  31.946  1.00  0.00    -0.248 NA
ATOM     33  C   UNL A   1      38.270  31.192  31.905  1.00  0.00     0.031 C 
ATOM     34  C   UNL A   1      39.223  28.378  27.846  1.00  0.00     0.029 A 
ATOM     35  N   UNL A   1      40.621  28.199  29.580  1.00  0.00    -0.354 N 
ATOM     36  C   UNL A   1      40.143  30.648  33.104  1.00  0.00     0.074 A 
ATOM     37  C   UNL A   1      38.986  31.509  32.973  1.00  0.00     0.031 C 
ATOM     38  C   UNL A   1      40.153  27.468  27.519  1.00  0.00     0.029 A 
ATOM     39  C   UNL A   1      41.094  27.331  28.625  1.00  0.00     0.049 A 
ATOM     40  H   UNL A   1      41.061  28.335  30.449  1.00  0.00     0.167 HD
ATOM     41  C   UNL A   1      40.959  30.621  34.189  1.00  0.00     0.034 A 
ATOM     42  C   UNL A   1      42.163  26.512  28.636  1.00  0.00     0.034 A 
ATOM     43  C   UNL A   1      42.092  29.736  34.320  1.00  0.00     0.049 A 
ATOM     44  C   UNL A   1      43.044  26.477  29.855  1.00  0.00     0.074 A 
ATOM     45  C   UNL A   1      42.946  29.573  35.398  1.00  0.00     0.029 A 
ATOM     46  N   UNL A   1      42.531  28.859  33.335  1.00  0.00    -0.354 N 
ATOM     47  N   UNL A   1      42.954  27.178  30.961  1.00  0.00    -0.248 NA
ATOM     48  C   UNL A   1      44.164  25.530  29.826  1.00  0.00     0.031 C 
ATOM     49  C   UNL A   1      43.930  28.641  35.046  1.00  0.00     0.029 A 
ATOM     50  C   UNL A   1      43.655  28.170  33.772  1.00  0.00     0.049 A 
ATOM     51  H   UNL A   1      42.106  28.742  32.456  1.00  0.00     0.167 HD
ATOM     52  C   UNL A   1      43.999  26.743  31.769  1.00  0.00     0.074 A 
ATOM     53  C   UNL A   1      44.690  25.704  31.030  1.00  0.00     0.031 C 
ATOM     54  C   UNL A   1      44.354  27.160  33.013  1.00  0.00     0.034 A 
BRANCH  41  55
ATOM     55  C   UNL A   1      40.650  31.599  35.303  1.00  0.00     0.023 A 
ATOM     56  C   UNL A   1      39.659  31.329  36.264  1.00  0.00     0.031 A 
ATOM     57  C   UNL A   1      41.293  32.848  35.361  1.00  0.00     0.131 A 
ATOM     58  C   UNL A   1      39.254  32.332  37.158  1.00  0.00     0.055 A 
ATOM     59  C   UNL A   1      40.955  33.807  36.320  1.00  0.00     0.041 A 
ATOM     60  F   UNL A   1      42.237  33.175  34.465  1.00  0.00    -0.206 F 
ATOM     61  C   UNL A   1      39.913  33.562  37.211  1.00  0.00     0.022 A 
BRANCH  58  62
ATOM     62  S   UNL A   1      37.725  32.077  38.102  1.00  0.00     0.124 S 
ATOM     63  O   UNL A   1      36.842  33.080  37.508  1.00  0.00    -0.237 OA
ATOM     64  O   UNL A   1      37.402  30.686  37.808  1.00  0.00    -0.237 OA
ATOM     65  O   UNL A   1      38.125  32.349  39.481  1.00  0.00    -0.744 OA
ENDBRANCH  58  62
ENDBRANCH  41  55
BRANCH  42  66
ATOM     66  C   UNL A   1      42.447  25.635  27.468  1.00  0.00     0.023 A 
ATOM     67  C   UNL A   1      42.006  24.303  27.451  1.00  0.00     0.031 A 
ATOM     68  C   UNL A   1      43.167  26.112  26.360  1.00  0.00     0.131 A 
ATOM     69  C   UNL A   1      42.317  23.479  26.360  1.00  0.00     0.055 A 
ATOM     70  C   UNL A   1      43.442  25.298  25.259  1.00  0.00     0.041 A 
ATOM     71  F   UNL A   1      43.595  27.384  26.324  1.00  0.00    -0.206 F 
ATOM     72  C   UNL A   1      43.023  23.971  25.259  1.00  0.00     0.022 A 
BRANCH  69  73
ATOM     73  S   UNL A   1      41.813  21.738  26.416  1.00  0.00     0.124 S 
ATOM     74  O   UNL A   1      40.389  21.830  26.120  1.00  0.00    -0.237 OA
ATOM     75  O   UNL A   1      42.648  21.147  25.376  1.00  0.00    -0.237 OA
ATOM     76  O   UNL A   1      42.145  21.333  27.780  1.00  0.00    -0.744 OA
ENDBRANCH  69  73
ENDBRANCH  42  66
BRANCH  54  77
ATOM     77  C   UNL A   1      45.533  26.464  33.645  1.00  0.00     0.023 A 
ATOM     78  C   UNL A   1      45.377  25.284  34.394  1.00  0.00     0.031 A 
ATOM     79  C   UNL A   1      46.822  27.016  33.541  1.00  0.00     0.131 A 
ATOM     80  C   UNL A   1      46.477  24.730  35.065  1.00  0.00     0.055 A 
ATOM     81  C   UNL A   1      47.925  26.427  34.162  1.00  0.00     0.041 A 
ATOM     82  F   UNL A   1      47.028  28.143  32.842  1.00  0.00    -0.206 F 
ATOM     83  C   UNL A   1      47.753  25.287  34.943  1.00  0.00     0.022 A 
BRANCH  80  84
ATOM     84  S   UNL A   1      46.199  23.337  36.191  1.00  0.00     0.124 S 
ATOM     85  O   UNL A   1      46.455  23.943  37.495  1.00  0.00    -0.237 OA
ATOM     86  O   UNL A   1      44.809  22.985  35.914  1.00  0.00    -0.237 OA
ATOM     87  O   UNL A   1      47.186  22.346  35.764  1.00  0.00    -0.744 OA
ENDBRANCH  80  84
ENDBRANCH  54  77
ENDBRANCH  28  29
ENDBRANCH  20  23
ENDBRANCH   1  19
TORSDOF 15
ENDMDL
MODEL 2
REMARK VINA RESULT:     -11.2      2.735      8.584
REMARK SMILES CCc1c([N+](=O)[O-])cc(C(=O)NCCCNC(=O)c2ccc(-c3c4nc(c(-c5cc(S(=O)(=O)[O-])ccc5F)c5ccc([nH]5)c(-c5cc(S(=O)(=O)[O-])ccc5F)c5nc(c(-c6cc(S(=O)(=O)[O-])ccc6F)c6ccc3[nH]6)C=C5)C=C4)cc2)n1C
REMARK SMILES IDX 15 1 14 2 13 3 12 4 10 5 11 6 9 8 3 9 4 10 82 11 8 12 83 13
REMARK SMILES IDX 2 14 1 15 5 16 6 17 7 18 16 19 17 20 18 22 19 23 20 24 81 25
REMARK SMILES IDX 21 26 80 27 22 28 23 29 24 30 74 31 25 32 79 33 73 34 75 35
REMARK SMILES IDX 26 36 78 37 72 38 71 39 27 41 59 42 39 43 58 44 40 45 43 46
REMARK SMILES IDX 57 47 76 48 41 49 42 50 56 52 77 53 44 54 28 55 29 56 37 57
REMARK SMILES IDX 30 58 36 59 38 60 35 61 31 62 32 63 33 64 34 65 60 66 61 67
REMARK SMILES IDX 69 68 62 69 68 70 70 71 67 72 63 73 64 74 65 75 66 76 45 77
REMARK SMILES IDX 46 78 54 79 47 80 53 81 55 82 52 83 48 84 49 85 50 86 51 87
REMARK H PARENT 12 7 16 21 75 40 43 51
REMARK Flexibility Score: inf
ROOT
ATOM      1  C   UNL A   1      32.766  32.386  27.216  1.00  0.00     0.118 C 
ENDROOT
BRANCH   1   2
ATOM      2  C   UNL A   1      31.543  31.709  26.610  1.00  0.00     0.042 C 
BRANCH   2   3
ATOM      3  C   UNL A   1      31.798  30.365  25.942  1.00  0.00     0.118 C 
BRANCH   3   4
ATOM      4  N   UNL A   1      31.105  30.188  24.680  1.00  0.00    -0.351 N 
ATOM      5  C   UNL A   1      30.919  29.077  23.900  1.00  0.00     0.268 C 
ATOM      6  O   UNL A   1      30.337  29.239  22.828  1.00  0.00    -0.268 OA
ATOM      7  H   UNL A   1      30.698  31.009  24.320  1.00  0.00     0.163 HD
BRANCH   5   8
ATOM      8  C   UNL A   1      31.437  27.785  24.303  1.00  0.00     0.114 A 
ATOM      9  C   UNL A   1      32.735  25.931  24.520  1.00  0.00     0.096 A 
ATOM     10  C   UNL A   1      31.549  25.700  25.219  1.00  0.00     0.290 A 
ATOM     11  N   UNL A   1      32.724  27.284  24.199  1.00  0.00    -0.338 N 
ATOM     12  C   UNL A   1      30.736  26.848  25.048  1.00  0.00     0.119 A 
ATOM     13  C   UNL A   1      33.908  28.094  23.987  1.00  0.00     0.150 C 
BRANCH   9  14
ATOM     14  C   UNL A   1      33.871  24.987  24.226  1.00  0.00     0.058 C 
ATOM     15  C   UNL A   1      34.785  24.685  25.406  1.00  0.00     0.011 C 
ENDBRANCH   9  14
BRANCH  10  16
ATOM     16  N   UNL A   1      31.181  24.519  25.974  1.00  0.00     0.064 N 
ATOM     17  O   UNL A   1      31.354  24.537  27.199  1.00  0.00    -0.258 OA
ATOM     18  O   UNL A   1      30.675  23.586  25.337  1.00  0.00    -0.258 OA
ENDBRANCH  10  16
ENDBRANCH   5   8
ENDBRANCH   3   4
ENDBRANCH   2   3
ENDBRANCH   1   2
BRANCH   1  19
ATOM     19  N   UNL A   1      32.545  33.773  27.601  1.00  0.00    -0.352 N 
ATOM     20  C   UNL A   1      33.149  34.583  28.533  1.00  0.00     0.251 C 
ATOM     21  H   UNL A   1      31.826  34.215  27.097  1.00  0.00     0.163 HD
ATOM     22  O   UNL A   1      32.665  35.698  28.729  1.00  0.00    -0.269 OA
BRANCH  20  23
ATOM     23  C   UNL A   1      34.317  34.139  29.334  1.00  0.00     0.039 A 
ATOM     24  C   UNL A   1      34.085  33.398  30.500  1.00  0.00     0.014 A 
ATOM     25  C   UNL A   1      35.628  34.456  28.985  1.00  0.00     0.014 A 
ATOM     26  C   UNL A   1      35.161  32.905  31.247  1.00  0.00     0.010 A 
ATOM     27  C   UNL A   1      36.697  33.865  29.658  1.00  0.00     0.010 A 
ATOM     28  C   UNL A   1      36.480  33.085  30.801  1.00  0.00    -0.014 A 
BRANCH  28  29
ATOM     29  C   UNL A   1      37.636  32.472  31.515  1.00  0.00     0.031 A 
ATOM     30  C   UNL A   1      38.415  31.343  30.890  1.00  0.00     0.074 A 
ATOM     31  C   UNL A   1      37.940  32.878  32.765  1.00  0.00     0.049 A 
ATOM     32  N   UNL A   1      39.390  30.626  31.391  1.00  0.00    -0.248 NA
ATOM     33  C   UNL A   1      38.007  30.936  29.538  1.00  0.00     0.031 C 
ATOM     34  C   UNL A   1      37.227  33.913  33.517  1.00  0.00     0.029 A 
ATOM     35  N   UNL A   1      38.927  32.467  33.625  1.00  0.00    -0.354 N 
ATOM     36  C   UNL A   1      39.689  29.665  30.430  1.00  0.00     0.074 A 
ATOM     37  C   UNL A   1      38.735  29.846  29.355  1.00  0.00     0.031 C 
ATOM     38  C   UNL A   1      37.830  34.091  34.703  1.00  0.00     0.029 A 
ATOM     39  C   UNL A   1      38.942  33.154  34.816  1.00  0.00     0.049 A 
ATOM     40  H   UNL A   1      39.565  31.750  33.409  1.00  0.00     0.167 HD
ATOM     41  C   UNL A   1      40.682  28.738  30.425  1.00  0.00     0.034 A 
ATOM     42  C   UNL A   1      39.760  33.047  35.880  1.00  0.00     0.034 A 
ATOM     43  C   UNL A   1      41.645  28.588  31.490  1.00  0.00     0.049 A 
ATOM     44  C   UNL A   1      40.870  32.031  35.849  1.00  0.00     0.074 A 
ATOM     45  C   UNL A   1      42.732  27.733  31.562  1.00  0.00     0.029 A 
ATOM     46  N   UNL A   1      41.636  29.314  32.675  1.00  0.00    -0.354 N 
ATOM     47  N   UNL A   1      41.169  31.161  34.913  1.00  0.00    -0.248 NA
ATOM     48  C   UNL A   1      41.757  31.996  37.017  1.00  0.00     0.031 C 
ATOM     49  C   UNL A   1      43.346  27.904  32.810  1.00  0.00     0.029 A 
ATOM     50  C   UNL A   1      42.684  28.911  33.493  1.00  0.00     0.049 A 
ATOM     51  H   UNL A   1      40.982  30.013  32.902  1.00  0.00     0.167 HD
ATOM     52  C   UNL A   1      42.293  30.483  35.375  1.00  0.00     0.074 A 
ATOM     53  C   UNL A   1      42.628  31.064  36.661  1.00  0.00     0.031 C 
ATOM     54  C   UNL A   1      42.989  29.475  34.787  1.00  0.00     0.034 A 
BRANCH  41  55
ATOM     55  C   UNL A   1      40.748  27.812  29.229  1.00  0.00     0.023 A 
ATOM     56  C   UNL A   1      41.698  27.996  28.208  1.00  0.00     0.031 A 
ATOM     57  C   UNL A   1      39.805  26.782  29.065  1.00  0.00     0.131 A 
ATOM     58  C   UNL A   1      41.608  27.254  27.021  1.00  0.00     0.055 A 
ATOM     59  C   UNL A   1      39.785  25.976  27.923  1.00  0.00     0.041 A 
ATOM     60  F   UNL A   1      38.862  26.562  29.995  1.00  0.00    -0.206 F 
ATOM     61  C   UNL A   1      40.674  26.226  26.881  1.00  0.00     0.022 A 
BRANCH  58  62
ATOM     62  S   UNL A   1      42.592  27.790  25.594  1.00  0.00     0.124 S 
ATOM     63  O   UNL A   1      43.876  28.096  26.221  1.00  0.00    -0.237 OA
ATOM     64  O   UNL A   1      42.565  26.613  24.733  1.00  0.00    -0.237 OA
ATOM     65  O   UNL A   1      41.861  28.950  25.090  1.00  0.00    -0.744 OA
ENDBRANCH  58  62
ENDBRANCH  41  55
BRANCH  42  66
ATOM     66  C   UNL A   1      39.582  33.943  37.054  1.00  0.00     0.023 A 
ATOM     67  C   UNL A   1      38.946  33.478  38.216  1.00  0.00     0.031 A 
ATOM     68  C   UNL A   1      40.033  35.273  37.029  1.00  0.00     0.131 A 
ATOM     69  C   UNL A   1      38.750  34.348  39.299  1.00  0.00     0.055 A 
ATOM     70  C   UNL A   1      39.868  36.124  38.123  1.00  0.00     0.041 A 
ATOM     71  F   UNL A   1      40.659  35.757  35.945  1.00  0.00    -0.206 F 
ATOM     72  C   UNL A   1      39.215  35.665  39.264  1.00  0.00     0.022 A 
BRANCH  69  73
ATOM     73  S   UNL A   1      37.841  33.741  40.746  1.00  0.00     0.124 S 
ATOM     74  O   UNL A   1      38.816  32.842  41.354  1.00  0.00    -0.237 OA
ATOM     75  O   UNL A   1      37.566  34.976  41.471  1.00  0.00    -0.237 OA
ATOM     76  O   UNL A   1      36.669  33.092  40.162  1.00  0.00    -0.744 OA
ENDBRANCH  69  73
ENDBRANCH  42  66
BRANCH  54  77
ATOM     77  C   UNL A   1      44.194  28.963  35.536  1.00  0.00     0.023 A 
ATOM     78  C   UNL A   1      44.088  27.930  36.482  1.00  0.00     0.031 A 
ATOM     79  C   UNL A   1      45.455  29.551  35.335  1.00  0.00     0.131 A 
ATOM     80  C   UNL A   1      45.207  27.560  37.243  1.00  0.00     0.055 A 
ATOM     81  C   UNL A   1      46.579  29.139  36.054  1.00  0.00     0.041 A 
ATOM     82  F   UNL A   1      45.613  30.544  34.447  1.00  0.00    -0.206 F 
ATOM     83  C   UNL A   1      46.455  28.149  37.025  1.00  0.00     0.022 A 
BRANCH  80  84
ATOM     84  S   UNL A   1      44.985  26.377  38.600  1.00  0.00     0.124 S 
ATOM     85  O   UNL A   1      45.341  25.112  37.963  1.00  0.00    -0.237 OA
ATOM     86  O   UNL A   1      45.925  26.873  39.602  1.00  0.00    -0.237 OA
ATOM     87  O   UNL A   1      43.573  26.518  38.952  1.00  0.00    -0.744 OA
ENDBRANCH  80  84
ENDBRANCH  54  77
ENDBRANCH  28  29
ENDBRANCH  20  23
ENDBRANCH   1  19
TORSDOF 15
ENDMDL
MODEL 3
REMARK VINA RESULT:     -11.0      1.921      2.630
REMARK SMILES CCc1c([N+](=O)[O-])cc(C(=O)NCCCNC(=O)c2ccc(-c3c4nc(c(-c5cc(S(=O)(=O)[O-])ccc5F)c5ccc([nH]5)c(-c5cc(S(=O)(=O)[O-])ccc5F)c5nc(c(-c6cc(S(=O)(=O)[O-])ccc6F)c6ccc3[nH]6)C=C5)C=C4)cc2)n1C
REMARK SMILES IDX 15 1 14 2 13 3 12 4 10 5 11 6 9 8 3 9 4 10 82 11 8 12 83 13
REMARK SMILES IDX 2 14 1 15 5 16 6 17 7 18 16 19 17 20 18 22 19 23 20 24 81 25
REMARK SMILES IDX 21 26 80 27 22 28 23 29 24 30 74 31 25 32 79 33 73 34 75 35
REMARK SMILES IDX 26 36 78 37 72 38 71 39 27 41 59 42 39 43 58 44 40 45 43 46
REMARK SMILES IDX 57 47 76 48 41 49 42 50 56 52 77 53 44 54 28 55 29 56 37 57
REMARK SMILES IDX 30 58 36 59 38 60 35 61 31 62 32 63 33 64 34 65 60 66 61 67
REMARK SMILES IDX 69 68 62 69 68 70 70 71 67 72 63 73 64 74 65 75 66 76 45 77
REMARK SMILES IDX 46 78 54 79 47 80 53 81 55 82 52 83 48 84 49 85 50 86 51 87
REMARK H PARENT 12 7 16 21 75 40 43 51
REMARK Flexibility Score: inf
ROOT
ATOM      1  C   UNL A   1      32.681  29.761  25.513  1.00  0.00     0.118 C 
ENDROOT
BRANCH   1   2
ATOM      2  C   UNL A   1      31.405  29.059  25.069  1.00  0.00     0.042 C 
BRANCH   2   3
ATOM      3  C   UNL A   1      31.209  28.939  23.564  1.00  0.00     0.118 C 
BRANCH   3   4
ATOM      4  N   UNL A   1      32.438  29.010  22.797  1.00  0.00    -0.351 N 
ATOM      5  C   UNL A   1      33.404  28.069  22.550  1.00  0.00     0.268 C 
ATOM      6  O   UNL A   1      34.389  28.436  21.911  1.00  0.00    -0.268 OA
ATOM      7  H   UNL A   1      32.610  29.885  22.382  1.00  0.00     0.163 HD
BRANCH   5   8
ATOM      8  C   UNL A   1      33.288  26.723  23.072  1.00  0.00     0.114 A 
ATOM      9  C   UNL A   1      32.673  24.558  23.392  1.00  0.00     0.096 A 
ATOM     10  C   UNL A   1      33.493  24.925  24.459  1.00  0.00     0.290 A 
ATOM     11  N   UNL A   1      32.781  25.586  22.463  1.00  0.00    -0.338 N 
ATOM     12  C   UNL A   1      33.842  26.285  24.265  1.00  0.00     0.119 A 
ATOM     13  C   UNL A   1      32.589  25.434  21.033  1.00  0.00     0.150 C 
BRANCH   9  14
ATOM     14  C   UNL A   1      31.886  23.290  23.182  1.00  0.00     0.058 C 
ATOM     15  C   UNL A   1      32.717  22.015  23.118  1.00  0.00     0.011 C 
ENDBRANCH   9  14
BRANCH  10  16
ATOM     16  N   UNL A   1      33.917  24.104  25.576  1.00  0.00     0.064 N 
ATOM     17  O   UNL A   1      35.069  23.653  25.560  1.00  0.00    -0.258 OA
ATOM     18  O   UNL A   1      33.101  23.948  26.493  1.00  0.00    -0.258 OA
ENDBRANCH  10  16
ENDBRANCH   5   8
ENDBRANCH   3   4
ENDBRANCH   2   3
ENDBRANCH   1   2
BRANCH   1  19
ATOM     19  N   UNL A   1      32.461  31.079  26.092  1.00  0.00    -0.352 N 
ATOM     20  C   UNL A   1      33.142  31.799  27.045  1.00  0.00     0.251 C 
ATOM     21  H   UNL A   1      31.672  31.544  25.732  1.00  0.00     0.163 HD
ATOM     22  O   UNL A   1      32.647  32.857  27.433  1.00  0.00    -0.269 OA
BRANCH  20  23
ATOM     23  C   UNL A   1      34.411  31.317  27.647  1.00  0.00     0.039 A 
ATOM     24  C   UNL A   1      35.427  32.246  27.899  1.00  0.00     0.014 A 
ATOM     25  C   UNL A   1      34.636  29.974  27.942  1.00  0.00     0.014 A 
ATOM     26  C   UNL A   1      36.612  31.843  28.525  1.00  0.00     0.010 A 
ATOM     27  C   UNL A   1      35.761  29.594  28.673  1.00  0.00     0.010 A 
ATOM     28  C   UNL A   1      36.768  30.521  28.971  1.00  0.00    -0.014 A 
BRANCH  28  29
ATOM     29  C   UNL A   1      37.969  30.094  29.742  1.00  0.00     0.031 A 
ATOM     30  C   UNL A   1      38.204  30.598  31.144  1.00  0.00     0.074 A 
ATOM     31  C   UNL A   1      38.897  29.311  29.153  1.00  0.00     0.049 A 
ATOM     32  N   UNL A   1      39.230  30.411  31.936  1.00  0.00    -0.248 NA
ATOM     33  C   UNL A   1      37.164  31.470  31.707  1.00  0.00     0.031 C 
ATOM     34  C   UNL A   1      38.831  28.807  27.779  1.00  0.00     0.029 A 
ATOM     35  N   UNL A   1      40.077  28.804  29.634  1.00  0.00    -0.354 N 
ATOM     36  C   UNL A   1      38.974  31.166  33.076  1.00  0.00     0.074 A 
ATOM     37  C   UNL A   1      37.733  31.874  32.832  1.00  0.00     0.031 C 
ATOM     38  C   UNL A   1      39.896  28.023  27.547  1.00  0.00     0.029 A 
ATOM     39  C   UNL A   1      40.742  28.004  28.734  1.00  0.00     0.049 A 
ATOM     40  H   UNL A   1      40.416  28.994  30.538  1.00  0.00     0.167 HD
ATOM     41  C   UNL A   1      39.684  31.242  34.231  1.00  0.00     0.034 A 
ATOM     42  C   UNL A   1      41.900  27.328  28.851  1.00  0.00     0.034 A 
ATOM     43  C   UNL A   1      40.903  30.507  34.472  1.00  0.00     0.049 A 
ATOM     44  C   UNL A   1      42.664  27.404  30.145  1.00  0.00     0.074 A 
ATOM     45  C   UNL A   1      41.669  30.453  35.625  1.00  0.00     0.029 A 
ATOM     46  N   UNL A   1      41.538  29.695  33.540  1.00  0.00    -0.354 N 
ATOM     47  N   UNL A   1      42.385  28.086  31.231  1.00  0.00    -0.248 NA
ATOM     48  C   UNL A   1      43.894  26.607  30.227  1.00  0.00     0.031 C 
ATOM     49  C   UNL A   1      42.792  29.654  35.372  1.00  0.00     0.029 A 
ATOM     50  C   UNL A   1      42.696  29.155  34.083  1.00  0.00     0.049 A 
ATOM     51  H   UNL A   1      41.214  29.527  32.627  1.00  0.00     0.167 HD
ATOM     52  C   UNL A   1      43.400  27.786  32.135  1.00  0.00     0.074 A 
ATOM     53  C   UNL A   1      44.281  26.844  31.471  1.00  0.00     0.031 C 
ATOM     54  C   UNL A   1      43.584  28.243  33.401  1.00  0.00     0.034 A 
BRANCH  41  55
ATOM     55  C   UNL A   1      39.153  32.171  35.302  1.00  0.00     0.023 A 
ATOM     56  C   UNL A   1      39.551  33.519  35.369  1.00  0.00     0.031 A 
ATOM     57  C   UNL A   1      38.304  31.690  36.314  1.00  0.00     0.131 A 
ATOM     58  C   UNL A   1      39.206  34.300  36.482  1.00  0.00     0.055 A 
ATOM     59  C   UNL A   1      37.879  32.504  37.368  1.00  0.00     0.041 A 
ATOM     60  F   UNL A   1      37.899  30.411  36.317  1.00  0.00    -0.206 F 
ATOM     61  C   UNL A   1      38.351  33.810  37.471  1.00  0.00     0.022 A 
BRANCH  58  62
ATOM     62  S   UNL A   1      40.056  35.885  36.718  1.00  0.00     0.124 S 
ATOM     63  O   UNL A   1      39.689  36.600  35.497  1.00  0.00    -0.237 OA
ATOM     64  O   UNL A   1      39.461  36.382  37.953  1.00  0.00    -0.237 OA
ATOM     65  O   UNL A   1      41.465  35.509  36.809  1.00  0.00    -0.744 OA
ENDBRANCH  58  62
ENDBRANCH  41  55
BRANCH  42  66
ATOM     66  C   UNL A   1      42.398  26.497  27.721  1.00  0.00     0.023 A 
ATOM     67  C   UNL A   1      41.985  25.163  27.582  1.00  0.00     0.031 A 
ATOM     68  C   UNL A   1      43.296  27.019  26.775  1.00  0.00     0.131 A 
ATOM     69  C   UNL A   1      42.496  24.381  26.534  1.00  0.00     0.055 A 
ATOM     70  C   UNL A   1      43.773  26.248  25.714  1.00  0.00     0.041 A 
ATOM     71  F   UNL A   1      43.707  28.294  26.860  1.00  0.00    -0.206 F 
ATOM     72  C   UNL A   1      43.379  24.918  25.594  1.00  0.00     0.022 A 
BRANCH  69  73
ATOM     73  S   UNL A   1      42.014  22.636  26.441  1.00  0.00     0.124 S 
ATOM     74  O   UNL A   1      42.684  22.207  25.219  1.00  0.00    -0.237 OA
ATOM     75  O   UNL A   1      42.553  22.106  27.688  1.00  0.00    -0.237 OA
ATOM     76  O   UNL A   1      40.556  22.690  26.371  1.00  0.00    -0.744 OA
ENDBRANCH  69  73
ENDBRANCH  42  66
BRANCH  54  77
ATOM     77  C   UNL A   1      44.780  27.701  34.145  1.00  0.00     0.023 A 
ATOM     78  C   UNL A   1      44.695  26.534  34.923  1.00  0.00     0.031 A 
ATOM     79  C   UNL A   1      46.005  28.391  34.115  1.00  0.00     0.131 A 
ATOM     80  C   UNL A   1      45.794  26.126  35.693  1.00  0.00     0.055 A 
ATOM     81  C   UNL A   1      47.113  27.947  34.838  1.00  0.00     0.041 A 
ATOM     82  F   UNL A   1      46.140  29.513  33.392  1.00  0.00    -0.206 F 
ATOM     83  C   UNL A   1      47.007  26.817  35.646  1.00  0.00     0.022 A 
BRANCH  80  84
ATOM     84  S   UNL A   1      45.582  24.742  36.847  1.00  0.00     0.124 S 
ATOM     85  O   UNL A   1      45.300  23.631  35.942  1.00  0.00    -0.237 OA
ATOM     86  O   UNL A   1      46.875  24.700  37.524  1.00  0.00    -0.237 OA
ATOM     87  O   UNL A   1      44.458  25.161  37.684  1.00  0.00    -0.744 OA
ENDBRANCH  80  84
ENDBRANCH  54  77
ENDBRANCH  28  29
ENDBRANCH  20  23
ENDBRANCH   1  19
TORSDOF 15
ENDMDL
