MODEL 1
REMARK VINA RESULT:     -13.6      0.000      0.000
REMARK SMILES O=C(NCCCNC(=O)[C@H]1CC=CC[C@@H]1C(=O)N[C@@H]1CCCN(c2ccccc2F)C1=O)c1ccc(-c2c3nc(c(-c4cc(S(=O)(=O)[O-])ccc4F)c4ccc([nH]4)c(-c4cc(S(=O)(=O)[O-])ccc4F)c4nc(c(-c5cc(S(=O)(=O)[O-])ccc5F)c5ccc2[nH]5)C=C4)C=C3)cc1
REMARK SMILES IDX 5 1 4 2 3 3 1 4 2 5 33 7 34 8 95 9 35 10 94 11 36 12 37 13
REMARK SMILES IDX 38 14 88 15 39 16 93 17 87 18 89 19 40 20 92 21 86 22 85 23
REMARK SMILES IDX 41 25 73 26 53 27 72 28 54 29 57 30 71 31 90 32 55 33 56 34
REMARK SMILES IDX 70 36 91 37 58 38 42 39 43 40 51 41 44 42 50 43 52 44 49 45
REMARK SMILES IDX 45 46 46 47 47 48 48 49 74 50 75 51 83 52 76 53 82 54 84 55
REMARK SMILES IDX 81 56 77 57 78 58 79 59 80 60 59 61 60 62 68 63 61 64 67 65
REMARK SMILES IDX 69 66 66 67 62 68 63 69 64 70 65 71 6 72 7 73 8 74 9 76
REMARK SMILES IDX 10 77 11 78 15 79 12 80 14 81 13 82 16 83 17 84 18 85 19 87
REMARK SMILES IDX 20 88 31 89 21 90 23 91 32 92 22 93 24 94 25 95 29 96 26 97
REMARK SMILES IDX 28 98 30 99 27 100
REMARK H PARENT 3 6 89 24 57 35 7 75 18 86
REMARK Flexibility Score: inf
ROOT
ATOM      1  C   UNL A   1      31.778  29.040  26.865  1.00  0.00     0.042 C 
ENDROOT
BRANCH   1   2
ATOM      2  C   UNL A   1      32.630  29.960  26.005  1.00  0.00     0.118 C 
BRANCH   2   3
ATOM      3  N   UNL A   1      32.505  31.355  26.393  1.00  0.00    -0.352 N 
ATOM      4  O   UNL A   1      32.801  33.200  27.629  1.00  0.00    -0.269 OA
ATOM      5  C   UNL A   1      33.235  32.103  27.287  1.00  0.00     0.251 C 
ATOM      6  H   UNL A   1      31.779  31.846  25.943  1.00  0.00     0.163 HD
BRANCH   5   7
ATOM      7  C   UNL A   1      34.519  31.609  27.844  1.00  0.00     0.039 A 
ATOM      8  C   UNL A   1      35.564  32.480  28.156  1.00  0.00     0.014 A 
ATOM      9  C   UNL A   1      34.642  30.250  28.159  1.00  0.00     0.014 A 
ATOM     10  C   UNL A   1      36.761  31.990  28.669  1.00  0.00     0.010 A 
ATOM     11  C   UNL A   1      35.806  29.772  28.772  1.00  0.00     0.010 A 
ATOM     12  C   UNL A   1      36.874  30.640  29.034  1.00  0.00    -0.014 A 
BRANCH  12  13
ATOM     13  C   UNL A   1      38.045  30.197  29.834  1.00  0.00     0.031 A 
ATOM     14  C   UNL A   1      39.109  29.313  29.255  1.00  0.00     0.074 A 
ATOM     15  C   UNL A   1      38.139  30.622  31.110  1.00  0.00     0.049 A 
ATOM     16  N   UNL A   1      40.161  28.802  29.840  1.00  0.00    -0.248 NA
ATOM     17  C   UNL A   1      38.972  28.954  27.837  1.00  0.00     0.031 C 
ATOM     18  C   UNL A   1      37.175  31.504  31.776  1.00  0.00     0.029 A 
ATOM     19  N   UNL A   1      39.093  30.397  32.067  1.00  0.00    -0.354 N 
ATOM     20  C   UNL A   1      40.818  28.058  28.868  1.00  0.00     0.074 A 
ATOM     21  C   UNL A   1      40.020  28.158  27.661  1.00  0.00     0.031 C 
ATOM     22  C   UNL A   1      37.621  31.798  33.003  1.00  0.00     0.029 A 
ATOM     23  C   UNL A   1      38.852  31.059  33.247  1.00  0.00     0.049 A 
ATOM     24  H   UNL A   1      39.876  29.817  31.925  1.00  0.00     0.167 HD
ATOM     25  C   UNL A   1      41.978  27.363  28.975  1.00  0.00     0.034 A 
ATOM     26  C   UNL A   1      39.529  31.061  34.410  1.00  0.00     0.034 A 
ATOM     27  C   UNL A   1      42.746  27.257  30.194  1.00  0.00     0.049 A 
ATOM     28  C   UNL A   1      40.761  30.217  34.532  1.00  0.00     0.074 A 
ATOM     29  C   UNL A   1      43.916  26.551  30.421  1.00  0.00     0.029 A 
ATOM     30  N   UNL A   1      42.425  27.876  31.398  1.00  0.00    -0.354 N 
ATOM     31  N   UNL A   1      41.327  29.453  33.626  1.00  0.00    -0.248 NA
ATOM     32  C   UNL A   1      41.439  30.223  35.832  1.00  0.00     0.031 C 
ATOM     33  C   UNL A   1      44.267  26.693  31.768  1.00  0.00     0.029 A 
ATOM     34  C   UNL A   1      43.362  27.553  32.370  1.00  0.00     0.049 A 
ATOM     35  H   UNL A   1      41.644  28.459  31.539  1.00  0.00     0.167 HD
ATOM     36  C   UNL A   1      42.444  28.903  34.241  1.00  0.00     0.074 A 
ATOM     37  C   UNL A   1      42.470  29.424  35.595  1.00  0.00     0.031 C 
ATOM     38  C   UNL A   1      43.368  28.055  33.724  1.00  0.00     0.034 A 
BRANCH  25  39
ATOM     39  C   UNL A   1      42.460  26.626  27.748  1.00  0.00     0.023 A 
ATOM     40  C   UNL A   1      42.263  25.241  27.596  1.00  0.00     0.031 A 
ATOM     41  C   UNL A   1      43.136  27.310  26.723  1.00  0.00     0.131 A 
ATOM     42  C   UNL A   1      42.787  24.578  26.475  1.00  0.00     0.055 A 
ATOM     43  C   UNL A   1      43.592  26.657  25.576  1.00  0.00     0.041 A 
ATOM     44  F   UNL A   1      43.372  28.628  26.822  1.00  0.00    -0.206 F 
ATOM     45  C   UNL A   1      43.430  25.280  25.453  1.00  0.00     0.022 A 
BRANCH  42  46
ATOM     46  S   UNL A   1      42.724  22.767  26.430  1.00  0.00     0.124 S 
ATOM     47  O   UNL A   1      41.510  22.497  27.197  1.00  0.00    -0.237 OA
ATOM     48  O   UNL A   1      42.653  22.489  25.000  1.00  0.00    -0.237 OA
ATOM     49  O   UNL A   1      43.968  22.363  27.083  1.00  0.00    -0.744 OA
ENDBRANCH  42  46
ENDBRANCH  25  39
BRANCH  26  50
ATOM     50  C   UNL A   1      39.032  31.889  35.540  1.00  0.00     0.023 A 
ATOM     51  C   UNL A   1      38.285  31.311  36.576  1.00  0.00     0.031 A 
ATOM     52  C   UNL A   1      39.359  33.253  35.633  1.00  0.00     0.131 A 
ATOM     53  C   UNL A   1      37.887  32.098  37.667  1.00  0.00     0.055 A 
ATOM     54  C   UNL A   1      38.990  34.023  36.735  1.00  0.00     0.041 A 
ATOM     55  F   UNL A   1      40.089  33.842  34.671  1.00  0.00    -0.206 F 
ATOM     56  C   UNL A   1      38.248  33.445  37.761  1.00  0.00     0.022 A 
BRANCH  53  57
ATOM     57  S   UNL A   1      36.898  31.331  38.979  1.00  0.00     0.124 S 
ATOM     58  O   UNL A   1      37.778  31.471  40.134  1.00  0.00    -0.237 OA
ATOM     59  O   UNL A   1      35.696  32.158  38.982  1.00  0.00    -0.237 OA
ATOM     60  O   UNL A   1      36.706  29.963  38.501  1.00  0.00    -0.744 OA
ENDBRANCH  53  57
ENDBRANCH  26  50
BRANCH  38  61
ATOM     61  C   UNL A   1      44.515  27.670  34.622  1.00  0.00     0.023 A 
ATOM     62  C   UNL A   1      44.475  26.519  35.427  1.00  0.00     0.031 A 
ATOM     63  C   UNL A   1      45.666  28.478  34.675  1.00  0.00     0.131 A 
ATOM     64  C   UNL A   1      45.546  26.232  36.288  1.00  0.00     0.055 A 
ATOM     65  C   UNL A   1      46.749  28.159  35.492  1.00  0.00     0.041 A 
ATOM     66  F   UNL A   1      45.752  29.591  33.929  1.00  0.00    -0.206 F 
ATOM     67  C   UNL A   1      46.689  27.035  36.312  1.00  0.00     0.022 A 
BRANCH  64  68
ATOM     68  S   UNL A   1      45.398  24.831  37.429  1.00  0.00     0.124 S 
ATOM     69  O   UNL A   1      46.788  24.608  37.815  1.00  0.00    -0.237 OA
ATOM     70  O   UNL A   1      44.524  25.362  38.470  1.00  0.00    -0.237 OA
ATOM     71  O   UNL A   1      44.807  23.778  36.605  1.00  0.00    -0.744 OA
ENDBRANCH  64  68
ENDBRANCH  38  61
ENDBRANCH  12  13
ENDBRANCH   5   7
ENDBRANCH   2   3
ENDBRANCH   1   2
BRANCH   1  72
ATOM     72  C   UNL A   1      32.147  27.569  26.754  1.00  0.00     0.117 C 
BRANCH  72  73
ATOM     73  N   UNL A   1      31.002  26.685  26.803  1.00  0.00    -0.356 N 
ATOM     74  C   UNL A   1      30.277  25.956  25.935  1.00  0.00     0.224 C 
ATOM     75  H   UNL A   1      30.662  26.589  27.722  1.00  0.00     0.163 HD
ATOM     76  O   UNL A   1      29.413  25.264  26.500  1.00  0.00    -0.275 OA
BRANCH  74  77
ATOM     77  C   UNL A   1      30.444  25.819  24.412  1.00  0.00     0.095 C 
ATOM     78  C   UNL A   1      29.209  26.490  23.756  1.00  0.00     0.041 C 
ATOM     79  C   UNL A   1      31.728  26.218  23.655  1.00  0.00     0.095 C 
ATOM     80  C   UNL A   1      29.379  27.974  23.665  1.00  0.00    -0.030 C 
ATOM     81  C   UNL A   1      31.835  27.726  23.317  1.00  0.00     0.041 C 
ATOM     82  C   UNL A   1      30.581  28.531  23.486  1.00  0.00    -0.030 C 
BRANCH  79  83
ATOM     83  C   UNL A   1      31.794  25.396  22.365  1.00  0.00     0.224 C 
ATOM     84  O   UNL A   1      31.647  25.930  21.261  1.00  0.00    -0.275 OA
ATOM     85  N   UNL A   1      31.899  24.046  22.347  1.00  0.00    -0.344 N 
ATOM     86  H   UNL A   1      31.663  23.691  21.459  1.00  0.00     0.164 HD
BRANCH  85  87
ATOM     87  C   UNL A   1      32.259  22.952  23.262  1.00  0.00     0.172 C 
ATOM     88  C   UNL A   1      31.403  22.737  24.491  1.00  0.00     0.037 C 
ATOM     89  C   UNL A   1      33.788  22.980  23.532  1.00  0.00     0.249 C 
ATOM     90  C   UNL A   1      31.965  21.585  25.302  1.00  0.00     0.025 C 
ATOM     91  N   UNL A   1      34.245  22.423  24.734  1.00  0.00    -0.308 N 
ATOM     92  O   UNL A   1      34.541  23.314  22.609  1.00  0.00    -0.272 OA
ATOM     93  C   UNL A   1      33.340  21.990  25.802  1.00  0.00     0.126 C 
BRANCH  91  94
ATOM     94  C   UNL A   1      35.641  22.482  25.067  1.00  0.00     0.080 A 
ATOM     95  C   UNL A   1      36.437  21.331  24.973  1.00  0.00     0.029 A 
ATOM     96  C   UNL A   1      36.246  23.664  25.523  1.00  0.00     0.146 A 
ATOM     97  C   UNL A   1      37.796  21.368  25.308  1.00  0.00     0.002 A 
ATOM     98  C   UNL A   1      37.598  23.703  25.862  1.00  0.00     0.041 A 
ATOM     99  F   UNL A   1      35.515  24.766  25.752  1.00  0.00    -0.205 F 
ATOM    100  C   UNL A   1      38.376  22.554  25.751  1.00  0.00     0.003 A 
ENDBRANCH  91  94
ENDBRANCH  85  87
ENDBRANCH  79  83
ENDBRANCH  74  77
ENDBRANCH  72  73
ENDBRANCH   1  72
TORSDOF 16
ENDMDL
MODEL 2
REMARK VINA RESULT:     -13.6      4.944     10.297
REMARK SMILES O=C(NCCCNC(=O)[C@H]1CC=CC[C@@H]1C(=O)N[C@@H]1CCCN(c2ccccc2F)C1=O)c1ccc(-c2c3nc(c(-c4cc(S(=O)(=O)[O-])ccc4F)c4ccc([nH]4)c(-c4cc(S(=O)(=O)[O-])ccc4F)c4nc(c(-c5cc(S(=O)(=O)[O-])ccc5F)c5ccc2[nH]5)C=C4)C=C3)cc1
REMARK SMILES IDX 5 1 4 2 3 3 1 4 2 5 33 7 34 8 95 9 35 10 94 11 36 12 37 13
REMARK SMILES IDX 38 14 88 15 39 16 93 17 87 18 89 19 40 20 92 21 86 22 85 23
REMARK SMILES IDX 41 25 73 26 53 27 72 28 54 29 57 30 71 31 90 32 55 33 56 34
REMARK SMILES IDX 70 36 91 37 58 38 42 39 43 40 51 41 44 42 50 43 52 44 49 45
REMARK SMILES IDX 45 46 46 47 47 48 48 49 74 50 75 51 83 52 76 53 82 54 84 55
REMARK SMILES IDX 81 56 77 57 78 58 79 59 80 60 59 61 60 62 68 63 61 64 67 65
REMARK SMILES IDX 69 66 66 67 62 68 63 69 64 70 65 71 6 72 7 73 8 74 9 76
REMARK SMILES IDX 10 77 11 78 15 79 12 80 14 81 13 82 16 83 17 84 18 85 19 87
REMARK SMILES IDX 20 88 31 89 21 90 23 91 32 92 22 93 24 94 25 95 29 96 26 97
REMARK SMILES IDX 28 98 30 99 27 100
REMARK H PARENT 3 6 89 24 57 35 7 75 18 86
REMARK Flexibility Score: inf
ROOT
ATOM      1  C   UNL A   1      36.431  22.533  24.272  1.00  0.00     0.042 C 
ENDROOT
BRANCH   1   2
ATOM      2  C   UNL A   1      36.711  22.205  25.730  1.00  0.00     0.118 C 
BRANCH   2   3
ATOM      3  N   UNL A   1      37.782  21.235  25.886  1.00  0.00    -0.352 N 
ATOM      4  O   UNL A   1      39.881  20.464  26.026  1.00  0.00    -0.269 OA
ATOM      5  C   UNL A   1      39.114  21.412  26.176  1.00  0.00     0.251 C 
ATOM      6  H   UNL A   1      37.509  20.296  25.762  1.00  0.00     0.163 HD
BRANCH   5   7
ATOM      7  C   UNL A   1      39.636  22.716  26.656  1.00  0.00     0.039 A 
ATOM      8  C   UNL A   1      40.696  22.791  27.561  1.00  0.00     0.014 A 
ATOM      9  C   UNL A   1      39.117  23.896  26.106  1.00  0.00     0.014 A 
ATOM     10  C   UNL A   1      41.160  24.027  28.001  1.00  0.00     0.010 A 
ATOM     11  C   UNL A   1      39.654  25.136  26.470  1.00  0.00     0.010 A 
ATOM     12  C   UNL A   1      40.683  25.211  27.419  1.00  0.00    -0.014 A 
BRANCH  12  13
ATOM     13  C   UNL A   1      41.382  26.492  27.694  1.00  0.00     0.031 A 
ATOM     14  C   UNL A   1      40.768  27.561  28.548  1.00  0.00     0.074 A 
ATOM     15  C   UNL A   1      42.607  26.673  27.160  1.00  0.00     0.049 A 
ATOM     16  N   UNL A   1      41.231  28.750  28.835  1.00  0.00    -0.248 NA
ATOM     17  C   UNL A   1      39.465  27.257  29.153  1.00  0.00     0.031 C 
ATOM     18  C   UNL A   1      43.316  25.693  26.330  1.00  0.00     0.029 A 
ATOM     19  N   UNL A   1      43.484  27.722  27.250  1.00  0.00    -0.354 N 
ATOM     20  C   UNL A   1      40.280  29.344  29.656  1.00  0.00     0.074 A 
ATOM     21  C   UNL A   1      39.195  28.391  29.789  1.00  0.00     0.031 C 
ATOM     22  C   UNL A   1      44.539  26.158  26.047  1.00  0.00     0.029 A 
ATOM     23  C   UNL A   1      44.672  27.500  26.595  1.00  0.00     0.049 A 
ATOM     24  H   UNL A   1      43.283  28.555  27.736  1.00  0.00     0.167 HD
ATOM     25  C   UNL A   1      40.315  30.566  30.244  1.00  0.00     0.034 A 
ATOM     26  C   UNL A   1      45.747  28.293  26.430  1.00  0.00     0.034 A 
ATOM     27  C   UNL A   1      41.398  31.510  30.081  1.00  0.00     0.049 A 
ATOM     28  C   UNL A   1      45.727  29.672  27.016  1.00  0.00     0.074 A 
ATOM     29  C   UNL A   1      41.517  32.787  30.603  1.00  0.00     0.029 A 
ATOM     30  N   UNL A   1      42.552  31.282  29.338  1.00  0.00    -0.354 N 
ATOM     31  N   UNL A   1      44.785  30.250  27.723  1.00  0.00    -0.248 NA
ATOM     32  C   UNL A   1      46.907  30.508  26.773  1.00  0.00     0.031 C 
ATOM     33  C   UNL A   1      42.709  33.350  30.131  1.00  0.00     0.029 A 
ATOM     34  C   UNL A   1      43.376  32.398  29.376  1.00  0.00     0.049 A 
ATOM     35  H   UNL A   1      42.754  30.448  28.856  1.00  0.00     0.167 HD
ATOM     36  C   UNL A   1      45.267  31.516  28.030  1.00  0.00     0.074 A 
ATOM     37  C   UNL A   1      46.585  31.614  27.431  1.00  0.00     0.031 C 
ATOM     38  C   UNL A   1      44.676  32.499  28.755  1.00  0.00     0.034 A 
BRANCH  25  39
ATOM     39  C   UNL A   1      39.125  30.966  31.083  1.00  0.00     0.023 A 
ATOM     40  C   UNL A   1      38.054  31.698  30.540  1.00  0.00     0.031 A 
ATOM     41  C   UNL A   1      39.064  30.624  32.446  1.00  0.00     0.131 A 
ATOM     42  C   UNL A   1      36.998  32.113  31.367  1.00  0.00     0.055 A 
ATOM     43  C   UNL A   1      37.976  30.978  33.247  1.00  0.00     0.041 A 
ATOM     44  F   UNL A   1      40.066  29.944  33.025  1.00  0.00    -0.206 F 
ATOM     45  C   UNL A   1      36.940  31.738  32.711  1.00  0.00     0.022 A 
BRANCH  42  46
ATOM     46  S   UNL A   1      35.761  33.252  30.689  1.00  0.00     0.124 S 
ATOM     47  O   UNL A   1      36.293  33.501  29.352  1.00  0.00    -0.237 OA
ATOM     48  O   UNL A   1      34.536  32.464  30.755  1.00  0.00    -0.237 OA
ATOM     49  O   UNL A   1      35.816  34.397  31.597  1.00  0.00    -0.744 OA
ENDBRANCH  42  46
ENDBRANCH  25  39
BRANCH  26  50
ATOM     50  C   UNL A   1      46.915  27.784  25.665  1.00  0.00     0.023 A 
ATOM     51  C   UNL A   1      47.012  27.994  24.282  1.00  0.00     0.031 A 
ATOM     52  C   UNL A   1      47.982  27.143  26.319  1.00  0.00     0.131 A 
ATOM     53  C   UNL A   1      48.157  27.566  23.594  1.00  0.00     0.055 A 
ATOM     54  C   UNL A   1      49.132  26.750  25.636  1.00  0.00     0.041 A 
ATOM     55  F   UNL A   1      47.939  26.939  27.646  1.00  0.00    -0.206 F 
ATOM     56  C   UNL A   1      49.223  26.961  24.263  1.00  0.00     0.022 A 
BRANCH  53  57
ATOM     57  S   UNL A   1      48.242  27.827  21.801  1.00  0.00     0.124 S 
ATOM     58  O   UNL A   1      48.410  26.464  21.311  1.00  0.00    -0.237 OA
ATOM     59  O   UNL A   1      46.956  28.458  21.521  1.00  0.00    -0.237 OA
ATOM     60  O   UNL A   1      49.406  28.697  21.641  1.00  0.00    -0.744 OA
ENDBRANCH  53  57
ENDBRANCH  26  50
BRANCH  38  61
ATOM     61  C   UNL A   1      45.475  33.757  28.974  1.00  0.00     0.023 A 
ATOM     62  C   UNL A   1      45.392  34.852  28.097  1.00  0.00     0.031 A 
ATOM     63  C   UNL A   1      46.341  33.855  30.078  1.00  0.00     0.131 A 
ATOM     64  C   UNL A   1      46.197  35.981  28.313  1.00  0.00     0.055 A 
ATOM     65  C   UNL A   1      47.099  35.001  30.317  1.00  0.00     0.041 A 
ATOM     66  F   UNL A   1      46.461  32.835  30.943  1.00  0.00    -0.206 F 
ATOM     67  C   UNL A   1      47.037  36.068  29.426  1.00  0.00     0.022 A 
BRANCH  64  68
ATOM     68  S   UNL A   1      46.186  37.310  27.079  1.00  0.00     0.124 S 
ATOM     69  O   UNL A   1      46.918  38.369  27.769  1.00  0.00    -0.237 OA
ATOM     70  O   UNL A   1      46.871  36.696  25.947  1.00  0.00    -0.237 OA
ATOM     71  O   UNL A   1      44.763  37.574  26.871  1.00  0.00    -0.744 OA
ENDBRANCH  64  68
ENDBRANCH  38  61
ENDBRANCH  12  13
ENDBRANCH   5   7
ENDBRANCH   2   3
ENDBRANCH   1   2
BRANCH   1  72
ATOM     72  C   UNL A   1      35.311  23.539  24.066  1.00  0.00     0.117 C 
BRANCH  72  73
ATOM     73  N   UNL A   1      34.252  23.052  23.207  1.00  0.00    -0.356 N 
ATOM     74  C   UNL A   1      32.948  22.740  23.324  1.00  0.00     0.224 C 
ATOM     75  H   UNL A   1      34.573  22.912  22.287  1.00  0.00     0.163 HD
ATOM     76  O   UNL A   1      32.431  22.440  22.233  1.00  0.00    -0.275 OA
BRANCH  74  77
ATOM     77  C   UNL A   1      32.049  22.795  24.570  1.00  0.00     0.095 C 
ATOM     78  C   UNL A   1      31.778  21.330  25.001  1.00  0.00     0.041 C 
ATOM     79  C   UNL A   1      32.357  23.663  25.807  1.00  0.00     0.095 C 
ATOM     80  C   UNL A   1      32.909  20.782  25.813  1.00  0.00    -0.030 C 
ATOM     81  C   UNL A   1      33.348  23.023  26.813  1.00  0.00     0.041 C 
ATOM     82  C   UNL A   1      33.633  21.564  26.620  1.00  0.00    -0.030 C 
BRANCH  79  83
ATOM     83  C   UNL A   1      31.034  23.970  26.515  1.00  0.00     0.224 C 
ATOM     84  O   UNL A   1      30.533  23.165  27.307  1.00  0.00    -0.275 OA
ATOM     85  N   UNL A   1      30.282  25.063  26.244  1.00  0.00    -0.344 N 
ATOM     86  H   UNL A   1      29.368  24.951  26.594  1.00  0.00     0.164 HD
BRANCH  85  87
ATOM     87  C   UNL A   1      30.425  26.368  25.579  1.00  0.00     0.172 C 
ATOM     88  C   UNL A   1      30.641  26.387  24.082  1.00  0.00     0.037 C 
ATOM     89  C   UNL A   1      31.404  27.261  26.389  1.00  0.00     0.249 C 
ATOM     90  C   UNL A   1      30.789  27.822  23.612  1.00  0.00     0.025 C 
ATOM     91  N   UNL A   1      32.087  28.269  25.696  1.00  0.00    -0.308 N 
ATOM     92  O   UNL A   1      31.397  27.170  27.623  1.00  0.00    -0.272 OA
ATOM     93  C   UNL A   1      32.050  28.392  24.236  1.00  0.00     0.126 C 
BRANCH  91  94
ATOM     94  C   UNL A   1      33.055  29.080  26.379  1.00  0.00     0.080 A 
ATOM     95  C   UNL A   1      34.350  28.590  26.605  1.00  0.00     0.029 A 
ATOM     96  C   UNL A   1      32.740  30.357  26.869  1.00  0.00     0.146 A 
ATOM     97  C   UNL A   1      35.302  29.362  27.282  1.00  0.00     0.002 A 
ATOM     98  C   UNL A   1      33.685  31.127  27.548  1.00  0.00     0.041 A 
ATOM     99  F   UNL A   1      31.488  30.832  26.794  1.00  0.00    -0.205 F 
ATOM    100  C   UNL A   1      34.969  30.630  27.753  1.00  0.00     0.003 A 
ENDBRANCH  91  94
ENDBRANCH  85  87
ENDBRANCH  79  83
ENDBRANCH  74  77
ENDBRANCH  72  73
ENDBRANCH   1  72
TORSDOF 16
ENDMDL
MODEL 3
REMARK VINA RESULT:     -13.4      4.959      7.681
REMARK SMILES O=C(NCCCNC(=O)[C@H]1CC=CC[C@@H]1C(=O)N[C@@H]1CCCN(c2ccccc2F)C1=O)c1ccc(-c2c3nc(c(-c4cc(S(=O)(=O)[O-])ccc4F)c4ccc([nH]4)c(-c4cc(S(=O)(=O)[O-])ccc4F)c4nc(c(-c5cc(S(=O)(=O)[O-])ccc5F)c5ccc2[nH]5)C=C4)C=C3)cc1
REMARK SMILES IDX 5 1 4 2 3 3 1 4 2 5 33 7 34 8 95 9 35 10 94 11 36 12 37 13
REMARK SMILES IDX 38 14 88 15 39 16 93 17 87 18 89 19 40 20 92 21 86 22 85 23
REMARK SMILES IDX 41 25 73 26 53 27 72 28 54 29 57 30 71 31 90 32 55 33 56 34
REMARK SMILES IDX 70 36 91 37 58 38 42 39 43 40 51 41 44 42 50 43 52 44 49 45
REMARK SMILES IDX 45 46 46 47 47 48 48 49 74 50 75 51 83 52 76 53 82 54 84 55
REMARK SMILES IDX 81 56 77 57 78 58 79 59 80 60 59 61 60 62 68 63 61 64 67 65
REMARK SMILES IDX 69 66 66 67 62 68 63 69 64 70 65 71 6 72 7 73 8 74 9 76
REMARK SMILES IDX 10 77 11 78 15 79 12 80 14 81 13 82 16 83 17 84 18 85 19 87
REMARK SMILES IDX 20 88 31 89 21 90 23 91 32 92 22 93 24 94 25 95 29 96 26 97
REMARK SMILES IDX 28 98 30 99 27 100
REMARK H PARENT 3 6 89 24 57 35 7 75 18 86
REMARK Flexibility Score: inf
ROOT
ATOM      1  C   UNL A   1      36.536  22.555  24.347  1.00  0.00     0.042 C 
ENDROOT
BRANCH   1   2
ATOM      2  C   UNL A   1      36.864  22.337  25.816  1.00  0.00     0.118 C 
BRANCH   2   3
ATOM      3  N   UNL A   1      37.903  21.340  26.011  1.00  0.00    -0.352 N 
ATOM      4  O   UNL A   1      39.976  20.510  26.193  1.00  0.00    -0.269 OA
ATOM      5  C   UNL A   1      39.238  21.485  26.308  1.00  0.00     0.251 C 
ATOM      6  H   UNL A   1      37.603  20.406  25.913  1.00  0.00     0.163 HD
BRANCH   5   7
ATOM      7  C   UNL A   1      39.795  22.787  26.752  1.00  0.00     0.039 A 
ATOM      8  C   UNL A   1      40.851  22.858  27.662  1.00  0.00     0.014 A 
ATOM      9  C   UNL A   1      39.316  23.964  26.163  1.00  0.00     0.014 A 
ATOM     10  C   UNL A   1      41.349  24.092  28.069  1.00  0.00     0.010 A 
ATOM     11  C   UNL A   1      39.888  25.199  26.493  1.00  0.00     0.010 A 
ATOM     12  C   UNL A   1      40.912  25.271  27.448  1.00  0.00    -0.014 A 
BRANCH  12  13
ATOM     13  C   UNL A   1      41.648  26.539  27.689  1.00  0.00     0.031 A 
ATOM     14  C   UNL A   1      43.021  26.774  27.134  1.00  0.00     0.074 A 
ATOM     15  C   UNL A   1      41.040  27.495  28.421  1.00  0.00     0.049 A 
ATOM     16  N   UNL A   1      43.809  27.804  27.301  1.00  0.00    -0.248 NA
ATOM     17  C   UNL A   1      43.583  25.714  26.287  1.00  0.00     0.031 C 
ATOM     18  C   UNL A   1      39.695  27.388  28.994  1.00  0.00     0.029 A 
ATOM     19  N   UNL A   1      41.454  28.749  28.788  1.00  0.00    -0.354 N 
ATOM     20  C   UNL A   1      44.964  27.524  26.582  1.00  0.00     0.074 A 
ATOM     21  C   UNL A   1      44.784  26.206  26.006  1.00  0.00     0.031 C 
ATOM     22  C   UNL A   1      39.371  28.548  29.577  1.00  0.00     0.029 A 
ATOM     23  C   UNL A   1      40.512  29.450  29.501  1.00  0.00     0.049 A 
ATOM     24  H   UNL A   1      42.342  29.112  28.563  1.00  0.00     0.167 HD
ATOM     25  C   UNL A   1      46.066  28.298  26.416  1.00  0.00     0.034 A 
ATOM     26  C   UNL A   1      40.560  30.675  30.056  1.00  0.00     0.034 A 
ATOM     27  C   UNL A   1      46.235  29.602  27.018  1.00  0.00     0.049 A 
ATOM     28  C   UNL A   1      41.820  31.477  29.933  1.00  0.00     0.074 A 
ATOM     29  C   UNL A   1      47.324  30.454  26.943  1.00  0.00     0.029 A 
ATOM     30  N   UNL A   1      45.289  30.246  27.807  1.00  0.00    -0.354 N 
ATOM     31  N   UNL A   1      42.936  31.164  29.317  1.00  0.00    -0.248 NA
ATOM     32  C   UNL A   1      41.833  32.788  30.590  1.00  0.00     0.031 C 
ATOM     33  C   UNL A   1      47.062  31.580  27.730  1.00  0.00     0.029 A 
ATOM     34  C   UNL A   1      45.776  31.473  28.237  1.00  0.00     0.049 A 
ATOM     35  H   UNL A   1      44.400  29.884  28.028  1.00  0.00     0.167 HD
ATOM     36  C   UNL A   1      43.781  32.253  29.492  1.00  0.00     0.074 A 
ATOM     37  C   UNL A   1      43.043  33.229  30.272  1.00  0.00     0.031 C 
ATOM     38  C   UNL A   1      45.046  32.429  29.036  1.00  0.00     0.034 A 
BRANCH  25  39
ATOM     39  C   UNL A   1      47.192  27.732  25.585  1.00  0.00     0.023 A 
ATOM     40  C   UNL A   1      47.350  28.070  24.229  1.00  0.00     0.031 A 
ATOM     41  C   UNL A   1      48.114  26.831  26.149  1.00  0.00     0.131 A 
ATOM     42  C   UNL A   1      48.366  27.469  23.470  1.00  0.00     0.055 A 
ATOM     43  C   UNL A   1      49.167  26.291  25.408  1.00  0.00     0.041 A 
ATOM     44  F   UNL A   1      48.002  26.454  27.433  1.00  0.00    -0.206 F 
ATOM     45  C   UNL A   1      49.290  26.600  24.056  1.00  0.00     0.022 A 
BRANCH  42  46
ATOM     46  S   UNL A   1      48.390  27.744  21.678  1.00  0.00     0.124 S 
ATOM     47  O   UNL A   1      47.016  28.174  21.429  1.00  0.00    -0.237 OA
ATOM     48  O   UNL A   1      49.418  28.768  21.530  1.00  0.00    -0.237 OA
ATOM     49  O   UNL A   1      48.734  26.432  21.134  1.00  0.00    -0.744 OA
ENDBRANCH  42  46
ENDBRANCH  25  39
BRANCH  26  50
ATOM     50  C   UNL A   1      39.370  31.192  30.780  1.00  0.00     0.023 A 
ATOM     51  C   UNL A   1      39.325  31.184  32.182  1.00  0.00     0.031 A 
ATOM     52  C   UNL A   1      38.293  31.765  30.081  1.00  0.00     0.131 A 
ATOM     53  C   UNL A   1      38.222  31.742  32.844  1.00  0.00     0.055 A 
ATOM     54  C   UNL A   1      37.214  32.349  30.745  1.00  0.00     0.041 A 
ATOM     55  F   UNL A   1      38.303  31.811  28.739  1.00  0.00    -0.206 F 
ATOM     56  C   UNL A   1      37.174  32.338  32.137  1.00  0.00     0.022 A 
BRANCH  53  57
ATOM     57  S   UNL A   1      38.179  31.692  34.656  1.00  0.00     0.124 S 
ATOM     58  O   UNL A   1      36.886  32.304  34.939  1.00  0.00    -0.237 OA
ATOM     59  O   UNL A   1      38.287  30.262  34.928  1.00  0.00    -0.237 OA
ATOM     60  O   UNL A   1      39.344  32.485  35.044  1.00  0.00    -0.744 OA
ENDBRANCH  53  57
ENDBRANCH  26  50
BRANCH  38  61
ATOM     61  C   UNL A   1      45.698  33.754  29.336  1.00  0.00     0.023 A 
ATOM     62  C   UNL A   1      45.528  34.872  28.503  1.00  0.00     0.031 A 
ATOM     63  C   UNL A   1      46.512  33.892  30.475  1.00  0.00     0.131 A 
ATOM     64  C   UNL A   1      46.201  36.068  28.794  1.00  0.00     0.055 A 
ATOM     65  C   UNL A   1      47.135  35.099  30.789  1.00  0.00     0.041 A 
ATOM     66  F   UNL A   1      46.711  32.853  31.301  1.00  0.00    -0.206 F 
ATOM     67  C   UNL A   1      46.989  36.194  29.942  1.00  0.00     0.022 A 
BRANCH  64  68
ATOM     68  S   UNL A   1      46.089  37.443  27.617  1.00  0.00     0.124 S 
ATOM     69  O   UNL A   1      46.097  36.744  26.335  1.00  0.00    -0.237 OA
ATOM     70  O   UNL A   1      44.828  38.076  27.989  1.00  0.00    -0.237 OA
ATOM     71  O   UNL A   1      47.285  38.235  27.899  1.00  0.00    -0.744 OA
ENDBRANCH  64  68
ENDBRANCH  38  61
ENDBRANCH  12  13
ENDBRANCH   5   7
ENDBRANCH   2   3
ENDBRANCH   1   2
BRANCH   1  72
ATOM     72  C   UNL A   1      35.450  23.590  24.101  1.00  0.00     0.117 C 
BRANCH  72  73
ATOM     73  N   UNL A   1      34.375  23.106  23.262  1.00  0.00    -0.356 N 
ATOM     74  C   UNL A   1      33.066  22.824  23.396  1.00  0.00     0.224 C 
ATOM     75  H   UNL A   1      34.685  22.937  22.343  1.00  0.00     0.163 HD
ATOM     76  O   UNL A   1      32.534  22.510  22.316  1.00  0.00    -0.275 OA
BRANCH  74  77
ATOM     77  C   UNL A   1      32.177  22.928  24.646  1.00  0.00     0.095 C 
ATOM     78  C   UNL A   1      31.796  21.481  25.055  1.00  0.00     0.041 C 
ATOM     79  C   UNL A   1      32.555  23.750  25.896  1.00  0.00     0.095 C 
ATOM     80  C   UNL A   1      32.885  20.835  25.853  1.00  0.00    -0.030 C 
ATOM     81  C   UNL A   1      33.498  23.020  26.886  1.00  0.00     0.041 C 
ATOM     82  C   UNL A   1      33.670  21.546  26.669  1.00  0.00    -0.030 C 
BRANCH  79  83
ATOM     83  C   UNL A   1      31.262  24.146  26.614  1.00  0.00     0.224 C 
ATOM     84  O   UNL A   1      30.731  23.389  27.433  1.00  0.00    -0.275 OA
ATOM     85  N   UNL A   1      30.567  25.272  26.327  1.00  0.00    -0.344 N 
ATOM     86  H   UNL A   1      29.654  25.219  26.693  1.00  0.00     0.164 HD
BRANCH  85  87
ATOM     87  C   UNL A   1      30.771  26.551  25.628  1.00  0.00     0.172 C 
ATOM     88  C   UNL A   1      31.137  26.513  24.161  1.00  0.00     0.037 C 
ATOM     89  C   UNL A   1      31.660  27.483  26.496  1.00  0.00     0.249 C 
ATOM     90  C   UNL A   1      31.325  27.929  23.651  1.00  0.00     0.025 C 
ATOM     91  N   UNL A   1      32.405  28.469  25.835  1.00  0.00    -0.308 N 
ATOM     92  O   UNL A   1      31.528  27.441  27.726  1.00  0.00    -0.272 OA
ATOM     93  C   UNL A   1      32.515  28.534  24.375  1.00  0.00     0.126 C 
BRANCH  91  94
ATOM     94  C   UNL A   1      33.295  29.314  26.579  1.00  0.00     0.080 A 
ATOM     95  C   UNL A   1      34.577  28.857  26.924  1.00  0.00     0.029 A 
ATOM     96  C   UNL A   1      32.915  30.594  27.013  1.00  0.00     0.146 A 
ATOM     97  C   UNL A   1      35.452  29.663  27.661  1.00  0.00     0.002 A 
ATOM     98  C   UNL A   1      33.784  31.397  27.752  1.00  0.00     0.041 A 
ATOM     99  F   UNL A   1      31.664  31.040  26.823  1.00  0.00    -0.205 F 
ATOM    100  C   UNL A   1      35.056  30.933  28.074  1.00  0.00     0.003 A 
ENDBRANCH  91  94
ENDBRANCH  85  87
ENDBRANCH  79  83
ENDBRANCH  74  77
ENDBRANCH  72  73
ENDBRANCH   1  72
TORSDOF 16
ENDMDL
