MODEL 1
REMARK VINA RESULT:     -13.2      0.000      0.000
REMARK SMILES Cc1nsc(NC(=O)[C@]2([NH3+])CCC[C@@H](C)C2)c1C(=O)NCCCNC(=O)c1ccc(-c2c3nc(c(-c4cc(S(=O)(=O)[O-])ccc4F)c4ccc([nH]4)c(-c4cc(S(=O)(=O)[O-])ccc4F)c4nc(c(-c5cc(S(=O)(=O)[O-])ccc5F)c5ccc2[nH]5)C=C4)C=C3)cc1
REMARK SMILES IDX 22 1 21 2 20 3 18 4 19 5 17 7 1 8 2 9 3 10 4 11 5 12 6 13
REMARK SMILES IDX 7 14 8 16 9 17 11 18 16 19 12 20 14 21 13 22 15 23 10 24
REMARK SMILES IDX 23 28 24 29 25 30 26 32 27 33 28 34 89 35 29 36 88 37 30 38
REMARK SMILES IDX 31 39 32 40 82 41 33 42 87 43 81 44 83 45 34 46 86 47 80 48
REMARK SMILES IDX 79 49 35 51 67 52 47 53 66 54 48 55 51 56 65 57 84 58 49 59
REMARK SMILES IDX 50 60 64 62 85 63 52 64 36 65 37 66 45 67 38 68 44 69 46 70
REMARK SMILES IDX 43 71 39 72 40 73 41 74 42 75 68 76 69 77 77 78 70 79 76 80
REMARK SMILES IDX 78 81 75 82 71 83 72 84 73 85 74 86 53 87 54 88 62 89 55 90
REMARK SMILES IDX 61 91 63 92 60 93 56 94 57 95 58 96 59 97
REMARK H PARENT 20 6 6 15 10 25 10 26 10 27 24 31 83 50 51 61
REMARK Flexibility Score: inf
ROOT
ATOM      1  C   UNL A   1      33.459  28.955  27.091  1.00  0.00     0.042 C 
ENDROOT
BRANCH   1   2
ATOM      2  C   UNL A   1      33.156  29.019  25.592  1.00  0.00     0.118 C 
BRANCH   2   3
ATOM      3  N   UNL A   1      31.873  28.484  25.185  1.00  0.00    -0.352 N 
ATOM      4  C   UNL A   1      31.454  27.409  24.452  1.00  0.00     0.256 C 
ATOM      5  O   UNL A   1      30.250  27.150  24.559  1.00  0.00    -0.269 OA
ATOM      6  H   UNL A   1      31.121  29.026  25.516  1.00  0.00     0.163 HD
BRANCH   4   7
ATOM      7  C   UNL A   1      32.271  26.669  23.487  1.00  0.00     0.097 A 
ATOM      8  C   UNL A   1      34.053  28.300  22.348  1.00  0.00     0.069 C 
ATOM      9  C   UNL A   1      33.263  27.050  22.493  1.00  0.00     0.066 A 
ATOM     10  N   UNL A   1      33.580  26.109  21.600  1.00  0.00    -0.195 NA
ATOM     11  S   UNL A   1      32.862  24.707  22.039  1.00  0.00    -0.017 S 
ATOM     12  C   UNL A   1      32.280  25.264  23.529  1.00  0.00     0.129 A 
BRANCH  12  13
ATOM     13  N   UNL A   1      31.763  24.426  24.506  1.00  0.00    -0.310 N 
ATOM     14  C   UNL A   1      32.312  23.493  25.353  1.00  0.00     0.286 C 
ATOM     15  H   UNL A   1      30.789  24.520  24.618  1.00  0.00     0.171 HD
ATOM     16  O   UNL A   1      31.516  22.880  26.081  1.00  0.00    -0.267 OA
BRANCH  14  17
ATOM     17  C   UNL A   1      33.848  23.200  25.476  1.00  0.00     0.174 C 
ATOM     18  C   UNL A   1      34.682  24.511  25.417  1.00  0.00     0.079 C 
ATOM     19  C   UNL A   1      34.328  22.343  24.279  1.00  0.00     0.082 C 
ATOM     20  C   UNL A   1      36.193  24.242  25.495  1.00  0.00     0.007 C 
ATOM     21  C   UNL A   1      35.832  22.033  24.235  1.00  0.00    -0.008 C 
ATOM     22  C   UNL A   1      36.673  23.306  24.387  1.00  0.00     0.004 C 
ATOM     23  C   UNL A   1      36.232  20.939  25.228  1.00  0.00     0.008 C 
BRANCH  17  24
ATOM     24  N   UNL A   1      34.111  22.665  26.829  1.00  0.00    -0.345 N 
ATOM     25  H   UNL A   1      33.459  23.082  27.492  1.00  0.00     0.345 HD
ATOM     26  H   UNL A   1      35.067  22.889  27.105  1.00  0.00     0.345 HD
ATOM     27  H   UNL A   1      33.989  21.651  26.823  1.00  0.00     0.345 HD
ENDBRANCH  17  24
ENDBRANCH  14  17
ENDBRANCH  12  13
ENDBRANCH   4   7
ENDBRANCH   2   3
ENDBRANCH   1   2
BRANCH   1  28
ATOM     28  C   UNL A   1      34.952  28.958  27.398  1.00  0.00     0.118 C 
BRANCH  28  29
ATOM     29  N   UNL A   1      35.268  29.811  28.547  1.00  0.00    -0.352 N 
ATOM     30  C   UNL A   1      36.420  29.862  29.309  1.00  0.00     0.251 C 
ATOM     31  H   UNL A   1      34.557  30.437  28.815  1.00  0.00     0.163 HD
ATOM     32  O   UNL A   1      36.429  30.453  30.376  1.00  0.00    -0.269 OA
BRANCH  30  33
ATOM     33  C   UNL A   1      37.606  29.137  28.822  1.00  0.00     0.039 A 
ATOM     34  C   UNL A   1      38.255  29.575  27.670  1.00  0.00     0.014 A 
ATOM     35  C   UNL A   1      38.149  28.131  29.615  1.00  0.00     0.014 A 
ATOM     36  C   UNL A   1      39.532  29.092  27.399  1.00  0.00     0.010 A 
ATOM     37  C   UNL A   1      39.460  27.747  29.409  1.00  0.00     0.010 A 
ATOM     38  C   UNL A   1      40.168  28.221  28.304  1.00  0.00    -0.014 A 
BRANCH  38  39
ATOM     39  C   UNL A   1      41.594  27.918  28.127  1.00  0.00     0.031 A 
ATOM     40  C   UNL A   1      41.925  26.686  27.351  1.00  0.00     0.074 A 
ATOM     41  C   UNL A   1      42.625  28.711  28.485  1.00  0.00     0.049 A 
ATOM     42  N   UNL A   1      42.346  25.558  27.821  1.00  0.00    -0.248 NA
ATOM     43  C   UNL A   1      41.686  26.667  25.902  1.00  0.00     0.031 C 
ATOM     44  C   UNL A   1      42.608  30.080  29.007  1.00  0.00     0.029 A 
ATOM     45  N   UNL A   1      43.959  28.441  28.380  1.00  0.00    -0.354 N 
ATOM     46  C   UNL A   1      42.630  24.747  26.726  1.00  0.00     0.074 A 
ATOM     47  C   UNL A   1      42.061  25.423  25.587  1.00  0.00     0.031 C 
ATOM     48  C   UNL A   1      43.856  30.596  28.967  1.00  0.00     0.029 A 
ATOM     49  C   UNL A   1      44.776  29.533  28.617  1.00  0.00     0.049 A 
ATOM     50  H   UNL A   1      44.309  27.549  28.156  1.00  0.00     0.167 HD
ATOM     51  C   UNL A   1      43.470  23.675  26.835  1.00  0.00     0.034 A 
ATOM     52  C   UNL A   1      46.129  29.576  28.581  1.00  0.00     0.034 A 
ATOM     53  C   UNL A   1      43.718  23.351  28.223  1.00  0.00     0.049 A 
ATOM     54  C   UNL A   1      46.612  28.208  28.873  1.00  0.00     0.074 A 
ATOM     55  C   UNL A   1      42.927  23.004  29.303  1.00  0.00     0.029 A 
ATOM     56  N   UNL A   1      44.928  23.718  28.766  1.00  0.00    -0.354 N 
ATOM     57  N   UNL A   1      46.413  27.608  30.015  1.00  0.00    -0.248 NA
ATOM     58  C   UNL A   1      46.958  27.329  27.769  1.00  0.00     0.031 C 
ATOM     59  C   UNL A   1      43.514  23.677  30.417  1.00  0.00     0.029 A 
ATOM     60  C   UNL A   1      44.660  24.336  29.963  1.00  0.00     0.049 A 
ATOM     61  H   UNL A   1      45.817  23.566  28.373  1.00  0.00     0.167 HD
ATOM     62  C   UNL A   1      46.180  26.282  29.691  1.00  0.00     0.074 A 
ATOM     63  C   UNL A   1      46.655  26.148  28.316  1.00  0.00     0.031 C 
ATOM     64  C   UNL A   1      45.385  25.487  30.469  1.00  0.00     0.034 A 
BRANCH  51  65
ATOM     65  C   UNL A   1      44.330  23.090  25.733  1.00  0.00     0.023 A 
ATOM     66  C   UNL A   1      44.263  21.695  25.524  1.00  0.00     0.031 A 
ATOM     67  C   UNL A   1      45.393  23.751  25.081  1.00  0.00     0.131 A 
ATOM     68  C   UNL A   1      45.260  21.015  24.801  1.00  0.00     0.055 A 
ATOM     69  C   UNL A   1      46.341  23.080  24.299  1.00  0.00     0.041 A 
ATOM     70  F   UNL A   1      45.629  25.058  25.235  1.00  0.00    -0.206 F 
ATOM     71  C   UNL A   1      46.300  21.701  24.183  1.00  0.00     0.022 A 
BRANCH  68  72
ATOM     72  S   UNL A   1      45.278  19.202  24.850  1.00  0.00     0.124 S 
ATOM     73  O   UNL A   1      45.050  18.867  23.448  1.00  0.00    -0.237 OA
ATOM     74  O   UNL A   1      46.612  18.927  25.372  1.00  0.00    -0.237 OA
ATOM     75  O   UNL A   1      44.176  18.877  25.754  1.00  0.00    -0.744 OA
ENDBRANCH  68  72
ENDBRANCH  51  65
BRANCH  52  76
ATOM     76  C   UNL A   1      46.953  30.677  28.035  1.00  0.00     0.023 A 
ATOM     77  C   UNL A   1      46.416  31.688  27.220  1.00  0.00     0.031 A 
ATOM     78  C   UNL A   1      48.269  30.869  28.515  1.00  0.00     0.131 A 
ATOM     79  C   UNL A   1      47.185  32.834  26.919  1.00  0.00     0.055 A 
ATOM     80  C   UNL A   1      49.026  32.000  28.209  1.00  0.00     0.041 A 
ATOM     81  F   UNL A   1      48.831  29.997  29.369  1.00  0.00    -0.206 F 
ATOM     82  C   UNL A   1      48.482  32.995  27.414  1.00  0.00     0.022 A 
BRANCH  79  83
ATOM     83  S   UNL A   1      46.448  34.191  25.957  1.00  0.00     0.124 S 
ATOM     84  O   UNL A   1      47.567  34.623  25.128  1.00  0.00    -0.237 OA
ATOM     85  O   UNL A   1      45.349  33.525  25.268  1.00  0.00    -0.237 OA
ATOM     86  O   UNL A   1      46.035  35.149  26.983  1.00  0.00    -0.744 OA
ENDBRANCH  79  83
ENDBRANCH  52  76
BRANCH  64  87
ATOM     87  C   UNL A   1      45.045  25.950  31.872  1.00  0.00     0.023 A 
ATOM     88  C   UNL A   1      43.856  26.621  32.235  1.00  0.00     0.031 A 
ATOM     89  C   UNL A   1      45.926  25.581  32.905  1.00  0.00     0.131 A 
ATOM     90  C   UNL A   1      43.595  26.910  33.590  1.00  0.00     0.055 A 
ATOM     91  C   UNL A   1      45.654  25.851  34.247  1.00  0.00     0.041 A 
ATOM     92  F   UNL A   1      47.060  24.914  32.629  1.00  0.00    -0.206 F 
ATOM     93  C   UNL A   1      44.490  26.523  34.593  1.00  0.00     0.022 A 
BRANCH  90  94
ATOM     94  S   UNL A   1      42.086  27.810  34.073  1.00  0.00     0.124 S 
ATOM     95  O   UNL A   1      41.548  28.285  32.803  1.00  0.00    -0.237 OA
ATOM     96  O   UNL A   1      41.305  26.779  34.751  1.00  0.00    -0.237 OA
ATOM     97  O   UNL A   1      42.587  28.868  34.953  1.00  0.00    -0.744 OA
ENDBRANCH  90  94
ENDBRANCH  64  87
ENDBRANCH  38  39
ENDBRANCH  30  33
ENDBRANCH  28  29
ENDBRANCH   1  28
TORSDOF 16
ENDMDL
MODEL 2
REMARK VINA RESULT:     -12.8      1.727      2.161
REMARK SMILES Cc1nsc(NC(=O)[C@]2([NH3+])CCC[C@@H](C)C2)c1C(=O)NCCCNC(=O)c1ccc(-c2c3nc(c(-c4cc(S(=O)(=O)[O-])ccc4F)c4ccc([nH]4)c(-c4cc(S(=O)(=O)[O-])ccc4F)c4nc(c(-c5cc(S(=O)(=O)[O-])ccc5F)c5ccc2[nH]5)C=C4)C=C3)cc1
REMARK SMILES IDX 22 1 21 2 20 3 18 4 19 5 17 7 1 8 2 9 3 10 4 11 5 12 6 13
REMARK SMILES IDX 7 14 8 16 9 17 11 18 16 19 12 20 14 21 13 22 15 23 10 24
REMARK SMILES IDX 23 28 24 29 25 30 26 32 27 33 28 34 89 35 29 36 88 37 30 38
REMARK SMILES IDX 31 39 32 40 82 41 33 42 87 43 81 44 83 45 34 46 86 47 80 48
REMARK SMILES IDX 79 49 35 51 67 52 47 53 66 54 48 55 51 56 65 57 84 58 49 59
REMARK SMILES IDX 50 60 64 62 85 63 52 64 36 65 37 66 45 67 38 68 44 69 46 70
REMARK SMILES IDX 43 71 39 72 40 73 41 74 42 75 68 76 69 77 77 78 70 79 76 80
REMARK SMILES IDX 78 81 75 82 71 83 72 84 73 85 74 86 53 87 54 88 62 89 55 90
REMARK SMILES IDX 61 91 63 92 60 93 56 94 57 95 58 96 59 97
REMARK H PARENT 20 6 6 15 10 25 10 26 10 27 24 31 83 50 51 61
REMARK Flexibility Score: inf
ROOT
ATOM      1  C   UNL A   1      34.390  30.344  26.879  1.00  0.00     0.042 C 
ENDROOT
BRANCH   1   2
ATOM      2  C   UNL A   1      32.864  30.282  26.966  1.00  0.00     0.118 C 
BRANCH   2   3
ATOM      3  N   UNL A   1      32.312  29.063  27.519  1.00  0.00    -0.352 N 
ATOM      4  C   UNL A   1      31.927  27.851  27.015  1.00  0.00     0.256 C 
ATOM      5  O   UNL A   1      31.754  26.972  27.866  1.00  0.00    -0.269 OA
ATOM      6  H   UNL A   1      32.184  29.120  28.493  1.00  0.00     0.163 HD
BRANCH   4   7
ATOM      7  C   UNL A   1      31.586  27.584  25.615  1.00  0.00     0.097 A 
ATOM      8  C   UNL A   1      33.442  28.624  24.002  1.00  0.00     0.069 C 
ATOM      9  C   UNL A   1      32.126  28.021  24.337  1.00  0.00     0.066 A 
ATOM     10  N   UNL A   1      31.357  27.786  23.271  1.00  0.00    -0.195 NA
ATOM     11  S   UNL A   1      30.083  26.872  23.737  1.00  0.00    -0.017 S 
ATOM     12  C   UNL A   1      30.627  26.600  25.318  1.00  0.00     0.129 A 
BRANCH  12  13
ATOM     13  N   UNL A   1      30.059  25.663  26.168  1.00  0.00    -0.310 N 
ATOM     14  C   UNL A   1      30.293  24.331  26.414  1.00  0.00     0.286 C 
ATOM     15  H   UNL A   1      29.329  26.032  26.716  1.00  0.00     0.171 HD
ATOM     16  O   UNL A   1      29.536  23.784  27.230  1.00  0.00    -0.267 OA
BRANCH  14  17
ATOM     17  C   UNL A   1      31.458  23.500  25.770  1.00  0.00     0.174 C 
ATOM     18  C   UNL A   1      32.832  24.199  25.972  1.00  0.00     0.079 C 
ATOM     19  C   UNL A   1      31.261  23.399  24.238  1.00  0.00     0.082 C 
ATOM     20  C   UNL A   1      33.982  23.421  25.313  1.00  0.00     0.007 C 
ATOM     21  C   UNL A   1      32.367  22.663  23.465  1.00  0.00    -0.008 C 
ATOM     22  C   UNL A   1      33.756  23.209  23.817  1.00  0.00     0.004 C 
ATOM     23  C   UNL A   1      32.274  21.144  23.617  1.00  0.00     0.008 C 
BRANCH  17  24
ATOM     24  N   UNL A   1      31.586  22.228  26.513  1.00  0.00    -0.345 N 
ATOM     25  H   UNL A   1      31.739  22.426  27.501  1.00  0.00     0.345 HD
ATOM     26  H   UNL A   1      32.376  21.697  26.146  1.00  0.00     0.345 HD
ATOM     27  H   UNL A   1      30.730  21.684  26.404  1.00  0.00     0.345 HD
ENDBRANCH  17  24
ENDBRANCH  14  17
ENDBRANCH  12  13
ENDBRANCH   4   7
ENDBRANCH   2   3
ENDBRANCH   1   2
BRANCH   1  28
ATOM     28  C   UNL A   1      35.082  29.375  27.830  1.00  0.00     0.118 C 
BRANCH  28  29
ATOM     29  N   UNL A   1      35.459  30.025  29.088  1.00  0.00    -0.352 N 
ATOM     30  C   UNL A   1      36.609  29.879  29.840  1.00  0.00     0.251 C 
ATOM     31  H   UNL A   1      34.796  30.657  29.450  1.00  0.00     0.163 HD
ATOM     32  O   UNL A   1      36.660  30.306  30.981  1.00  0.00    -0.269 OA
BRANCH  30  33
ATOM     33  C   UNL A   1      37.739  29.146  29.242  1.00  0.00     0.039 A 
ATOM     34  C   UNL A   1      38.352  29.643  28.095  1.00  0.00     0.014 A 
ATOM     35  C   UNL A   1      38.274  28.061  29.932  1.00  0.00     0.014 A 
ATOM     36  C   UNL A   1      39.593  29.131  27.726  1.00  0.00     0.010 A 
ATOM     37  C   UNL A   1      39.556  27.642  29.633  1.00  0.00     0.010 A 
ATOM     38  C   UNL A   1      40.231  28.170  28.532  1.00  0.00    -0.014 A 
BRANCH  38  39
ATOM     39  C   UNL A   1      41.633  27.824  28.262  1.00  0.00     0.031 A 
ATOM     40  C   UNL A   1      41.875  26.588  27.460  1.00  0.00     0.074 A 
ATOM     41  C   UNL A   1      42.709  28.581  28.559  1.00  0.00     0.049 A 
ATOM     42  N   UNL A   1      42.289  25.444  27.896  1.00  0.00    -0.248 NA
ATOM     43  C   UNL A   1      41.544  26.588  26.030  1.00  0.00     0.031 C 
ATOM     44  C   UNL A   1      42.768  29.946  29.088  1.00  0.00     0.029 A 
ATOM     45  N   UNL A   1      44.024  28.272  28.367  1.00  0.00    -0.354 N 
ATOM     46  C   UNL A   1      42.478  24.633  26.781  1.00  0.00     0.074 A 
ATOM     47  C   UNL A   1      41.859  25.335  25.685  1.00  0.00     0.031 C 
ATOM     48  C   UNL A   1      44.026  30.424  28.972  1.00  0.00     0.029 A 
ATOM     49  C   UNL A   1      44.889  29.336  28.557  1.00  0.00     0.049 A 
ATOM     50  H   UNL A   1      44.332  27.370  28.116  1.00  0.00     0.167 HD
ATOM     51  C   UNL A   1      43.288  23.534  26.830  1.00  0.00     0.034 A 
ATOM     52  C   UNL A   1      46.237  29.337  28.436  1.00  0.00     0.034 A 
ATOM     53  C   UNL A   1      43.614  23.192  28.198  1.00  0.00     0.049 A 
ATOM     54  C   UNL A   1      46.695  27.952  28.688  1.00  0.00     0.074 A 
ATOM     55  C   UNL A   1      42.883  22.862  29.324  1.00  0.00     0.029 A 
ATOM     56  N   UNL A   1      44.868  23.517  28.665  1.00  0.00    -0.354 N 
ATOM     57  N   UNL A   1      46.550  27.350  29.838  1.00  0.00    -0.248 NA
ATOM     58  C   UNL A   1      46.942  27.072  27.560  1.00  0.00     0.031 C 
ATOM     59  C   UNL A   1      43.560  23.508  30.402  1.00  0.00     0.029 A 
ATOM     60  C   UNL A   1      44.695  24.134  29.880  1.00  0.00     0.049 A 
ATOM     61  H   UNL A   1      45.725  23.341  28.214  1.00  0.00     0.167 HD
ATOM     62  C   UNL A   1      46.255  26.034  29.522  1.00  0.00     0.074 A 
ATOM     63  C   UNL A   1      46.638  25.897  28.119  1.00  0.00     0.031 C 
ATOM     64  C   UNL A   1      45.487  25.259  30.344  1.00  0.00     0.034 A 
BRANCH  51  65
ATOM     65  C   UNL A   1      44.058  22.932  25.672  1.00  0.00     0.023 A 
ATOM     66  C   UNL A   1      44.047  21.525  25.543  1.00  0.00     0.031 A 
ATOM     67  C   UNL A   1      45.008  23.606  24.876  1.00  0.00     0.131 A 
ATOM     68  C   UNL A   1      44.997  20.855  24.752  1.00  0.00     0.055 A 
ATOM     69  C   UNL A   1      45.903  22.940  24.031  1.00  0.00     0.041 A 
ATOM     70  F   UNL A   1      45.186  24.930  24.937  1.00  0.00    -0.206 F 
ATOM     71  C   UNL A   1      45.926  21.556  23.990  1.00  0.00     0.022 A 
BRANCH  68  72
ATOM     72  S   UNL A   1      45.121  19.052  24.891  1.00  0.00     0.124 S 
ATOM     73  O   UNL A   1      43.992  18.746  25.764  1.00  0.00    -0.237 OA
ATOM     74  O   UNL A   1      44.994  18.632  23.500  1.00  0.00    -0.237 OA
ATOM     75  O   UNL A   1      46.440  18.847  25.485  1.00  0.00    -0.744 OA
ENDBRANCH  68  72
ENDBRANCH  51  65
BRANCH  52  76
ATOM     76  C   UNL A   1      47.059  30.416  27.845  1.00  0.00     0.023 A 
ATOM     77  C   UNL A   1      46.493  31.511  27.169  1.00  0.00     0.031 A 
ATOM     78  C   UNL A   1      48.438  30.491  28.150  1.00  0.00     0.131 A 
ATOM     79  C   UNL A   1      47.296  32.622  26.830  1.00  0.00     0.055 A 
ATOM     80  C   UNL A   1      49.228  31.588  27.806  1.00  0.00     0.041 A 
ATOM     81  F   UNL A   1      49.044  29.531  28.869  1.00  0.00    -0.206 F 
ATOM     82  C   UNL A   1      48.656  32.667  27.151  1.00  0.00     0.022 A 
BRANCH  79  83
ATOM     83  S   UNL A   1      46.539  34.083  26.055  1.00  0.00     0.124 S 
ATOM     84  O   UNL A   1      45.427  33.498  25.316  1.00  0.00    -0.237 OA
ATOM     85  O   UNL A   1      46.190  34.904  27.210  1.00  0.00    -0.237 OA
ATOM     86  O   UNL A   1      47.616  34.624  25.226  1.00  0.00    -0.744 OA
ENDBRANCH  79  83
ENDBRANCH  52  76
BRANCH  64  87
ATOM     87  C   UNL A   1      45.251  25.721  31.769  1.00  0.00     0.023 A 
ATOM     88  C   UNL A   1      46.133  25.494  32.849  1.00  0.00     0.031 A 
ATOM     89  C   UNL A   1      44.128  26.535  32.006  1.00  0.00     0.131 A 
ATOM     90  C   UNL A   1      45.865  26.063  34.111  1.00  0.00     0.055 A 
ATOM     91  C   UNL A   1      43.876  27.112  33.251  1.00  0.00     0.041 A 
ATOM     92  F   UNL A   1      43.266  26.813  31.013  1.00  0.00    -0.206 F 
ATOM     93  C   UNL A   1      44.742  26.872  34.311  1.00  0.00     0.022 A 
BRANCH  90  94
ATOM     94  S   UNL A   1      46.970  25.747  35.525  1.00  0.00     0.124 S 
ATOM     95  O   UNL A   1      48.000  24.878  34.969  1.00  0.00    -0.237 OA
ATOM     96  O   UNL A   1      47.403  27.092  35.895  1.00  0.00    -0.237 OA
ATOM     97  O   UNL A   1      46.094  25.101  36.504  1.00  0.00    -0.744 OA
ENDBRANCH  90  94
ENDBRANCH  64  87
ENDBRANCH  38  39
ENDBRANCH  30  33
ENDBRANCH  28  29
ENDBRANCH   1  28
TORSDOF 16
ENDMDL
MODEL 3
REMARK VINA RESULT:     -12.6      4.457     10.322
REMARK SMILES Cc1nsc(NC(=O)[C@]2([NH3+])CCC[C@@H](C)C2)c1C(=O)NCCCNC(=O)c1ccc(-c2c3nc(c(-c4cc(S(=O)(=O)[O-])ccc4F)c4ccc([nH]4)c(-c4cc(S(=O)(=O)[O-])ccc4F)c4nc(c(-c5cc(S(=O)(=O)[O-])ccc5F)c5ccc2[nH]5)C=C4)C=C3)cc1
REMARK SMILES IDX 22 1 21 2 20 3 18 4 19 5 17 7 1 8 2 9 3 10 4 11 5 12 6 13
REMARK SMILES IDX 7 14 8 16 9 17 11 18 16 19 12 20 14 21 13 22 15 23 10 24
REMARK SMILES IDX 23 28 24 29 25 30 26 32 27 33 28 34 89 35 29 36 88 37 30 38
REMARK SMILES IDX 31 39 32 40 82 41 33 42 87 43 81 44 83 45 34 46 86 47 80 48
REMARK SMILES IDX 79 49 35 51 67 52 47 53 66 54 48 55 51 56 65 57 84 58 49 59
REMARK SMILES IDX 50 60 64 62 85 63 52 64 36 65 37 66 45 67 38 68 44 69 46 70
REMARK SMILES IDX 43 71 39 72 40 73 41 74 42 75 68 76 69 77 77 78 70 79 76 80
REMARK SMILES IDX 78 81 75 82 71 83 72 84 73 85 74 86 53 87 54 88 62 89 55 90
REMARK SMILES IDX 61 91 63 92 60 93 56 94 57 95 58 96 59 97
REMARK H PARENT 20 6 6 15 10 25 10 26 10 27 24 31 83 50 51 61
REMARK Flexibility Score: inf
ROOT
ATOM      1  C   UNL A   1      38.185  22.742  25.968  1.00  0.00     0.042 C 
ENDROOT
BRANCH   1   2
ATOM      2  C   UNL A   1      36.668  22.674  25.778  1.00  0.00     0.118 C 
BRANCH   2   3
ATOM      3  N   UNL A   1      36.000  23.943  25.574  1.00  0.00    -0.352 N 
ATOM      4  C   UNL A   1      34.701  24.353  25.456  1.00  0.00     0.256 C 
ATOM      5  O   UNL A   1      34.535  25.573  25.558  1.00  0.00    -0.269 OA
ATOM      6  H   UNL A   1      36.635  24.691  25.503  1.00  0.00     0.163 HD
BRANCH   4   7
ATOM      7  C   UNL A   1      33.570  23.495  25.094  1.00  0.00     0.097 A 
ATOM      8  C   UNL A   1      32.331  22.626  27.293  1.00  0.00     0.069 C 
ATOM      9  C   UNL A   1      32.657  22.647  25.844  1.00  0.00     0.066 A 
ATOM     10  N   UNL A   1      31.933  21.790  25.118  1.00  0.00    -0.195 NA
ATOM     11  S   UNL A   1      32.175  22.111  23.534  1.00  0.00    -0.017 S 
ATOM     12  C   UNL A   1      33.086  23.518  23.773  1.00  0.00     0.129 A 
BRANCH  12  13
ATOM     13  N   UNL A   1      33.399  24.406  22.754  1.00  0.00    -0.310 N 
ATOM     14  C   UNL A   1      32.900  25.625  22.362  1.00  0.00     0.286 C 
ATOM     15  H   UNL A   1      34.142  24.095  22.188  1.00  0.00     0.171 HD
ATOM     16  O   UNL A   1      33.407  26.122  21.346  1.00  0.00    -0.267 OA
BRANCH  14  17
ATOM     17  C   UNL A   1      31.787  26.418  23.133  1.00  0.00     0.174 C 
ATOM     18  C   UNL A   1      30.664  25.471  23.641  1.00  0.00     0.079 C 
ATOM     19  C   UNL A   1      31.090  27.422  22.181  1.00  0.00     0.082 C 
ATOM     20  C   UNL A   1      29.543  26.235  24.363  1.00  0.00     0.007 C 
ATOM     21  C   UNL A   1      29.929  28.226  22.788  1.00  0.00    -0.008 C 
ATOM     22  C   UNL A   1      28.913  27.311  23.480  1.00  0.00     0.004 C 
ATOM     23  C   UNL A   1      30.414  29.360  23.693  1.00  0.00     0.008 C 
BRANCH  17  24
ATOM     24  N   UNL A   1      32.382  26.971  24.368  1.00  0.00    -0.345 N 
ATOM     25  H   UNL A   1      31.761  26.788  25.155  1.00  0.00     0.345 HD
ATOM     26  H   UNL A   1      32.511  27.977  24.263  1.00  0.00     0.345 HD
ATOM     27  H   UNL A   1      33.286  26.528  24.537  1.00  0.00     0.345 HD
ENDBRANCH  17  24
ENDBRANCH  14  17
ENDBRANCH  12  13
ENDBRANCH   4   7
ENDBRANCH   2   3
ENDBRANCH   1   2
BRANCH   1  28
ATOM     28  C   UNL A   1      38.664  24.103  26.460  1.00  0.00     0.118 C 
BRANCH  28  29
ATOM     29  N   UNL A   1      39.988  24.437  25.927  1.00  0.00    -0.352 N 
ATOM     30  C   UNL A   1      40.722  25.598  26.070  1.00  0.00     0.251 C 
ATOM     31  H   UNL A   1      40.415  23.731  25.388  1.00  0.00     0.163 HD
ATOM     32  O   UNL A   1      41.695  25.806  25.364  1.00  0.00    -0.269 OA
BRANCH  30  33
ATOM     33  C   UNL A   1      40.261  26.593  27.054  1.00  0.00     0.039 A 
ATOM     34  C   UNL A   1      39.872  26.174  28.325  1.00  0.00     0.014 A 
ATOM     35  C   UNL A   1      40.381  27.945  26.748  1.00  0.00     0.014 A 
ATOM     36  C   UNL A   1      39.744  27.127  29.331  1.00  0.00     0.010 A 
ATOM     37  C   UNL A   1      40.372  28.869  27.774  1.00  0.00     0.010 A 
ATOM     38  C   UNL A   1      40.057  28.476  29.075  1.00  0.00    -0.014 A 
BRANCH  38  39
ATOM     39  C   UNL A   1      40.152  29.416  30.199  1.00  0.00     0.031 A 
ATOM     40  C   UNL A   1      38.916  30.184  30.536  1.00  0.00     0.074 A 
ATOM     41  C   UNL A   1      41.205  29.557  31.030  1.00  0.00     0.049 A 
ATOM     42  N   UNL A   1      38.675  31.427  30.278  1.00  0.00    -0.248 NA
ATOM     43  C   UNL A   1      37.783  29.480  31.150  1.00  0.00     0.031 C 
ATOM     44  C   UNL A   1      42.432  28.762  31.119  1.00  0.00     0.029 A 
ATOM     45  N   UNL A   1      41.346  30.451  32.052  1.00  0.00    -0.354 N 
ATOM     46  C   UNL A   1      37.456  31.733  30.877  1.00  0.00     0.074 A 
ATOM     47  C   UNL A   1      36.887  30.467  31.261  1.00  0.00     0.031 C 
ATOM     48  C   UNL A   1      43.086  29.064  32.262  1.00  0.00     0.029 A 
ATOM     49  C   UNL A   1      42.435  30.207  32.870  1.00  0.00     0.049 A 
ATOM     50  H   UNL A   1      40.728  31.205  32.194  1.00  0.00     0.167 HD
ATOM     51  C   UNL A   1      37.110  33.023  31.164  1.00  0.00     0.034 A 
ATOM     52  C   UNL A   1      42.827  30.912  33.957  1.00  0.00     0.034 A 
ATOM     53  C   UNL A   1      37.988  33.957  30.492  1.00  0.00     0.049 A 
ATOM     54  C   UNL A   1      42.326  32.293  33.779  1.00  0.00     0.074 A 
ATOM     55  C   UNL A   1      38.327  34.205  29.175  1.00  0.00     0.029 A 
ATOM     56  N   UNL A   1      38.962  34.581  31.239  1.00  0.00    -0.354 N 
ATOM     57  N   UNL A   1      42.724  33.080  32.816  1.00  0.00    -0.248 NA
ATOM     58  C   UNL A   1      41.076  32.679  34.411  1.00  0.00     0.031 C 
ATOM     59  C   UNL A   1      39.726  34.491  29.205  1.00  0.00     0.029 A 
ATOM     60  C   UNL A   1      40.139  34.465  30.540  1.00  0.00     0.049 A 
ATOM     61  H   UNL A   1      38.838  35.026  32.108  1.00  0.00     0.167 HD
ATOM     62  C   UNL A   1      41.594  33.784  32.435  1.00  0.00     0.074 A 
ATOM     63  C   UNL A   1      40.650  33.590  33.532  1.00  0.00     0.031 C 
ATOM     64  C   UNL A   1      41.433  34.234  31.154  1.00  0.00     0.034 A 
BRANCH  51  65
ATOM     65  C   UNL A   1      36.194  33.482  32.281  1.00  0.00     0.023 A 
ATOM     66  C   UNL A   1      35.055  34.236  31.922  1.00  0.00     0.031 A 
ATOM     67  C   UNL A   1      36.506  33.472  33.657  1.00  0.00     0.131 A 
ATOM     68  C   UNL A   1      34.357  35.004  32.871  1.00  0.00     0.055 A 
ATOM     69  C   UNL A   1      35.763  34.178  34.611  1.00  0.00     0.041 A 
ATOM     70  F   UNL A   1      37.591  32.860  34.144  1.00  0.00    -0.206 F 
ATOM     71  C   UNL A   1      34.703  34.977  34.218  1.00  0.00     0.022 A 
BRANCH  68  72
ATOM     72  S   UNL A   1      33.116  36.187  32.282  1.00  0.00     0.124 S 
ATOM     73  O   UNL A   1      31.880  35.434  32.466  1.00  0.00    -0.237 OA
ATOM     74  O   UNL A   1      33.325  37.317  33.181  1.00  0.00    -0.237 OA
ATOM     75  O   UNL A   1      33.503  36.419  30.892  1.00  0.00    -0.744 OA
ENDBRANCH  68  72
ENDBRANCH  51  65
BRANCH  52  76
ATOM     76  C   UNL A   1      43.356  30.349  35.219  1.00  0.00     0.023 A 
ATOM     77  C   UNL A   1      43.021  29.060  35.667  1.00  0.00     0.031 A 
ATOM     78  C   UNL A   1      44.405  31.013  35.895  1.00  0.00     0.131 A 
ATOM     79  C   UNL A   1      43.726  28.483  36.747  1.00  0.00     0.055 A 
ATOM     80  C   UNL A   1      45.094  30.441  36.965  1.00  0.00     0.041 A 
ATOM     81  F   UNL A   1      44.850  32.211  35.481  1.00  0.00    -0.206 F 
ATOM     82  C   UNL A   1      44.763  29.165  37.391  1.00  0.00     0.022 A 
BRANCH  79  83
ATOM     83  S   UNL A   1      43.366  26.773  37.253  1.00  0.00     0.124 S 
ATOM     84  O   UNL A   1      41.909  26.748  37.238  1.00  0.00    -0.237 OA
ATOM     85  O   UNL A   1      44.039  25.993  36.221  1.00  0.00    -0.237 OA
ATOM     86  O   UNL A   1      43.972  26.679  38.582  1.00  0.00    -0.744 OA
ENDBRANCH  79  83
ENDBRANCH  52  76
BRANCH  64  87
ATOM     87  C   UNL A   1      42.643  34.275  30.240  1.00  0.00     0.023 A 
ATOM     88  C   UNL A   1      43.040  33.228  29.379  1.00  0.00     0.031 A 
ATOM     89  C   UNL A   1      43.352  35.487  30.161  1.00  0.00     0.131 A 
ATOM     90  C   UNL A   1      44.120  33.414  28.493  1.00  0.00     0.055 A 
ATOM     91  C   UNL A   1      44.408  35.675  29.269  1.00  0.00     0.041 A 
ATOM     92  F   UNL A   1      43.006  36.531  30.933  1.00  0.00    -0.206 F 
ATOM     93  C   UNL A   1      44.800  34.635  28.435  1.00  0.00     0.022 A 
BRANCH  90  94
ATOM     94  S   UNL A   1      44.671  32.062  27.403  1.00  0.00     0.124 S 
ATOM     95  O   UNL A   1      46.110  32.273  27.295  1.00  0.00    -0.237 OA
ATOM     96  O   UNL A   1      44.255  30.871  28.140  1.00  0.00    -0.237 OA
ATOM     97  O   UNL A   1      43.929  32.298  26.164  1.00  0.00    -0.744 OA
ENDBRANCH  90  94
ENDBRANCH  64  87
ENDBRANCH  38  39
ENDBRANCH  30  33
ENDBRANCH  28  29
ENDBRANCH   1  28
TORSDOF 16
ENDMDL
