MODEL 1
REMARK VINA RESULT:     -12.7      0.000      0.000
REMARK SMILES Nc1c(Cl)ccc2c1C=C(C(=O)NCCCNC(=O)c1ccc(-c3c4nc(c(-c5cc(S(=O)(=O)[O-])ccc5F)c5ccc([nH]5)c(-c5cc(S(=O)(=O)[O-])ccc5F)c5nc(c(-c6cc(S(=O)(=O)[O-])ccc6F)c6ccc3[nH]6)C=C5)C=C4)cc1)[C@@H](C(F)(F)F)O2
REMARK SMILES IDX 16 1 15 2 14 3 13 4 11 5 12 6 10 8 2 9 3 10 8 11 4 12 5 13
REMARK SMILES IDX 7 14 9 15 6 16 88 17 83 18 1 19 84 22 85 23 86 24 87 25
REMARK SMILES IDX 17 26 18 27 19 29 20 30 21 31 82 32 22 33 81 34 23 35 24 36
REMARK SMILES IDX 25 37 75 38 26 39 80 40 74 41 76 42 27 43 79 44 73 45 72 46
REMARK SMILES IDX 28 48 60 49 40 50 59 51 41 52 44 53 58 54 77 55 42 56 43 57
REMARK SMILES IDX 57 59 78 60 45 61 29 62 30 63 38 64 31 65 37 66 39 67 36 68
REMARK SMILES IDX 32 69 33 70 34 71 35 72 61 73 62 74 70 75 63 76 69 77 71 78
REMARK SMILES IDX 68 79 64 80 65 81 66 82 67 83 46 84 47 85 55 86 48 87 54 88
REMARK SMILES IDX 56 89 53 90 49 91 50 92 51 93 52 94
REMARK H PARENT 13 7 1 20 1 21 17 28 76 47 44 58
REMARK Flexibility Score: inf
ROOT
ATOM      1  C   UNL A   1      35.809  22.409  25.816  1.00  0.00     0.118 C 
ENDROOT
BRANCH   1   2
ATOM      2  C   UNL A   1      34.631  22.150  26.748  1.00  0.00     0.042 C 
BRANCH   2   3
ATOM      3  C   UNL A   1      33.409  21.631  26.002  1.00  0.00     0.118 C 
BRANCH   3   4
ATOM      4  N   UNL A   1      32.168  22.103  26.599  1.00  0.00    -0.352 N 
ATOM      5  C   UNL A   1      31.455  23.251  26.638  1.00  0.00     0.251 C 
ATOM      6  O   UNL A   1      30.408  23.194  27.292  1.00  0.00    -0.270 OA
ATOM      7  H   UNL A   1      31.726  21.391  27.115  1.00  0.00     0.163 HD
BRANCH   5   8
ATOM      8  C   UNL A   1      31.831  24.525  25.957  1.00  0.00     0.067 C 
ATOM      9  C   UNL A   1      31.894  28.157  26.821  1.00  0.00     0.061 A 
ATOM     10  C   UNL A   1      32.219  29.358  26.148  1.00  0.00     0.064 A 
ATOM     11  C   UNL A   1      32.115  26.936  26.146  1.00  0.00     0.042 A 
ATOM     12  Cl  UNL A   1      31.919  30.896  26.890  1.00  0.00    -0.082 Cl
ATOM     13  C   UNL A   1      32.805  29.352  24.880  1.00  0.00     0.026 A 
ATOM     14  C   UNL A   1      32.690  26.950  24.866  1.00  0.00     0.130 A 
ATOM     15  C   UNL A   1      31.807  25.627  26.731  1.00  0.00     0.027 C 
ATOM     16  C   UNL A   1      33.052  28.142  24.244  1.00  0.00     0.049 A 
ATOM     17  O   UNL A   1      32.963  25.812  24.159  1.00  0.00    -0.475 OA
ATOM     18  C   UNL A   1      32.182  24.637  24.505  1.00  0.00     0.314 C 
BRANCH   9  19
ATOM     19  N   UNL A   1      31.245  28.210  28.062  1.00  0.00    -0.397 N 
ATOM     20  H   UNL A   1      30.312  28.517  28.117  1.00  0.00     0.156 HD
ATOM     21  H   UNL A   1      31.723  27.942  28.880  1.00  0.00     0.156 HD
ENDBRANCH   9  19
BRANCH  18  22
ATOM     22  C   UNL A   1      30.946  24.558  23.589  1.00  0.00     0.429 C 
ATOM     23  F   UNL A   1      30.608  23.265  23.354  1.00  0.00    -0.167 F 
ATOM     24  F   UNL A   1      29.854  25.146  24.132  1.00  0.00    -0.167 F 
ATOM     25  F   UNL A   1      31.146  25.146  22.388  1.00  0.00    -0.167 F 
ENDBRANCH  18  22
ENDBRANCH   5   8
ENDBRANCH   3   4
ENDBRANCH   2   3
ENDBRANCH   1   2
BRANCH   1  26
ATOM     26  N   UNL A   1      36.713  21.262  25.767  1.00  0.00    -0.352 N 
ATOM     27  C   UNL A   1      38.085  21.237  25.773  1.00  0.00     0.251 C 
ATOM     28  H   UNL A   1      36.275  20.381  25.725  1.00  0.00     0.163 HD
ATOM     29  O   UNL A   1      38.683  20.220  25.425  1.00  0.00    -0.269 OA
BRANCH  27  30
ATOM     30  C   UNL A   1      38.835  22.432  26.202  1.00  0.00     0.039 A 
ATOM     31  C   UNL A   1      39.973  22.287  26.998  1.00  0.00     0.014 A 
ATOM     32  C   UNL A   1      38.386  23.703  25.830  1.00  0.00     0.014 A 
ATOM     33  C   UNL A   1      40.695  23.422  27.375  1.00  0.00     0.010 A 
ATOM     34  C   UNL A   1      39.145  24.821  26.142  1.00  0.00     0.010 A 
ATOM     35  C   UNL A   1      40.297  24.693  26.932  1.00  0.00    -0.014 A 
BRANCH  35  36
ATOM     36  C   UNL A   1      41.034  25.918  27.317  1.00  0.00     0.031 A 
ATOM     37  C   UNL A   1      40.349  26.954  28.166  1.00  0.00     0.074 A 
ATOM     38  C   UNL A   1      42.277  26.128  26.847  1.00  0.00     0.049 A 
ATOM     39  N   UNL A   1      40.787  28.122  28.549  1.00  0.00    -0.248 NA
ATOM     40  C   UNL A   1      38.983  26.643  28.625  1.00  0.00     0.031 C 
ATOM     41  C   UNL A   1      43.020  25.206  25.986  1.00  0.00     0.029 A 
ATOM     42  N   UNL A   1      43.133  27.187  27.017  1.00  0.00    -0.354 N 
ATOM     43  C   UNL A   1      39.751  28.690  29.280  1.00  0.00     0.074 A 
ATOM     44  C   UNL A   1      38.643  27.765  29.244  1.00  0.00     0.031 C 
ATOM     45  C   UNL A   1      44.230  25.728  25.725  1.00  0.00     0.029 A 
ATOM     46  C   UNL A   1      44.337  27.036  26.367  1.00  0.00     0.049 A 
ATOM     47  H   UNL A   1      42.907  27.981  27.552  1.00  0.00     0.167 HD
ATOM     48  C   UNL A   1      39.739  29.868  29.945  1.00  0.00     0.034 A 
ATOM     49  C   UNL A   1      45.405  27.857  26.305  1.00  0.00     0.034 A 
ATOM     50  C   UNL A   1      40.863  30.760  30.006  1.00  0.00     0.049 A 
ATOM     51  C   UNL A   1      45.364  29.164  27.057  1.00  0.00     0.074 A 
ATOM     52  C   UNL A   1      40.971  31.949  30.706  1.00  0.00     0.029 A 
ATOM     53  N   UNL A   1      42.073  30.562  29.359  1.00  0.00    -0.354 N 
ATOM     54  N   UNL A   1      44.406  29.650  27.810  1.00  0.00    -0.248 NA
ATOM     55  C   UNL A   1      46.548  30.030  26.960  1.00  0.00     0.031 C 
ATOM     56  C   UNL A   1      42.231  32.489  30.448  1.00  0.00     0.029 A 
ATOM     57  C   UNL A   1      42.929  31.614  29.631  1.00  0.00     0.049 A 
ATOM     58  H   UNL A   1      42.290  29.788  28.791  1.00  0.00     0.167 HD
ATOM     59  C   UNL A   1      44.886  30.858  28.308  1.00  0.00     0.074 A 
ATOM     60  C   UNL A   1      46.223  31.025  27.776  1.00  0.00     0.031 C 
ATOM     61  C   UNL A   1      44.273  31.747  29.127  1.00  0.00     0.034 A 
BRANCH  48  62
ATOM     62  C   UNL A   1      38.500  30.256  30.703  1.00  0.00     0.023 A 
ATOM     63  C   UNL A   1      37.516  31.047  30.086  1.00  0.00     0.031 A 
ATOM     64  C   UNL A   1      38.364  29.964  32.072  1.00  0.00     0.131 A 
ATOM     65  C   UNL A   1      36.456  31.554  30.847  1.00  0.00     0.055 A 
ATOM     66  C   UNL A   1      37.287  30.441  32.818  1.00  0.00     0.041 A 
ATOM     67  F   UNL A   1      39.279  29.209  32.701  1.00  0.00    -0.206 F 
ATOM     68  C   UNL A   1      36.333  31.250  32.207  1.00  0.00     0.022 A 
BRANCH  65  69
ATOM     69  S   UNL A   1      35.219  32.654  30.109  1.00  0.00     0.124 S 
ATOM     70  O   UNL A   1      34.352  32.946  31.247  1.00  0.00    -0.237 OA
ATOM     71  O   UNL A   1      36.042  33.768  29.649  1.00  0.00    -0.237 OA
ATOM     72  O   UNL A   1      34.609  31.841  29.062  1.00  0.00    -0.744 OA
ENDBRANCH  65  69
ENDBRANCH  48  62
BRANCH  49  73
ATOM     73  C   UNL A   1      46.627  27.420  25.573  1.00  0.00     0.023 A 
ATOM     74  C   UNL A   1      46.888  27.842  24.258  1.00  0.00     0.031 A 
ATOM     75  C   UNL A   1      47.517  26.506  26.163  1.00  0.00     0.131 A 
ATOM     76  C   UNL A   1      47.987  27.318  23.563  1.00  0.00     0.055 A 
ATOM     77  C   UNL A   1      48.642  26.030  25.490  1.00  0.00     0.041 A 
ATOM     78  F   UNL A   1      47.300  26.066  27.413  1.00  0.00    -0.206 F 
ATOM     79  C   UNL A   1      48.876  26.428  24.177  1.00  0.00     0.022 A 
BRANCH  76  80
ATOM     80  S   UNL A   1      48.257  27.706  21.813  1.00  0.00     0.124 S 
ATOM     81  O   UNL A   1      49.373  28.644  21.874  1.00  0.00    -0.237 OA
ATOM     82  O   UNL A   1      48.570  26.389  21.262  1.00  0.00    -0.237 OA
ATOM     83  O   UNL A   1      46.982  28.271  21.384  1.00  0.00    -0.744 OA
ENDBRANCH  76  80
ENDBRANCH  49  73
BRANCH  61  84
ATOM     84  C   UNL A   1      45.026  32.982  29.551  1.00  0.00     0.023 A 
ATOM     85  C   UNL A   1      44.989  34.132  28.740  1.00  0.00     0.031 A 
ATOM     86  C   UNL A   1      45.908  32.959  30.642  1.00  0.00     0.131 A 
ATOM     87  C   UNL A   1      45.858  35.196  29.005  1.00  0.00     0.055 A 
ATOM     88  C   UNL A   1      46.741  34.040  30.929  1.00  0.00     0.041 A 
ATOM     89  F   UNL A   1      45.984  31.877  31.434  1.00  0.00    -0.206 F 
ATOM     90  C   UNL A   1      46.729  35.159  30.100  1.00  0.00     0.022 A 
BRANCH  87  91
ATOM     91  S   UNL A   1      45.945  36.629  27.897  1.00  0.00     0.124 S 
ATOM     92  O   UNL A   1      46.152  35.995  26.596  1.00  0.00    -0.237 OA
ATOM     93  O   UNL A   1      44.635  37.244  28.089  1.00  0.00    -0.237 OA
ATOM     94  O   UNL A   1      47.080  37.395  28.399  1.00  0.00    -0.744 OA
ENDBRANCH  87  91
ENDBRANCH  61  84
ENDBRANCH  35  36
ENDBRANCH  27  30
ENDBRANCH   1  26
TORSDOF 15
ENDMDL
MODEL 2
REMARK VINA RESULT:     -12.5      5.706     10.674
REMARK SMILES Nc1c(Cl)ccc2c1C=C(C(=O)NCCCNC(=O)c1ccc(-c3c4nc(c(-c5cc(S(=O)(=O)[O-])ccc5F)c5ccc([nH]5)c(-c5cc(S(=O)(=O)[O-])ccc5F)c5nc(c(-c6cc(S(=O)(=O)[O-])ccc6F)c6ccc3[nH]6)C=C5)C=C4)cc1)[C@@H](C(F)(F)F)O2
REMARK SMILES IDX 16 1 15 2 14 3 13 4 11 5 12 6 10 8 2 9 3 10 8 11 4 12 5 13
REMARK SMILES IDX 7 14 9 15 6 16 88 17 83 18 1 19 84 22 85 23 86 24 87 25
REMARK SMILES IDX 17 26 18 27 19 29 20 30 21 31 82 32 22 33 81 34 23 35 24 36
REMARK SMILES IDX 25 37 75 38 26 39 80 40 74 41 76 42 27 43 79 44 73 45 72 46
REMARK SMILES IDX 28 48 60 49 40 50 59 51 41 52 44 53 58 54 77 55 42 56 43 57
REMARK SMILES IDX 57 59 78 60 45 61 29 62 30 63 38 64 31 65 37 66 39 67 36 68
REMARK SMILES IDX 32 69 33 70 34 71 35 72 61 73 62 74 70 75 63 76 69 77 71 78
REMARK SMILES IDX 68 79 64 80 65 81 66 82 67 83 46 84 47 85 55 86 48 87 54 88
REMARK SMILES IDX 56 89 53 90 49 91 50 92 51 93 52 94
REMARK H PARENT 13 7 1 20 1 21 17 28 76 47 44 58
REMARK Flexibility Score: inf
ROOT
ATOM      1  C   UNL A   1      32.701  32.354  27.229  1.00  0.00     0.118 C 
ENDROOT
BRANCH   1   2
ATOM      2  C   UNL A   1      31.410  31.857  26.589  1.00  0.00     0.042 C 
BRANCH   2   3
ATOM      3  C   UNL A   1      31.628  30.608  25.747  1.00  0.00     0.118 C 
BRANCH   3   4
ATOM      4  N   UNL A   1      30.701  30.540  24.626  1.00  0.00    -0.352 N 
ATOM      5  C   UNL A   1      30.333  29.634  23.692  1.00  0.00     0.251 C 
ATOM      6  O   UNL A   1      29.465  30.022  22.903  1.00  0.00    -0.270 OA
ATOM      7  H   UNL A   1      30.207  31.384  24.518  1.00  0.00     0.163 HD
BRANCH   5   8
ATOM      8  C   UNL A   1      30.875  28.249  23.571  1.00  0.00     0.067 C 
ATOM      9  C   UNL A   1      30.340  24.959  25.255  1.00  0.00     0.061 A 
ATOM     10  C   UNL A   1      30.892  23.661  25.151  1.00  0.00     0.064 A 
ATOM     11  C   UNL A   1      30.760  25.937  24.325  1.00  0.00     0.042 A 
ATOM     12  Cl  UNL A   1      30.470  22.427  26.293  1.00  0.00    -0.082 Cl
ATOM     13  C   UNL A   1      31.776  23.320  24.125  1.00  0.00     0.026 A 
ATOM     14  C   UNL A   1      31.661  25.580  23.310  1.00  0.00     0.130 A 
ATOM     15  C   UNL A   1      30.272  27.320  24.337  1.00  0.00     0.027 C 
ATOM     16  C   UNL A   1      32.151  24.282  23.195  1.00  0.00     0.049 A 
ATOM     17  O   UNL A   1      32.093  26.457  22.355  1.00  0.00    -0.475 OA
ATOM     18  C   UNL A   1      32.034  27.867  22.703  1.00  0.00     0.314 C 
BRANCH   9  19
ATOM     19  N   UNL A   1      29.511  25.277  26.339  1.00  0.00    -0.397 N 
ATOM     20  H   UNL A   1      28.813  25.963  26.241  1.00  0.00     0.156 HD
ATOM     21  H   UNL A   1      29.627  24.814  27.200  1.00  0.00     0.156 HD
ENDBRANCH   9  19
BRANCH  18  22
ATOM     22  C   UNL A   1      33.387  28.303  23.297  1.00  0.00     0.429 C 
ATOM     23  F   UNL A   1      33.390  28.146  24.645  1.00  0.00    -0.167 F 
ATOM     24  F   UNL A   1      34.426  27.573  22.825  1.00  0.00    -0.167 F 
ATOM     25  F   UNL A   1      33.678  29.599  23.042  1.00  0.00    -0.167 F 
ENDBRANCH  18  22
ENDBRANCH   5   8
ENDBRANCH   3   4
ENDBRANCH   2   3
ENDBRANCH   1   2
BRANCH   1  26
ATOM     26  N   UNL A   1      32.610  33.768  27.587  1.00  0.00    -0.352 N 
ATOM     27  C   UNL A   1      33.238  34.450  28.599  1.00  0.00     0.251 C 
ATOM     28  H   UNL A   1      32.013  34.308  27.021  1.00  0.00     0.163 HD
ATOM     29  O   UNL A   1      32.823  35.555  28.945  1.00  0.00    -0.269 OA
BRANCH  27  30
ATOM     30  C   UNL A   1      34.411  33.852  29.263  1.00  0.00     0.039 A 
ATOM     31  C   UNL A   1      35.697  34.232  28.872  1.00  0.00     0.014 A 
ATOM     32  C   UNL A   1      34.228  32.890  30.261  1.00  0.00     0.014 A 
ATOM     33  C   UNL A   1      36.803  33.684  29.525  1.00  0.00     0.010 A 
ATOM     34  C   UNL A   1      35.324  32.404  30.959  1.00  0.00     0.010 A 
ATOM     35  C   UNL A   1      36.622  32.783  30.586  1.00  0.00    -0.014 A 
BRANCH  35  36
ATOM     36  C   UNL A   1      37.771  32.178  31.298  1.00  0.00     0.031 A 
ATOM     37  C   UNL A   1      38.504  31.027  30.667  1.00  0.00     0.074 A 
ATOM     38  C   UNL A   1      38.101  32.611  32.528  1.00  0.00     0.049 A 
ATOM     39  N   UNL A   1      39.481  30.310  31.152  1.00  0.00    -0.248 NA
ATOM     40  C   UNL A   1      38.064  30.612  29.322  1.00  0.00     0.031 C 
ATOM     41  C   UNL A   1      37.432  33.696  33.248  1.00  0.00     0.029 A 
ATOM     42  N   UNL A   1      39.076  32.187  33.396  1.00  0.00    -0.354 N 
ATOM     43  C   UNL A   1      39.766  29.356  30.183  1.00  0.00     0.074 A 
ATOM     44  C   UNL A   1      38.824  29.547  29.105  1.00  0.00     0.031 C 
ATOM     45  C   UNL A   1      38.033  33.869  34.437  1.00  0.00     0.029 A 
ATOM     46  C   UNL A   1      39.104  32.887  34.581  1.00  0.00     0.049 A 
ATOM     47  H   UNL A   1      39.696  31.451  33.192  1.00  0.00     0.167 HD
ATOM     48  C   UNL A   1      40.744  28.422  30.183  1.00  0.00     0.034 A 
ATOM     49  C   UNL A   1      39.908  32.753  35.656  1.00  0.00     0.034 A 
ATOM     50  C   UNL A   1      41.700  28.270  31.245  1.00  0.00     0.049 A 
ATOM     51  C   UNL A   1      40.991  31.704  35.629  1.00  0.00     0.074 A 
ATOM     52  C   UNL A   1      42.769  27.394  31.311  1.00  0.00     0.029 A 
ATOM     53  N   UNL A   1      41.714  29.013  32.415  1.00  0.00    -0.354 N 
ATOM     54  N   UNL A   1      41.298  30.861  34.670  1.00  0.00    -0.248 NA
ATOM     55  C   UNL A   1      41.843  31.589  36.821  1.00  0.00     0.031 C 
ATOM     56  C   UNL A   1      43.403  27.578  32.539  1.00  0.00     0.029 A 
ATOM     57  C   UNL A   1      42.764  28.605  33.218  1.00  0.00     0.049 A 
ATOM     58  H   UNL A   1      41.072  29.724  32.642  1.00  0.00     0.167 HD
ATOM     59  C   UNL A   1      42.400  30.146  35.127  1.00  0.00     0.074 A 
ATOM     60  C   UNL A   1      42.712  30.658  36.445  1.00  0.00     0.031 C 
ATOM     61  C   UNL A   1      43.088  29.153  34.511  1.00  0.00     0.034 A 
BRANCH  48  62
ATOM     62  C   UNL A   1      40.877  27.515  28.991  1.00  0.00     0.023 A 
ATOM     63  C   UNL A   1      41.850  27.778  28.012  1.00  0.00     0.031 A 
ATOM     64  C   UNL A   1      39.952  26.482  28.758  1.00  0.00     0.131 A 
ATOM     65  C   UNL A   1      41.852  27.040  26.822  1.00  0.00     0.055 A 
ATOM     66  C   UNL A   1      39.980  25.727  27.587  1.00  0.00     0.041 A 
ATOM     67  F   UNL A   1      39.007  26.194  29.668  1.00  0.00    -0.206 F 
ATOM     68  C   UNL A   1      40.927  26.013  26.607  1.00  0.00     0.022 A 
BRANCH  65  69
ATOM     69  S   UNL A   1      43.030  27.412  25.496  1.00  0.00     0.124 S 
ATOM     70  O   UNL A   1      44.126  28.042  26.229  1.00  0.00    -0.237 OA
ATOM     71  O   UNL A   1      43.317  26.083  24.965  1.00  0.00    -0.237 OA
ATOM     72  O   UNL A   1      42.289  28.304  24.611  1.00  0.00    -0.744 OA
ENDBRANCH  65  69
ENDBRANCH  48  62
BRANCH  49  73
ATOM     73  C   UNL A   1      39.767  33.695  36.802  1.00  0.00     0.023 A 
ATOM     74  C   UNL A   1      39.192  33.292  38.019  1.00  0.00     0.031 A 
ATOM     75  C   UNL A   1      40.145  35.042  36.662  1.00  0.00     0.131 A 
ATOM     76  C   UNL A   1      38.972  34.237  39.032  1.00  0.00     0.055 A 
ATOM     77  C   UNL A   1      39.977  35.967  37.692  1.00  0.00     0.041 A 
ATOM     78  F   UNL A   1      40.687  35.473  35.512  1.00  0.00    -0.206 F 
ATOM     79  C   UNL A   1      39.377  35.568  38.882  1.00  0.00     0.022 A 
BRANCH  76  80
ATOM     80  S   UNL A   1      38.077  33.793  40.545  1.00  0.00     0.124 S 
ATOM     81  O   UNL A   1      36.901  33.110  40.017  1.00  0.00    -0.237 OA
ATOM     82  O   UNL A   1      39.049  32.939  41.224  1.00  0.00    -0.237 OA
ATOM     83  O   UNL A   1      37.824  35.079  41.187  1.00  0.00    -0.744 OA
ENDBRANCH  76  80
ENDBRANCH  49  73
BRANCH  61  84
ATOM     84  C   UNL A   1      44.278  28.551  35.212  1.00  0.00     0.023 A 
ATOM     85  C   UNL A   1      44.083  27.535  36.166  1.00  0.00     0.031 A 
ATOM     86  C   UNL A   1      45.562  29.101  35.071  1.00  0.00     0.131 A 
ATOM     87  C   UNL A   1      45.149  27.133  36.980  1.00  0.00     0.055 A 
ATOM     88  C   UNL A   1      46.632  28.665  35.854  1.00  0.00     0.041 A 
ATOM     89  F   UNL A   1      45.789  30.081  34.182  1.00  0.00    -0.206 F 
ATOM     90  C   UNL A   1      46.423  27.688  36.823  1.00  0.00     0.022 A 
BRANCH  87  91
ATOM     91  S   UNL A   1      44.901  25.935  38.319  1.00  0.00     0.124 S 
ATOM     92  O   UNL A   1      44.063  26.689  39.249  1.00  0.00    -0.237 OA
ATOM     93  O   UNL A   1      44.231  24.837  37.626  1.00  0.00    -0.237 OA
ATOM     94  O   UNL A   1      46.250  25.650  38.792  1.00  0.00    -0.744 OA
ENDBRANCH  87  91
ENDBRANCH  61  84
ENDBRANCH  35  36
ENDBRANCH  27  30
ENDBRANCH   1  26
TORSDOF 15
ENDMDL
MODEL 3
REMARK VINA RESULT:     -12.5      5.710      8.547
REMARK SMILES Nc1c(Cl)ccc2c1C=C(C(=O)NCCCNC(=O)c1ccc(-c3c4nc(c(-c5cc(S(=O)(=O)[O-])ccc5F)c5ccc([nH]5)c(-c5cc(S(=O)(=O)[O-])ccc5F)c5nc(c(-c6cc(S(=O)(=O)[O-])ccc6F)c6ccc3[nH]6)C=C5)C=C4)cc1)[C@@H](C(F)(F)F)O2
REMARK SMILES IDX 16 1 15 2 14 3 13 4 11 5 12 6 10 8 2 9 3 10 8 11 4 12 5 13
REMARK SMILES IDX 7 14 9 15 6 16 88 17 83 18 1 19 84 22 85 23 86 24 87 25
REMARK SMILES IDX 17 26 18 27 19 29 20 30 21 31 82 32 22 33 81 34 23 35 24 36
REMARK SMILES IDX 25 37 75 38 26 39 80 40 74 41 76 42 27 43 79 44 73 45 72 46
REMARK SMILES IDX 28 48 60 49 40 50 59 51 41 52 44 53 58 54 77 55 42 56 43 57
REMARK SMILES IDX 57 59 78 60 45 61 29 62 30 63 38 64 31 65 37 66 39 67 36 68
REMARK SMILES IDX 32 69 33 70 34 71 35 72 61 73 62 74 70 75 63 76 69 77 71 78
REMARK SMILES IDX 68 79 64 80 65 81 66 82 67 83 46 84 47 85 55 86 48 87 54 88
REMARK SMILES IDX 56 89 53 90 49 91 50 92 51 93 52 94
REMARK H PARENT 13 7 1 20 1 21 17 28 76 47 44 58
REMARK Flexibility Score: inf
ROOT
ATOM      1  C   UNL A   1      32.753  32.892  27.223  1.00  0.00     0.118 C 
ENDROOT
BRANCH   1   2
ATOM      2  C   UNL A   1      31.447  32.410  26.603  1.00  0.00     0.042 C 
BRANCH   2   3
ATOM      3  C   UNL A   1      31.405  30.896  26.452  1.00  0.00     0.118 C 
BRANCH   3   4
ATOM      4  N   UNL A   1      31.291  30.492  25.058  1.00  0.00    -0.352 N 
ATOM      5  C   UNL A   1      31.496  29.374  24.325  1.00  0.00     0.251 C 
ATOM      6  O   UNL A   1      31.256  29.490  23.118  1.00  0.00    -0.270 OA
ATOM      7  H   UNL A   1      30.980  31.236  24.494  1.00  0.00     0.163 HD
BRANCH   5   8
ATOM      8  C   UNL A   1      31.959  28.061  24.863  1.00  0.00     0.067 C 
ATOM      9  C   UNL A   1      30.375  24.936  26.155  1.00  0.00     0.061 A 
ATOM     10  C   UNL A   1      30.832  23.713  26.698  1.00  0.00     0.064 A 
ATOM     11  C   UNL A   1      31.338  25.850  25.670  1.00  0.00     0.042 A 
ATOM     12  Cl  UNL A   1      29.713  22.570  27.367  1.00  0.00    -0.082 Cl
ATOM     13  C   UNL A   1      32.187  23.372  26.699  1.00  0.00     0.026 A 
ATOM     14  C   UNL A   1      32.696  25.497  25.694  1.00  0.00     0.130 A 
ATOM     15  C   UNL A   1      30.991  27.155  25.098  1.00  0.00     0.027 C 
ATOM     16  C   UNL A   1      33.119  24.264  26.184  1.00  0.00     0.049 A 
ATOM     17  O   UNL A   1      33.685  26.310  25.217  1.00  0.00    -0.475 OA
ATOM     18  C   UNL A   1      33.387  27.731  25.176  1.00  0.00     0.314 C 
BRANCH   9  19
ATOM     19  N   UNL A   1      29.016  25.268  26.236  1.00  0.00    -0.397 N 
ATOM     20  H   UNL A   1      28.597  25.419  27.114  1.00  0.00     0.156 HD
ATOM     21  H   UNL A   1      28.478  25.347  25.415  1.00  0.00     0.156 HD
ENDBRANCH   9  19
BRANCH  18  22
ATOM     22  C   UNL A   1      33.875  28.393  26.479  1.00  0.00     0.429 C 
ATOM     23  F   UNL A   1      35.002  27.788  26.929  1.00  0.00    -0.167 F 
ATOM     24  F   UNL A   1      34.182  29.702  26.318  1.00  0.00    -0.167 F 
ATOM     25  F   UNL A   1      32.960  28.330  27.473  1.00  0.00    -0.167 F 
ENDBRANCH  18  22
ENDBRANCH   5   8
ENDBRANCH   3   4
ENDBRANCH   2   3
ENDBRANCH   1   2
BRANCH   1  26
ATOM     26  N   UNL A   1      32.628  34.251  27.742  1.00  0.00    -0.352 N 
ATOM     27  C   UNL A   1      33.183  34.806  28.869  1.00  0.00     0.251 C 
ATOM     28  H   UNL A   1      32.066  34.857  27.207  1.00  0.00     0.163 HD
ATOM     29  O   UNL A   1      32.738  35.861  29.317  1.00  0.00    -0.269 OA
BRANCH  27  30
ATOM     30  C   UNL A   1      34.314  34.132  29.532  1.00  0.00     0.039 A 
ATOM     31  C   UNL A   1      34.075  33.270  30.605  1.00  0.00     0.014 A 
ATOM     32  C   UNL A   1      35.620  34.380  29.098  1.00  0.00     0.014 A 
ATOM     33  C   UNL A   1      35.149  32.612  31.209  1.00  0.00     0.010 A 
ATOM     34  C   UNL A   1      36.676  33.669  29.650  1.00  0.00     0.010 A 
ATOM     35  C   UNL A   1      36.452  32.792  30.720  1.00  0.00    -0.014 A 
BRANCH  35  36
ATOM     36  C   UNL A   1      37.615  32.116  31.340  1.00  0.00     0.031 A 
ATOM     37  C   UNL A   1      38.135  32.607  32.663  1.00  0.00     0.074 A 
ATOM     38  C   UNL A   1      38.240  31.121  30.683  1.00  0.00     0.049 A 
ATOM     39  N   UNL A   1      39.180  32.207  33.335  1.00  0.00    -0.248 NA
ATOM     40  C   UNL A   1      37.394  33.710  33.303  1.00  0.00     0.031 C 
ATOM     41  C   UNL A   1      37.842  30.592  29.377  1.00  0.00     0.029 A 
ATOM     42  N   UNL A   1      39.348  30.383  31.018  1.00  0.00    -0.354 N 
ATOM     43  C   UNL A   1      39.230  33.012  34.466  1.00  0.00     0.074 A 
ATOM     44  C   UNL A   1      38.145  33.960  34.366  1.00  0.00     0.031 C 
ATOM     45  C   UNL A   1      38.677  29.597  29.034  1.00  0.00     0.029 A 
ATOM     46  C   UNL A   1      39.691  29.441  30.075  1.00  0.00     0.049 A 
ATOM     47  H   UNL A   1      39.850  30.515  31.853  1.00  0.00     0.167 HD
ATOM     48  C   UNL A   1      40.090  32.946  35.508  1.00  0.00     0.034 A 
ATOM     49  C   UNL A   1      40.703  28.550  30.058  1.00  0.00     0.034 A 
ATOM     50  C   UNL A   1      41.140  31.971  35.613  1.00  0.00     0.049 A 
ATOM     51  C   UNL A   1      41.647  28.498  31.233  1.00  0.00     0.074 A 
ATOM     52  C   UNL A   1      42.026  31.782  36.659  1.00  0.00     0.029 A 
ATOM     53  N   UNL A   1      41.440  31.018  34.653  1.00  0.00    -0.354 N 
ATOM     54  N   UNL A   1      41.633  29.214  32.333  1.00  0.00    -0.248 NA
ATOM     55  C   UNL A   1      42.738  27.515  31.173  1.00  0.00     0.031 C 
ATOM     56  C   UNL A   1      42.888  30.741  36.313  1.00  0.00     0.029 A 
ATOM     57  C   UNL A   1      42.508  30.246  35.075  1.00  0.00     0.049 A 
ATOM     58  H   UNL A   1      40.965  30.906  33.798  1.00  0.00     0.167 HD
ATOM     59  C   UNL A   1      42.686  28.742  33.111  1.00  0.00     0.074 A 
ATOM     60  C   UNL A   1      43.312  27.674  32.360  1.00  0.00     0.031 C 
ATOM     61  C   UNL A   1      43.096  29.158  34.333  1.00  0.00     0.034 A 
BRANCH  48  62
ATOM     62  C   UNL A   1      39.921  33.913  36.647  1.00  0.00     0.023 A 
ATOM     63  C   UNL A   1      39.373  33.477  37.865  1.00  0.00     0.031 A 
ATOM     64  C   UNL A   1      40.169  35.287  36.476  1.00  0.00     0.131 A 
ATOM     65  C   UNL A   1      39.052  34.414  38.855  1.00  0.00     0.055 A 
ATOM     66  C   UNL A   1      39.882  36.211  37.479  1.00  0.00     0.041 A 
ATOM     67  F   UNL A   1      40.696  35.747  35.329  1.00  0.00    -0.206 F 
ATOM     68  C   UNL A   1      39.310  35.777  38.671  1.00  0.00     0.022 A 
BRANCH  65  69
ATOM     69  S   UNL A   1      38.257  33.902  40.401  1.00  0.00     0.124 S 
ATOM     70  O   UNL A   1      37.051  33.233  39.917  1.00  0.00    -0.237 OA
ATOM     71  O   UNL A   1      39.266  33.025  40.985  1.00  0.00    -0.237 OA
ATOM     72  O   UNL A   1      38.023  35.158  41.105  1.00  0.00    -0.744 OA
ENDBRANCH  65  69
ENDBRANCH  48  62
BRANCH  49  73
ATOM     73  C   UNL A   1      40.816  27.585  28.928  1.00  0.00     0.023 A 
ATOM     74  C   UNL A   1      41.761  27.759  27.902  1.00  0.00     0.031 A 
ATOM     75  C   UNL A   1      39.917  26.508  28.825  1.00  0.00     0.131 A 
ATOM     76  C   UNL A   1      41.757  26.894  26.799  1.00  0.00     0.055 A 
ATOM     77  C   UNL A   1      39.954  25.616  27.754  1.00  0.00     0.041 A 
ATOM     78  F   UNL A   1      38.990  26.312  29.775  1.00  0.00    -0.206 F 
ATOM     79  C   UNL A   1      40.871  25.813  26.727  1.00  0.00     0.022 A 
BRANCH  76  80
ATOM     80  S   UNL A   1      42.844  27.189  25.378  1.00  0.00     0.124 S 
ATOM     81  O   UNL A   1      44.130  27.437  26.021  1.00  0.00    -0.237 OA
ATOM     82  O   UNL A   1      42.735  25.925  24.653  1.00  0.00    -0.237 OA
ATOM     83  O   UNL A   1      42.240  28.340  24.714  1.00  0.00    -0.744 OA
ENDBRANCH  76  80
ENDBRANCH  49  73
BRANCH  61  84
ATOM     84  C   UNL A   1      44.258  28.457  34.987  1.00  0.00     0.023 A 
ATOM     85  C   UNL A   1      44.016  27.457  35.948  1.00  0.00     0.031 A 
ATOM     86  C   UNL A   1      45.577  28.898  34.796  1.00  0.00     0.131 A 
ATOM     87  C   UNL A   1      45.076  26.964  36.719  1.00  0.00     0.055 A 
ATOM     88  C   UNL A   1      46.636  28.371  35.536  1.00  0.00     0.041 A 
ATOM     89  F   UNL A   1      45.851  29.858  33.898  1.00  0.00    -0.206 F 
ATOM     90  C   UNL A   1      46.385  27.412  36.513  1.00  0.00     0.022 A 
BRANCH  87  91
ATOM     91  S   UNL A   1      44.781  25.787  38.067  1.00  0.00     0.124 S 
ATOM     92  O   UNL A   1      44.196  24.652  37.357  1.00  0.00    -0.237 OA
ATOM     93  O   UNL A   1      46.130  25.571  38.583  1.00  0.00    -0.237 OA
ATOM     94  O   UNL A   1      43.871  26.494  38.961  1.00  0.00    -0.744 OA
ENDBRANCH  87  91
ENDBRANCH  61  84
ENDBRANCH  35  36
ENDBRANCH  27  30
ENDBRANCH   1  26
TORSDOF 15
ENDMDL
