MODEL 1
REMARK VINA RESULT:     -11.9      0.000      0.000
REMARK SMILES C[C@H]1[C@@H](C(=O)NCCCNC(=O)c2ccc(-c3c4nc(c(-c5cc(S(=O)(=O)[O-])ccc5F)c5ccc([nH]5)c(-c5cc(S(=O)(=O)[O-])ccc5F)c5nc(c(-c6cc(S(=O)(=O)[O-])ccc6F)c6ccc3[nH]6)C=C5)C=C4)cc2)CC[N@@H+]1CC1(O)CCCC1
REMARK SMILES IDX 8 1 7 2 6 3 4 4 5 5 3 7 1 8 2 9 78 10 76 11 77 12 79 14
REMARK SMILES IDX 80 15 82 16 85 17 83 18 84 19 81 20 9 22 10 23 11 24 12 26
REMARK SMILES IDX 13 27 14 28 75 29 15 30 74 31 16 32 17 33 18 34 68 35 19 36
REMARK SMILES IDX 73 37 67 38 69 39 20 40 72 41 66 42 65 43 21 45 53 46 33 47
REMARK SMILES IDX 52 48 34 49 37 50 51 51 70 52 35 53 36 54 50 56 71 57 38 58
REMARK SMILES IDX 22 59 23 60 31 61 24 62 30 63 32 64 29 65 25 66 26 67 27 68
REMARK SMILES IDX 28 69 54 70 55 71 63 72 56 73 62 74 64 75 61 76 57 77 58 78
REMARK SMILES IDX 59 79 60 80 39 81 40 82 48 83 41 84 47 85 49 86 46 87 42 88
REMARK SMILES IDX 43 89 44 90 45 91
REMARK H PARENT 6 6 78 13 81 21 10 25 69 44 37 55
REMARK Flexibility Score: inf
ROOT
ATOM      1  C   UNL A   1      35.473  23.328  26.085  1.00  0.00     0.042 C 
ENDROOT
BRANCH   1   2
ATOM      2  C   UNL A   1      34.517  24.444  25.663  1.00  0.00     0.117 C 
BRANCH   2   3
ATOM      3  N   UNL A   1      33.205  24.209  26.233  1.00  0.00    -0.356 N 
ATOM      4  C   UNL A   1      32.007  24.807  25.989  1.00  0.00     0.229 C 
ATOM      5  O   UNL A   1      31.141  24.660  26.854  1.00  0.00    -0.275 OA
ATOM      6  H   UNL A   1      33.175  23.497  26.912  1.00  0.00     0.163 HD
BRANCH   4   7
ATOM      7  C   UNL A   1      31.722  25.468  24.642  1.00  0.00     0.142 C 
ATOM      8  C   UNL A   1      32.108  27.864  25.686  1.00  0.00     0.076 C 
ATOM      9  C   UNL A   1      31.775  27.002  24.479  1.00  0.00     0.193 C 
ATOM     10  N   UNL A   1      30.445  27.428  24.035  1.00  0.00    -0.330 N 
ATOM     11  C   UNL A   1      30.308  25.091  24.159  1.00  0.00     0.081 C 
ATOM     12  C   UNL A   1      29.502  26.360  24.315  1.00  0.00     0.263 C 
ATOM     13  H   UNL A   1      30.167  28.236  24.590  1.00  0.00     0.348 HD
BRANCH  10  14
ATOM     14  C   UNL A   1      30.356  28.091  22.732  1.00  0.00     0.297 C 
BRANCH  14  15
ATOM     15  C   UNL A   1      29.753  29.513  22.590  1.00  0.00     0.113 C 
ATOM     16  C   UNL A   1      29.818  30.400  23.838  1.00  0.00     0.041 C 
ATOM     17  C   UNL A   1      28.237  29.442  22.361  1.00  0.00     0.041 C 
ATOM     18  C   UNL A   1      28.746  31.468  23.614  1.00  0.00     0.003 C 
ATOM     19  C   UNL A   1      27.753  30.867  22.621  1.00  0.00     0.003 C 
BRANCH  15  20
ATOM     20  O   UNL A   1      30.313  30.170  21.446  1.00  0.00    -0.384 OA
ATOM     21  H   UNL A   1      31.237  30.399  21.625  1.00  0.00     0.211 HD
ENDBRANCH  15  20
ENDBRANCH  14  15
ENDBRANCH  10  14
ENDBRANCH   4   7
ENDBRANCH   2   3
ENDBRANCH   1   2
BRANCH   1  22
ATOM     22  C   UNL A   1      36.817  23.354  25.369  1.00  0.00     0.118 C 
BRANCH  22  23
ATOM     23  N   UNL A   1      37.742  22.381  25.912  1.00  0.00    -0.352 N 
ATOM     24  C   UNL A   1      38.973  22.566  26.491  1.00  0.00     0.251 C 
ATOM     25  H   UNL A   1      37.442  21.445  25.858  1.00  0.00     0.163 HD
ATOM     26  O   UNL A   1      39.696  21.580  26.651  1.00  0.00    -0.269 OA
BRANCH  24  27
ATOM     27  C   UNL A   1      39.454  23.911  26.898  1.00  0.00     0.039 A 
ATOM     28  C   UNL A   1      39.263  24.315  28.224  1.00  0.00     0.014 A 
ATOM     29  C   UNL A   1      40.029  24.807  25.991  1.00  0.00     0.014 A 
ATOM     30  C   UNL A   1      39.671  25.587  28.639  1.00  0.00     0.010 A 
ATOM     31  C   UNL A   1      40.531  26.033  26.430  1.00  0.00     0.010 A 
ATOM     32  C   UNL A   1      40.330  26.453  27.752  1.00  0.00    -0.014 A 
BRANCH  32  33
ATOM     33  C   UNL A   1      40.750  27.817  28.178  1.00  0.00     0.031 A 
ATOM     34  C   UNL A   1      42.209  28.201  28.156  1.00  0.00     0.074 A 
ATOM     35  C   UNL A   1      39.831  28.702  28.611  1.00  0.00     0.049 A 
ATOM     36  N   UNL A   1      42.780  29.322  28.522  1.00  0.00    -0.248 NA
ATOM     37  C   UNL A   1      43.155  27.175  27.693  1.00  0.00     0.031 C 
ATOM     38  C   UNL A   1      38.395  28.439  28.731  1.00  0.00     0.029 A 
ATOM     39  N   UNL A   1      39.964  30.002  29.033  1.00  0.00    -0.354 N 
ATOM     40  C   UNL A   1      44.148  29.128  28.349  1.00  0.00     0.074 A 
ATOM     41  C   UNL A   1      44.322  27.758  27.916  1.00  0.00     0.031 C 
ATOM     42  C   UNL A   1      37.778  29.549  29.166  1.00  0.00     0.029 A 
ATOM     43  C   UNL A   1      38.774  30.592  29.394  1.00  0.00     0.049 A 
ATOM     44  H   UNL A   1      40.830  30.468  29.074  1.00  0.00     0.167 HD
ATOM     45  C   UNL A   1      45.164  30.015  28.504  1.00  0.00     0.034 A 
ATOM     46  C   UNL A   1      38.514  31.830  29.859  1.00  0.00     0.034 A 
ATOM     47  C   UNL A   1      44.974  31.385  28.917  1.00  0.00     0.049 A 
ATOM     48  C   UNL A   1      39.654  32.804  30.015  1.00  0.00     0.074 A 
ATOM     49  C   UNL A   1      45.922  32.383  29.060  1.00  0.00     0.029 A 
ATOM     50  N   UNL A   1      43.751  31.951  29.255  1.00  0.00    -0.354 N 
ATOM     51  N   UNL A   1      40.935  32.618  29.800  1.00  0.00    -0.248 NA
ATOM     52  C   UNL A   1      39.307  34.159  30.461  1.00  0.00     0.031 C 
ATOM     53  C   UNL A   1      45.283  33.532  29.539  1.00  0.00     0.029 A 
ATOM     54  C   UNL A   1      43.923  33.275  29.629  1.00  0.00     0.049 A 
ATOM     55  H   UNL A   1      42.887  31.479  29.233  1.00  0.00     0.167 HD
ATOM     56  C   UNL A   1      41.545  33.841  30.064  1.00  0.00     0.074 A 
ATOM     57  C   UNL A   1      40.488  34.761  30.431  1.00  0.00     0.031 C 
ATOM     58  C   UNL A   1      42.860  34.175  30.011  1.00  0.00     0.034 A 
BRANCH  45  59
ATOM     59  C   UNL A   1      46.566  29.513  28.242  1.00  0.00     0.023 A 
ATOM     60  C   UNL A   1      46.985  29.134  26.954  1.00  0.00     0.031 A 
ATOM     61  C   UNL A   1      47.485  29.372  29.297  1.00  0.00     0.131 A 
ATOM     62  C   UNL A   1      48.246  28.549  26.768  1.00  0.00     0.055 A 
ATOM     63  C   UNL A   1      48.773  28.870  29.090  1.00  0.00     0.041 A 
ATOM     64  F   UNL A   1      47.142  29.699  30.552  1.00  0.00    -0.206 F 
ATOM     65  C   UNL A   1      49.154  28.438  27.823  1.00  0.00     0.022 A 
BRANCH  62  66
ATOM     66  S   UNL A   1      48.623  27.792  25.163  1.00  0.00     0.124 S 
ATOM     67  O   UNL A   1      48.521  26.368  25.478  1.00  0.00    -0.237 OA
ATOM     68  O   UNL A   1      47.574  28.333  24.305  1.00  0.00    -0.237 OA
ATOM     69  O   UNL A   1      49.973  28.262  24.869  1.00  0.00    -0.744 OA
ENDBRANCH  62  66
ENDBRANCH  45  59
BRANCH  46  70
ATOM     70  C   UNL A   1      37.121  32.222  30.215  1.00  0.00     0.023 A 
ATOM     71  C   UNL A   1      36.212  32.647  29.233  1.00  0.00     0.031 A 
ATOM     72  C   UNL A   1      36.688  32.206  31.552  1.00  0.00     0.131 A 
ATOM     73  C   UNL A   1      34.929  33.077  29.607  1.00  0.00     0.055 A 
ATOM     74  C   UNL A   1      35.395  32.589  31.915  1.00  0.00     0.041 A 
ATOM     75  F   UNL A   1      37.515  31.801  32.529  1.00  0.00    -0.206 F 
ATOM     76  C   UNL A   1      34.510  33.040  30.939  1.00  0.00     0.022 A 
BRANCH  73  77
ATOM     77  S   UNL A   1      33.832  33.755  28.331  1.00  0.00     0.124 S 
ATOM     78  O   UNL A   1      34.760  34.539  27.524  1.00  0.00    -0.237 OA
ATOM     79  O   UNL A   1      33.307  32.544  27.709  1.00  0.00    -0.237 OA
ATOM     80  O   UNL A   1      32.859  34.532  29.096  1.00  0.00    -0.744 OA
ENDBRANCH  73  77
ENDBRANCH  46  70
BRANCH  58  81
ATOM     81  C   UNL A   1      43.212  35.608  30.328  1.00  0.00     0.023 A 
ATOM     82  C   UNL A   1      43.160  36.614  29.347  1.00  0.00     0.031 A 
ATOM     83  C   UNL A   1      43.632  35.965  31.622  1.00  0.00     0.131 A 
ATOM     84  C   UNL A   1      43.584  37.915  29.658  1.00  0.00     0.055 A 
ATOM     85  C   UNL A   1      43.994  37.274  31.941  1.00  0.00     0.041 A 
ATOM     86  F   UNL A   1      43.702  35.045  32.596  1.00  0.00    -0.206 F 
ATOM     87  C   UNL A   1      43.986  38.255  30.952  1.00  0.00     0.022 A 
BRANCH  84  88
ATOM     88  S   UNL A   1      43.703  39.134  28.320  1.00  0.00     0.124 S 
ATOM     89  O   UNL A   1      42.467  39.891  28.488  1.00  0.00    -0.237 OA
ATOM     90  O   UNL A   1      44.935  39.843  28.653  1.00  0.00    -0.237 OA
ATOM     91  O   UNL A   1      43.769  38.313  27.112  1.00  0.00    -0.744 OA
ENDBRANCH  84  88
ENDBRANCH  58  81
ENDBRANCH  32  33
ENDBRANCH  24  27
ENDBRANCH  22  23
ENDBRANCH   1  22
TORSDOF 16
ENDMDL
MODEL 2
REMARK VINA RESULT:     -11.8      5.866      8.970
REMARK SMILES C[C@H]1[C@@H](C(=O)NCCCNC(=O)c2ccc(-c3c4nc(c(-c5cc(S(=O)(=O)[O-])ccc5F)c5ccc([nH]5)c(-c5cc(S(=O)(=O)[O-])ccc5F)c5nc(c(-c6cc(S(=O)(=O)[O-])ccc6F)c6ccc3[nH]6)C=C5)C=C4)cc2)CC[N@@H+]1CC1(O)CCCC1
REMARK SMILES IDX 8 1 7 2 6 3 4 4 5 5 3 7 1 8 2 9 78 10 76 11 77 12 79 14
REMARK SMILES IDX 80 15 82 16 85 17 83 18 84 19 81 20 9 22 10 23 11 24 12 26
REMARK SMILES IDX 13 27 14 28 75 29 15 30 74 31 16 32 17 33 18 34 68 35 19 36
REMARK SMILES IDX 73 37 67 38 69 39 20 40 72 41 66 42 65 43 21 45 53 46 33 47
REMARK SMILES IDX 52 48 34 49 37 50 51 51 70 52 35 53 36 54 50 56 71 57 38 58
REMARK SMILES IDX 22 59 23 60 31 61 24 62 30 63 32 64 29 65 25 66 26 67 27 68
REMARK SMILES IDX 28 69 54 70 55 71 63 72 56 73 62 74 64 75 61 76 57 77 58 78
REMARK SMILES IDX 59 79 60 80 39 81 40 82 48 83 41 84 47 85 49 86 46 87 42 88
REMARK SMILES IDX 43 89 44 90 45 91
REMARK H PARENT 6 6 78 13 81 21 10 25 69 44 37 55
REMARK Flexibility Score: inf
ROOT
ATOM      1  C   UNL A   1      31.568  32.086  26.893  1.00  0.00     0.042 C 
ENDROOT
BRANCH   1   2
ATOM      2  C   UNL A   1      31.754  30.576  26.736  1.00  0.00     0.117 C 
BRANCH   2   3
ATOM      3  N   UNL A   1      31.675  30.215  25.334  1.00  0.00    -0.356 N 
ATOM      4  C   UNL A   1      31.657  28.997  24.727  1.00  0.00     0.229 C 
ATOM      5  O   UNL A   1      31.939  28.984  23.527  1.00  0.00    -0.275 OA
ATOM      6  H   UNL A   1      31.626  30.980  24.716  1.00  0.00     0.163 HD
BRANCH   4   7
ATOM      7  C   UNL A   1      31.147  27.762  25.467  1.00  0.00     0.142 C 
ATOM      8  C   UNL A   1      33.616  27.066  26.097  1.00  0.00     0.076 C 
ATOM      9  C   UNL A   1      32.123  26.789  26.162  1.00  0.00     0.193 C 
ATOM     10  N   UNL A   1      31.930  25.476  25.539  1.00  0.00    -0.330 N 
ATOM     11  C   UNL A   1      30.349  26.862  24.503  1.00  0.00     0.081 C 
ATOM     12  C   UNL A   1      31.241  25.663  24.274  1.00  0.00     0.263 C 
ATOM     13  H   UNL A   1      32.848  25.083  25.332  1.00  0.00     0.348 HD
BRANCH  10  14
ATOM     14  C   UNL A   1      31.480  24.385  26.404  1.00  0.00     0.297 C 
BRANCH  14  15
ATOM     15  C   UNL A   1      32.383  23.156  26.689  1.00  0.00     0.113 C 
ATOM     16  C   UNL A   1      33.893  23.412  26.676  1.00  0.00     0.041 C 
ATOM     17  C   UNL A   1      32.254  22.114  25.570  1.00  0.00     0.041 C 
ATOM     18  C   UNL A   1      34.521  22.035  26.456  1.00  0.00     0.003 C 
ATOM     19  C   UNL A   1      33.444  21.182  25.788  1.00  0.00     0.003 C 
BRANCH  15  20
ATOM     20  O   UNL A   1      31.967  22.514  27.901  1.00  0.00    -0.384 OA
ATOM     21  H   UNL A   1      31.684  23.183  28.542  1.00  0.00     0.211 HD
ENDBRANCH  15  20
ENDBRANCH  14  15
ENDBRANCH  10  14
ENDBRANCH   4   7
ENDBRANCH   2   3
ENDBRANCH   1   2
BRANCH   1  22
ATOM     22  C   UNL A   1      32.868  32.861  27.053  1.00  0.00     0.118 C 
BRANCH  22  23
ATOM     23  N   UNL A   1      32.648  34.191  27.583  1.00  0.00    -0.352 N 
ATOM     24  C   UNL A   1      33.143  34.777  28.722  1.00  0.00     0.251 C 
ATOM     25  H   UNL A   1      32.053  34.761  27.044  1.00  0.00     0.163 HD
ATOM     26  O   UNL A   1      32.624  35.825  29.111  1.00  0.00    -0.269 OA
BRANCH  24  27
ATOM     27  C   UNL A   1      34.256  34.169  29.497  1.00  0.00     0.039 A 
ATOM     28  C   UNL A   1      35.570  34.467  29.122  1.00  0.00     0.014 A 
ATOM     29  C   UNL A   1      34.035  33.265  30.540  1.00  0.00     0.014 A 
ATOM     30  C   UNL A   1      36.645  33.889  29.805  1.00  0.00     0.010 A 
ATOM     31  C   UNL A   1      35.105  32.771  31.286  1.00  0.00     0.010 A 
ATOM     32  C   UNL A   1      36.426  33.051  30.909  1.00  0.00    -0.014 A 
BRANCH  32  33
ATOM     33  C   UNL A   1      37.563  32.413  31.630  1.00  0.00     0.031 A 
ATOM     34  C   UNL A   1      38.326  31.280  30.989  1.00  0.00     0.074 A 
ATOM     35  C   UNL A   1      37.895  32.829  32.868  1.00  0.00     0.049 A 
ATOM     36  N   UNL A   1      39.319  30.571  31.466  1.00  0.00    -0.248 NA
ATOM     37  C   UNL A   1      37.892  30.868  29.646  1.00  0.00     0.031 C 
ATOM     38  C   UNL A   1      37.205  33.878  33.621  1.00  0.00     0.029 A 
ATOM     39  N   UNL A   1      38.895  32.419  33.716  1.00  0.00    -0.354 N 
ATOM     40  C   UNL A   1      39.613  29.622  30.491  1.00  0.00     0.074 A 
ATOM     41  C   UNL A   1      38.646  29.802  29.431  1.00  0.00     0.031 C 
ATOM     42  C   UNL A   1      37.818  34.050  34.803  1.00  0.00     0.029 A 
ATOM     43  C   UNL A   1      38.920  33.099  34.912  1.00  0.00     0.049 A 
ATOM     44  H   UNL A   1      39.533  31.705  33.489  1.00  0.00     0.167 HD
ATOM     45  C   UNL A   1      40.616  28.706  30.464  1.00  0.00     0.034 A 
ATOM     46  C   UNL A   1      39.736  32.970  35.977  1.00  0.00     0.034 A 
ATOM     47  C   UNL A   1      41.587  28.551  31.520  1.00  0.00     0.049 A 
ATOM     48  C   UNL A   1      40.848  31.955  35.924  1.00  0.00     0.074 A 
ATOM     49  C   UNL A   1      42.671  27.693  31.577  1.00  0.00     0.029 A 
ATOM     50  N   UNL A   1      41.591  29.272  32.708  1.00  0.00    -0.354 N 
ATOM     51  N   UNL A   1      41.143  31.099  34.973  1.00  0.00    -0.248 NA
ATOM     52  C   UNL A   1      41.749  31.902  37.083  1.00  0.00     0.031 C 
ATOM     53  C   UNL A   1      43.294  27.853  32.820  1.00  0.00     0.029 A 
ATOM     54  C   UNL A   1      42.643  28.862  33.513  1.00  0.00     0.049 A 
ATOM     55  H   UNL A   1      40.941  29.973  32.943  1.00  0.00     0.167 HD
ATOM     56  C   UNL A   1      42.275  30.420  35.411  1.00  0.00     0.074 A 
ATOM     57  C   UNL A   1      42.624  30.983  36.699  1.00  0.00     0.031 C 
ATOM     58  C   UNL A   1      42.967  29.420  34.805  1.00  0.00     0.034 A 
BRANCH  45  59
ATOM     59  C   UNL A   1      40.688  27.796  29.258  1.00  0.00     0.023 A 
ATOM     60  C   UNL A   1      41.613  28.018  28.221  1.00  0.00     0.031 A 
ATOM     61  C   UNL A   1      39.796  26.718  29.121  1.00  0.00     0.131 A 
ATOM     62  C   UNL A   1      41.565  27.235  27.058  1.00  0.00     0.055 A 
ATOM     63  C   UNL A   1      39.813  25.887  27.997  1.00  0.00     0.041 A 
ATOM     64  F   UNL A   1      38.879  26.464  30.066  1.00  0.00    -0.206 F 
ATOM     65  C   UNL A   1      40.688  26.154  26.949  1.00  0.00     0.022 A 
BRANCH  62  66
ATOM     66  S   UNL A   1      42.555  27.749  25.627  1.00  0.00     0.124 S 
ATOM     67  O   UNL A   1      43.873  27.935  26.233  1.00  0.00    -0.237 OA
ATOM     68  O   UNL A   1      42.423  26.609  24.726  1.00  0.00    -0.237 OA
ATOM     69  O   UNL A   1      41.904  28.977  25.181  1.00  0.00    -0.744 OA
ENDBRANCH  62  66
ENDBRANCH  45  59
BRANCH  46  70
ATOM     70  C   UNL A   1      39.533  33.818  37.186  1.00  0.00     0.023 A 
ATOM     71  C   UNL A   1      38.852  33.329  38.312  1.00  0.00     0.031 A 
ATOM     72  C   UNL A   1      39.995  35.146  37.219  1.00  0.00     0.131 A 
ATOM     73  C   UNL A   1      38.616  34.174  39.408  1.00  0.00     0.055 A 
ATOM     74  C   UNL A   1      39.800  35.968  38.331  1.00  0.00     0.041 A 
ATOM     75  F   UNL A   1      40.659  35.660  36.171  1.00  0.00    -0.206 F 
ATOM     76  C   UNL A   1      39.095  35.486  39.430  1.00  0.00     0.022 A 
BRANCH  73  77
ATOM     77  S   UNL A   1      37.609  33.554  40.783  1.00  0.00     0.124 S 
ATOM     78  O   UNL A   1      38.529  32.629  41.435  1.00  0.00    -0.237 OA
ATOM     79  O   UNL A   1      37.306  34.780  41.514  1.00  0.00    -0.237 OA
ATOM     80  O   UNL A   1      36.467  32.932  40.115  1.00  0.00    -0.744 OA
ENDBRANCH  73  77
ENDBRANCH  46  70
BRANCH  58  81
ATOM     81  C   UNL A   1      44.187  28.902  35.526  1.00  0.00     0.023 A 
ATOM     82  C   UNL A   1      44.105  27.840  36.445  1.00  0.00     0.031 A 
ATOM     83  C   UNL A   1      45.443  29.498  35.313  1.00  0.00     0.131 A 
ATOM     84  C   UNL A   1      45.244  27.450  37.163  1.00  0.00     0.055 A 
ATOM     85  C   UNL A   1      46.585  29.063  35.986  1.00  0.00     0.041 A 
ATOM     86  F   UNL A   1      45.578  30.515  34.448  1.00  0.00    -0.206 F 
ATOM     87  C   UNL A   1      46.487  28.043  36.929  1.00  0.00     0.022 A 
BRANCH  84  88
ATOM     88  S   UNL A   1      45.059  26.223  38.488  1.00  0.00     0.124 S 
ATOM     89  O   UNL A   1      44.649  27.054  39.615  1.00  0.00    -0.237 OA
ATOM     90  O   UNL A   1      44.037  25.332  37.947  1.00  0.00    -0.237 OA
ATOM     91  O   UNL A   1      46.393  25.637  38.601  1.00  0.00    -0.744 OA
ENDBRANCH  84  88
ENDBRANCH  58  81
ENDBRANCH  32  33
ENDBRANCH  24  27
ENDBRANCH  22  23
ENDBRANCH   1  22
TORSDOF 16
ENDMDL
MODEL 3
REMARK VINA RESULT:     -11.8      4.794     10.102
REMARK SMILES C[C@H]1[C@@H](C(=O)NCCCNC(=O)c2ccc(-c3c4nc(c(-c5cc(S(=O)(=O)[O-])ccc5F)c5ccc([nH]5)c(-c5cc(S(=O)(=O)[O-])ccc5F)c5nc(c(-c6cc(S(=O)(=O)[O-])ccc6F)c6ccc3[nH]6)C=C5)C=C4)cc2)CC[N@@H+]1CC1(O)CCCC1
REMARK SMILES IDX 8 1 7 2 6 3 4 4 5 5 3 7 1 8 2 9 78 10 76 11 77 12 79 14
REMARK SMILES IDX 80 15 82 16 85 17 83 18 84 19 81 20 9 22 10 23 11 24 12 26
REMARK SMILES IDX 13 27 14 28 75 29 15 30 74 31 16 32 17 33 18 34 68 35 19 36
REMARK SMILES IDX 73 37 67 38 69 39 20 40 72 41 66 42 65 43 21 45 53 46 33 47
REMARK SMILES IDX 52 48 34 49 37 50 51 51 70 52 35 53 36 54 50 56 71 57 38 58
REMARK SMILES IDX 22 59 23 60 31 61 24 62 30 63 32 64 29 65 25 66 26 67 27 68
REMARK SMILES IDX 28 69 54 70 55 71 63 72 56 73 62 74 64 75 61 76 57 77 58 78
REMARK SMILES IDX 59 79 60 80 39 81 40 82 48 83 41 84 47 85 49 86 46 87 42 88
REMARK SMILES IDX 43 89 44 90 45 91
REMARK H PARENT 6 6 78 13 81 21 10 25 69 44 37 55
REMARK Flexibility Score: inf
ROOT
ATOM      1  C   UNL A   1      32.014  27.950  27.247  1.00  0.00     0.042 C 
ENDROOT
BRANCH   1   2
ATOM      2  C   UNL A   1      31.603  26.752  26.389  1.00  0.00     0.117 C 
BRANCH   2   3
ATOM      3  N   UNL A   1      32.491  26.636  25.249  1.00  0.00    -0.356 N 
ATOM      4  C   UNL A   1      32.981  25.539  24.610  1.00  0.00     0.229 C 
ATOM      5  O   UNL A   1      33.978  25.721  23.908  1.00  0.00    -0.275 OA
ATOM      6  H   UNL A   1      32.790  27.495  24.873  1.00  0.00     0.163 HD
BRANCH   4   7
ATOM      7  C   UNL A   1      32.224  24.213  24.638  1.00  0.00     0.142 C 
ATOM      8  C   UNL A   1      33.955  23.212  26.365  1.00  0.00     0.076 C 
ATOM      9  C   UNL A   1      32.703  23.040  25.520  1.00  0.00     0.193 C 
ATOM     10  N   UNL A   1      32.976  21.916  24.620  1.00  0.00    -0.330 N 
ATOM     11  C   UNL A   1      32.162  23.611  23.221  1.00  0.00     0.081 C 
ATOM     12  C   UNL A   1      33.103  22.429  23.268  1.00  0.00     0.263 C 
ATOM     13  H   UNL A   1      33.875  21.511  24.880  1.00  0.00     0.348 HD
BRANCH  10  14
ATOM     14  C   UNL A   1      32.189  20.697  24.814  1.00  0.00     0.297 C 
BRANCH  14  15
ATOM     15  C   UNL A   1      32.861  19.299  24.847  1.00  0.00     0.113 C 
ATOM     16  C   UNL A   1      34.387  19.282  24.725  1.00  0.00     0.041 C 
ATOM     17  C   UNL A   1      32.460  18.473  23.617  1.00  0.00     0.041 C 
ATOM     18  C   UNL A   1      34.727  17.863  24.266  1.00  0.00     0.003 C 
ATOM     19  C   UNL A   1      33.465  17.323  23.596  1.00  0.00     0.003 C 
BRANCH  15  20
ATOM     20  O   UNL A   1      32.415  18.569  25.997  1.00  0.00    -0.384 OA
ATOM     21  H   UNL A   1      33.175  18.147  26.426  1.00  0.00     0.211 HD
ENDBRANCH  15  20
ENDBRANCH  14  15
ENDBRANCH  10  14
ENDBRANCH   4   7
ENDBRANCH   2   3
ENDBRANCH   1   2
BRANCH   1  22
ATOM     22  C   UNL A   1      33.375  28.533  26.891  1.00  0.00     0.118 C 
BRANCH  22  23
ATOM     23  N   UNL A   1      33.389  29.978  26.981  1.00  0.00    -0.352 N 
ATOM     24  C   UNL A   1      34.262  30.810  27.636  1.00  0.00     0.251 C 
ATOM     25  H   UNL A   1      32.661  30.433  26.498  1.00  0.00     0.163 HD
ATOM     26  O   UNL A   1      33.939  31.989  27.790  1.00  0.00    -0.269 OA
BRANCH  24  27
ATOM     27  C   UNL A   1      35.556  30.320  28.178  1.00  0.00     0.039 A 
ATOM     28  C   UNL A   1      36.697  30.420  27.375  1.00  0.00     0.014 A 
ATOM     29  C   UNL A   1      35.658  29.705  29.430  1.00  0.00     0.014 A 
ATOM     30  C   UNL A   1      37.927  29.939  27.835  1.00  0.00     0.010 A 
ATOM     31  C   UNL A   1      36.903  29.322  29.930  1.00  0.00     0.010 A 
ATOM     32  C   UNL A   1      38.050  29.404  29.127  1.00  0.00    -0.014 A 
BRANCH  32  33
ATOM     33  C   UNL A   1      39.350  28.870  29.619  1.00  0.00     0.031 A 
ATOM     34  C   UNL A   1      40.050  29.532  30.781  1.00  0.00     0.074 A 
ATOM     35  C   UNL A   1      39.919  27.811  29.009  1.00  0.00     0.049 A 
ATOM     36  N   UNL A   1      41.202  29.243  31.333  1.00  0.00    -0.248 NA
ATOM     37  C   UNL A   1      39.378  30.695  31.380  1.00  0.00     0.031 C 
ATOM     38  C   UNL A   1      39.373  27.113  27.843  1.00  0.00     0.029 A 
ATOM     39  N   UNL A   1      41.084  27.137  29.282  1.00  0.00    -0.354 N 
ATOM     40  C   UNL A   1      41.399  30.196  32.327  1.00  0.00     0.074 A 
ATOM     41  C   UNL A   1      40.282  31.112  32.252  1.00  0.00     0.031 C 
ATOM     42  C   UNL A   1      40.185  26.094  27.520  1.00  0.00     0.029 A 
ATOM     43  C   UNL A   1      41.328  26.086  28.427  1.00  0.00     0.049 A 
ATOM     44  H   UNL A   1      41.688  27.383  30.019  1.00  0.00     0.167 HD
ATOM     45  C   UNL A   1      42.399  30.285  33.241  1.00  0.00     0.034 A 
ATOM     46  C   UNL A   1      42.357  25.217  28.378  1.00  0.00     0.034 A 
ATOM     47  C   UNL A   1      43.497  29.352  33.319  1.00  0.00     0.049 A 
ATOM     48  C   UNL A   1      43.452  25.324  29.407  1.00  0.00     0.074 A 
ATOM     49  C   UNL A   1      44.537  29.316  34.231  1.00  0.00     0.029 A 
ATOM     50  N   UNL A   1      43.699  28.289  32.448  1.00  0.00    -0.354 N 
ATOM     51  N   UNL A   1      43.597  26.202  30.372  1.00  0.00    -0.248 NA
ATOM     52  C   UNL A   1      44.514  24.311  29.349  1.00  0.00     0.031 C 
ATOM     53  C   UNL A   1      45.397  28.269  33.878  1.00  0.00     0.029 A 
ATOM     54  C   UNL A   1      44.858  27.605  32.787  1.00  0.00     0.049 A 
ATOM     55  H   UNL A   1      43.106  28.054  31.698  1.00  0.00     0.167 HD
ATOM     56  C   UNL A   1      44.756  25.835  31.049  1.00  0.00     0.074 A 
ATOM     57  C   UNL A   1      45.256  24.641  30.397  1.00  0.00     0.031 C 
ATOM     58  C   UNL A   1      45.355  26.428  32.114  1.00  0.00     0.034 A 
BRANCH  45  59
ATOM     59  C   UNL A   1      42.348  31.444  34.211  1.00  0.00     0.023 A 
ATOM     60  C   UNL A   1      41.520  31.419  35.348  1.00  0.00     0.031 A 
ATOM     61  C   UNL A   1      43.106  32.606  33.979  1.00  0.00     0.131 A 
ATOM     62  C   UNL A   1      41.397  32.561  36.154  1.00  0.00     0.055 A 
ATOM     63  C   UNL A   1      43.046  33.708  34.835  1.00  0.00     0.041 A 
ATOM     64  F   UNL A   1      43.902  32.699  32.903  1.00  0.00    -0.206 F 
ATOM     65  C   UNL A   1      42.174  33.698  35.920  1.00  0.00     0.022 A 
BRANCH  62  66
ATOM     66  S   UNL A   1      40.093  32.596  37.415  1.00  0.00     0.124 S 
ATOM     67  O   UNL A   1      39.191  31.551  36.933  1.00  0.00    -0.237 OA
ATOM     68  O   UNL A   1      40.828  32.290  38.638  1.00  0.00    -0.237 OA
ATOM     69  O   UNL A   1      39.565  33.954  37.326  1.00  0.00    -0.744 OA
ENDBRANCH  62  66
ENDBRANCH  45  59
BRANCH  46  70
ATOM     70  C   UNL A   1      42.406  24.170  27.317  1.00  0.00     0.023 A 
ATOM     71  C   UNL A   1      41.595  23.025  27.387  1.00  0.00     0.031 A 
ATOM     72  C   UNL A   1      43.291  24.287  26.231  1.00  0.00     0.131 A 
ATOM     73  C   UNL A   1      41.715  22.024  26.410  1.00  0.00     0.055 A 
ATOM     74  C   UNL A   1      43.372  23.310  25.236  1.00  0.00     0.041 A 
ATOM     75  F   UNL A   1      44.082  25.365  26.113  1.00  0.00    -0.206 F 
ATOM     76  C   UNL A   1      42.589  22.164  25.329  1.00  0.00     0.022 A 
BRANCH  73  77
ATOM     77  S   UNL A   1      40.758  20.496  26.610  1.00  0.00     0.124 S 
ATOM     78  O   UNL A   1      39.462  20.880  26.062  1.00  0.00    -0.237 OA
ATOM     79  O   UNL A   1      41.533  19.547  25.818  1.00  0.00    -0.237 OA
ATOM     80  O   UNL A   1      40.782  20.266  28.053  1.00  0.00    -0.744 OA
ENDBRANCH  73  77
ENDBRANCH  46  70
BRANCH  58  81
ATOM     81  C   UNL A   1      46.601  25.767  32.650  1.00  0.00     0.023 A 
ATOM     82  C   UNL A   1      47.842  25.897  32.001  1.00  0.00     0.031 A 
ATOM     83  C   UNL A   1      46.539  24.972  33.808  1.00  0.00     0.131 A 
ATOM     84  C   UNL A   1      48.956  25.192  32.478  1.00  0.00     0.055 A 
ATOM     85  C   UNL A   1      47.666  24.321  34.313  1.00  0.00     0.041 A 
ATOM     86  F   UNL A   1      45.381  24.811  34.466  1.00  0.00    -0.206 F 
ATOM     87  C   UNL A   1      48.881  24.417  33.638  1.00  0.00     0.022 A 
BRANCH  84  88
ATOM     88  S   UNL A   1      50.484  25.216  31.500  1.00  0.00     0.124 S 
ATOM     89  O   UNL A   1      51.229  26.302  32.127  1.00  0.00    -0.237 OA
ATOM     90  O   UNL A   1      51.012  23.872  31.714  1.00  0.00    -0.237 OA
ATOM     91  O   UNL A   1      50.018  25.487  30.141  1.00  0.00    -0.744 OA
ENDBRANCH  84  88
ENDBRANCH  58  81
ENDBRANCH  32  33
ENDBRANCH  24  27
ENDBRANCH  22  23
ENDBRANCH   1  22
TORSDOF 16
ENDMDL
