MODEL 1
REMARK VINA RESULT:     -12.1      0.000      0.000
REMARK SMILES CCc1cc(N2CCC(O)(C(=O)NCCCNC(=O)c3ccc(-c4c5nc(c(-c6cc(S(=O)(=O)[O-])ccc6F)c6ccc([nH]6)c(-c6cc(S(=O)(=O)[O-])ccc6F)c6nc(c(-c7cc(S(=O)(=O)[O-])ccc7F)c7ccc4[nH]7)C=C6)C=C5)cc3)CC2)nc(N2CCOCC2)n1
REMARK SMILES IDX 15 1 14 2 13 3 11 4 12 5 9 7 6 8 7 9 84 10 8 11 83 12 5 13
REMARK SMILES IDX 3 14 4 15 93 16 86 17 85 18 2 19 1 20 87 21 88 22 92 23
REMARK SMILES IDX 89 24 91 25 90 26 10 27 16 29 17 30 18 31 19 33 20 34 21 35
REMARK SMILES IDX 82 36 22 37 81 38 23 39 24 40 25 41 75 42 26 43 80 44 74 45
REMARK SMILES IDX 76 46 27 47 79 48 73 49 72 50 28 52 60 53 40 54 59 55 41 56
REMARK SMILES IDX 44 57 58 58 77 59 42 60 43 61 57 63 78 64 45 65 29 66 30 67
REMARK SMILES IDX 38 68 31 69 37 70 39 71 36 72 32 73 33 74 34 75 35 76 61 77
REMARK SMILES IDX 62 78 70 79 63 80 69 81 71 82 68 83 64 84 65 85 66 86 67 87
REMARK SMILES IDX 46 88 47 89 55 90 48 91 54 92 56 93 53 94 49 95 50 96 51 97
REMARK SMILES IDX 52 98
REMARK H PARENT 13 6 10 28 17 32 76 51 44 62
REMARK Flexibility Score: inf
ROOT
ATOM      1  C   UNL A   1      36.362  23.493  24.454  1.00  0.00     0.042 C 
ENDROOT
BRANCH   1   2
ATOM      2  C   UNL A   1      34.935  23.198  23.999  1.00  0.00     0.117 C 
BRANCH   2   3
ATOM      3  N   UNL A   1      34.536  21.845  24.334  1.00  0.00    -0.354 N 
ATOM      4  C   UNL A   1      33.377  21.370  24.875  1.00  0.00     0.252 C 
ATOM      5  O   UNL A   1      33.307  20.146  25.035  1.00  0.00    -0.272 OA
ATOM      6  H   UNL A   1      35.211  21.155  24.139  1.00  0.00     0.163 HD
BRANCH   4   7
ATOM      7  C   UNL A   1      32.214  22.327  25.270  1.00  0.00     0.146 C 
ATOM      8  N   UNL A   1      31.196  24.996  25.375  1.00  0.00    -0.356 N 
ATOM      9  C   UNL A   1      30.623  24.108  24.390  1.00  0.00     0.121 C 
ATOM     10  C   UNL A   1      31.785  24.468  26.590  1.00  0.00     0.121 C 
ATOM     11  C   UNL A   1      31.640  23.029  24.028  1.00  0.00     0.067 C 
ATOM     12  C   UNL A   1      32.780  23.370  26.256  1.00  0.00     0.067 C 
BRANCH   8  13
ATOM     13  C   UNL A   1      31.223  26.356  25.170  1.00  0.00     0.134 A 
ATOM     14  C   UNL A   1      32.198  28.466  25.507  1.00  0.00     0.048 A 
ATOM     15  C   UNL A   1      32.128  27.137  25.855  1.00  0.00     0.071 A 
ATOM     16  N   UNL A   1      31.407  28.989  24.553  1.00  0.00    -0.218 NA
ATOM     17  C   UNL A   1      30.480  28.190  24.003  1.00  0.00     0.227 A 
ATOM     18  N   UNL A   1      30.384  26.880  24.263  1.00  0.00    -0.196 NA
BRANCH  14  19
ATOM     19  C   UNL A   1      33.217  29.354  26.179  1.00  0.00     0.053 C 
ATOM     20  C   UNL A   1      34.356  28.608  26.859  1.00  0.00     0.011 C 
ENDBRANCH  14  19
BRANCH  17  21
ATOM     21  N   UNL A   1      29.580  28.771  23.157  1.00  0.00    -0.336 N 
ATOM     22  C   UNL A   1      29.594  30.208  22.928  1.00  0.00     0.148 C 
ATOM     23  C   UNL A   1      28.367  28.048  22.816  1.00  0.00     0.148 C 
ATOM     24  C   UNL A   1      28.305  30.857  23.445  1.00  0.00     0.181 C 
ATOM     25  C   UNL A   1      27.150  28.800  23.384  1.00  0.00     0.181 C 
ATOM     26  O   UNL A   1      27.132  30.175  22.960  1.00  0.00    -0.378 OA
ENDBRANCH  17  21
ENDBRANCH   8  13
BRANCH   7  27
ATOM     27  O   UNL A   1      31.191  21.562  25.924  1.00  0.00    -0.380 OA
ATOM     28  H   UNL A   1      31.602  20.871  26.468  1.00  0.00     0.212 HD
ENDBRANCH   7  27
ENDBRANCH   4   7
ENDBRANCH   2   3
ENDBRANCH   1   2
BRANCH   1  29
ATOM     29  C   UNL A   1      36.629  23.162  25.918  1.00  0.00     0.118 C 
BRANCH  29  30
ATOM     30  N   UNL A   1      37.799  22.315  26.092  1.00  0.00    -0.352 N 
ATOM     31  C   UNL A   1      39.093  22.651  26.393  1.00  0.00     0.251 C 
ATOM     32  H   UNL A   1      37.636  21.352  25.975  1.00  0.00     0.163 HD
ATOM     33  O   UNL A   1      39.974  21.794  26.279  1.00  0.00    -0.269 OA
BRANCH  31  34
ATOM     34  C   UNL A   1      39.444  24.020  26.828  1.00  0.00     0.039 A 
ATOM     35  C   UNL A   1      39.165  24.401  28.143  1.00  0.00     0.014 A 
ATOM     36  C   UNL A   1      40.017  24.941  25.945  1.00  0.00     0.014 A 
ATOM     37  C   UNL A   1      39.515  25.679  28.589  1.00  0.00     0.010 A 
ATOM     38  C   UNL A   1      40.435  26.187  26.411  1.00  0.00     0.010 A 
ATOM     39  C   UNL A   1      40.186  26.571  27.738  1.00  0.00    -0.014 A 
BRANCH  39  40
ATOM     40  C   UNL A   1      40.636  27.905  28.221  1.00  0.00     0.031 A 
ATOM     41  C   UNL A   1      42.106  28.205  28.360  1.00  0.00     0.074 A 
ATOM     42  C   UNL A   1      39.718  28.824  28.589  1.00  0.00     0.049 A 
ATOM     43  N   UNL A   1      42.689  29.278  28.833  1.00  0.00    -0.248 NA
ATOM     44  C   UNL A   1      43.043  27.153  27.935  1.00  0.00     0.031 C 
ATOM     45  C   UNL A   1      38.266  28.633  28.535  1.00  0.00     0.029 A 
ATOM     46  N   UNL A   1      39.864  30.092  29.093  1.00  0.00    -0.354 N 
ATOM     47  C   UNL A   1      44.055  29.023  28.782  1.00  0.00     0.074 A 
ATOM     48  C   UNL A   1      44.213  27.678  28.273  1.00  0.00     0.031 C 
ATOM     49  C   UNL A   1      37.659  29.749  28.972  1.00  0.00     0.029 A 
ATOM     50  C   UNL A   1      38.671  30.715  29.386  1.00  0.00     0.049 A 
ATOM     51  H   UNL A   1      40.741  30.518  29.232  1.00  0.00     0.167 HD
ATOM     52  C   UNL A   1      45.082  29.842  29.118  1.00  0.00     0.034 A 
ATOM     53  C   UNL A   1      38.420  31.916  29.944  1.00  0.00     0.034 A 
ATOM     54  C   UNL A   1      44.909  31.192  29.599  1.00  0.00     0.049 A 
ATOM     55  C   UNL A   1      39.585  32.803  30.316  1.00  0.00     0.074 A 
ATOM     56  C   UNL A   1      45.884  32.131  29.890  1.00  0.00     0.029 A 
ATOM     57  N   UNL A   1      43.686  31.791  29.870  1.00  0.00    -0.354 N 
ATOM     58  N   UNL A   1      40.872  32.569  30.193  1.00  0.00    -0.248 NA
ATOM     59  C   UNL A   1      39.266  34.117  30.889  1.00  0.00     0.031 C 
ATOM     60  C   UNL A   1      45.257  33.267  30.409  1.00  0.00     0.029 A 
ATOM     61  C   UNL A   1      43.886  33.073  30.361  1.00  0.00     0.049 A 
ATOM     62  H   UNL A   1      42.808  31.370  29.733  1.00  0.00     0.167 HD
ATOM     63  C   UNL A   1      41.510  33.725  30.638  1.00  0.00     0.074 A 
ATOM     64  C   UNL A   1      40.468  34.657  31.012  1.00  0.00     0.031 C 
ATOM     65  C   UNL A   1      42.837  33.994  30.729  1.00  0.00     0.034 A 
BRANCH  52  66
ATOM     66  C   UNL A   1      46.487  29.302  29.005  1.00  0.00     0.023 A 
ATOM     67  C   UNL A   1      47.138  29.172  27.767  1.00  0.00     0.031 A 
ATOM     68  C   UNL A   1      47.197  28.943  30.165  1.00  0.00     0.131 A 
ATOM     69  C   UNL A   1      48.441  28.654  27.713  1.00  0.00     0.055 A 
ATOM     70  C   UNL A   1      48.518  28.496  30.111  1.00  0.00     0.041 A 
ATOM     71  F   UNL A   1      46.619  29.027  31.373  1.00  0.00    -0.206 F 
ATOM     72  C   UNL A   1      49.145  28.340  28.878  1.00  0.00     0.022 A 
BRANCH  69  73
ATOM     73  S   UNL A   1      49.172  28.303  26.091  1.00  0.00     0.124 S 
ATOM     74  O   UNL A   1      48.030  28.511  25.203  1.00  0.00    -0.237 OA
ATOM     75  O   UNL A   1      50.238  29.293  26.003  1.00  0.00    -0.237 OA
ATOM     76  O   UNL A   1      49.616  26.915  26.207  1.00  0.00    -0.744 OA
ENDBRANCH  69  73
ENDBRANCH  52  66
BRANCH  53  77
ATOM     77  C   UNL A   1      37.019  32.356  30.220  1.00  0.00     0.023 A 
ATOM     78  C   UNL A   1      36.263  33.027  29.246  1.00  0.00     0.031 A 
ATOM     79  C   UNL A   1      36.445  32.188  31.493  1.00  0.00     0.131 A 
ATOM     80  C   UNL A   1      35.012  33.570  29.579  1.00  0.00     0.055 A 
ATOM     81  C   UNL A   1      35.171  32.667  31.800  1.00  0.00     0.041 A 
ATOM     82  F   UNL A   1      37.119  31.552  32.466  1.00  0.00    -0.206 F 
ATOM     83  C   UNL A   1      34.454  33.383  30.846  1.00  0.00     0.022 A 
BRANCH  80  84
ATOM     84  S   UNL A   1      34.183  34.643  28.373  1.00  0.00     0.124 S 
ATOM     85  O   UNL A   1      34.880  34.294  27.140  1.00  0.00    -0.237 OA
ATOM     86  O   UNL A   1      32.797  34.197  28.477  1.00  0.00    -0.237 OA
ATOM     87  O   UNL A   1      34.444  35.988  28.881  1.00  0.00    -0.744 OA
ENDBRANCH  80  84
ENDBRANCH  53  77
BRANCH  65  88
ATOM     88  C   UNL A   1      43.230  35.373  31.200  1.00  0.00     0.023 A 
ATOM     89  C   UNL A   1      43.452  36.431  30.300  1.00  0.00     0.031 A 
ATOM     90  C   UNL A   1      43.394  35.628  32.574  1.00  0.00     0.131 A 
ATOM     91  C   UNL A   1      43.884  37.676  30.779  1.00  0.00     0.055 A 
ATOM     92  C   UNL A   1      43.760  36.888  33.049  1.00  0.00     0.041 A 
ATOM     93  F   UNL A   1      43.199  34.655  33.478  1.00  0.00    -0.206 F 
ATOM     94  C   UNL A   1      44.022  37.917  32.149  1.00  0.00     0.022 A 
BRANCH  91  95
ATOM     95  S   UNL A   1      44.362  38.951  29.582  1.00  0.00     0.124 S 
ATOM     96  O   UNL A   1      43.408  40.016  29.877  1.00  0.00    -0.237 OA
ATOM     97  O   UNL A   1      45.748  39.220  29.948  1.00  0.00    -0.237 OA
ATOM     98  O   UNL A   1      44.179  38.295  28.289  1.00  0.00    -0.744 OA
ENDBRANCH  91  95
ENDBRANCH  65  88
ENDBRANCH  39  40
ENDBRANCH  31  34
ENDBRANCH  29  30
ENDBRANCH   1  29
TORSDOF 17
ENDMDL
MODEL 2
REMARK VINA RESULT:     -12.1      1.696      1.956
REMARK SMILES CCc1cc(N2CCC(O)(C(=O)NCCCNC(=O)c3ccc(-c4c5nc(c(-c6cc(S(=O)(=O)[O-])ccc6F)c6ccc([nH]6)c(-c6cc(S(=O)(=O)[O-])ccc6F)c6nc(c(-c7cc(S(=O)(=O)[O-])ccc7F)c7ccc4[nH]7)C=C6)C=C5)cc3)CC2)nc(N2CCOCC2)n1
REMARK SMILES IDX 15 1 14 2 13 3 11 4 12 5 9 7 6 8 7 9 84 10 8 11 83 12 5 13
REMARK SMILES IDX 3 14 4 15 93 16 86 17 85 18 2 19 1 20 87 21 88 22 92 23
REMARK SMILES IDX 89 24 91 25 90 26 10 27 16 29 17 30 18 31 19 33 20 34 21 35
REMARK SMILES IDX 82 36 22 37 81 38 23 39 24 40 25 41 75 42 26 43 80 44 74 45
REMARK SMILES IDX 76 46 27 47 79 48 73 49 72 50 28 52 60 53 40 54 59 55 41 56
REMARK SMILES IDX 44 57 58 58 77 59 42 60 43 61 57 63 78 64 45 65 29 66 30 67
REMARK SMILES IDX 38 68 31 69 37 70 39 71 36 72 32 73 33 74 34 75 35 76 61 77
REMARK SMILES IDX 62 78 70 79 63 80 69 81 71 82 68 83 64 84 65 85 66 86 67 87
REMARK SMILES IDX 46 88 47 89 55 90 48 91 54 92 56 93 53 94 49 95 50 96 51 97
REMARK SMILES IDX 52 98
REMARK H PARENT 13 6 10 28 17 32 76 51 44 62
REMARK Flexibility Score: inf
ROOT
ATOM      1  C   UNL A   1      36.386  23.358  24.377  1.00  0.00     0.042 C 
ENDROOT
BRANCH   1   2
ATOM      2  C   UNL A   1      34.984  22.981  23.907  1.00  0.00     0.117 C 
BRANCH   2   3
ATOM      3  N   UNL A   1      34.601  21.662  24.372  1.00  0.00    -0.354 N 
ATOM      4  C   UNL A   1      33.452  21.230  24.968  1.00  0.00     0.252 C 
ATOM      5  O   UNL A   1      33.396  20.026  25.244  1.00  0.00    -0.272 OA
ATOM      6  H   UNL A   1      35.281  20.963  24.237  1.00  0.00     0.163 HD
BRANCH   4   7
ATOM      7  C   UNL A   1      32.283  22.210  25.281  1.00  0.00     0.146 C 
ATOM      8  N   UNL A   1      31.290  24.890  25.260  1.00  0.00    -0.356 N 
ATOM      9  C   UNL A   1      30.752  23.978  24.277  1.00  0.00     0.121 C 
ATOM     10  C   UNL A   1      31.819  24.394  26.515  1.00  0.00     0.121 C 
ATOM     11  C   UNL A   1      31.772  22.879  23.994  1.00  0.00     0.067 C 
ATOM     12  C   UNL A   1      32.815  23.278  26.260  1.00  0.00     0.067 C 
BRANCH   8  13
ATOM     13  C   UNL A   1      31.341  26.243  25.014  1.00  0.00     0.134 A 
ATOM     14  C   UNL A   1      32.410  28.327  25.201  1.00  0.00     0.048 A 
ATOM     15  C   UNL A   1      32.331  27.009  25.592  1.00  0.00     0.071 A 
ATOM     16  N   UNL A   1      31.550  28.852  24.310  1.00  0.00    -0.218 NA
ATOM     17  C   UNL A   1      30.551  28.071  23.871  1.00  0.00     0.227 A 
ATOM     18  N   UNL A   1      30.438  26.772  24.175  1.00  0.00    -0.196 NA
BRANCH  14  19
ATOM     19  C   UNL A   1      33.514  29.196  25.751  1.00  0.00     0.053 C 
ATOM     20  C   UNL A   1      34.106  28.710  27.067  1.00  0.00     0.011 C 
ENDBRANCH  14  19
BRANCH  17  21
ATOM     21  N   UNL A   1      29.595  28.662  23.095  1.00  0.00    -0.336 N 
ATOM     22  C   UNL A   1      29.648  30.086  22.803  1.00  0.00     0.148 C 
ATOM     23  C   UNL A   1      28.323  27.985  22.911  1.00  0.00     0.148 C 
ATOM     24  C   UNL A   1      28.449  30.816  23.419  1.00  0.00     0.181 C 
ATOM     25  C   UNL A   1      27.205  28.816  23.566  1.00  0.00     0.181 C 
ATOM     26  O   UNL A   1      27.203  30.173  23.085  1.00  0.00    -0.378 OA
ENDBRANCH  17  21
ENDBRANCH   8  13
BRANCH   7  27
ATOM     27  O   UNL A   1      31.224  21.475  25.912  1.00  0.00    -0.380 OA
ATOM     28  H   UNL A   1      30.604  22.095  26.329  1.00  0.00     0.212 HD
ENDBRANCH   7  27
ENDBRANCH   4   7
ENDBRANCH   2   3
ENDBRANCH   1   2
BRANCH   1  29
ATOM     29  C   UNL A   1      36.641  23.086  25.856  1.00  0.00     0.118 C 
BRANCH  29  30
ATOM     30  N   UNL A   1      37.804  22.241  26.072  1.00  0.00    -0.352 N 
ATOM     31  C   UNL A   1      39.094  22.581  26.389  1.00  0.00     0.251 C 
ATOM     32  H   UNL A   1      37.641  21.275  25.976  1.00  0.00     0.163 HD
ATOM     33  O   UNL A   1      39.974  21.718  26.313  1.00  0.00    -0.269 OA
BRANCH  31  34
ATOM     34  C   UNL A   1      39.442  23.959  26.796  1.00  0.00     0.039 A 
ATOM     35  C   UNL A   1      39.270  24.330  28.133  1.00  0.00     0.014 A 
ATOM     36  C   UNL A   1      39.906  24.898  25.870  1.00  0.00     0.014 A 
ATOM     37  C   UNL A   1      39.620  25.617  28.550  1.00  0.00     0.010 A 
ATOM     38  C   UNL A   1      40.326  26.155  26.302  1.00  0.00     0.010 A 
ATOM     39  C   UNL A   1      40.186  26.530  27.647  1.00  0.00    -0.014 A 
BRANCH  39  40
ATOM     40  C   UNL A   1      40.637  27.877  28.092  1.00  0.00     0.031 A 
ATOM     41  C   UNL A   1      42.103  28.225  28.088  1.00  0.00     0.074 A 
ATOM     42  C   UNL A   1      39.730  28.762  28.556  1.00  0.00     0.049 A 
ATOM     43  N   UNL A   1      42.694  29.314  28.509  1.00  0.00    -0.248 NA
ATOM     44  C   UNL A   1      43.028  27.207  27.565  1.00  0.00     0.031 C 
ATOM     45  C   UNL A   1      38.287  28.524  28.645  1.00  0.00     0.029 A 
ATOM     46  N   UNL A   1      39.883  30.033  29.053  1.00  0.00    -0.354 N 
ATOM     47  C   UNL A   1      44.056  29.106  28.322  1.00  0.00     0.074 A 
ATOM     48  C   UNL A   1      44.207  27.769  27.790  1.00  0.00     0.031 C 
ATOM     49  C   UNL A   1      37.689  29.616  29.148  1.00  0.00     0.029 A 
ATOM     50  C   UNL A   1      38.705  30.614  29.467  1.00  0.00     0.049 A 
ATOM     51  H   UNL A   1      40.755  30.487  29.108  1.00  0.00     0.167 HD
ATOM     52  C   UNL A   1      45.083  29.958  28.560  1.00  0.00     0.034 A 
ATOM     53  C   UNL A   1      38.471  31.804  30.055  1.00  0.00     0.034 A 
ATOM     54  C   UNL A   1      44.914  31.299  29.067  1.00  0.00     0.049 A 
ATOM     55  C   UNL A   1      39.637  32.728  30.317  1.00  0.00     0.074 A 
ATOM     56  C   UNL A   1      45.882  32.269  29.267  1.00  0.00     0.029 A 
ATOM     57  N   UNL A   1      43.706  31.856  29.461  1.00  0.00    -0.354 N 
ATOM     58  N   UNL A   1      40.913  32.538  30.066  1.00  0.00    -0.248 NA
ATOM     59  C   UNL A   1      39.333  34.028  30.928  1.00  0.00     0.031 C 
ATOM     60  C   UNL A   1      45.273  33.381  29.854  1.00  0.00     0.029 A 
ATOM     61  C   UNL A   1      43.911  33.142  29.939  1.00  0.00     0.049 A 
ATOM     62  H   UNL A   1      42.832  31.406  29.408  1.00  0.00     0.167 HD
ATOM     63  C   UNL A   1      41.553  33.713  30.454  1.00  0.00     0.074 A 
ATOM     64  C   UNL A   1      40.523  34.608  30.936  1.00  0.00     0.031 C 
ATOM     65  C   UNL A   1      42.873  34.025  30.416  1.00  0.00     0.034 A 
BRANCH  52  66
ATOM     66  C   UNL A   1      46.487  29.466  28.306  1.00  0.00     0.023 A 
ATOM     67  C   UNL A   1      47.283  28.923  29.329  1.00  0.00     0.031 A 
ATOM     68  C   UNL A   1      47.025  29.514  27.006  1.00  0.00     0.131 A 
ATOM     69  C   UNL A   1      48.587  28.490  29.044  1.00  0.00     0.055 A 
ATOM     70  C   UNL A   1      48.296  29.015  26.716  1.00  0.00     0.041 A 
ATOM     71  F   UNL A   1      46.318  30.040  25.994  1.00  0.00    -0.206 F 
ATOM     72  C   UNL A   1      49.089  28.507  27.740  1.00  0.00     0.022 A 
BRANCH  69  73
ATOM     73  S   UNL A   1      49.658  27.990  30.420  1.00  0.00     0.124 S 
ATOM     74  O   UNL A   1      48.772  27.108  31.177  1.00  0.00    -0.237 OA
ATOM     75  O   UNL A   1      50.771  27.343  29.736  1.00  0.00    -0.237 OA
ATOM     76  O   UNL A   1      49.981  29.254  31.080  1.00  0.00    -0.744 OA
ENDBRANCH  69  73
ENDBRANCH  52  66
BRANCH  53  77
ATOM     77  C   UNL A   1      37.090  32.195  30.472  1.00  0.00     0.023 A 
ATOM     78  C   UNL A   1      36.185  32.751  29.554  1.00  0.00     0.031 A 
ATOM     79  C   UNL A   1      36.684  32.099  31.815  1.00  0.00     0.131 A 
ATOM     80  C   UNL A   1      34.954  33.257  30.001  1.00  0.00     0.055 A 
ATOM     81  C   UNL A   1      35.431  32.539  32.243  1.00  0.00     0.041 A 
ATOM     82  F   UNL A   1      37.507  31.574  32.739  1.00  0.00    -0.206 F 
ATOM     83  C   UNL A   1      34.565  33.142  31.337  1.00  0.00     0.022 A 
BRANCH  80  84
ATOM     84  S   UNL A   1      33.926  34.191  28.834  1.00  0.00     0.124 S 
ATOM     85  O   UNL A   1      34.877  35.170  28.320  1.00  0.00    -0.237 OA
ATOM     86  O   UNL A   1      33.508  33.150  27.901  1.00  0.00    -0.237 OA
ATOM     87  O   UNL A   1      32.863  34.734  29.677  1.00  0.00    -0.744 OA
ENDBRANCH  80  84
ENDBRANCH  53  77
BRANCH  65  88
ATOM     88  C   UNL A   1      43.265  35.415  30.856  1.00  0.00     0.023 A 
ATOM     89  C   UNL A   1      43.439  35.745  32.211  1.00  0.00     0.031 A 
ATOM     90  C   UNL A   1      43.457  36.428  29.898  1.00  0.00     0.131 A 
ATOM     91  C   UNL A   1      43.734  37.066  32.576  1.00  0.00     0.055 A 
ATOM     92  C   UNL A   1      43.818  37.726  30.264  1.00  0.00     0.041 A 
ATOM     93  F   UNL A   1      43.302  36.172  28.590  1.00  0.00    -0.206 F 
ATOM     94  C   UNL A   1      43.943  38.055  31.611  1.00  0.00     0.022 A 
BRANCH  91  95
ATOM     95  S   UNL A   1      43.745  37.502  34.337  1.00  0.00     0.124 S 
ATOM     96  O   UNL A   1      42.330  37.748  34.596  1.00  0.00    -0.237 OA
ATOM     97  O   UNL A   1      44.306  36.304  34.951  1.00  0.00    -0.237 OA
ATOM     98  O   UNL A   1      44.601  38.686  34.393  1.00  0.00    -0.744 OA
ENDBRANCH  91  95
ENDBRANCH  65  88
ENDBRANCH  39  40
ENDBRANCH  31  34
ENDBRANCH  29  30
ENDBRANCH   1  29
TORSDOF 17
ENDMDL
MODEL 3
REMARK VINA RESULT:     -12.0      3.190      8.502
REMARK SMILES CCc1cc(N2CCC(O)(C(=O)NCCCNC(=O)c3ccc(-c4c5nc(c(-c6cc(S(=O)(=O)[O-])ccc6F)c6ccc([nH]6)c(-c6cc(S(=O)(=O)[O-])ccc6F)c6nc(c(-c7cc(S(=O)(=O)[O-])ccc7F)c7ccc4[nH]7)C=C6)C=C5)cc3)CC2)nc(N2CCOCC2)n1
REMARK SMILES IDX 15 1 14 2 13 3 11 4 12 5 9 7 6 8 7 9 84 10 8 11 83 12 5 13
REMARK SMILES IDX 3 14 4 15 93 16 86 17 85 18 2 19 1 20 87 21 88 22 92 23
REMARK SMILES IDX 89 24 91 25 90 26 10 27 16 29 17 30 18 31 19 33 20 34 21 35
REMARK SMILES IDX 82 36 22 37 81 38 23 39 24 40 25 41 75 42 26 43 80 44 74 45
REMARK SMILES IDX 76 46 27 47 79 48 73 49 72 50 28 52 60 53 40 54 59 55 41 56
REMARK SMILES IDX 44 57 58 58 77 59 42 60 43 61 57 63 78 64 45 65 29 66 30 67
REMARK SMILES IDX 38 68 31 69 37 70 39 71 36 72 32 73 33 74 34 75 35 76 61 77
REMARK SMILES IDX 62 78 70 79 63 80 69 81 71 82 68 83 64 84 65 85 66 86 67 87
REMARK SMILES IDX 46 88 47 89 55 90 48 91 54 92 56 93 53 94 49 95 50 96 51 97
REMARK SMILES IDX 52 98
REMARK H PARENT 13 6 10 28 17 32 76 51 44 62
REMARK Flexibility Score: inf
ROOT
ATOM      1  C   UNL A   1      37.814  20.047  24.994  1.00  0.00     0.042 C 
ENDROOT
BRANCH   1   2
ATOM      2  C   UNL A   1      36.673  21.056  24.904  1.00  0.00     0.117 C 
BRANCH   2   3
ATOM      3  N   UNL A   1      35.950  21.160  26.157  1.00  0.00    -0.354 N 
ATOM      4  C   UNL A   1      34.681  21.586  26.416  1.00  0.00     0.252 C 
ATOM      5  O   UNL A   1      34.319  21.548  27.597  1.00  0.00    -0.272 OA
ATOM      6  H   UNL A   1      36.459  20.878  26.951  1.00  0.00     0.163 HD
BRANCH   4   7
ATOM      7  C   UNL A   1      33.747  22.094  25.278  1.00  0.00     0.146 C 
ATOM      8  N   UNL A   1      32.135  24.205  24.221  1.00  0.00    -0.356 N 
ATOM      9  C   UNL A   1      33.402  23.952  23.572  1.00  0.00     0.121 C 
ATOM     10  C   UNL A   1      31.449  23.148  24.936  1.00  0.00     0.121 C 
ATOM     11  C   UNL A   1      34.363  23.314  24.571  1.00  0.00     0.067 C 
ATOM     12  C   UNL A   1      32.395  22.477  25.915  1.00  0.00     0.067 C 
BRANCH   8  13
ATOM     13  C   UNL A   1      31.569  25.459  24.200  1.00  0.00     0.134 A 
ATOM     14  C   UNL A   1      29.710  26.870  23.932  1.00  0.00     0.048 A 
ATOM     15  C   UNL A   1      30.259  25.615  23.801  1.00  0.00     0.071 A 
ATOM     16  N   UNL A   1      30.423  27.906  24.410  1.00  0.00    -0.218 NA
ATOM     17  C   UNL A   1      31.720  27.700  24.680  1.00  0.00     0.227 A 
ATOM     18  N   UNL A   1      32.308  26.498  24.617  1.00  0.00    -0.196 NA
BRANCH  14  19
ATOM     19  C   UNL A   1      28.260  27.085  23.572  1.00  0.00     0.053 C 
ATOM     20  C   UNL A   1      27.922  28.500  23.124  1.00  0.00     0.011 C 
ENDBRANCH  14  19
BRANCH  17  21
ATOM     21  N   UNL A   1      32.469  28.794  25.009  1.00  0.00    -0.336 N 
ATOM     22  C   UNL A   1      33.905  28.680  25.208  1.00  0.00     0.148 C 
ATOM     23  C   UNL A   1      31.804  29.960  25.563  1.00  0.00     0.148 C 
ATOM     24  C   UNL A   1      34.282  28.991  26.661  1.00  0.00     0.181 C 
ATOM     25  C   UNL A   1      32.268  30.168  27.016  1.00  0.00     0.181 C 
ATOM     26  O   UNL A   1      33.703  30.232  27.110  1.00  0.00    -0.378 OA
ENDBRANCH  17  21
ENDBRANCH   8  13
BRANCH   7  27
ATOM     27  O   UNL A   1      33.544  21.028  24.339  1.00  0.00    -0.380 OA
ATOM     28  H   UNL A   1      34.367  20.864  23.852  1.00  0.00     0.212 HD
ENDBRANCH   7  27
ENDBRANCH   4   7
ENDBRANCH   2   3
ENDBRANCH   1   2
BRANCH   1  29
ATOM     29  C   UNL A   1      39.031  20.551  25.762  1.00  0.00     0.118 C 
BRANCH  29  30
ATOM     30  N   UNL A   1      40.055  19.529  25.912  1.00  0.00    -0.352 N 
ATOM     31  C   UNL A   1      41.406  19.656  26.108  1.00  0.00     0.251 C 
ATOM     32  H   UNL A   1      39.727  18.602  25.866  1.00  0.00     0.163 HD
ATOM     33  O   UNL A   1      42.122  18.658  25.991  1.00  0.00    -0.269 OA
BRANCH  31  34
ATOM     34  C   UNL A   1      42.009  20.967  26.433  1.00  0.00     0.039 A 
ATOM     35  C   UNL A   1      42.331  21.837  25.388  1.00  0.00     0.014 A 
ATOM     36  C   UNL A   1      42.289  21.332  27.753  1.00  0.00     0.014 A 
ATOM     37  C   UNL A   1      42.874  23.094  25.669  1.00  0.00     0.010 A 
ATOM     38  C   UNL A   1      42.758  22.614  28.036  1.00  0.00     0.010 A 
ATOM     39  C   UNL A   1      43.058  23.509  26.998  1.00  0.00    -0.014 A 
BRANCH  39  40
ATOM     40  C   UNL A   1      43.560  24.874  27.316  1.00  0.00     0.031 A 
ATOM     41  C   UNL A   1      42.625  25.914  27.876  1.00  0.00     0.074 A 
ATOM     42  C   UNL A   1      44.844  25.191  27.044  1.00  0.00     0.049 A 
ATOM     43  N   UNL A   1      42.858  27.174  28.144  1.00  0.00    -0.248 NA
ATOM     44  C   UNL A   1      41.242  25.490  28.146  1.00  0.00     0.031 C 
ATOM     45  C   UNL A   1      45.833  24.278  26.465  1.00  0.00     0.029 A 
ATOM     46  N   UNL A   1      45.536  26.366  27.203  1.00  0.00    -0.354 N 
ATOM     47  C   UNL A   1      41.650  27.698  28.594  1.00  0.00     0.074 A 
ATOM     48  C   UNL A   1      40.677  26.629  28.522  1.00  0.00     0.031 C 
ATOM     49  C   UNL A   1      47.004  24.922  26.334  1.00  0.00     0.029 A 
ATOM     50  C   UNL A   1      46.841  26.306  26.769  1.00  0.00     0.049 A 
ATOM     51  H   UNL A   1      45.135  27.177  27.592  1.00  0.00     0.167 HD
ATOM     52  C   UNL A   1      41.384  28.950  29.039  1.00  0.00     0.034 A 
ATOM     53  C   UNL A   1      47.792  27.259  26.707  1.00  0.00     0.034 A 
ATOM     54  C   UNL A   1      42.372  29.997  29.131  1.00  0.00     0.049 A 
ATOM     55  C   UNL A   1      47.462  28.648  27.201  1.00  0.00     0.074 A 
ATOM     56  C   UNL A   1      42.223  31.276  29.642  1.00  0.00     0.029 A 
ATOM     57  N   UNL A   1      43.686  29.895  28.694  1.00  0.00    -0.354 N 
ATOM     58  N   UNL A   1      46.330  29.103  27.690  1.00  0.00    -0.248 NA
ATOM     59  C   UNL A   1      48.536  29.647  27.147  1.00  0.00     0.031 C 
ATOM     60  C   UNL A   1      43.420  31.969  29.444  1.00  0.00     0.029 A 
ATOM     61  C   UNL A   1      44.345  31.100  28.890  1.00  0.00     0.049 A 
ATOM     62  H   UNL A   1      44.090  29.087  28.304  1.00  0.00     0.167 HD
ATOM     63  C   UNL A   1      46.575  30.430  28.037  1.00  0.00     0.074 A 
ATOM     64  C   UNL A   1      47.962  30.694  27.719  1.00  0.00     0.031 C 
ATOM     65  C   UNL A   1      45.730  31.348  28.570  1.00  0.00     0.034 A 
BRANCH  52  66
ATOM     66  C   UNL A   1      39.964  29.275  29.437  1.00  0.00     0.023 A 
ATOM     67  C   UNL A   1      39.581  29.412  30.782  1.00  0.00     0.031 A 
ATOM     68  C   UNL A   1      38.986  29.482  28.448  1.00  0.00     0.131 A 
ATOM     69  C   UNL A   1      38.246  29.704  31.102  1.00  0.00     0.055 A 
ATOM     70  C   UNL A   1      37.676  29.843  28.770  1.00  0.00     0.041 A 
ATOM     71  F   UNL A   1      39.289  29.345  27.148  1.00  0.00    -0.206 F 
ATOM     72  C   UNL A   1      37.298  29.946  30.105  1.00  0.00     0.022 A 
BRANCH  69  73
ATOM     73  S   UNL A   1      37.741  29.668  32.844  1.00  0.00     0.124 S 
ATOM     74  O   UNL A   1      37.368  28.265  33.013  1.00  0.00    -0.237 OA
ATOM     75  O   UNL A   1      38.952  30.095  33.534  1.00  0.00    -0.237 OA
ATOM     76  O   UNL A   1      36.626  30.612  32.897  1.00  0.00    -0.744 OA
ENDBRANCH  69  73
ENDBRANCH  52  66
BRANCH  53  77
ATOM     77  C   UNL A   1      49.139  26.963  26.132  1.00  0.00     0.023 A 
ATOM     78  C   UNL A   1      49.490  27.399  24.845  1.00  0.00     0.031 A 
ATOM     79  C   UNL A   1      50.064  26.165  26.829  1.00  0.00     0.131 A 
ATOM     80  C   UNL A   1      50.697  26.974  24.265  1.00  0.00     0.055 A 
ATOM     81  C   UNL A   1      51.293  25.803  26.276  1.00  0.00     0.041 A 
ATOM     82  F   UNL A   1      49.784  25.720  28.065  1.00  0.00    -0.206 F 
ATOM     83  C   UNL A   1      51.607  26.190  24.977  1.00  0.00     0.022 A 
BRANCH  80  84
ATOM     84  S   UNL A   1      50.997  27.348  22.515  1.00  0.00     0.124 S 
ATOM     85  O   UNL A   1      49.849  26.714  21.877  1.00  0.00    -0.237 OA
ATOM     86  O   UNL A   1      51.006  28.807  22.516  1.00  0.00    -0.237 OA
ATOM     87  O   UNL A   1      52.288  26.717  22.250  1.00  0.00    -0.744 OA
ENDBRANCH  80  84
ENDBRANCH  53  77
BRANCH  65  88
ATOM     88  C   UNL A   1      46.305  32.706  28.895  1.00  0.00     0.023 A 
ATOM     89  C   UNL A   1      46.268  33.769  27.976  1.00  0.00     0.031 A 
ATOM     90  C   UNL A   1      46.909  32.933  30.146  1.00  0.00     0.131 A 
ATOM     91  C   UNL A   1      46.878  34.991  28.297  1.00  0.00     0.055 A 
ATOM     92  C   UNL A   1      47.455  34.172  30.484  1.00  0.00     0.041 A 
ATOM     93  F   UNL A   1      46.976  31.954  31.062  1.00  0.00    -0.206 F 
ATOM     94  C   UNL A   1      47.455  35.206  29.552  1.00  0.00     0.022 A 
BRANCH  91  95
ATOM     95  S   UNL A   1      46.997  36.267  27.014  1.00  0.00     0.124 S 
ATOM     96  O   UNL A   1      48.201  35.863  26.295  1.00  0.00    -0.237 OA
ATOM     97  O   UNL A   1      45.740  36.103  26.293  1.00  0.00    -0.237 OA
ATOM     98  O   UNL A   1      47.117  37.509  27.776  1.00  0.00    -0.744 OA
ENDBRANCH  91  95
ENDBRANCH  65  88
ENDBRANCH  39  40
ENDBRANCH  31  34
ENDBRANCH  29  30
ENDBRANCH   1  29
TORSDOF 17
ENDMDL
