MODEL 1
REMARK VINA RESULT:     -12.9      0.000      0.000
REMARK SMILES C[C@H](C(=O)NCCCNC(=O)c1ccc(-c2c3nc(c(-c4cc(S(=O)(=O)[O-])ccc4F)c4ccc([nH]4)c(-c4cc(S(=O)(=O)[O-])ccc4F)c4nc(c(-c5cc(S(=O)(=O)[O-])ccc5F)c5ccc2[nH]5)C=C4)C=C3)cc1)c1ccc2c3cc(Cl)ccc3n(C(=O)c3cocn3)c2c1
REMARK SMILES IDX 7 1 6 2 5 3 3 4 4 5 2 7 1 8 75 9 76 10 95 11 77 12 94 13
REMARK SMILES IDX 78 14 86 15 79 16 85 17 80 18 84 19 81 20 83 21 82 22 87 23
REMARK SMILES IDX 88 24 89 25 90 26 93 27 91 28 92 29 8 30 9 31 10 32 11 34
REMARK SMILES IDX 12 35 13 36 74 37 14 38 73 39 15 40 16 41 17 42 67 43 18 44
REMARK SMILES IDX 72 45 66 46 68 47 19 48 71 49 65 50 64 51 20 53 52 54 32 55
REMARK SMILES IDX 51 56 33 57 36 58 50 59 69 60 34 61 35 62 49 64 70 65 37 66
REMARK SMILES IDX 21 67 22 68 30 69 23 70 29 71 31 72 28 73 24 74 25 75 26 76
REMARK SMILES IDX 27 77 53 78 54 79 62 80 55 81 61 82 63 83 60 84 56 85 57 86
REMARK SMILES IDX 58 87 59 88 38 89 39 90 47 91 40 92 46 93 48 94 45 95 41 96
REMARK SMILES IDX 42 97 43 98 44 99
REMARK H PARENT 5 6 9 33 68 52 36 63
REMARK Flexibility Score: inf
ROOT
ATOM      1  C   UNL A   1      32.554  30.033  25.552  1.00  0.00     0.042 C 
ENDROOT
BRANCH   1   2
ATOM      2  C   UNL A   1      31.197  29.842  24.905  1.00  0.00     0.117 C 
BRANCH   2   3
ATOM      3  N   UNL A   1      31.206  29.119  23.644  1.00  0.00    -0.356 N 
ATOM      4  C   UNL A   1      30.677  27.906  23.320  1.00  0.00     0.227 C 
ATOM      5  O   UNL A   1      30.563  27.676  22.108  1.00  0.00    -0.274 OA
ATOM      6  H   UNL A   1      31.665  29.581  22.906  1.00  0.00     0.163 HD
BRANCH   4   7
ATOM      7  C   UNL A   1      30.351  26.786  24.326  1.00  0.00     0.105 C 
ATOM      8  C   UNL A   1      29.210  25.971  23.692  1.00  0.00     0.023 C 
BRANCH   7   9
ATOM      9  C   UNL A   1      31.516  25.962  24.862  1.00  0.00    -0.034 A 
ATOM     10  C   UNL A   1      32.337  26.485  25.870  1.00  0.00     0.005 A 
ATOM     11  C   UNL A   1      31.838  24.707  24.317  1.00  0.00     0.032 A 
ATOM     12  C   UNL A   1      33.563  25.882  26.189  1.00  0.00     0.011 A 
ATOM     13  C   UNL A   1      33.065  24.100  24.644  1.00  0.00     0.058 A 
ATOM     14  C   UNL A   1      33.955  24.698  25.530  1.00  0.00     0.008 A 
ATOM     15  N   UNL A   1      33.613  22.881  24.238  1.00  0.00    -0.274 N 
ATOM     16  C   UNL A   1      35.165  23.947  25.480  1.00  0.00     0.009 A 
ATOM     17  C   UNL A   1      34.947  22.836  24.656  1.00  0.00     0.057 A 
ATOM     18  C   UNL A   1      36.452  24.164  26.019  1.00  0.00     0.031 A 
ATOM     19  C   UNL A   1      35.996  21.957  24.321  1.00  0.00     0.029 A 
ATOM     20  C   UNL A   1      37.490  23.292  25.687  1.00  0.00     0.041 A 
ATOM     21  C   UNL A   1      37.268  22.206  24.849  1.00  0.00     0.023 A 
ATOM     22  Cl  UNL A   1      39.072  23.591  26.294  1.00  0.00    -0.084 Cl
BRANCH  15  23
ATOM     23  C   UNL A   1      32.916  21.896  23.499  1.00  0.00     0.284 C 
ATOM     24  O   UNL A   1      32.403  22.274  22.441  1.00  0.00    -0.266 OA
BRANCH  23  25
ATOM     25  C   UNL A   1      32.700  20.533  23.977  1.00  0.00     0.167 A 
ATOM     26  C   UNL A   1      32.538  20.087  25.272  1.00  0.00     0.231 A 
ATOM     27  N   UNL A   1      32.485  19.463  23.118  1.00  0.00    -0.211 NA
ATOM     28  O   UNL A   1      32.237  18.757  25.239  1.00  0.00    -0.451 OA
ATOM     29  C   UNL A   1      32.215  18.457  23.914  1.00  0.00     0.308 A 
ENDBRANCH  23  25
ENDBRANCH  15  23
ENDBRANCH   7   9
ENDBRANCH   4   7
ENDBRANCH   2   3
ENDBRANCH   1   2
BRANCH   1  30
ATOM     30  C   UNL A   1      32.534  30.545  26.981  1.00  0.00     0.118 C 
BRANCH  30  31
ATOM     31  N   UNL A   1      32.727  31.983  27.106  1.00  0.00    -0.352 N 
ATOM     32  C   UNL A   1      33.755  32.725  27.645  1.00  0.00     0.251 C 
ATOM     33  H   UNL A   1      31.991  32.523  26.739  1.00  0.00     0.163 HD
ATOM     34  O   UNL A   1      33.626  33.945  27.713  1.00  0.00    -0.269 OA
BRANCH  32  35
ATOM     35  C   UNL A   1      34.980  32.082  28.184  1.00  0.00     0.039 A 
ATOM     36  C   UNL A   1      36.171  32.815  28.231  1.00  0.00     0.014 A 
ATOM     37  C   UNL A   1      34.983  30.763  28.633  1.00  0.00     0.014 A 
ATOM     38  C   UNL A   1      37.320  32.255  28.802  1.00  0.00     0.010 A 
ATOM     39  C   UNL A   1      36.075  30.262  29.333  1.00  0.00     0.010 A 
ATOM     40  C   UNL A   1      37.272  30.988  29.403  1.00  0.00    -0.014 A 
BRANCH  40  41
ATOM     41  C   UNL A   1      38.463  30.368  30.049  1.00  0.00     0.031 A 
ATOM     42  C   UNL A   1      38.857  30.780  31.448  1.00  0.00     0.074 A 
ATOM     43  C   UNL A   1      39.234  29.498  29.365  1.00  0.00     0.049 A 
ATOM     44  N   UNL A   1      39.919  30.462  32.144  1.00  0.00    -0.248 NA
ATOM     45  C   UNL A   1      37.960  31.725  32.133  1.00  0.00     0.031 C 
ATOM     46  C   UNL A   1      39.004  29.065  27.983  1.00  0.00     0.029 A 
ATOM     47  N   UNL A   1      40.371  28.825  29.734  1.00  0.00    -0.354 N 
ATOM     48  C   UNL A   1      39.831  31.191  33.327  1.00  0.00     0.074 A 
ATOM     49  C   UNL A   1      38.663  32.036  33.209  1.00  0.00     0.031 C 
ATOM     50  C   UNL A   1      39.948  28.176  27.637  1.00  0.00     0.029 A 
ATOM     51  C   UNL A   1      40.877  28.006  28.750  1.00  0.00     0.049 A 
ATOM     52  H   UNL A   1      40.788  28.919  30.621  1.00  0.00     0.167 HD
ATOM     53  C   UNL A   1      40.622  31.135  34.427  1.00  0.00     0.034 A 
ATOM     54  C   UNL A   1      41.967  27.212  28.743  1.00  0.00     0.034 A 
ATOM     55  C   UNL A   1      41.759  30.256  34.545  1.00  0.00     0.049 A 
ATOM     56  C   UNL A   1      42.816  27.135  29.987  1.00  0.00     0.074 A 
ATOM     57  C   UNL A   1      42.603  30.073  35.626  1.00  0.00     0.029 A 
ATOM     58  N   UNL A   1      42.206  29.402  33.545  1.00  0.00    -0.354 N 
ATOM     59  N   UNL A   1      42.693  27.799  31.114  1.00  0.00    -0.248 NA
ATOM     60  C   UNL A   1      43.935  26.186  29.965  1.00  0.00     0.031 C 
ATOM     61  C   UNL A   1      43.591  29.150  35.261  1.00  0.00     0.029 A 
ATOM     62  C   UNL A   1      43.320  28.699  33.979  1.00  0.00     0.049 A 
ATOM     63  H   UNL A   1      41.792  29.308  32.656  1.00  0.00     0.167 HD
ATOM     64  C   UNL A   1      43.702  27.322  31.946  1.00  0.00     0.074 A 
ATOM     65  C   UNL A   1      44.409  26.304  31.196  1.00  0.00     0.031 C 
ATOM     66  C   UNL A   1      44.016  27.690  33.216  1.00  0.00     0.034 A 
BRANCH  53  67
ATOM     67  C   UNL A   1      40.277  32.057  35.576  1.00  0.00     0.023 A 
ATOM     68  C   UNL A   1      39.289  31.719  36.520  1.00  0.00     0.031 A 
ATOM     69  C   UNL A   1      40.897  33.312  35.702  1.00  0.00     0.131 A 
ATOM     70  C   UNL A   1      38.877  32.660  37.475  1.00  0.00     0.055 A 
ATOM     71  C   UNL A   1      40.552  34.207  36.718  1.00  0.00     0.041 A 
ATOM     72  F   UNL A   1      41.835  33.703  34.825  1.00  0.00    -0.206 F 
ATOM     73  C   UNL A   1      39.522  33.892  37.600  1.00  0.00     0.022 A 
BRANCH  70  74
ATOM     74  S   UNL A   1      37.375  32.317  38.432  1.00  0.00     0.124 S 
ATOM     75  O   UNL A   1      37.728  32.870  39.739  1.00  0.00    -0.237 OA
ATOM     76  O   UNL A   1      36.352  33.041  37.687  1.00  0.00    -0.237 OA
ATOM     77  O   UNL A   1      37.266  30.860  38.391  1.00  0.00    -0.744 OA
ENDBRANCH  70  74
ENDBRANCH  53  67
BRANCH  54  78
ATOM     78  C   UNL A   1      42.315  26.419  27.528  1.00  0.00     0.023 A 
ATOM     79  C   UNL A   1      42.249  25.016  27.535  1.00  0.00     0.031 A 
ATOM     80  C   UNL A   1      42.752  27.053  26.351  1.00  0.00     0.131 A 
ATOM     81  C   UNL A   1      42.657  24.291  26.404  1.00  0.00     0.055 A 
ATOM     82  C   UNL A   1      43.107  26.328  25.212  1.00  0.00     0.041 A 
ATOM     83  F   UNL A   1      42.824  28.392  26.288  1.00  0.00    -0.206 F 
ATOM     84  C   UNL A   1      43.073  24.938  25.238  1.00  0.00     0.022 A 
BRANCH  81  85
ATOM     85  S   UNL A   1      42.708  22.479  26.505  1.00  0.00     0.124 S 
ATOM     86  O   UNL A   1      41.846  22.094  25.394  1.00  0.00    -0.237 OA
ATOM     87  O   UNL A   1      44.131  22.207  26.339  1.00  0.00    -0.237 OA
ATOM     88  O   UNL A   1      42.172  22.199  27.836  1.00  0.00    -0.744 OA
ENDBRANCH  81  85
ENDBRANCH  54  78
BRANCH  66  89
ATOM     89  C   UNL A   1      45.141  26.941  33.886  1.00  0.00     0.023 A 
ATOM     90  C   UNL A   1      44.915  25.769  34.630  1.00  0.00     0.031 A 
ATOM     91  C   UNL A   1      46.461  27.421  33.794  1.00  0.00     0.131 A 
ATOM     92  C   UNL A   1      45.979  25.155  35.305  1.00  0.00     0.055 A 
ATOM     93  C   UNL A   1      47.525  26.768  34.415  1.00  0.00     0.041 A 
ATOM     94  F   UNL A   1      46.735  28.535  33.097  1.00  0.00    -0.206 F 
ATOM     95  C   UNL A   1      47.286  25.637  35.189  1.00  0.00     0.022 A 
BRANCH  92  96
ATOM     96  S   UNL A   1      45.616  23.777  36.429  1.00  0.00     0.124 S 
ATOM     97  O   UNL A   1      46.955  23.335  36.809  1.00  0.00    -0.237 OA
ATOM     98  O   UNL A   1      44.837  24.428  37.478  1.00  0.00    -0.237 OA
ATOM     99  O   UNL A   1      44.869  22.840  35.591  1.00  0.00    -0.744 OA
ENDBRANCH  92  96
ENDBRANCH  66  89
ENDBRANCH  40  41
ENDBRANCH  32  35
ENDBRANCH  30  31
ENDBRANCH   1  30
TORSDOF 16
ENDMDL
MODEL 2
REMARK VINA RESULT:     -12.9      4.721     10.285
REMARK SMILES C[C@H](C(=O)NCCCNC(=O)c1ccc(-c2c3nc(c(-c4cc(S(=O)(=O)[O-])ccc4F)c4ccc([nH]4)c(-c4cc(S(=O)(=O)[O-])ccc4F)c4nc(c(-c5cc(S(=O)(=O)[O-])ccc5F)c5ccc2[nH]5)C=C4)C=C3)cc1)c1ccc2c3cc(Cl)ccc3n(C(=O)c3cocn3)c2c1
REMARK SMILES IDX 7 1 6 2 5 3 3 4 4 5 2 7 1 8 75 9 76 10 95 11 77 12 94 13
REMARK SMILES IDX 78 14 86 15 79 16 85 17 80 18 84 19 81 20 83 21 82 22 87 23
REMARK SMILES IDX 88 24 89 25 90 26 93 27 91 28 92 29 8 30 9 31 10 32 11 34
REMARK SMILES IDX 12 35 13 36 74 37 14 38 73 39 15 40 16 41 17 42 67 43 18 44
REMARK SMILES IDX 72 45 66 46 68 47 19 48 71 49 65 50 64 51 20 53 52 54 32 55
REMARK SMILES IDX 51 56 33 57 36 58 50 59 69 60 34 61 35 62 49 64 70 65 37 66
REMARK SMILES IDX 21 67 22 68 30 69 23 70 29 71 31 72 28 73 24 74 25 75 26 76
REMARK SMILES IDX 27 77 53 78 54 79 62 80 55 81 61 82 63 83 60 84 56 85 57 86
REMARK SMILES IDX 58 87 59 88 38 89 39 90 47 91 40 92 46 93 48 94 45 95 41 96
REMARK SMILES IDX 42 97 43 98 44 99
REMARK H PARENT 5 6 9 33 68 52 36 63
REMARK Flexibility Score: inf
ROOT
ATOM      1  C   UNL A   1      36.415  21.499  24.262  1.00  0.00     0.042 C 
ENDROOT
BRANCH   1   2
ATOM      2  C   UNL A   1      35.595  20.422  24.942  1.00  0.00     0.117 C 
BRANCH   2   3
ATOM      3  N   UNL A   1      34.905  20.836  26.152  1.00  0.00    -0.356 N 
ATOM      4  C   UNL A   1      33.693  21.437  26.314  1.00  0.00     0.227 C 
ATOM      5  O   UNL A   1      33.222  21.394  27.459  1.00  0.00    -0.274 OA
ATOM      6  H   UNL A   1      35.390  20.651  26.988  1.00  0.00     0.163 HD
BRANCH   4   7
ATOM      7  C   UNL A   1      32.961  22.257  25.235  1.00  0.00     0.105 C 
ATOM      8  C   UNL A   1      31.477  21.865  25.346  1.00  0.00     0.023 C 
BRANCH   7   9
ATOM      9  C   UNL A   1      33.234  23.756  25.186  1.00  0.00    -0.034 A 
ATOM     10  C   UNL A   1      34.527  24.239  25.428  1.00  0.00     0.005 A 
ATOM     11  C   UNL A   1      32.199  24.683  24.974  1.00  0.00     0.032 A 
ATOM     12  C   UNL A   1      34.757  25.603  25.662  1.00  0.00     0.011 A 
ATOM     13  C   UNL A   1      32.434  26.053  25.200  1.00  0.00     0.058 A 
ATOM     14  C   UNL A   1      33.684  26.517  25.595  1.00  0.00     0.008 A 
ATOM     15  N   UNL A   1      31.585  27.154  25.070  1.00  0.00    -0.274 N 
ATOM     16  C   UNL A   1      33.532  27.892  25.937  1.00  0.00     0.009 A 
ATOM     17  C   UNL A   1      32.219  28.267  25.630  1.00  0.00     0.057 A 
ATOM     18  C   UNL A   1      34.393  28.829  26.550  1.00  0.00     0.031 A 
ATOM     19  C   UNL A   1      31.729  29.547  25.959  1.00  0.00     0.029 A 
ATOM     20  C   UNL A   1      33.906  30.096  26.875  1.00  0.00     0.041 A 
ATOM     21  C   UNL A   1      32.594  30.451  26.587  1.00  0.00     0.023 A 
ATOM     22  Cl  UNL A   1      34.936  31.217  27.677  1.00  0.00    -0.084 Cl
BRANCH  15  23
ATOM     23  C   UNL A   1      30.293  27.106  24.494  1.00  0.00     0.284 C 
ATOM     24  O   UNL A   1      29.588  26.149  24.825  1.00  0.00    -0.266 OA
BRANCH  23  25
ATOM     25  C   UNL A   1      29.827  28.051  23.482  1.00  0.00     0.167 A 
ATOM     26  C   UNL A   1      30.501  28.543  22.384  1.00  0.00     0.231 A 
ATOM     27  N   UNL A   1      28.514  28.499  23.424  1.00  0.00    -0.211 NA
ATOM     28  O   UNL A   1      29.637  29.298  21.647  1.00  0.00    -0.451 OA
ATOM     29  C   UNL A   1      28.464  29.218  22.329  1.00  0.00     0.308 A 
ENDBRANCH  23  25
ENDBRANCH  15  23
ENDBRANCH   7   9
ENDBRANCH   4   7
ENDBRANCH   2   3
ENDBRANCH   1   2
BRANCH   1  30
ATOM     30  C   UNL A   1      37.476  22.159  25.125  1.00  0.00     0.118 C 
BRANCH  30  31
ATOM     31  N   UNL A   1      38.426  21.230  25.723  1.00  0.00    -0.352 N 
ATOM     32  C   UNL A   1      39.552  21.440  26.489  1.00  0.00     0.251 C 
ATOM     33  H   UNL A   1      38.228  20.282  25.548  1.00  0.00     0.163 HD
ATOM     34  O   UNL A   1      40.245  20.471  26.791  1.00  0.00    -0.269 OA
BRANCH  32  35
ATOM     35  C   UNL A   1      39.965  22.802  26.909  1.00  0.00     0.039 A 
ATOM     36  C   UNL A   1      40.922  22.942  27.920  1.00  0.00     0.014 A 
ATOM     37  C   UNL A   1      39.420  23.948  26.334  1.00  0.00     0.014 A 
ATOM     38  C   UNL A   1      41.382  24.215  28.282  1.00  0.00     0.010 A 
ATOM     39  C   UNL A   1      39.982  25.195  26.584  1.00  0.00     0.010 A 
ATOM     40  C   UNL A   1      40.950  25.354  27.584  1.00  0.00    -0.014 A 
BRANCH  40  41
ATOM     41  C   UNL A   1      41.438  26.722  27.917  1.00  0.00     0.031 A 
ATOM     42  C   UNL A   1      42.838  27.134  27.528  1.00  0.00     0.074 A 
ATOM     43  C   UNL A   1      40.663  27.568  28.626  1.00  0.00     0.049 A 
ATOM     44  N   UNL A   1      43.501  28.223  27.826  1.00  0.00    -0.248 NA
ATOM     45  C   UNL A   1      43.617  26.161  26.744  1.00  0.00     0.031 C 
ATOM     46  C   UNL A   1      39.316  27.271  29.122  1.00  0.00     0.029 A 
ATOM     47  N   UNL A   1      40.898  28.847  29.062  1.00  0.00    -0.354 N 
ATOM     48  C   UNL A   1      44.777  28.048  27.298  1.00  0.00     0.074 A 
ATOM     49  C   UNL A   1      44.820  26.712  26.745  1.00  0.00     0.031 C 
ATOM     50  C   UNL A   1      38.834  28.349  29.761  1.00  0.00     0.029 A 
ATOM     51  C   UNL A   1      39.848  29.397  29.762  1.00  0.00     0.049 A 
ATOM     52  H   UNL A   1      41.740  29.328  28.891  1.00  0.00     0.167 HD
ATOM     53  C   UNL A   1      45.806  28.930  27.238  1.00  0.00     0.034 A 
ATOM     54  C   UNL A   1      39.720  30.608  30.343  1.00  0.00     0.034 A 
ATOM     55  C   UNL A   1      45.733  30.273  27.756  1.00  0.00     0.049 A 
ATOM     56  C   UNL A   1      40.861  31.588  30.237  1.00  0.00     0.074 A 
ATOM     57  C   UNL A   1      46.689  31.273  27.708  1.00  0.00     0.029 A 
ATOM     58  N   UNL A   1      44.632  30.811  28.410  1.00  0.00    -0.354 N 
ATOM     59  N   UNL A   1      42.045  31.422  29.695  1.00  0.00    -0.248 NA
ATOM     60  C   UNL A   1      40.637  32.925  30.801  1.00  0.00     0.031 C 
ATOM     61  C   UNL A   1      46.188  32.394  28.380  1.00  0.00     0.029 A 
ATOM     62  C   UNL A   1      44.889  32.122  28.781  1.00  0.00     0.049 A 
ATOM     63  H   UNL A   1      43.790  30.330  28.585  1.00  0.00     0.167 HD
ATOM     64  C   UNL A   1      42.696  32.646  29.825  1.00  0.00     0.074 A 
ATOM     65  C   UNL A   1      41.764  33.542  30.480  1.00  0.00     0.031 C 
ATOM     66  C   UNL A   1      43.949  33.000  29.438  1.00  0.00     0.034 A 
BRANCH  53  67
ATOM     67  C   UNL A   1      47.090  28.453  26.594  1.00  0.00     0.023 A 
ATOM     68  C   UNL A   1      47.245  28.422  25.195  1.00  0.00     0.031 A 
ATOM     69  C   UNL A   1      48.151  27.970  27.379  1.00  0.00     0.131 A 
ATOM     70  C   UNL A   1      48.380  27.825  24.626  1.00  0.00     0.055 A 
ATOM     71  C   UNL A   1      49.322  27.466  26.807  1.00  0.00     0.041 A 
ATOM     72  F   UNL A   1      48.060  27.954  28.718  1.00  0.00    -0.206 F 
ATOM     73  C   UNL A   1      49.434  27.373  25.422  1.00  0.00     0.022 A 
BRANCH  70  74
ATOM     74  S   UNL A   1      48.377  27.491  22.843  1.00  0.00     0.124 S 
ATOM     75  O   UNL A   1      47.163  28.187  22.418  1.00  0.00    -0.237 OA
ATOM     76  O   UNL A   1      49.636  28.082  22.409  1.00  0.00    -0.237 OA
ATOM     77  O   UNL A   1      48.309  26.034  22.767  1.00  0.00    -0.744 OA
ENDBRANCH  70  74
ENDBRANCH  53  67
BRANCH  54  78
ATOM     78  C   UNL A   1      38.466  30.968  31.067  1.00  0.00     0.023 A 
ATOM     79  C   UNL A   1      37.550  31.881  30.520  1.00  0.00     0.031 A 
ATOM     80  C   UNL A   1      38.181  30.427  32.333  1.00  0.00     0.131 A 
ATOM     81  C   UNL A   1      36.416  32.262  31.256  1.00  0.00     0.055 A 
ATOM     82  C   UNL A   1      37.026  30.770  33.039  1.00  0.00     0.041 A 
ATOM     83  F   UNL A   1      39.017  29.542  32.898  1.00  0.00    -0.206 F 
ATOM     84  C   UNL A   1      36.142  31.703  32.506  1.00  0.00     0.022 A 
BRANCH  81  85
ATOM     85  S   UNL A   1      35.341  33.562  30.586  1.00  0.00     0.124 S 
ATOM     86  O   UNL A   1      35.412  34.575  31.632  1.00  0.00    -0.237 OA
ATOM     87  O   UNL A   1      36.008  33.888  29.330  1.00  0.00    -0.237 OA
ATOM     88  O   UNL A   1      34.048  32.895  30.449  1.00  0.00    -0.744 OA
ENDBRANCH  81  85
ENDBRANCH  54  78
BRANCH  66  89
ATOM     89  C   UNL A   1      44.356  34.435  29.667  1.00  0.00     0.023 A 
ATOM     90  C   UNL A   1      44.209  35.416  28.670  1.00  0.00     0.031 A 
ATOM     91  C   UNL A   1      44.920  34.820  30.897  1.00  0.00     0.131 A 
ATOM     92  C   UNL A   1      44.679  36.717  28.899  1.00  0.00     0.055 A 
ATOM     93  C   UNL A   1      45.326  36.132  31.140  1.00  0.00     0.041 A 
ATOM     94  F   UNL A   1      45.084  33.924  31.883  1.00  0.00    -0.206 F 
ATOM     95  C   UNL A   1      45.221  37.086  30.132  1.00  0.00     0.022 A 
BRANCH  92  96
ATOM     96  S   UNL A   1      44.672  37.898  27.521  1.00  0.00     0.124 S 
ATOM     97  O   UNL A   1      45.049  39.142  28.185  1.00  0.00    -0.237 OA
ATOM     98  O   UNL A   1      45.668  37.330  26.619  1.00  0.00    -0.237 OA
ATOM     99  O   UNL A   1      43.294  37.849  27.035  1.00  0.00    -0.744 OA
ENDBRANCH  92  96
ENDBRANCH  66  89
ENDBRANCH  40  41
ENDBRANCH  32  35
ENDBRANCH  30  31
ENDBRANCH   1  30
TORSDOF 16
ENDMDL
MODEL 3
REMARK VINA RESULT:     -12.8      2.056      7.667
REMARK SMILES C[C@H](C(=O)NCCCNC(=O)c1ccc(-c2c3nc(c(-c4cc(S(=O)(=O)[O-])ccc4F)c4ccc([nH]4)c(-c4cc(S(=O)(=O)[O-])ccc4F)c4nc(c(-c5cc(S(=O)(=O)[O-])ccc5F)c5ccc2[nH]5)C=C4)C=C3)cc1)c1ccc2c3cc(Cl)ccc3n(C(=O)c3cocn3)c2c1
REMARK SMILES IDX 7 1 6 2 5 3 3 4 4 5 2 7 1 8 75 9 76 10 95 11 77 12 94 13
REMARK SMILES IDX 78 14 86 15 79 16 85 17 80 18 84 19 81 20 83 21 82 22 87 23
REMARK SMILES IDX 88 24 89 25 90 26 93 27 91 28 92 29 8 30 9 31 10 32 11 34
REMARK SMILES IDX 12 35 13 36 74 37 14 38 73 39 15 40 16 41 17 42 67 43 18 44
REMARK SMILES IDX 72 45 66 46 68 47 19 48 71 49 65 50 64 51 20 53 52 54 32 55
REMARK SMILES IDX 51 56 33 57 36 58 50 59 69 60 34 61 35 62 49 64 70 65 37 66
REMARK SMILES IDX 21 67 22 68 30 69 23 70 29 71 31 72 28 73 24 74 25 75 26 76
REMARK SMILES IDX 27 77 53 78 54 79 62 80 55 81 61 82 63 83 60 84 56 85 57 86
REMARK SMILES IDX 58 87 59 88 38 89 39 90 47 91 40 92 46 93 48 94 45 95 41 96
REMARK SMILES IDX 42 97 43 98 44 99
REMARK H PARENT 5 6 9 33 68 52 36 63
REMARK Flexibility Score: inf
ROOT
ATOM      1  C   UNL A   1      31.334  31.790  26.544  1.00  0.00     0.042 C 
ENDROOT
BRANCH   1   2
ATOM      2  C   UNL A   1      31.431  30.307  26.250  1.00  0.00     0.117 C 
BRANCH   2   3
ATOM      3  N   UNL A   1      31.854  29.967  24.902  1.00  0.00    -0.356 N 
ATOM      4  C   UNL A   1      31.546  28.889  24.128  1.00  0.00     0.227 C 
ATOM      5  O   UNL A   1      31.794  29.007  22.920  1.00  0.00    -0.274 OA
ATOM      6  H   UNL A   1      32.457  30.620  24.481  1.00  0.00     0.163 HD
BRANCH   4   7
ATOM      7  C   UNL A   1      31.054  27.530  24.659  1.00  0.00     0.105 C 
ATOM      8  C   UNL A   1      30.155  26.947  23.555  1.00  0.00     0.023 C 
BRANCH   7   9
ATOM      9  C   UNL A   1      32.102  26.571  25.215  1.00  0.00    -0.034 A 
ATOM     10  C   UNL A   1      33.290  27.076  25.762  1.00  0.00     0.005 A 
ATOM     11  C   UNL A   1      31.941  25.178  25.127  1.00  0.00     0.032 A 
ATOM     12  C   UNL A   1      34.379  26.232  26.025  1.00  0.00     0.011 A 
ATOM     13  C   UNL A   1      33.033  24.332  25.400  1.00  0.00     0.058 A 
ATOM     14  C   UNL A   1      34.264  24.845  25.794  1.00  0.00     0.008 A 
ATOM     15  N   UNL A   1      33.131  22.939  25.378  1.00  0.00    -0.274 N 
ATOM     16  C   UNL A   1      35.191  23.763  25.783  1.00  0.00     0.009 A 
ATOM     17  C   UNL A   1      34.479  22.591  25.499  1.00  0.00     0.057 A 
ATOM     18  C   UNL A   1      36.595  23.700  25.926  1.00  0.00     0.031 A 
ATOM     19  C   UNL A   1      35.141  21.361  25.313  1.00  0.00     0.029 A 
ATOM     20  C   UNL A   1      37.249  22.481  25.741  1.00  0.00     0.041 A 
ATOM     21  C   UNL A   1      36.535  21.329  25.436  1.00  0.00     0.023 A 
ATOM     22  Cl  UNL A   1      38.965  22.417  25.853  1.00  0.00    -0.084 Cl
BRANCH  15  23
ATOM     23  C   UNL A   1      32.032  22.061  25.221  1.00  0.00     0.284 C 
ATOM     24  O   UNL A   1      31.038  22.309  25.910  1.00  0.00    -0.266 OA
BRANCH  23  25
ATOM     25  C   UNL A   1      32.072  20.861  24.389  1.00  0.00     0.167 A 
ATOM     26  C   UNL A   1      32.176  20.764  23.017  1.00  0.00     0.231 A 
ATOM     27  N   UNL A   1      32.147  19.581  24.923  1.00  0.00    -0.211 NA
ATOM     28  O   UNL A   1      32.304  19.448  22.683  1.00  0.00    -0.451 OA
ATOM     29  C   UNL A   1      32.287  18.802  23.878  1.00  0.00     0.308 A 
ENDBRANCH  23  25
ENDBRANCH  15  23
ENDBRANCH   7   9
ENDBRANCH   4   7
ENDBRANCH   2   3
ENDBRANCH   1   2
BRANCH   1  30
ATOM     30  C   UNL A   1      32.644  32.482  26.875  1.00  0.00     0.118 C 
BRANCH  30  31
ATOM     31  N   UNL A   1      32.492  33.789  27.499  1.00  0.00    -0.352 N 
ATOM     32  C   UNL A   1      33.183  34.400  28.522  1.00  0.00     0.251 C 
ATOM     33  H   UNL A   1      31.764  34.334  27.123  1.00  0.00     0.163 HD
ATOM     34  O   UNL A   1      32.784  35.489  28.933  1.00  0.00    -0.269 OA
BRANCH  32  35
ATOM     35  C   UNL A   1      34.356  33.755  29.164  1.00  0.00     0.039 A 
ATOM     36  C   UNL A   1      35.623  34.323  28.995  1.00  0.00     0.014 A 
ATOM     37  C   UNL A   1      34.234  32.593  29.922  1.00  0.00     0.014 A 
ATOM     38  C   UNL A   1      36.733  33.774  29.650  1.00  0.00     0.010 A 
ATOM     39  C   UNL A   1      35.301  32.140  30.690  1.00  0.00     0.010 A 
ATOM     40  C   UNL A   1      36.575  32.703  30.543  1.00  0.00    -0.014 A 
BRANCH  40  41
ATOM     41  C   UNL A   1      37.724  32.111  31.284  1.00  0.00     0.031 A 
ATOM     42  C   UNL A   1      38.518  30.986  30.662  1.00  0.00     0.074 A 
ATOM     43  C   UNL A   1      38.014  32.523  32.535  1.00  0.00     0.049 A 
ATOM     44  N   UNL A   1      39.469  30.250  31.180  1.00  0.00    -0.248 NA
ATOM     45  C   UNL A   1      38.150  30.601  29.290  1.00  0.00     0.031 C 
ATOM     46  C   UNL A   1      37.285  33.555  33.279  1.00  0.00     0.029 A 
ATOM     47  N   UNL A   1      38.993  32.120  33.408  1.00  0.00    -0.354 N 
ATOM     48  C   UNL A   1      39.784  29.300  30.211  1.00  0.00     0.074 A 
ATOM     49  C   UNL A   1      38.858  29.497  29.118  1.00  0.00     0.031 C 
ATOM     50  C   UNL A   1      37.864  33.726  34.478  1.00  0.00     0.029 A 
ATOM     51  C   UNL A   1      38.975  32.790  34.611  1.00  0.00     0.049 A 
ATOM     52  H   UNL A   1      39.648  31.417  33.195  1.00  0.00     0.167 HD
ATOM     53  C   UNL A   1      40.778  28.377  30.210  1.00  0.00     0.034 A 
ATOM     54  C   UNL A   1      39.762  32.661  35.699  1.00  0.00     0.034 A 
ATOM     55  C   UNL A   1      41.720  28.222  31.291  1.00  0.00     0.049 A 
ATOM     56  C   UNL A   1      40.883  31.653  35.667  1.00  0.00     0.074 A 
ATOM     57  C   UNL A   1      42.798  27.359  31.382  1.00  0.00     0.029 A 
ATOM     58  N   UNL A   1      41.701  28.958  32.469  1.00  0.00    -0.354 N 
ATOM     59  N   UNL A   1      41.195  30.793  34.725  1.00  0.00    -0.248 NA
ATOM     60  C   UNL A   1      41.771  31.617  36.835  1.00  0.00     0.031 C 
ATOM     61  C   UNL A   1      43.397  27.535  32.635  1.00  0.00     0.029 A 
ATOM     62  C   UNL A   1      42.740  28.560  33.297  1.00  0.00     0.049 A 
ATOM     63  H   UNL A   1      41.045  29.660  32.686  1.00  0.00     0.167 HD
ATOM     64  C   UNL A   1      42.336  30.135  35.176  1.00  0.00     0.074 A 
ATOM     65  C   UNL A   1      42.665  30.713  36.464  1.00  0.00     0.031 C 
ATOM     66  C   UNL A   1      43.051  29.144  34.580  1.00  0.00     0.034 A 
BRANCH  53  67
ATOM     67  C   UNL A   1      40.879  27.470  29.004  1.00  0.00     0.023 A 
ATOM     68  C   UNL A   1      41.842  27.685  27.999  1.00  0.00     0.031 A 
ATOM     69  C   UNL A   1      39.971  26.413  28.821  1.00  0.00     0.131 A 
ATOM     70  C   UNL A   1      41.807  26.930  26.818  1.00  0.00     0.055 A 
ATOM     71  C   UNL A   1      40.005  25.599  27.685  1.00  0.00     0.041 A 
ATOM     72  F   UNL A   1      39.017  26.165  29.732  1.00  0.00    -0.206 F 
ATOM     73  C   UNL A   1      40.913  25.869  26.665  1.00  0.00     0.022 A 
BRANCH  70  74
ATOM     74  S   UNL A   1      42.828  27.469  25.419  1.00  0.00     0.124 S 
ATOM     75  O   UNL A   1      44.062  27.868  26.094  1.00  0.00    -0.237 OA
ATOM     76  O   UNL A   1      42.907  26.265  24.602  1.00  0.00    -0.237 OA
ATOM     77  O   UNL A   1      42.061  28.570  24.839  1.00  0.00    -0.744 OA
ENDBRANCH  70  74
ENDBRANCH  53  67
BRANCH  54  78
ATOM     78  C   UNL A   1      39.529  33.509  36.904  1.00  0.00     0.023 A 
ATOM     79  C   UNL A   1      39.001  32.963  38.084  1.00  0.00     0.031 A 
ATOM     80  C   UNL A   1      39.801  34.889  36.880  1.00  0.00     0.131 A 
ATOM     81  C   UNL A   1      38.718  33.797  39.178  1.00  0.00     0.055 A 
ATOM     82  C   UNL A   1      39.565  35.705  37.988  1.00  0.00     0.041 A 
ATOM     83  F   UNL A   1      40.315  35.461  35.781  1.00  0.00    -0.206 F 
ATOM     84  C   UNL A   1      39.008  35.163  39.142  1.00  0.00     0.022 A 
BRANCH  81  85
ATOM     85  S   UNL A   1      37.890  33.082  40.626  1.00  0.00     0.124 S 
ATOM     86  O   UNL A   1      36.507  33.488  40.408  1.00  0.00    -0.237 OA
ATOM     87  O   UNL A   1      38.175  31.661  40.466  1.00  0.00    -0.237 OA
ATOM     88  O   UNL A   1      38.560  33.728  41.753  1.00  0.00    -0.744 OA
ENDBRANCH  81  85
ENDBRANCH  54  78
BRANCH  66  89
ATOM     89  C   UNL A   1      44.289  28.667  35.299  1.00  0.00     0.023 A 
ATOM     90  C   UNL A   1      44.237  27.659  36.278  1.00  0.00     0.031 A 
ATOM     91  C   UNL A   1      45.538  29.247  35.012  1.00  0.00     0.131 A 
ATOM     92  C   UNL A   1      45.399  27.308  36.979  1.00  0.00     0.055 A 
ATOM     93  C   UNL A   1      46.702  28.848  35.668  1.00  0.00     0.041 A 
ATOM     94  F   UNL A   1      45.646  30.214  34.086  1.00  0.00    -0.206 F 
ATOM     95  C   UNL A   1      46.635  27.883  36.670  1.00  0.00     0.022 A 
BRANCH  92  96
ATOM     96  S   UNL A   1      45.257  26.164  38.381  1.00  0.00     0.124 S 
ATOM     97  O   UNL A   1      44.380  25.129  37.840  1.00  0.00    -0.237 OA
ATOM     98  O   UNL A   1      46.644  25.772  38.604  1.00  0.00    -0.237 OA
ATOM     99  O   UNL A   1      44.666  26.986  39.435  1.00  0.00    -0.744 OA
ENDBRANCH  92  96
ENDBRANCH  66  89
ENDBRANCH  40  41
ENDBRANCH  32  35
ENDBRANCH  30  31
ENDBRANCH   1  30
TORSDOF 16
ENDMDL
