MODEL 1
REMARK VINA RESULT:     -13.5      0.000      0.000
REMARK SMILES O=C1[NH+]=C(Nc2ccc(C(=O)NCCCNC(=O)c3ccc(-c4c5nc(c(-c6cc(S(=O)(=O)[O-])ccc6F)c6ccc([nH]6)c(-c6cc(S(=O)(=O)[O-])ccc6F)c6nc(c(-c7cc(S(=O)(=O)[O-])ccc7F)c7ccc4[nH]7)C=C6)C=C5)cc3)c(O)c2)S/C1=C\c1ccc[nH]1
REMARK SMILES IDX 14 1 13 2 12 3 10 4 11 5 9 7 6 8 7 9 84 10 8 11 82 12 5 13
REMARK SMILES IDX 1 14 2 15 3 16 86 17 4 18 85 20 87 21 88 23 89 24 92 25
REMARK SMILES IDX 90 26 91 27 83 29 15 31 16 32 17 33 18 35 19 36 20 37 81 38
REMARK SMILES IDX 21 39 80 40 22 41 23 42 24 43 74 44 25 45 79 46 73 47 75 48
REMARK SMILES IDX 26 49 78 50 72 51 71 52 27 54 59 55 39 56 58 57 40 58 43 59
REMARK SMILES IDX 57 60 76 61 41 62 42 63 56 65 77 66 44 67 28 68 29 69 37 70
REMARK SMILES IDX 30 71 36 72 38 73 35 74 31 75 32 76 33 77 34 78 60 79 61 80
REMARK SMILES IDX 69 81 62 82 68 83 70 84 67 85 63 86 64 87 65 88 66 89 45 90
REMARK SMILES IDX 46 91 54 92 47 93 53 94 55 95 52 96 48 97 49 98 50 99 51 100
REMARK H PARENT 12 6 3 19 5 22 92 28 83 30 16 34 75 53 43 64
REMARK Flexibility Score: inf
ROOT
ATOM      1  C   UNL A   1      30.827  31.313  25.669  1.00  0.00     0.042 C 
ENDROOT
BRANCH   1   2
ATOM      2  C   UNL A   1      31.029  30.073  24.814  1.00  0.00     0.118 C 
BRANCH   2   3
ATOM      3  N   UNL A   1      30.384  30.119  23.508  1.00  0.00    -0.352 N 
ATOM      4  C   UNL A   1      30.145  29.128  22.588  1.00  0.00     0.255 C 
ATOM      5  O   UNL A   1      29.573  29.420  21.540  1.00  0.00    -0.269 OA
ATOM      6  H   UNL A   1      30.066  31.012  23.241  1.00  0.00     0.163 HD
BRANCH   4   7
ATOM      7  C   UNL A   1      30.601  27.734  22.797  1.00  0.00     0.081 A 
ATOM      8  C   UNL A   1      31.167  24.981  23.080  1.00  0.00     0.129 A 
ATOM      9  C   UNL A   1      29.989  25.525  23.602  1.00  0.00     0.053 A 
ATOM     10  C   UNL A   1      32.088  25.846  22.481  1.00  0.00     0.098 A 
ATOM     11  C   UNL A   1      29.708  26.886  23.465  1.00  0.00     0.022 A 
ATOM     12  C   UNL A   1      31.830  27.215  22.386  1.00  0.00     0.132 A 
BRANCH   8  13
ATOM     13  N   UNL A   1      31.416  23.604  23.065  1.00  0.00    -0.234 N 
ATOM     14  O   UNL A   1      32.763  22.192  27.304  1.00  0.00    -0.240 OA
ATOM     15  C   UNL A   1      32.521  22.127  26.105  1.00  0.00     0.346 C 
ATOM     16  N   UNL A   1      32.104  23.179  25.325  1.00  0.00    -0.199 N 
ATOM     17  C   UNL A   1      32.664  20.874  25.312  1.00  0.00     0.111 C 
ATOM     18  C   UNL A   1      31.885  22.850  24.096  1.00  0.00     0.322 C 
ATOM     19  H   UNL A   1      31.983  24.094  25.670  1.00  0.00     0.316 HD
ATOM     20  S   UNL A   1      32.198  21.178  23.685  1.00  0.00     0.006 SA
ATOM     21  C   UNL A   1      33.084  19.725  25.858  1.00  0.00     0.050 C 
ATOM     22  H   UNL A   1      31.233  23.132  22.220  1.00  0.00     0.313 HD
BRANCH  21  23
ATOM     23  C   UNL A   1      33.304  18.557  25.090  1.00  0.00     0.039 A 
ATOM     24  C   UNL A   1      32.534  17.446  24.808  1.00  0.00     0.027 A 
ATOM     25  N   UNL A   1      34.509  18.399  24.453  1.00  0.00    -0.362 N 
ATOM     26  C   UNL A   1      33.310  16.578  24.006  1.00  0.00     0.020 A 
ATOM     27  C   UNL A   1      34.529  17.187  23.809  1.00  0.00     0.083 A 
ATOM     28  H   UNL A   1      35.245  19.053  24.457  1.00  0.00     0.166 HD
ENDBRANCH  21  23
ENDBRANCH   8  13
BRANCH  12  29
ATOM     29  O   UNL A   1      32.860  27.971  21.900  1.00  0.00    -0.507 OA
ATOM     30  H   UNL A   1      33.702  27.584  21.762  1.00  0.00     0.293 HD
ENDBRANCH  12  29
ENDBRANCH   4   7
ENDBRANCH   2   3
ENDBRANCH   1   2
BRANCH   1  31
ATOM     31  C   UNL A   1      31.919  31.585  26.691  1.00  0.00     0.118 C 
BRANCH  31  32
ATOM     32  N   UNL A   1      32.053  32.990  27.057  1.00  0.00    -0.352 N 
ATOM     33  C   UNL A   1      33.021  33.654  27.779  1.00  0.00     0.251 C 
ATOM     34  H   UNL A   1      31.323  33.566  26.731  1.00  0.00     0.163 HD
ATOM     35  O   UNL A   1      32.841  34.833  28.072  1.00  0.00    -0.269 OA
BRANCH  33  36
ATOM     36  C   UNL A   1      34.240  32.950  28.240  1.00  0.00     0.039 A 
ATOM     37  C   UNL A   1      35.435  33.665  28.365  1.00  0.00     0.014 A 
ATOM     38  C   UNL A   1      34.213  31.596  28.565  1.00  0.00     0.014 A 
ATOM     39  C   UNL A   1      36.561  33.045  28.916  1.00  0.00     0.010 A 
ATOM     40  C   UNL A   1      35.288  31.021  29.234  1.00  0.00     0.010 A 
ATOM     41  C   UNL A   1      36.480  31.735  29.414  1.00  0.00    -0.014 A 
BRANCH  41  42
ATOM     42  C   UNL A   1      37.625  31.082  30.107  1.00  0.00     0.031 A 
ATOM     43  C   UNL A   1      37.959  31.459  31.527  1.00  0.00     0.074 A 
ATOM     44  C   UNL A   1      38.407  30.207  29.441  1.00  0.00     0.049 A 
ATOM     45  N   UNL A   1      38.971  31.086  32.269  1.00  0.00    -0.248 NA
ATOM     46  C   UNL A   1      37.055  32.414  32.187  1.00  0.00     0.031 C 
ATOM     47  C   UNL A   1      38.215  29.790  28.049  1.00  0.00     0.029 A 
ATOM     48  N   UNL A   1      39.524  29.515  29.839  1.00  0.00    -0.354 N 
ATOM     49  C   UNL A   1      38.832  31.772  33.472  1.00  0.00     0.074 A 
ATOM     50  C   UNL A   1      37.687  32.645  33.325  1.00  0.00     0.031 C 
ATOM     51  C   UNL A   1      39.153  28.885  27.726  1.00  0.00     0.029 A 
ATOM     52  C   UNL A   1      40.052  28.701  28.862  1.00  0.00     0.049 A 
ATOM     53  H   UNL A   1      39.913  29.594  30.740  1.00  0.00     0.167 HD
ATOM     54  C   UNL A   1      39.567  31.661  34.606  1.00  0.00     0.034 A 
ATOM     55  C   UNL A   1      41.141  27.908  28.873  1.00  0.00     0.034 A 
ATOM     56  C   UNL A   1      40.698  30.776  34.739  1.00  0.00     0.049 A 
ATOM     57  C   UNL A   1      41.976  27.837  30.128  1.00  0.00     0.074 A 
ATOM     58  C   UNL A   1      41.486  30.548  35.854  1.00  0.00     0.029 A 
ATOM     59  N   UNL A   1      41.209  29.979  33.723  1.00  0.00    -0.354 N 
ATOM     60  N   UNL A   1      41.801  28.457  31.273  1.00  0.00    -0.248 NA
ATOM     61  C   UNL A   1      43.148  26.953  30.096  1.00  0.00     0.031 C 
ATOM     62  C   UNL A   1      42.519  29.678  35.489  1.00  0.00     0.029 A 
ATOM     63  C   UNL A   1      42.323  29.287  34.175  1.00  0.00     0.049 A 
ATOM     64  H   UNL A   1      40.835  29.914  32.815  1.00  0.00     0.167 HD
ATOM     65  C   UNL A   1      42.822  28.007  32.107  1.00  0.00     0.074 A 
ATOM     66  C   UNL A   1      43.595  27.055  31.338  1.00  0.00     0.031 C 
ATOM     67  C   UNL A   1      43.090  28.344  33.394  1.00  0.00     0.034 A 
BRANCH  54  68
ATOM     68  C   UNL A   1      39.177  32.534  35.777  1.00  0.00     0.023 A 
ATOM     69  C   UNL A   1      39.585  33.877  35.863  1.00  0.00     0.031 A 
ATOM     70  C   UNL A   1      38.417  32.011  36.838  1.00  0.00     0.131 A 
ATOM     71  C   UNL A   1      39.312  34.621  37.020  1.00  0.00     0.055 A 
ATOM     72  C   UNL A   1      38.067  32.788  37.945  1.00  0.00     0.041 A 
ATOM     73  F   UNL A   1      38.016  30.731  36.827  1.00  0.00    -0.206 F 
ATOM     74  C   UNL A   1      38.530  34.095  38.050  1.00  0.00     0.022 A 
BRANCH  71  75
ATOM     75  S   UNL A   1      40.138  36.222  37.232  1.00  0.00     0.124 S 
ATOM     76  O   UNL A   1      41.492  35.809  37.597  1.00  0.00    -0.237 OA
ATOM     77  O   UNL A   1      39.990  36.831  35.915  1.00  0.00    -0.237 OA
ATOM     78  O   UNL A   1      39.380  36.860  38.305  1.00  0.00    -0.744 OA
ENDBRANCH  71  75
ENDBRANCH  54  68
BRANCH  55  79
ATOM     79  C   UNL A   1      41.520  27.118  27.663  1.00  0.00     0.023 A 
ATOM     80  C   UNL A   1      41.298  25.732  27.608  1.00  0.00     0.031 A 
ATOM     81  C   UNL A   1      42.156  27.724  26.565  1.00  0.00     0.131 A 
ATOM     82  C   UNL A   1      41.755  24.991  26.506  1.00  0.00     0.055 A 
ATOM     83  C   UNL A   1      42.552  26.993  25.443  1.00  0.00     0.041 A 
ATOM     84  F   UNL A   1      42.394  29.046  26.562  1.00  0.00    -0.206 F 
ATOM     85  C   UNL A   1      42.366  25.615  25.417  1.00  0.00     0.022 A 
BRANCH  82  86
ATOM     86  S   UNL A   1      41.632  23.183  26.566  1.00  0.00     0.124 S 
ATOM     87  O   UNL A   1      42.479  22.791  25.445  1.00  0.00    -0.237 OA
ATOM     88  O   UNL A   1      42.151  22.887  27.898  1.00  0.00    -0.237 OA
ATOM     89  O   UNL A   1      40.202  22.933  26.387  1.00  0.00    -0.744 OA
ENDBRANCH  82  86
ENDBRANCH  55  79
BRANCH  67  90
ATOM     90  C   UNL A   1      44.241  27.635  34.069  1.00  0.00     0.023 A 
ATOM     91  C   UNL A   1      44.064  26.427  34.765  1.00  0.00     0.031 A 
ATOM     92  C   UNL A   1      45.535  28.184  34.017  1.00  0.00     0.131 A 
ATOM     93  C   UNL A   1      45.152  25.837  35.428  1.00  0.00     0.055 A 
ATOM     94  C   UNL A   1      46.627  27.556  34.618  1.00  0.00     0.041 A 
ATOM     95  F   UNL A   1      45.761  29.339  33.371  1.00  0.00    -0.206 F 
ATOM     96  C   UNL A   1      46.436  26.383  35.341  1.00  0.00     0.022 A 
BRANCH  93  97
ATOM     97  S   UNL A   1      44.848  24.402  36.495  1.00  0.00     0.124 S 
ATOM     98  O   UNL A   1      43.981  23.580  35.657  1.00  0.00    -0.237 OA
ATOM     99  O   UNL A   1      46.195  23.888  36.718  1.00  0.00    -0.237 OA
ATOM    100  O   UNL A   1      44.204  24.981  37.673  1.00  0.00    -0.744 OA
ENDBRANCH  93  97
ENDBRANCH  67  90
ENDBRANCH  41  42
ENDBRANCH  33  36
ENDBRANCH  31  32
ENDBRANCH   1  31
TORSDOF 16
ENDMDL
MODEL 2
REMARK VINA RESULT:     -13.4      1.419      1.731
REMARK SMILES O=C1[NH+]=C(Nc2ccc(C(=O)NCCCNC(=O)c3ccc(-c4c5nc(c(-c6cc(S(=O)(=O)[O-])ccc6F)c6ccc([nH]6)c(-c6cc(S(=O)(=O)[O-])ccc6F)c6nc(c(-c7cc(S(=O)(=O)[O-])ccc7F)c7ccc4[nH]7)C=C6)C=C5)cc3)c(O)c2)S/C1=C\c1ccc[nH]1
REMARK SMILES IDX 14 1 13 2 12 3 10 4 11 5 9 7 6 8 7 9 84 10 8 11 82 12 5 13
REMARK SMILES IDX 1 14 2 15 3 16 86 17 4 18 85 20 87 21 88 23 89 24 92 25
REMARK SMILES IDX 90 26 91 27 83 29 15 31 16 32 17 33 18 35 19 36 20 37 81 38
REMARK SMILES IDX 21 39 80 40 22 41 23 42 24 43 74 44 25 45 79 46 73 47 75 48
REMARK SMILES IDX 26 49 78 50 72 51 71 52 27 54 59 55 39 56 58 57 40 58 43 59
REMARK SMILES IDX 57 60 76 61 41 62 42 63 56 65 77 66 44 67 28 68 29 69 37 70
REMARK SMILES IDX 30 71 36 72 38 73 35 74 31 75 32 76 33 77 34 78 60 79 61 80
REMARK SMILES IDX 69 81 62 82 68 83 70 84 67 85 63 86 64 87 65 88 66 89 45 90
REMARK SMILES IDX 46 91 54 92 47 93 53 94 55 95 52 96 48 97 49 98 50 99 51 100
REMARK H PARENT 12 6 3 19 5 22 92 28 83 30 16 34 75 53 43 64
REMARK Flexibility Score: inf
ROOT
ATOM      1  C   UNL A   1      31.006  31.372  25.753  1.00  0.00     0.042 C 
ENDROOT
BRANCH   1   2
ATOM      2  C   UNL A   1      31.056  30.094  24.932  1.00  0.00     0.118 C 
BRANCH   2   3
ATOM      3  N   UNL A   1      30.376  30.166  23.645  1.00  0.00    -0.352 N 
ATOM      4  C   UNL A   1      30.126  29.197  22.705  1.00  0.00     0.255 C 
ATOM      5  O   UNL A   1      29.522  29.510  21.681  1.00  0.00    -0.269 OA
ATOM      6  H   UNL A   1      30.039  31.061  23.411  1.00  0.00     0.163 HD
BRANCH   4   7
ATOM      7  C   UNL A   1      30.607  27.805  22.863  1.00  0.00     0.081 A 
ATOM      8  C   UNL A   1      31.223  25.054  23.040  1.00  0.00     0.129 A 
ATOM      9  C   UNL A   1      30.026  25.552  23.563  1.00  0.00     0.053 A 
ATOM     10  C   UNL A   1      32.138  25.962  22.495  1.00  0.00     0.098 A 
ATOM     11  C   UNL A   1      29.719  26.912  23.478  1.00  0.00     0.022 A 
ATOM     12  C   UNL A   1      31.853  27.328  22.453  1.00  0.00     0.132 A 
BRANCH   8  13
ATOM     13  N   UNL A   1      31.501  23.684  22.971  1.00  0.00    -0.234 N 
ATOM     14  O   UNL A   1      32.749  22.107  27.183  1.00  0.00    -0.240 OA
ATOM     15  C   UNL A   1      32.544  22.093  25.975  1.00  0.00     0.346 C 
ATOM     16  N   UNL A   1      32.129  23.171  25.230  1.00  0.00    -0.199 N 
ATOM     17  C   UNL A   1      32.736  20.880  25.131  1.00  0.00     0.111 C 
ATOM     18  C   UNL A   1      31.955  22.893  23.981  1.00  0.00     0.322 C 
ATOM     19  H   UNL A   1      31.979  24.066  25.611  1.00  0.00     0.316 HD
ATOM     20  S   UNL A   1      32.313  21.248  23.506  1.00  0.00     0.006 SA
ATOM     21  C   UNL A   1      33.163  19.715  25.638  1.00  0.00     0.050 C 
ATOM     22  H   UNL A   1      31.354  23.247  22.100  1.00  0.00     0.313 HD
BRANCH  21  23
ATOM     23  C   UNL A   1      33.430  18.588  24.826  1.00  0.00     0.039 A 
ATOM     24  C   UNL A   1      34.579  18.084  24.247  1.00  0.00     0.027 A 
ATOM     25  N   UNL A   1      32.394  17.755  24.484  1.00  0.00    -0.362 N 
ATOM     26  C   UNL A   1      34.217  16.936  23.506  1.00  0.00     0.020 A 
ATOM     27  C   UNL A   1      32.861  16.760  23.663  1.00  0.00     0.083 A 
ATOM     28  H   UNL A   1      31.461  17.856  24.782  1.00  0.00     0.166 HD
ENDBRANCH  21  23
ENDBRANCH   8  13
BRANCH  12  29
ATOM     29  O   UNL A   1      32.876  28.125  22.018  1.00  0.00    -0.507 OA
ATOM     30  H   UNL A   1      33.453  28.527  22.639  1.00  0.00     0.293 HD
ENDBRANCH  12  29
ENDBRANCH   4   7
ENDBRANCH   2   3
ENDBRANCH   1   2
BRANCH   1  31
ATOM     31  C   UNL A   1      32.181  31.590  26.692  1.00  0.00     0.118 C 
BRANCH  31  32
ATOM     32  N   UNL A   1      32.356  32.975  27.112  1.00  0.00    -0.352 N 
ATOM     33  C   UNL A   1      33.343  33.582  27.858  1.00  0.00     0.251 C 
ATOM     34  H   UNL A   1      31.644  33.584  26.809  1.00  0.00     0.163 HD
ATOM     35  O   UNL A   1      33.198  34.754  28.196  1.00  0.00    -0.269 OA
BRANCH  33  36
ATOM     36  C   UNL A   1      34.541  32.826  28.290  1.00  0.00     0.039 A 
ATOM     37  C   UNL A   1      35.791  33.450  28.258  1.00  0.00     0.014 A 
ATOM     38  C   UNL A   1      34.441  31.511  28.742  1.00  0.00     0.014 A 
ATOM     39  C   UNL A   1      36.910  32.792  28.779  1.00  0.00     0.010 A 
ATOM     40  C   UNL A   1      35.522  30.913  29.380  1.00  0.00     0.010 A 
ATOM     41  C   UNL A   1      36.774  31.542  29.402  1.00  0.00    -0.014 A 
BRANCH  41  42
ATOM     42  C   UNL A   1      37.921  30.862  30.067  1.00  0.00     0.031 A 
ATOM     43  C   UNL A   1      38.261  31.186  31.498  1.00  0.00     0.074 A 
ATOM     44  C   UNL A   1      38.698  30.011  29.365  1.00  0.00     0.049 A 
ATOM     45  N   UNL A   1      39.275  30.784  32.221  1.00  0.00    -0.248 NA
ATOM     46  C   UNL A   1      37.361  32.118  32.196  1.00  0.00     0.031 C 
ATOM     47  C   UNL A   1      38.500  29.645  27.960  1.00  0.00     0.029 A 
ATOM     48  N   UNL A   1      39.816  29.303  29.733  1.00  0.00    -0.354 N 
ATOM     49  C   UNL A   1      39.143  31.426  33.449  1.00  0.00     0.074 A 
ATOM     50  C   UNL A   1      37.999  32.306  33.340  1.00  0.00     0.031 C 
ATOM     51  C   UNL A   1      39.434  28.751  27.600  1.00  0.00     0.029 A 
ATOM     52  C   UNL A   1      40.338  28.524  28.725  1.00  0.00     0.049 A 
ATOM     53  H   UNL A   1      40.208  29.348  30.635  1.00  0.00     0.167 HD
ATOM     54  C   UNL A   1      39.882  31.272  34.576  1.00  0.00     0.034 A 
ATOM     55  C   UNL A   1      41.426  27.729  28.702  1.00  0.00     0.034 A 
ATOM     56  C   UNL A   1      41.012  30.381  34.672  1.00  0.00     0.049 A 
ATOM     57  C   UNL A   1      42.265  27.610  29.951  1.00  0.00     0.074 A 
ATOM     58  C   UNL A   1      41.805  30.111  35.774  1.00  0.00     0.029 A 
ATOM     59  N   UNL A   1      41.517  29.621  33.625  1.00  0.00    -0.354 N 
ATOM     60  N   UNL A   1      42.096  28.189  31.118  1.00  0.00    -0.248 NA
ATOM     61  C   UNL A   1      43.436  26.727  29.881  1.00  0.00     0.031 C 
ATOM     62  C   UNL A   1      42.835  29.254  35.373  1.00  0.00     0.029 A 
ATOM     63  C   UNL A   1      42.632  28.911  34.046  1.00  0.00     0.049 A 
ATOM     64  H   UNL A   1      41.140  29.590  32.716  1.00  0.00     0.167 HD
ATOM     65  C   UNL A   1      43.120  27.707  31.931  1.00  0.00     0.074 A 
ATOM     66  C   UNL A   1      43.888  26.782  31.124  1.00  0.00     0.031 C 
ATOM     67  C   UNL A   1      43.395  27.996  33.228  1.00  0.00     0.034 A 
BRANCH  54  68
ATOM     68  C   UNL A   1      39.498  32.104  35.779  1.00  0.00     0.023 A 
ATOM     69  C   UNL A   1      38.741  31.567  36.835  1.00  0.00     0.031 A 
ATOM     70  C   UNL A   1      39.862  33.460  35.857  1.00  0.00     0.131 A 
ATOM     71  C   UNL A   1      38.296  32.397  37.874  1.00  0.00     0.055 A 
ATOM     72  C   UNL A   1      39.497  34.258  36.943  1.00  0.00     0.041 A 
ATOM     73  F   UNL A   1      40.564  34.038  34.871  1.00  0.00    -0.206 F 
ATOM     74  C   UNL A   1      38.694  33.733  37.951  1.00  0.00     0.022 A 
BRANCH  71  75
ATOM     75  S   UNL A   1      37.054  31.749  39.026  1.00  0.00     0.124 S 
ATOM     76  O   UNL A   1      36.855  30.396  38.512  1.00  0.00    -0.237 OA
ATOM     77  O   UNL A   1      37.734  31.850  40.313  1.00  0.00    -0.237 OA
ATOM     78  O   UNL A   1      35.918  32.649  38.846  1.00  0.00    -0.744 OA
ENDBRANCH  71  75
ENDBRANCH  54  68
BRANCH  55  79
ATOM     79  C   UNL A   1      41.798  26.983  27.463  1.00  0.00     0.023 A 
ATOM     80  C   UNL A   1      41.637  25.590  27.384  1.00  0.00     0.031 A 
ATOM     81  C   UNL A   1      42.368  27.641  26.359  1.00  0.00     0.131 A 
ATOM     82  C   UNL A   1      42.089  24.894  26.251  1.00  0.00     0.055 A 
ATOM     83  C   UNL A   1      42.757  26.953  25.208  1.00  0.00     0.041 A 
ATOM     84  F   UNL A   1      42.546  28.972  26.378  1.00  0.00    -0.206 F 
ATOM     85  C   UNL A   1      42.633  25.568  25.156  1.00  0.00     0.022 A 
BRANCH  82  86
ATOM     86  S   UNL A   1      42.050  23.082  26.274  1.00  0.00     0.124 S 
ATOM     87  O   UNL A   1      40.624  22.817  26.431  1.00  0.00    -0.237 OA
ATOM     88  O   UNL A   1      42.626  22.749  24.975  1.00  0.00    -0.237 OA
ATOM     89  O   UNL A   1      42.881  22.738  27.428  1.00  0.00    -0.744 OA
ENDBRANCH  82  86
ENDBRANCH  55  79
BRANCH  67  90
ATOM     90  C   UNL A   1      44.546  27.261  33.872  1.00  0.00     0.023 A 
ATOM     91  C   UNL A   1      44.370  26.031  34.529  1.00  0.00     0.031 A 
ATOM     92  C   UNL A   1      45.843  27.807  33.829  1.00  0.00     0.131 A 
ATOM     93  C   UNL A   1      45.459  25.416  35.165  1.00  0.00     0.055 A 
ATOM     94  C   UNL A   1      46.935  27.155  34.402  1.00  0.00     0.041 A 
ATOM     95  F   UNL A   1      46.069  28.982  33.220  1.00  0.00    -0.206 F 
ATOM     96  C   UNL A   1      46.745  25.960  35.088  1.00  0.00     0.022 A 
BRANCH  93  97
ATOM     97  S   UNL A   1      45.156  23.948  36.186  1.00  0.00     0.124 S 
ATOM     98  O   UNL A   1      44.681  24.539  37.433  1.00  0.00    -0.237 OA
ATOM     99  O   UNL A   1      44.161  23.223  35.402  1.00  0.00    -0.237 OA
ATOM    100  O   UNL A   1      46.469  23.307  36.264  1.00  0.00    -0.744 OA
ENDBRANCH  93  97
ENDBRANCH  67  90
ENDBRANCH  41  42
ENDBRANCH  33  36
ENDBRANCH  31  32
ENDBRANCH   1  31
TORSDOF 16
ENDMDL
MODEL 3
REMARK VINA RESULT:     -13.4      4.972     10.737
REMARK SMILES O=C1[NH+]=C(Nc2ccc(C(=O)NCCCNC(=O)c3ccc(-c4c5nc(c(-c6cc(S(=O)(=O)[O-])ccc6F)c6ccc([nH]6)c(-c6cc(S(=O)(=O)[O-])ccc6F)c6nc(c(-c7cc(S(=O)(=O)[O-])ccc7F)c7ccc4[nH]7)C=C6)C=C5)cc3)c(O)c2)S/C1=C\c1ccc[nH]1
REMARK SMILES IDX 14 1 13 2 12 3 10 4 11 5 9 7 6 8 7 9 84 10 8 11 82 12 5 13
REMARK SMILES IDX 1 14 2 15 3 16 86 17 4 18 85 20 87 21 88 23 89 24 92 25
REMARK SMILES IDX 90 26 91 27 83 29 15 31 16 32 17 33 18 35 19 36 20 37 81 38
REMARK SMILES IDX 21 39 80 40 22 41 23 42 24 43 74 44 25 45 79 46 73 47 75 48
REMARK SMILES IDX 26 49 78 50 72 51 71 52 27 54 59 55 39 56 58 57 40 58 43 59
REMARK SMILES IDX 57 60 76 61 41 62 42 63 56 65 77 66 44 67 28 68 29 69 37 70
REMARK SMILES IDX 30 71 36 72 38 73 35 74 31 75 32 76 33 77 34 78 60 79 61 80
REMARK SMILES IDX 69 81 62 82 68 83 70 84 67 85 63 86 64 87 65 88 66 89 45 90
REMARK SMILES IDX 46 91 54 92 47 93 53 94 55 95 52 96 48 97 49 98 50 99 51 100
REMARK H PARENT 12 6 3 19 5 22 92 28 83 30 16 34 75 53 43 64
REMARK Flexibility Score: inf
ROOT
ATOM      1  C   UNL A   1      35.970  21.376  25.820  1.00  0.00     0.042 C 
ENDROOT
BRANCH   1   2
ATOM      2  C   UNL A   1      35.333  20.595  24.683  1.00  0.00     0.118 C 
BRANCH   2   3
ATOM      3  N   UNL A   1      34.002  20.075  24.969  1.00  0.00    -0.352 N 
ATOM      4  C   UNL A   1      32.772  20.687  24.936  1.00  0.00     0.255 C 
ATOM      5  O   UNL A   1      31.776  20.025  25.223  1.00  0.00    -0.269 OA
ATOM      6  H   UNL A   1      33.981  19.126  25.229  1.00  0.00     0.163 HD
BRANCH   4   7
ATOM      7  C   UNL A   1      32.616  22.125  24.618  1.00  0.00     0.081 A 
ATOM      8  C   UNL A   1      32.048  24.777  23.831  1.00  0.00     0.129 A 
ATOM      9  C   UNL A   1      32.108  23.750  22.884  1.00  0.00     0.053 A 
ATOM     10  C   UNL A   1      32.348  24.471  25.163  1.00  0.00     0.098 A 
ATOM     11  C   UNL A   1      32.391  22.438  23.271  1.00  0.00     0.022 A 
ATOM     12  C   UNL A   1      32.678  23.169  25.542  1.00  0.00     0.132 A 
BRANCH   8  13
ATOM     13  N   UNL A   1      31.623  26.071  23.510  1.00  0.00    -0.234 N 
ATOM     14  O   UNL A   1      27.027  26.453  24.223  1.00  0.00    -0.240 OA
ATOM     15  C   UNL A   1      28.155  26.770  23.867  1.00  0.00     0.346 C 
ATOM     16  N   UNL A   1      29.264  25.962  23.939  1.00  0.00    -0.199 N 
ATOM     17  C   UNL A   1      28.479  28.102  23.281  1.00  0.00     0.111 C 
ATOM     18  C   UNL A   1      30.344  26.538  23.530  1.00  0.00     0.322 C 
ATOM     19  H   UNL A   1      29.237  25.035  24.271  1.00  0.00     0.316 HD
ATOM     20  S   UNL A   1      30.164  28.177  22.947  1.00  0.00     0.006 SA
ATOM     21  C   UNL A   1      27.548  29.046  23.090  1.00  0.00     0.050 C 
ATOM     22  H   UNL A   1      32.322  26.711  23.240  1.00  0.00     0.313 HD
BRANCH  21  23
ATOM     23  C   UNL A   1      27.836  30.276  22.454  1.00  0.00     0.039 A 
ATOM     24  C   UNL A   1      28.165  31.534  22.922  1.00  0.00     0.027 A 
ATOM     25  N   UNL A   1      27.806  30.339  21.084  1.00  0.00    -0.362 N 
ATOM     26  C   UNL A   1      28.302  32.386  21.802  1.00  0.00     0.020 A 
ATOM     27  C   UNL A   1      28.067  31.624  20.680  1.00  0.00     0.083 A 
ATOM     28  H   UNL A   1      27.625  29.580  20.483  1.00  0.00     0.166 HD
ENDBRANCH  21  23
ENDBRANCH   8  13
BRANCH  12  29
ATOM     29  O   UNL A   1      33.077  23.022  26.842  1.00  0.00    -0.507 OA
ATOM     30  H   UNL A   1      32.573  22.495  27.430  1.00  0.00     0.293 HD
ENDBRANCH  12  29
ENDBRANCH   4   7
ENDBRANCH   2   3
ENDBRANCH   1   2
BRANCH   1  31
ATOM     31  C   UNL A   1      37.319  22.002  25.504  1.00  0.00     0.118 C 
BRANCH  31  32
ATOM     32  N   UNL A   1      38.458  21.160  25.849  1.00  0.00    -0.352 N 
ATOM     33  C   UNL A   1      39.672  21.465  26.426  1.00  0.00     0.251 C 
ATOM     34  H   UNL A   1      38.340  20.207  25.632  1.00  0.00     0.163 HD
ATOM     35  O   UNL A   1      40.534  20.592  26.495  1.00  0.00    -0.269 OA
BRANCH  33  36
ATOM     36  C   UNL A   1      39.959  22.833  26.915  1.00  0.00     0.039 A 
ATOM     37  C   UNL A   1      40.834  23.005  27.991  1.00  0.00     0.014 A 
ATOM     38  C   UNL A   1      39.386  23.951  26.311  1.00  0.00     0.014 A 
ATOM     39  C   UNL A   1      41.210  24.294  28.383  1.00  0.00     0.010 A 
ATOM     40  C   UNL A   1      39.861  25.222  26.611  1.00  0.00     0.010 A 
ATOM     41  C   UNL A   1      40.776  25.413  27.655  1.00  0.00    -0.014 A 
BRANCH  41  42
ATOM     42  C   UNL A   1      41.244  26.792  27.973  1.00  0.00     0.031 A 
ATOM     43  C   UNL A   1      42.665  27.191  27.671  1.00  0.00     0.074 A 
ATOM     44  C   UNL A   1      40.418  27.657  28.596  1.00  0.00     0.049 A 
ATOM     45  N   UNL A   1      43.294  28.301  27.963  1.00  0.00    -0.248 NA
ATOM     46  C   UNL A   1      43.500  26.194  26.985  1.00  0.00     0.031 C 
ATOM     47  C   UNL A   1      39.031  27.378  28.980  1.00  0.00     0.029 A 
ATOM     48  N   UNL A   1      40.622  28.946  29.024  1.00  0.00    -0.354 N 
ATOM     49  C   UNL A   1      44.599  28.127  27.511  1.00  0.00     0.074 A 
ATOM     50  C   UNL A   1      44.688  26.775  27.004  1.00  0.00     0.031 C 
ATOM     51  C   UNL A   1      38.500  28.474  29.545  1.00  0.00     0.029 A 
ATOM     52  C   UNL A   1      39.521  29.514  29.623  1.00  0.00     0.049 A 
ATOM     53  H   UNL A   1      41.478  29.420  28.912  1.00  0.00     0.167 HD
ATOM     54  C   UNL A   1      45.619  29.021  27.487  1.00  0.00     0.034 A 
ATOM     55  C   UNL A   1      39.354  30.729  30.183  1.00  0.00     0.034 A 
ATOM     56  C   UNL A   1      45.509  30.370  27.986  1.00  0.00     0.049 A 
ATOM     57  C   UNL A   1      40.517  31.691  30.192  1.00  0.00     0.074 A 
ATOM     58  C   UNL A   1      46.461  31.374  27.971  1.00  0.00     0.029 A 
ATOM     59  N   UNL A   1      44.381  30.902  28.598  1.00  0.00    -0.354 N 
ATOM     60  N   UNL A   1      41.730  31.525  29.716  1.00  0.00    -0.248 NA
ATOM     61  C   UNL A   1      40.285  33.005  30.805  1.00  0.00     0.031 C 
ATOM     62  C   UNL A   1      45.939  32.483  28.644  1.00  0.00     0.029 A 
ATOM     63  C   UNL A   1      44.628  32.208  28.996  1.00  0.00     0.049 A 
ATOM     64  H   UNL A   1      43.531  30.424  28.729  1.00  0.00     0.167 HD
ATOM     65  C   UNL A   1      42.392  32.730  29.941  1.00  0.00     0.074 A 
ATOM     66  C   UNL A   1      41.439  33.613  30.580  1.00  0.00     0.031 C 
ATOM     67  C   UNL A   1      43.670  33.077  29.639  1.00  0.00     0.034 A 
BRANCH  54  68
ATOM     68  C   UNL A   1      46.941  28.553  26.922  1.00  0.00     0.023 A 
ATOM     69  C   UNL A   1      47.140  28.403  25.538  1.00  0.00     0.031 A 
ATOM     70  C   UNL A   1      48.005  28.216  27.777  1.00  0.00     0.131 A 
ATOM     71  C   UNL A   1      48.334  27.847  25.056  1.00  0.00     0.055 A 
ATOM     72  C   UNL A   1      49.228  27.754  27.284  1.00  0.00     0.041 A 
ATOM     73  F   UNL A   1      47.871  28.315  29.109  1.00  0.00    -0.206 F 
ATOM     74  C   UNL A   1      49.391  27.549  25.918  1.00  0.00     0.022 A 
BRANCH  71  75
ATOM     75  S   UNL A   1      48.419  27.363  23.311  1.00  0.00     0.124 S 
ATOM     76  O   UNL A   1      49.761  27.811  22.946  1.00  0.00    -0.237 OA
ATOM     77  O   UNL A   1      48.222  25.919  23.373  1.00  0.00    -0.237 OA
ATOM     78  O   UNL A   1      47.330  28.116  22.693  1.00  0.00    -0.744 OA
ENDBRANCH  71  75
ENDBRANCH  54  68
BRANCH  55  79
ATOM     79  C   UNL A   1      38.044  31.115  30.789  1.00  0.00     0.023 A 
ATOM     80  C   UNL A   1      37.078  31.804  30.038  1.00  0.00     0.031 A 
ATOM     81  C   UNL A   1      37.759  30.847  32.139  1.00  0.00     0.131 A 
ATOM     82  C   UNL A   1      35.897  32.249  30.655  1.00  0.00     0.055 A 
ATOM     83  C   UNL A   1      36.555  31.236  32.732  1.00  0.00     0.041 A 
ATOM     84  F   UNL A   1      38.645  30.192  32.905  1.00  0.00    -0.206 F 
ATOM     85  C   UNL A   1      35.622  31.955  31.992  1.00  0.00     0.022 A 
BRANCH  82  86
ATOM     86  S   UNL A   1      34.771  33.308  29.708  1.00  0.00     0.124 S 
ATOM     87  O   UNL A   1      34.015  33.962  30.770  1.00  0.00    -0.237 OA
ATOM     88  O   UNL A   1      35.701  34.154  28.966  1.00  0.00    -0.237 OA
ATOM     89  O   UNL A   1      34.012  32.358  28.895  1.00  0.00    -0.744 OA
ENDBRANCH  82  86
ENDBRANCH  55  79
BRANCH  67  90
ATOM     90  C   UNL A   1      44.093  34.493  29.949  1.00  0.00     0.023 A 
ATOM     91  C   UNL A   1      43.824  35.559  29.074  1.00  0.00     0.031 A 
ATOM     92  C   UNL A   1      44.783  34.777  31.143  1.00  0.00     0.131 A 
ATOM     93  C   UNL A   1      44.291  36.848  29.377  1.00  0.00     0.055 A 
ATOM     94  C   UNL A   1      45.183  36.072  31.472  1.00  0.00     0.041 A 
ATOM     95  F   UNL A   1      45.073  33.797  32.014  1.00  0.00    -0.206 F 
ATOM     96  C   UNL A   1      44.951  37.115  30.580  1.00  0.00     0.022 A 
BRANCH  93  97
ATOM     97  S   UNL A   1      44.119  38.152  28.129  1.00  0.00     0.124 S 
ATOM     98  O   UNL A   1      43.614  37.407  26.980  1.00  0.00    -0.237 OA
ATOM     99  O   UNL A   1      43.176  39.067  28.762  1.00  0.00    -0.237 OA
ATOM    100  O   UNL A   1      45.480  38.669  27.983  1.00  0.00    -0.744 OA
ENDBRANCH  93  97
ENDBRANCH  67  90
ENDBRANCH  41  42
ENDBRANCH  33  36
ENDBRANCH  31  32
ENDBRANCH   1  31
TORSDOF 16
ENDMDL
