MODEL 1
REMARK VINA RESULT:     -13.0      0.000      0.000
REMARK SMILES O=C(NCCCNC(=O)c1c(/C=C2/SC(=S)N=C2O)cnc2ccccc12)c1ccc(-c2c3nc(c(-c4cc(S(=O)(=O)[O-])ccc4F)c4ccc([nH]4)c(-c4cc(S(=O)(=O)[O-])ccc4F)c4nc(c(-c5cc(S(=O)(=O)[O-])ccc5F)c5ccc2[nH]5)C=C4)C=C3)cc1
REMARK SMILES IDX 4 1 3 2 1 3 2 4 28 6 29 7 90 8 30 9 89 10 31 11 32 12 33 13
REMARK SMILES IDX 83 14 34 15 88 16 82 17 84 18 35 19 87 20 81 21 80 22 36 24
REMARK SMILES IDX 68 25 48 26 67 27 49 28 52 29 66 30 85 31 50 32 51 33 65 35
REMARK SMILES IDX 86 36 53 37 37 38 38 39 46 40 39 41 45 42 47 43 44 44 40 45
REMARK SMILES IDX 41 46 42 47 43 48 69 49 70 50 78 51 71 52 77 53 79 54 76 55
REMARK SMILES IDX 72 56 73 57 74 58 75 59 54 60 55 61 63 62 56 63 62 64 64 65
REMARK SMILES IDX 61 66 57 67 58 68 59 69 60 70 5 71 6 72 7 73 8 74 9 76 10 77
REMARK SMILES IDX 11 78 27 79 20 80 22 81 26 82 21 83 23 84 25 85 24 86 12 87
REMARK SMILES IDX 13 88 14 89 18 90 15 91 17 92 16 93 19 94
REMARK H PARENT 3 5 84 23 52 34 7 75 19 95
REMARK Flexibility Score: inf
ROOT
ATOM      1  C   UNL A   1      32.747  32.188  26.925  1.00  0.00     0.118 C 
ENDROOT
BRANCH   1   2
ATOM      2  N   UNL A   1      32.634  33.556  27.415  1.00  0.00    -0.352 N 
ATOM      3  O   UNL A   1      32.900  35.323  28.773  1.00  0.00    -0.269 OA
ATOM      4  C   UNL A   1      33.300  34.214  28.422  1.00  0.00     0.251 C 
ATOM      5  H   UNL A   1      31.967  34.104  26.943  1.00  0.00     0.163 HD
BRANCH   4   6
ATOM      6  C   UNL A   1      34.462  33.599  29.097  1.00  0.00     0.039 A 
ATOM      7  C   UNL A   1      34.308  32.483  29.919  1.00  0.00     0.014 A 
ATOM      8  C   UNL A   1      35.740  34.122  28.874  1.00  0.00     0.014 A 
ATOM      9  C   UNL A   1      35.385  32.011  30.659  1.00  0.00     0.010 A 
ATOM     10  C   UNL A   1      36.846  33.567  29.526  1.00  0.00     0.010 A 
ATOM     11  C   UNL A   1      36.673  32.528  30.453  1.00  0.00    -0.014 A 
BRANCH  11  12
ATOM     12  C   UNL A   1      37.820  31.912  31.170  1.00  0.00     0.031 A 
ATOM     13  C   UNL A   1      38.637  30.819  30.538  1.00  0.00     0.074 A 
ATOM     14  C   UNL A   1      38.135  32.372  32.398  1.00  0.00     0.049 A 
ATOM     15  N   UNL A   1      39.668  30.175  31.023  1.00  0.00    -0.248 NA
ATOM     16  C   UNL A   1      38.236  30.384  29.192  1.00  0.00     0.031 C 
ATOM     17  C   UNL A   1      37.403  33.421  33.113  1.00  0.00     0.029 A 
ATOM     18  N   UNL A   1      39.151  32.036  33.254  1.00  0.00    -0.354 N 
ATOM     19  C   UNL A   1      40.030  29.245  30.053  1.00  0.00     0.074 A 
ATOM     20  C   UNL A   1      39.081  29.388  28.968  1.00  0.00     0.031 C 
ATOM     21  C   UNL A   1      38.018  33.672  34.276  1.00  0.00     0.029 A 
ATOM     22  C   UNL A   1      39.135  32.750  34.429  1.00  0.00     0.049 A 
ATOM     23  H   UNL A   1      39.826  31.350  33.048  1.00  0.00     0.167 HD
ATOM     24  C   UNL A   1      41.061  28.363  30.069  1.00  0.00     0.034 A 
ATOM     25  C   UNL A   1      39.910  32.654  35.527  1.00  0.00     0.034 A 
ATOM     26  C   UNL A   1      41.995  28.240  31.165  1.00  0.00     0.049 A 
ATOM     27  C   UNL A   1      41.021  31.643  35.537  1.00  0.00     0.074 A 
ATOM     28  C   UNL A   1      43.100  27.413  31.270  1.00  0.00     0.029 A 
ATOM     29  N   UNL A   1      41.926  28.955  32.357  1.00  0.00    -0.354 N 
ATOM     30  N   UNL A   1      41.367  30.791  34.599  1.00  0.00    -0.248 NA
ATOM     31  C   UNL A   1      41.847  31.583  36.747  1.00  0.00     0.031 C 
ATOM     32  C   UNL A   1      43.651  27.571  32.547  1.00  0.00     0.029 A 
ATOM     33  C   UNL A   1      42.942  28.558  33.215  1.00  0.00     0.049 A 
ATOM     34  H   UNL A   1      41.252  29.643  32.563  1.00  0.00     0.167 HD
ATOM     35  C   UNL A   1      42.463  30.099  35.104  1.00  0.00     0.074 A 
ATOM     36  C   UNL A   1      42.732  30.653  36.417  1.00  0.00     0.031 C 
ATOM     37  C   UNL A   1      43.182  29.100  34.533  1.00  0.00     0.034 A 
BRANCH  24  38
ATOM     38  C   UNL A   1      41.198  27.429  28.887  1.00  0.00     0.023 A 
ATOM     39  C   UNL A   1      42.202  27.596  27.917  1.00  0.00     0.031 A 
ATOM     40  C   UNL A   1      40.286  26.372  28.709  1.00  0.00     0.131 A 
ATOM     41  C   UNL A   1      42.223  26.776  26.777  1.00  0.00     0.055 A 
ATOM     42  C   UNL A   1      40.363  25.505  27.616  1.00  0.00     0.041 A 
ATOM     43  F   UNL A   1      39.292  26.171  29.589  1.00  0.00    -0.206 F 
ATOM     44  C   UNL A   1      41.326  25.715  26.633  1.00  0.00     0.022 A 
BRANCH  41  45
ATOM     45  S   UNL A   1      43.336  27.214  25.413  1.00  0.00     0.124 S 
ATOM     46  O   UNL A   1      43.725  25.897  24.912  1.00  0.00    -0.237 OA
ATOM     47  O   UNL A   1      42.473  27.999  24.540  1.00  0.00    -0.237 OA
ATOM     48  O   UNL A   1      44.407  27.961  26.070  1.00  0.00    -0.744 OA
ENDBRANCH  41  45
ENDBRANCH  24  38
BRANCH  25  49
ATOM     49  C   UNL A   1      39.618  33.504  36.716  1.00  0.00     0.023 A 
ATOM     50  C   UNL A   1      38.954  32.988  37.838  1.00  0.00     0.031 A 
ATOM     51  C   UNL A   1      40.005  34.858  36.740  1.00  0.00     0.131 A 
ATOM     52  C   UNL A   1      38.670  33.829  38.926  1.00  0.00     0.055 A 
ATOM     53  C   UNL A   1      39.769  35.673  37.846  1.00  0.00     0.041 A 
ATOM     54  F   UNL A   1      40.649  35.398  35.693  1.00  0.00    -0.206 F 
ATOM     55  C   UNL A   1      39.088  35.163  38.944  1.00  0.00     0.022 A 
BRANCH  52  56
ATOM     56  S   UNL A   1      37.680  33.172  40.296  1.00  0.00     0.124 S 
ATOM     57  O   UNL A   1      36.449  32.786  39.616  1.00  0.00    -0.237 OA
ATOM     58  O   UNL A   1      38.518  32.080  40.777  1.00  0.00    -0.237 OA
ATOM     59  O   UNL A   1      37.560  34.311  41.205  1.00  0.00    -0.744 OA
ENDBRANCH  52  56
ENDBRANCH  25  49
BRANCH  37  60
ATOM     60  C   UNL A   1      44.351  28.568  35.326  1.00  0.00     0.023 A 
ATOM     61  C   UNL A   1      44.200  27.516  36.247  1.00  0.00     0.031 A 
ATOM     62  C   UNL A   1      45.627  29.136  35.172  1.00  0.00     0.131 A 
ATOM     63  C   UNL A   1      45.295  27.103  37.020  1.00  0.00     0.055 A 
ATOM     64  C   UNL A   1      46.727  28.679  35.901  1.00  0.00     0.041 A 
ATOM     65  F   UNL A   1      45.826  30.146  34.310  1.00  0.00    -0.206 F 
ATOM     66  C   UNL A   1      46.561  27.667  36.840  1.00  0.00     0.022 A 
BRANCH  63  67
ATOM     67  S   UNL A   1      45.025  25.880  38.332  1.00  0.00     0.124 S 
ATOM     68  O   UNL A   1      44.667  24.690  37.567  1.00  0.00    -0.237 OA
ATOM     69  O   UNL A   1      46.323  25.844  38.998  1.00  0.00    -0.237 OA
ATOM     70  O   UNL A   1      43.939  26.458  39.123  1.00  0.00    -0.744 OA
ENDBRANCH  63  67
ENDBRANCH  37  60
ENDBRANCH  11  12
ENDBRANCH   4   6
ENDBRANCH   1   2
BRANCH   1  71
ATOM     71  C   UNL A   1      31.420  31.607  26.462  1.00  0.00     0.042 C 
BRANCH  71  72
ATOM     72  C   UNL A   1      31.447  30.111  26.206  1.00  0.00     0.118 C 
BRANCH  72  73
ATOM     73  N   UNL A   1      32.390  29.710  25.169  1.00  0.00    -0.352 N 
ATOM     74  C   UNL A   1      32.122  29.017  24.029  1.00  0.00     0.252 C 
ATOM     75  H   UNL A   1      33.328  29.971  25.309  1.00  0.00     0.163 HD
ATOM     76  O   UNL A   1      32.913  28.967  23.083  1.00  0.00    -0.269 OA
BRANCH  74  77
ATOM     77  C   UNL A   1      30.875  28.294  23.873  1.00  0.00     0.058 A 
ATOM     78  C   UNL A   1      30.799  26.952  24.258  1.00  0.00     0.007 A 
ATOM     79  C   UNL A   1      29.773  29.016  23.328  1.00  0.00     0.014 A 
ATOM     80  C   UNL A   1      29.535  26.393  24.063  1.00  0.00     0.120 A 
ATOM     81  C   UNL A   1      28.553  28.331  23.254  1.00  0.00     0.071 A 
ATOM     82  C   UNL A   1      29.821  30.375  22.913  1.00  0.00     0.011 A 
ATOM     83  N   UNL A   1      28.442  27.039  23.586  1.00  0.00    -0.256 NA
ATOM     84  C   UNL A   1      27.419  29.026  22.850  1.00  0.00     0.029 A 
ATOM     85  C   UNL A   1      28.674  31.050  22.510  1.00  0.00     0.001 A 
ATOM     86  C   UNL A   1      27.464  30.376  22.493  1.00  0.00     0.002 A 
BRANCH  78  87
ATOM     87  C   UNL A   1      31.759  26.132  25.044  1.00  0.00     0.031 C 
ATOM     88  C   UNL A   1      31.819  25.078  25.883  1.00  0.00     0.077 C 
ATOM     89  S   UNL A   1      33.450  24.490  26.266  1.00  0.00    -0.053 SA
ATOM     90  C   UNL A   1      30.951  24.119  26.611  1.00  0.00     0.227 C 
ATOM     91  C   UNL A   1      32.803  22.988  26.937  1.00  0.00     0.168 C 
ATOM     92  N   UNL A   1      31.448  23.045  27.134  1.00  0.00    -0.194 NA
ATOM     93  S   UNL A   1      33.784  21.682  27.280  1.00  0.00    -0.050 S 
BRANCH  90  94
ATOM     94  O   UNL A   1      29.670  24.369  26.850  1.00  0.00    -0.492 OA
ATOM     95  H   UNL A   1      29.345  25.246  26.795  1.00  0.00     0.295 HD
ENDBRANCH  90  94
ENDBRANCH  78  87
ENDBRANCH  74  77
ENDBRANCH  72  73
ENDBRANCH  71  72
ENDBRANCH   1  71
TORSDOF 15
ENDMDL
MODEL 2
REMARK VINA RESULT:     -12.7      2.598      8.640
REMARK SMILES O=C(NCCCNC(=O)c1c(/C=C2/SC(=S)N=C2O)cnc2ccccc12)c1ccc(-c2c3nc(c(-c4cc(S(=O)(=O)[O-])ccc4F)c4ccc([nH]4)c(-c4cc(S(=O)(=O)[O-])ccc4F)c4nc(c(-c5cc(S(=O)(=O)[O-])ccc5F)c5ccc2[nH]5)C=C4)C=C3)cc1
REMARK SMILES IDX 4 1 3 2 1 3 2 4 28 6 29 7 90 8 30 9 89 10 31 11 32 12 33 13
REMARK SMILES IDX 83 14 34 15 88 16 82 17 84 18 35 19 87 20 81 21 80 22 36 24
REMARK SMILES IDX 68 25 48 26 67 27 49 28 52 29 66 30 85 31 50 32 51 33 65 35
REMARK SMILES IDX 86 36 53 37 37 38 38 39 46 40 39 41 45 42 47 43 44 44 40 45
REMARK SMILES IDX 41 46 42 47 43 48 69 49 70 50 78 51 71 52 77 53 79 54 76 55
REMARK SMILES IDX 72 56 73 57 74 58 75 59 54 60 55 61 63 62 56 63 62 64 64 65
REMARK SMILES IDX 61 66 57 67 58 68 59 69 60 70 5 71 6 72 7 73 8 74 9 76 10 77
REMARK SMILES IDX 11 78 27 79 20 80 22 81 26 82 21 83 23 84 25 85 24 86 12 87
REMARK SMILES IDX 13 88 14 89 18 90 15 91 17 92 16 93 19 94
REMARK H PARENT 3 5 84 23 52 34 7 75 19 95
REMARK Flexibility Score: inf
ROOT
ATOM      1  C   UNL A   1      33.373  29.379  25.834  1.00  0.00     0.118 C 
ENDROOT
BRANCH   1   2
ATOM      2  N   UNL A   1      33.100  30.738  26.285  1.00  0.00    -0.352 N 
ATOM      3  O   UNL A   1      33.180  32.573  27.573  1.00  0.00    -0.269 OA
ATOM      4  C   UNL A   1      33.709  31.513  27.242  1.00  0.00     0.251 C 
ATOM      5  H   UNL A   1      32.351  31.178  25.821  1.00  0.00     0.163 HD
BRANCH   4   6
ATOM      6  C   UNL A   1      34.965  31.079  27.890  1.00  0.00     0.039 A 
ATOM      7  C   UNL A   1      35.102  29.788  28.398  1.00  0.00     0.014 A 
ATOM      8  C   UNL A   1      36.044  31.967  27.958  1.00  0.00     0.014 A 
ATOM      9  C   UNL A   1      36.231  29.445  29.131  1.00  0.00     0.010 A 
ATOM     10  C   UNL A   1      37.229  31.578  28.591  1.00  0.00     0.010 A 
ATOM     11  C   UNL A   1      37.320  30.326  29.215  1.00  0.00    -0.014 A 
BRANCH  11  12
ATOM     12  C   UNL A   1      38.559  29.875  29.901  1.00  0.00     0.031 A 
ATOM     13  C   UNL A   1      38.911  30.369  31.277  1.00  0.00     0.074 A 
ATOM     14  C   UNL A   1      39.357  28.986  29.275  1.00  0.00     0.049 A 
ATOM     15  N   UNL A   1      39.951  30.076  32.017  1.00  0.00    -0.248 NA
ATOM     16  C   UNL A   1      37.983  31.325  31.897  1.00  0.00     0.031 C 
ATOM     17  C   UNL A   1      39.118  28.448  27.932  1.00  0.00     0.029 A 
ATOM     18  N   UNL A   1      40.511  28.367  29.678  1.00  0.00    -0.354 N 
ATOM     19  C   UNL A   1      39.815  30.825  33.182  1.00  0.00     0.074 A 
ATOM     20  C   UNL A   1      38.609  31.612  33.030  1.00  0.00     0.031 C 
ATOM     21  C   UNL A   1      40.069  27.550  27.642  1.00  0.00     0.029 A 
ATOM     22  C   UNL A   1      41.029  27.507  28.737  1.00  0.00     0.049 A 
ATOM     23  H   UNL A   1      40.929  28.523  30.555  1.00  0.00     0.167 HD
ATOM     24  C   UNL A   1      40.620  30.844  34.275  1.00  0.00     0.034 A 
ATOM     25  C   UNL A   1      42.167  26.787  28.736  1.00  0.00     0.034 A 
ATOM     26  C   UNL A   1      41.819  30.048  34.402  1.00  0.00     0.049 A 
ATOM     27  C   UNL A   1      43.062  26.855  29.941  1.00  0.00     0.074 A 
ATOM     28  C   UNL A   1      42.685  29.957  35.479  1.00  0.00     0.029 A 
ATOM     29  N   UNL A   1      42.333  29.216  33.413  1.00  0.00    -0.354 N 
ATOM     30  N   UNL A   1      42.903  27.547  31.046  1.00  0.00    -0.248 NA
ATOM     31  C   UNL A   1      44.284  26.045  29.902  1.00  0.00     0.031 C 
ATOM     32  C   UNL A   1      43.757  29.133  35.115  1.00  0.00     0.029 A 
ATOM     33  C   UNL A   1      43.523  28.641  33.840  1.00  0.00     0.049 A 
ATOM     34  H   UNL A   1      41.915  29.057  32.536  1.00  0.00     0.167 HD
ATOM     35  C   UNL A   1      44.004  27.244  31.842  1.00  0.00     0.074 A 
ATOM     36  C   UNL A   1      44.801  26.289  31.097  1.00  0.00     0.031 C 
ATOM     37  C   UNL A   1      44.322  27.711  33.076  1.00  0.00     0.034 A 
BRANCH  24  38
ATOM     38  C   UNL A   1      40.254  31.795  35.393  1.00  0.00     0.023 A 
ATOM     39  C   UNL A   1      39.340  31.443  36.402  1.00  0.00     0.031 A 
ATOM     40  C   UNL A   1      40.804  33.090  35.432  1.00  0.00     0.131 A 
ATOM     41  C   UNL A   1      38.943  32.395  37.356  1.00  0.00     0.055 A 
ATOM     42  C   UNL A   1      40.470  34.005  36.433  1.00  0.00     0.041 A 
ATOM     43  F   UNL A   1      41.666  33.495  34.486  1.00  0.00    -0.206 F 
ATOM     44  C   UNL A   1      39.521  33.666  37.393  1.00  0.00     0.022 A 
BRANCH  41  45
ATOM     45  S   UNL A   1      37.548  32.000  38.446  1.00  0.00     0.124 S 
ATOM     46  O   UNL A   1      37.250  30.623  38.061  1.00  0.00    -0.237 OA
ATOM     47  O   UNL A   1      38.123  32.182  39.773  1.00  0.00    -0.237 OA
ATOM     48  O   UNL A   1      36.529  32.977  38.067  1.00  0.00    -0.744 OA
ENDBRANCH  41  45
ENDBRANCH  24  38
BRANCH  25  49
ATOM     49  C   UNL A   1      42.538  25.991  27.533  1.00  0.00     0.023 A 
ATOM     50  C   UNL A   1      42.176  24.642  27.407  1.00  0.00     0.031 A 
ATOM     51  C   UNL A   1      43.271  26.580  26.484  1.00  0.00     0.131 A 
ATOM     52  C   UNL A   1      42.572  23.917  26.272  1.00  0.00     0.055 A 
ATOM     53  C   UNL A   1      43.614  25.870  25.334  1.00  0.00     0.041 A 
ATOM     54  F   UNL A   1      43.638  27.869  26.553  1.00  0.00    -0.206 F 
ATOM     55  C   UNL A   1      43.274  24.527  25.228  1.00  0.00     0.022 A 
BRANCH  52  56
ATOM     56  S   UNL A   1      42.217  22.141  26.208  1.00  0.00     0.124 S 
ATOM     57  O   UNL A   1      42.997  21.723  25.048  1.00  0.00    -0.237 OA
ATOM     58  O   UNL A   1      42.705  21.688  27.506  1.00  0.00    -0.237 OA
ATOM     59  O   UNL A   1      40.767  22.090  26.036  1.00  0.00    -0.744 OA
ENDBRANCH  52  56
ENDBRANCH  25  49
BRANCH  37  60
ATOM     60  C   UNL A   1      45.581  27.163  33.703  1.00  0.00     0.023 A 
ATOM     61  C   UNL A   1      45.573  25.980  34.463  1.00  0.00     0.031 A 
ATOM     62  C   UNL A   1      46.800  27.848  33.556  1.00  0.00     0.131 A 
ATOM     63  C   UNL A   1      46.748  25.548  35.094  1.00  0.00     0.055 A 
ATOM     64  C   UNL A   1      47.980  27.379  34.135  1.00  0.00     0.041 A 
ATOM     65  F   UNL A   1      46.864  28.984  32.844  1.00  0.00    -0.206 F 
ATOM     66  C   UNL A   1      47.956  26.231  34.920  1.00  0.00     0.022 A 
BRANCH  63  67
ATOM     67  S   UNL A   1      46.663  24.130  36.222  1.00  0.00     0.124 S 
ATOM     68  O   UNL A   1      47.528  24.562  37.316  1.00  0.00    -0.237 OA
ATOM     69  O   UNL A   1      45.238  24.058  36.527  1.00  0.00    -0.237 OA
ATOM     70  O   UNL A   1      47.182  23.022  35.421  1.00  0.00    -0.744 OA
ENDBRANCH  63  67
ENDBRANCH  37  60
ENDBRANCH  11  12
ENDBRANCH   4   6
ENDBRANCH   1   2
BRANCH   1  71
ATOM     71  C   UNL A   1      32.132  28.502  25.792  1.00  0.00     0.042 C 
BRANCH  71  72
ATOM     72  C   UNL A   1      32.238  27.229  26.612  1.00  0.00     0.118 C 
BRANCH  72  73
ATOM     73  N   UNL A   1      30.950  26.620  26.920  1.00  0.00    -0.352 N 
ATOM     74  C   UNL A   1      30.393  25.521  26.342  1.00  0.00     0.252 C 
ATOM     75  H   UNL A   1      30.422  27.054  27.628  1.00  0.00     0.163 HD
ATOM     76  O   UNL A   1      29.444  24.915  26.848  1.00  0.00    -0.269 OA
BRANCH  74  77
ATOM     77  C   UNL A   1      30.898  25.005  25.085  1.00  0.00     0.058 A 
ATOM     78  C   UNL A   1      30.459  25.562  23.880  1.00  0.00     0.007 A 
ATOM     79  C   UNL A   1      31.839  23.936  25.157  1.00  0.00     0.014 A 
ATOM     80  C   UNL A   1      31.041  24.974  22.756  1.00  0.00     0.120 A 
ATOM     81  C   UNL A   1      32.379  23.497  23.941  1.00  0.00     0.071 A 
ATOM     82  C   UNL A   1      32.295  23.337  26.363  1.00  0.00     0.011 A 
ATOM     83  N   UNL A   1      31.968  23.984  22.763  1.00  0.00    -0.256 NA
ATOM     84  C   UNL A   1      33.394  22.547  23.963  1.00  0.00     0.029 A 
ATOM     85  C   UNL A   1      33.309  22.386  26.362  1.00  0.00     0.001 A 
ATOM     86  C   UNL A   1      33.873  22.001  25.156  1.00  0.00     0.002 A 
BRANCH  78  87
ATOM     87  C   UNL A   1      29.681  26.806  23.635  1.00  0.00     0.031 C 
ATOM     88  C   UNL A   1      29.762  28.010  23.032  1.00  0.00     0.077 C 
ATOM     89  S   UNL A   1      28.251  28.940  22.961  1.00  0.00    -0.053 SA
ATOM     90  C   UNL A   1      30.713  28.881  22.297  1.00  0.00     0.227 C 
ATOM     91  C   UNL A   1      28.931  30.042  21.757  1.00  0.00     0.168 C 
ATOM     92  N   UNL A   1      30.289  29.908  21.633  1.00  0.00    -0.194 NA
ATOM     93  S   UNL A   1      27.974  31.110  20.903  1.00  0.00    -0.050 S 
BRANCH  90  94
ATOM     94  O   UNL A   1      32.027  28.716  22.377  1.00  0.00    -0.492 OA
ATOM     95  H   UNL A   1      32.556  29.365  22.797  1.00  0.00     0.295 HD
ENDBRANCH  90  94
ENDBRANCH  78  87
ENDBRANCH  74  77
ENDBRANCH  72  73
ENDBRANCH  71  72
ENDBRANCH   1  71
TORSDOF 15
ENDMDL
MODEL 3
REMARK VINA RESULT:     -12.7      3.147      8.816
REMARK SMILES O=C(NCCCNC(=O)c1c(/C=C2/SC(=S)N=C2O)cnc2ccccc12)c1ccc(-c2c3nc(c(-c4cc(S(=O)(=O)[O-])ccc4F)c4ccc([nH]4)c(-c4cc(S(=O)(=O)[O-])ccc4F)c4nc(c(-c5cc(S(=O)(=O)[O-])ccc5F)c5ccc2[nH]5)C=C4)C=C3)cc1
REMARK SMILES IDX 4 1 3 2 1 3 2 4 28 6 29 7 90 8 30 9 89 10 31 11 32 12 33 13
REMARK SMILES IDX 83 14 34 15 88 16 82 17 84 18 35 19 87 20 81 21 80 22 36 24
REMARK SMILES IDX 68 25 48 26 67 27 49 28 52 29 66 30 85 31 50 32 51 33 65 35
REMARK SMILES IDX 86 36 53 37 37 38 38 39 46 40 39 41 45 42 47 43 44 44 40 45
REMARK SMILES IDX 41 46 42 47 43 48 69 49 70 50 78 51 71 52 77 53 79 54 76 55
REMARK SMILES IDX 72 56 73 57 74 58 75 59 54 60 55 61 63 62 56 63 62 64 64 65
REMARK SMILES IDX 61 66 57 67 58 68 59 69 60 70 5 71 6 72 7 73 8 74 9 76 10 77
REMARK SMILES IDX 11 78 27 79 20 80 22 81 26 82 21 83 23 84 25 85 24 86 12 87
REMARK SMILES IDX 13 88 14 89 18 90 15 91 17 92 16 93 19 94
REMARK H PARENT 3 5 84 23 52 34 7 75 19 95
REMARK Flexibility Score: inf
ROOT
ATOM      1  C   UNL A   1      33.911  29.332  26.236  1.00  0.00     0.118 C 
ENDROOT
BRANCH   1   2
ATOM      2  N   UNL A   1      33.725  30.680  26.757  1.00  0.00    -0.352 N 
ATOM      3  O   UNL A   1      33.950  32.447  28.122  1.00  0.00    -0.269 OA
ATOM      4  C   UNL A   1      34.410  31.379  27.722  1.00  0.00     0.251 C 
ATOM      5  H   UNL A   1      32.981  31.177  26.346  1.00  0.00     0.163 HD
BRANCH   4   6
ATOM      6  C   UNL A   1      35.668  30.854  28.296  1.00  0.00     0.039 A 
ATOM      7  C   UNL A   1      36.900  31.412  27.956  1.00  0.00     0.014 A 
ATOM      8  C   UNL A   1      35.614  29.808  29.223  1.00  0.00     0.014 A 
ATOM      9  C   UNL A   1      38.076  30.813  28.389  1.00  0.00     0.010 A 
ATOM     10  C   UNL A   1      36.797  29.284  29.754  1.00  0.00     0.010 A 
ATOM     11  C   UNL A   1      38.041  29.759  29.313  1.00  0.00    -0.014 A 
BRANCH  11  12
ATOM     12  C   UNL A   1      39.323  29.228  29.849  1.00  0.00     0.031 A 
ATOM     13  C   UNL A   1      39.968  29.832  31.065  1.00  0.00     0.074 A 
ATOM     14  C   UNL A   1      39.888  28.168  29.236  1.00  0.00     0.049 A 
ATOM     15  N   UNL A   1      41.081  29.491  31.663  1.00  0.00    -0.248 NA
ATOM     16  C   UNL A   1      39.281  30.976  31.682  1.00  0.00     0.031 C 
ATOM     17  C   UNL A   1      39.354  27.509  28.041  1.00  0.00     0.029 A 
ATOM     18  N   UNL A   1      41.016  27.449  29.534  1.00  0.00    -0.354 N 
ATOM     19  C   UNL A   1      41.242  30.388  32.715  1.00  0.00     0.074 A 
ATOM     20  C   UNL A   1      40.127  31.310  32.647  1.00  0.00     0.031 C 
ATOM     21  C   UNL A   1      40.128  26.460  27.734  1.00  0.00     0.029 A 
ATOM     22  C   UNL A   1      41.256  26.418  28.655  1.00  0.00     0.049 A 
ATOM     23  H   UNL A   1      41.599  27.651  30.301  1.00  0.00     0.167 HD
ATOM     24  C   UNL A   1      42.225  30.429  33.650  1.00  0.00     0.034 A 
ATOM     25  C   UNL A   1      42.285  25.553  28.575  1.00  0.00     0.034 A 
ATOM     26  C   UNL A   1      43.328  29.496  33.696  1.00  0.00     0.049 A 
ATOM     27  C   UNL A   1      43.382  25.643  29.598  1.00  0.00     0.074 A 
ATOM     28  C   UNL A   1      44.355  29.417  34.621  1.00  0.00     0.029 A 
ATOM     29  N   UNL A   1      43.559  28.486  32.767  1.00  0.00    -0.354 N 
ATOM     30  N   UNL A   1      43.503  26.479  30.603  1.00  0.00    -0.248 NA
ATOM     31  C   UNL A   1      44.476  24.673  29.480  1.00  0.00     0.031 C 
ATOM     32  C   UNL A   1      45.243  28.415  34.211  1.00  0.00     0.029 A 
ATOM     33  C   UNL A   1      44.731  27.809  33.075  1.00  0.00     0.049 A 
ATOM     34  H   UNL A   1      42.976  28.281  32.000  1.00  0.00     0.167 HD
ATOM     35  C   UNL A   1      44.685  26.127  31.247  1.00  0.00     0.074 A 
ATOM     36  C   UNL A   1      45.222  24.987  30.528  1.00  0.00     0.031 C 
ATOM     37  C   UNL A   1      45.269  26.691  32.334  1.00  0.00     0.034 A 
BRANCH  24  38
ATOM     38  C   UNL A   1      42.176  31.550  34.664  1.00  0.00     0.023 A 
ATOM     39  C   UNL A   1      41.255  31.553  35.727  1.00  0.00     0.031 A 
ATOM     40  C   UNL A   1      43.043  32.652  34.546  1.00  0.00     0.131 A 
ATOM     41  C   UNL A   1      41.168  32.667  36.578  1.00  0.00     0.055 A 
ATOM     42  C   UNL A   1      43.009  33.719  35.447  1.00  0.00     0.041 A 
ATOM     43  F   UNL A   1      43.931  32.718  33.542  1.00  0.00    -0.206 F 
ATOM     44  C   UNL A   1      42.056  33.739  36.461  1.00  0.00     0.022 A 
BRANCH  41  45
ATOM     45  S   UNL A   1      39.776  32.765  37.738  1.00  0.00     0.124 S 
ATOM     46  O   UNL A   1      38.932  31.662  37.284  1.00  0.00    -0.237 OA
ATOM     47  O   UNL A   1      40.427  32.582  39.029  1.00  0.00    -0.237 OA
ATOM     48  O   UNL A   1      39.224  34.098  37.500  1.00  0.00    -0.744 OA
ENDBRANCH  41  45
ENDBRANCH  24  38
BRANCH  25  49
ATOM     49  C   UNL A   1      42.343  24.573  27.454  1.00  0.00     0.023 A 
ATOM     50  C   UNL A   1      41.602  23.383  27.484  1.00  0.00     0.031 A 
ATOM     51  C   UNL A   1      43.152  24.820  26.329  1.00  0.00     0.131 A 
ATOM     52  C   UNL A   1      41.707  22.470  26.422  1.00  0.00     0.055 A 
ATOM     53  C   UNL A   1      43.210  23.936  25.252  1.00  0.00     0.041 A 
ATOM     54  F   UNL A   1      43.877  25.947  26.249  1.00  0.00    -0.206 F 
ATOM     55  C   UNL A   1      42.493  22.746  25.300  1.00  0.00     0.022 A 
BRANCH  52  56
ATOM     56  S   UNL A   1      40.854  20.876  26.560  1.00  0.00     0.124 S 
ATOM     57  O   UNL A   1      39.556  21.182  25.970  1.00  0.00    -0.237 OA
ATOM     58  O   UNL A   1      41.723  20.000  25.781  1.00  0.00    -0.237 OA
ATOM     59  O   UNL A   1      40.841  20.620  27.999  1.00  0.00    -0.744 OA
ENDBRANCH  52  56
ENDBRANCH  25  49
BRANCH  37  60
ATOM     60  C   UNL A   1      46.548  26.056  32.823  1.00  0.00     0.023 A 
ATOM     61  C   UNL A   1      46.539  25.003  33.754  1.00  0.00     0.031 A 
ATOM     62  C   UNL A   1      47.791  26.527  32.366  1.00  0.00     0.131 A 
ATOM     63  C   UNL A   1      47.751  24.492  34.242  1.00  0.00     0.055 A 
ATOM     64  C   UNL A   1      48.993  25.973  32.809  1.00  0.00     0.041 A 
ATOM     65  F   UNL A   1      47.857  27.533  31.480  1.00  0.00    -0.206 F 
ATOM     66  C   UNL A   1      48.979  24.960  33.762  1.00  0.00     0.022 A 
BRANCH  63  67
ATOM     67  S   UNL A   1      47.708  23.271  35.582  1.00  0.00     0.124 S 
ATOM     68  O   UNL A   1      48.494  22.177  35.019  1.00  0.00    -0.237 OA
ATOM     69  O   UNL A   1      48.326  23.996  36.687  1.00  0.00    -0.237 OA
ATOM     70  O   UNL A   1      46.283  22.990  35.745  1.00  0.00    -0.744 OA
ENDBRANCH  63  67
ENDBRANCH  37  60
ENDBRANCH  11  12
ENDBRANCH   4   6
ENDBRANCH   1   2
BRANCH   1  71
ATOM     71  C   UNL A   1      32.601  28.599  25.991  1.00  0.00     0.042 C 
BRANCH  71  72
ATOM     72  C   UNL A   1      32.390  27.384  26.877  1.00  0.00     0.118 C 
BRANCH  72  73
ATOM     73  N   UNL A   1      31.054  26.809  26.774  1.00  0.00    -0.352 N 
ATOM     74  C   UNL A   1      30.698  25.644  26.166  1.00  0.00     0.252 C 
ATOM     75  H   UNL A   1      30.326  27.321  27.193  1.00  0.00     0.163 HD
ATOM     76  O   UNL A   1      29.611  25.097  26.368  1.00  0.00    -0.269 OA
BRANCH  74  77
ATOM     77  C   UNL A   1      31.597  24.983  25.239  1.00  0.00     0.058 A 
ATOM     78  C   UNL A   1      31.644  25.398  23.905  1.00  0.00     0.007 A 
ATOM     79  C   UNL A   1      32.401  23.927  25.761  1.00  0.00     0.014 A 
ATOM     80  C   UNL A   1      32.563  24.681  23.136  1.00  0.00     0.120 A 
ATOM     81  C   UNL A   1      33.320  23.348  24.876  1.00  0.00     0.071 A 
ATOM     82  C   UNL A   1      32.367  23.471  27.106  1.00  0.00     0.011 A 
ATOM     83  N   UNL A   1      33.380  23.696  23.585  1.00  0.00    -0.256 NA
ATOM     84  C   UNL A   1      34.216  22.404  25.365  1.00  0.00     0.029 A 
ATOM     85  C   UNL A   1      33.271  22.523  27.574  1.00  0.00     0.001 A 
ATOM     86  C   UNL A   1      34.210  21.999  26.702  1.00  0.00     0.002 A 
BRANCH  78  87
ATOM     87  C   UNL A   1      31.062  26.608  23.263  1.00  0.00     0.031 C 
ATOM     88  C   UNL A   1      29.911  27.299  23.146  1.00  0.00     0.077 C 
ATOM     89  S   UNL A   1      30.039  28.880  22.346  1.00  0.00    -0.053 SA
ATOM     90  C   UNL A   1      28.476  27.243  23.524  1.00  0.00     0.227 C 
ATOM     91  C   UNL A   1      28.435  29.352  22.920  1.00  0.00     0.168 C 
ATOM     92  N   UNL A   1      27.727  28.293  23.425  1.00  0.00    -0.194 NA
ATOM     93  S   UNL A   1      27.895  30.929  22.823  1.00  0.00    -0.050 S 
BRANCH  90  94
ATOM     94  O   UNL A   1      27.881  26.108  23.867  1.00  0.00    -0.492 OA
ATOM     95  H   UNL A   1      26.980  25.969  23.656  1.00  0.00     0.295 HD
ENDBRANCH  90  94
ENDBRANCH  78  87
ENDBRANCH  74  77
ENDBRANCH  72  73
ENDBRANCH  71  72
ENDBRANCH   1  71
TORSDOF 15
ENDMDL
