MODEL 1
REMARK VINA RESULT:     -13.5      0.000      0.000
REMARK SMILES C[C@H]1N=c2ccc(OC(F)(F)F)cc2=C1CCN1C(=O)c2ccc(C(=O)NCCCNC(=O)c3ccc(-c4c5nc(c(-c6cc(S(=O)(=O)[O-])ccc6F)c6ccc([nH]6)c(-c6cc(S(=O)(=O)[O-])ccc6F)c6nc(c(-c7cc(S(=O)(=O)[O-])ccc7F)c7ccc4[nH]7)C=C6)C=C5)cc3)cc2C1=O
REMARK SMILES IDX 28 1 27 2 25 3 26 4 24 6 18 7 19 8 99 9 20 10 21 11 98 12
REMARK SMILES IDX 100 13 22 14 97 15 23 16 17 17 16 18 15 19 1 20 2 21 3 22
REMARK SMILES IDX 4 23 14 24 5 25 13 26 6 27 7 28 8 29 9 30 10 31 11 32 12 33
REMARK SMILES IDX 29 34 30 35 31 36 32 37 33 39 34 40 35 41 96 42 36 43 95 44
REMARK SMILES IDX 37 45 38 46 39 47 89 48 40 49 94 50 88 51 90 52 41 53 93 54
REMARK SMILES IDX 87 55 86 56 42 58 74 59 54 60 73 61 55 62 58 63 72 64 91 65
REMARK SMILES IDX 56 66 57 67 71 69 92 70 59 71 43 72 44 73 52 74 45 75 51 76
REMARK SMILES IDX 53 77 50 78 46 79 47 80 48 81 49 82 75 83 76 84 84 85 77 86
REMARK SMILES IDX 83 87 85 88 82 89 78 90 79 91 80 92 81 93 60 94 61 95 69 96
REMARK SMILES IDX 62 97 68 98 70 99 67 100 63 101 64 102 65 103 66 104
REMARK H PARENT 27 5 31 38 90 57 58 68
REMARK Flexibility Score: inf
ROOT
ATOM      1  C   UNL A   1      32.249  30.107  25.607  1.00  0.00     0.118 C 
ENDROOT
BRANCH   1   2
ATOM      2  N   UNL A   1      31.150  30.088  24.654  1.00  0.00    -0.352 N 
ATOM      3  C   UNL A   1      30.538  29.064  23.987  1.00  0.00     0.251 C 
ATOM      4  O   UNL A   1      29.497  29.280  23.370  1.00  0.00    -0.269 OA
ATOM      5  H   UNL A   1      30.778  30.978  24.453  1.00  0.00     0.163 HD
BRANCH   3   6
ATOM      6  C   UNL A   1      31.044  27.677  24.028  1.00  0.00     0.040 A 
ATOM      7  N   UNL A   1      32.013  23.411  25.396  1.00  0.00    -0.274 N 
ATOM      8  C   UNL A   1      32.515  23.763  24.171  1.00  0.00     0.261 C 
ATOM      9  C   UNL A   1      31.517  24.504  26.062  1.00  0.00     0.261 C 
ATOM     10  O   UNL A   1      33.116  23.084  23.359  1.00  0.00    -0.269 OA
ATOM     11  C   UNL A   1      32.172  25.167  23.966  1.00  0.00     0.053 A 
ATOM     12  C   UNL A   1      31.530  25.621  25.108  1.00  0.00     0.054 A 
ATOM     13  O   UNL A   1      31.101  24.589  27.197  1.00  0.00    -0.269 OA
ATOM     14  C   UNL A   1      32.318  25.952  22.840  1.00  0.00     0.015 A 
ATOM     15  C   UNL A   1      30.940  26.874  25.173  1.00  0.00     0.028 A 
ATOM     16  C   UNL A   1      31.754  27.230  22.885  1.00  0.00     0.015 A 
BRANCH   7  17
ATOM     17  C   UNL A   1      32.109  22.059  25.922  1.00  0.00     0.134 C 
BRANCH  17  18
ATOM     18  C   UNL A   1      31.855  20.905  24.934  1.00  0.00     0.056 C 
BRANCH  18  19
ATOM     19  C   UNL A   1      32.978  19.963  24.570  1.00  0.00    -0.035 C 
ATOM     20  C   UNL A   1      32.433  18.327  22.666  1.00  0.00     0.038 C 
ATOM     21  C   UNL A   1      32.728  18.525  24.154  1.00  0.00     0.129 C 
ATOM     22  N   UNL A   1      34.025  17.832  24.348  1.00  0.00    -0.277 NA
ATOM     23  C   UNL A   1      34.844  18.801  24.587  1.00  0.00     0.066 A 
ATOM     24  C   UNL A   1      34.291  20.153  24.765  1.00  0.00     0.005 A 
ATOM     25  C   UNL A   1      36.298  18.644  24.707  1.00  0.00     0.032 A 
ATOM     26  C   UNL A   1      35.140  21.229  25.189  1.00  0.00     0.057 A 
ATOM     27  C   UNL A   1      37.046  19.715  25.014  1.00  0.00     0.049 A 
ATOM     28  C   UNL A   1      36.469  21.026  25.309  1.00  0.00     0.130 A 
BRANCH  28  29
ATOM     29  O   UNL A   1      37.266  22.076  25.721  1.00  0.00    -0.406 OA
BRANCH  29  30
ATOM     30  C   UNL A   1      37.149  23.343  25.090  1.00  0.00     0.573 C 
ATOM     31  F   UNL A   1      38.177  24.155  25.415  1.00  0.00    -0.132 F 
ATOM     32  F   UNL A   1      37.092  23.204  23.747  1.00  0.00    -0.132 F 
ATOM     33  F   UNL A   1      36.004  23.931  25.497  1.00  0.00    -0.132 F 
ENDBRANCH  29  30
ENDBRANCH  28  29
ENDBRANCH  18  19
ENDBRANCH  17  18
ENDBRANCH   7  17
ENDBRANCH   3   6
ENDBRANCH   1   2
BRANCH   1  34
ATOM     34  C   UNL A   1      31.953  30.991  26.817  1.00  0.00     0.042 C 
BRANCH  34  35
ATOM     35  C   UNL A   1      33.091  31.911  27.262  1.00  0.00     0.118 C 
BRANCH  35  36
ATOM     36  N   UNL A   1      32.678  33.270  27.589  1.00  0.00    -0.352 N 
ATOM     37  C   UNL A   1      33.203  34.166  28.499  1.00  0.00     0.251 C 
ATOM     38  H   UNL A   1      31.902  33.601  27.081  1.00  0.00     0.163 HD
ATOM     39  O   UNL A   1      32.641  35.245  28.667  1.00  0.00    -0.269 OA
BRANCH  37  40
ATOM     40  C   UNL A   1      34.399  33.820  29.309  1.00  0.00     0.039 A 
ATOM     41  C   UNL A   1      35.664  34.313  28.992  1.00  0.00     0.014 A 
ATOM     42  C   UNL A   1      34.252  32.968  30.411  1.00  0.00     0.014 A 
ATOM     43  C   UNL A   1      36.790  33.793  29.626  1.00  0.00     0.010 A 
ATOM     44  C   UNL A   1      35.380  32.522  31.113  1.00  0.00     0.010 A 
ATOM     45  C   UNL A   1      36.668  32.875  30.683  1.00  0.00    -0.014 A 
BRANCH  45  46
ATOM     46  C   UNL A   1      37.899  32.300  31.302  1.00  0.00     0.031 A 
ATOM     47  C   UNL A   1      38.376  32.755  32.659  1.00  0.00     0.074 A 
ATOM     48  C   UNL A   1      38.552  31.304  30.671  1.00  0.00     0.049 A 
ATOM     49  N   UNL A   1      39.359  32.286  33.386  1.00  0.00    -0.248 NA
ATOM     50  C   UNL A   1      37.664  33.882  33.279  1.00  0.00     0.031 C 
ATOM     51  C   UNL A   1      38.198  30.782  29.352  1.00  0.00     0.029 A 
ATOM     52  N   UNL A   1      39.618  30.530  31.060  1.00  0.00    -0.354 N 
ATOM     53  C   UNL A   1      39.384  33.056  34.545  1.00  0.00     0.074 A 
ATOM     54  C   UNL A   1      38.355  34.060  34.397  1.00  0.00     0.031 C 
ATOM     55  C   UNL A   1      38.980  29.731  29.071  1.00  0.00     0.029 A 
ATOM     56  C   UNL A   1      39.940  29.543  30.157  1.00  0.00     0.049 A 
ATOM     57  H   UNL A   1      40.106  30.669  31.904  1.00  0.00     0.167 HD
ATOM     58  C   UNL A   1      40.171  32.922  35.642  1.00  0.00     0.034 A 
ATOM     59  C   UNL A   1      40.893  28.589  30.191  1.00  0.00     0.034 A 
ATOM     60  C   UNL A   1      41.195  31.916  35.782  1.00  0.00     0.049 A 
ATOM     61  C   UNL A   1      41.783  28.482  31.402  1.00  0.00     0.074 A 
ATOM     62  C   UNL A   1      42.031  31.691  36.862  1.00  0.00     0.029 A 
ATOM     63  N   UNL A   1      41.525  30.968  34.823  1.00  0.00    -0.354 N 
ATOM     64  N   UNL A   1      41.755  29.184  32.511  1.00  0.00    -0.248 NA
ATOM     65  C   UNL A   1      42.830  27.452  31.374  1.00  0.00     0.031 C 
ATOM     66  C   UNL A   1      42.909  30.657  36.531  1.00  0.00     0.029 A 
ATOM     67  C   UNL A   1      42.572  30.178  35.276  1.00  0.00     0.049 A 
ATOM     68  H   UNL A   1      41.083  30.870  33.949  1.00  0.00     0.167 HD
ATOM     69  C   UNL A   1      42.770  28.674  33.315  1.00  0.00     0.074 A 
ATOM     70  C   UNL A   1      43.367  27.578  32.580  1.00  0.00     0.031 C 
ATOM     71  C   UNL A   1      43.173  29.085  34.545  1.00  0.00     0.034 A 
BRANCH  58  72
ATOM     72  C   UNL A   1      39.957  33.872  36.801  1.00  0.00     0.023 A 
ATOM     73  C   UNL A   1      39.360  33.419  37.992  1.00  0.00     0.031 A 
ATOM     74  C   UNL A   1      40.237  35.246  36.683  1.00  0.00     0.131 A 
ATOM     75  C   UNL A   1      39.037  34.334  39.003  1.00  0.00     0.055 A 
ATOM     76  C   UNL A   1      39.957  36.146  37.712  1.00  0.00     0.041 A 
ATOM     77  F   UNL A   1      40.801  35.735  35.566  1.00  0.00    -0.206 F 
ATOM     78  C   UNL A   1      39.342  35.692  38.874  1.00  0.00     0.022 A 
BRANCH  75  79
ATOM     79  S   UNL A   1      38.145  33.812  40.495  1.00  0.00     0.124 S 
ATOM     80  O   UNL A   1      37.990  35.079  41.209  1.00  0.00    -0.237 OA
ATOM     81  O   UNL A   1      36.915  33.258  39.936  1.00  0.00    -0.237 OA
ATOM     82  O   UNL A   1      39.043  32.851  41.124  1.00  0.00    -0.744 OA
ENDBRANCH  75  79
ENDBRANCH  58  72
BRANCH  59  83
ATOM     83  C   UNL A   1      40.990  27.627  29.052  1.00  0.00     0.023 A 
ATOM     84  C   UNL A   1      41.955  27.800  28.042  1.00  0.00     0.031 A 
ATOM     85  C   UNL A   1      40.039  26.607  28.888  1.00  0.00     0.131 A 
ATOM     86  C   UNL A   1      41.887  27.030  26.875  1.00  0.00     0.055 A 
ATOM     87  C   UNL A   1      40.026  25.786  27.760  1.00  0.00     0.041 A 
ATOM     88  F   UNL A   1      39.092  26.408  29.818  1.00  0.00    -0.206 F 
ATOM     89  C   UNL A   1      40.940  26.011  26.734  1.00  0.00     0.022 A 
BRANCH  86  90
ATOM     90  S   UNL A   1      42.924  27.428  25.440  1.00  0.00     0.124 S 
ATOM     91  O   UNL A   1      44.161  27.878  26.072  1.00  0.00    -0.237 OA
ATOM     92  O   UNL A   1      42.995  26.138  24.759  1.00  0.00    -0.237 OA
ATOM     93  O   UNL A   1      42.162  28.458  24.740  1.00  0.00    -0.744 OA
ENDBRANCH  86  90
ENDBRANCH  59  83
BRANCH  71  94
ATOM     94  C   UNL A   1      44.333  28.369  35.202  1.00  0.00     0.023 A 
ATOM     95  C   UNL A   1      44.098  27.389  36.184  1.00  0.00     0.031 A 
ATOM     96  C   UNL A   1      45.665  28.751  34.955  1.00  0.00     0.131 A 
ATOM     97  C   UNL A   1      45.171  26.851  36.909  1.00  0.00     0.055 A 
ATOM     98  C   UNL A   1      46.734  28.174  35.641  1.00  0.00     0.041 A 
ATOM     99  F   UNL A   1      45.946  29.691  34.038  1.00  0.00    -0.206 F 
ATOM    100  C   UNL A   1      46.489  27.231  36.634  1.00  0.00     0.022 A 
BRANCH  97 101
ATOM    101  S   UNL A   1      44.893  25.714  38.295  1.00  0.00     0.124 S 
ATOM    102  O   UNL A   1      44.037  26.509  39.171  1.00  0.00    -0.237 OA
ATOM    103  O   UNL A   1      44.239  24.584  37.640  1.00  0.00    -0.237 OA
ATOM    104  O   UNL A   1      46.234  25.450  38.808  1.00  0.00    -0.744 OA
ENDBRANCH  97 101
ENDBRANCH  71  94
ENDBRANCH  45  46
ENDBRANCH  37  40
ENDBRANCH  35  36
ENDBRANCH  34  35
ENDBRANCH   1  34
TORSDOF 18
ENDMDL
MODEL 2
REMARK VINA RESULT:     -13.0      2.734      8.302
REMARK SMILES C[C@H]1N=c2ccc(OC(F)(F)F)cc2=C1CCN1C(=O)c2ccc(C(=O)NCCCNC(=O)c3ccc(-c4c5nc(c(-c6cc(S(=O)(=O)[O-])ccc6F)c6ccc([nH]6)c(-c6cc(S(=O)(=O)[O-])ccc6F)c6nc(c(-c7cc(S(=O)(=O)[O-])ccc7F)c7ccc4[nH]7)C=C6)C=C5)cc3)cc2C1=O
REMARK SMILES IDX 28 1 27 2 25 3 26 4 24 6 18 7 19 8 99 9 20 10 21 11 98 12
REMARK SMILES IDX 100 13 22 14 97 15 23 16 17 17 16 18 15 19 1 20 2 21 3 22
REMARK SMILES IDX 4 23 14 24 5 25 13 26 6 27 7 28 8 29 9 30 10 31 11 32 12 33
REMARK SMILES IDX 29 34 30 35 31 36 32 37 33 39 34 40 35 41 96 42 36 43 95 44
REMARK SMILES IDX 37 45 38 46 39 47 89 48 40 49 94 50 88 51 90 52 41 53 93 54
REMARK SMILES IDX 87 55 86 56 42 58 74 59 54 60 73 61 55 62 58 63 72 64 91 65
REMARK SMILES IDX 56 66 57 67 71 69 92 70 59 71 43 72 44 73 52 74 45 75 51 76
REMARK SMILES IDX 53 77 50 78 46 79 47 80 48 81 49 82 75 83 76 84 84 85 77 86
REMARK SMILES IDX 83 87 85 88 82 89 78 90 79 91 80 92 81 93 60 94 61 95 69 96
REMARK SMILES IDX 62 97 68 98 70 99 67 100 63 101 64 102 65 103 66 104
REMARK H PARENT 27 5 31 38 90 57 58 68
REMARK Flexibility Score: inf
ROOT
ATOM      1  C   UNL A   1      34.314  34.950  27.752  1.00  0.00     0.118 C 
ENDROOT
BRANCH   1   2
ATOM      2  N   UNL A   1      35.569  34.569  28.380  1.00  0.00    -0.352 N 
ATOM      3  C   UNL A   1      36.213  33.367  28.476  1.00  0.00     0.251 C 
ATOM      4  O   UNL A   1      37.367  33.330  28.899  1.00  0.00    -0.269 OA
ATOM      5  H   UNL A   1      36.043  35.314  28.817  1.00  0.00     0.163 HD
BRANCH   3   6
ATOM      6  C   UNL A   1      35.600  32.100  28.028  1.00  0.00     0.040 A 
ATOM      7  N   UNL A   1      32.590  28.987  26.525  1.00  0.00    -0.274 N 
ATOM      8  C   UNL A   1      33.842  28.507  26.800  1.00  0.00     0.261 C 
ATOM      9  C   UNL A   1      32.438  30.272  26.983  1.00  0.00     0.261 C 
ATOM     10  O   UNL A   1      34.295  27.390  26.633  1.00  0.00    -0.269 OA
ATOM     11  C   UNL A   1      34.610  29.626  27.341  1.00  0.00     0.053 A 
ATOM     12  C   UNL A   1      33.765  30.721  27.425  1.00  0.00     0.054 A 
ATOM     13  O   UNL A   1      31.444  30.966  27.014  1.00  0.00    -0.269 OA
ATOM     14  C   UNL A   1      35.955  29.707  27.636  1.00  0.00     0.015 A 
ATOM     15  C   UNL A   1      34.229  31.985  27.757  1.00  0.00     0.028 A 
ATOM     16  C   UNL A   1      36.447  30.964  27.997  1.00  0.00     0.015 A 
BRANCH   7  17
ATOM     17  C   UNL A   1      31.555  28.170  25.913  1.00  0.00     0.134 C 
BRANCH  17  18
ATOM     18  C   UNL A   1      31.558  28.076  24.375  1.00  0.00     0.056 C 
BRANCH  18  19
ATOM     19  C   UNL A   1      32.539  27.165  23.676  1.00  0.00    -0.035 C 
ATOM     20  C   UNL A   1      34.445  28.376  22.452  1.00  0.00     0.038 C 
ATOM     21  C   UNL A   1      33.178  27.526  22.348  1.00  0.00     0.129 C 
ATOM     22  N   UNL A   1      33.663  26.242  21.786  1.00  0.00    -0.277 NA
ATOM     23  C   UNL A   1      33.513  25.416  22.768  1.00  0.00     0.066 A 
ATOM     24  C   UNL A   1      32.808  25.885  23.971  1.00  0.00     0.005 A 
ATOM     25  C   UNL A   1      33.990  24.028  22.760  1.00  0.00     0.032 A 
ATOM     26  C   UNL A   1      32.477  24.961  25.018  1.00  0.00     0.057 A 
ATOM     27  C   UNL A   1      33.726  23.243  23.816  1.00  0.00     0.049 A 
ATOM     28  C   UNL A   1      32.918  23.687  24.951  1.00  0.00     0.130 A 
BRANCH  28  29
ATOM     29  O   UNL A   1      32.585  22.816  25.969  1.00  0.00    -0.406 OA
BRANCH  29  30
ATOM     30  C   UNL A   1      33.523  22.537  26.999  1.00  0.00     0.573 C 
ATOM     31  F   UNL A   1      34.536  23.429  27.002  1.00  0.00    -0.132 F 
ATOM     32  F   UNL A   1      32.918  22.538  28.207  1.00  0.00    -0.132 F 
ATOM     33  F   UNL A   1      34.045  21.308  26.795  1.00  0.00    -0.132 F 
ENDBRANCH  29  30
ENDBRANCH  28  29
ENDBRANCH  18  19
ENDBRANCH  17  18
ENDBRANCH   7  17
ENDBRANCH   3   6
ENDBRANCH   1   2
BRANCH   1  34
ATOM     34  C   UNL A   1      33.206  35.199  28.773  1.00  0.00     0.042 C 
BRANCH  34  35
ATOM     35  C   UNL A   1      33.388  36.429  29.665  1.00  0.00     0.118 C 
BRANCH  35  36
ATOM     36  N   UNL A   1      32.531  36.454  30.844  1.00  0.00    -0.352 N 
ATOM     37  C   UNL A   1      32.657  35.796  32.051  1.00  0.00     0.251 C 
ATOM     38  H   UNL A   1      31.737  37.032  30.766  1.00  0.00     0.163 HD
ATOM     39  O   UNL A   1      31.764  35.906  32.887  1.00  0.00    -0.269 OA
BRANCH  37  40
ATOM     40  C   UNL A   1      33.825  34.920  32.326  1.00  0.00     0.039 A 
ATOM     41  C   UNL A   1      33.675  33.666  32.917  1.00  0.00     0.014 A 
ATOM     42  C   UNL A   1      35.108  35.373  31.994  1.00  0.00     0.014 A 
ATOM     43  C   UNL A   1      34.796  32.974  33.368  1.00  0.00     0.010 A 
ATOM     44  C   UNL A   1      36.236  34.625  32.360  1.00  0.00     0.010 A 
ATOM     45  C   UNL A   1      36.094  33.450  33.114  1.00  0.00    -0.014 A 
BRANCH  45  46
ATOM     46  C   UNL A   1      37.268  32.708  33.659  1.00  0.00     0.031 A 
ATOM     47  C   UNL A   1      37.942  31.619  32.861  1.00  0.00     0.074 A 
ATOM     48  C   UNL A   1      37.782  33.068  34.852  1.00  0.00     0.049 A 
ATOM     49  N   UNL A   1      39.034  30.950  33.139  1.00  0.00    -0.248 NA
ATOM     50  C   UNL A   1      37.310  31.224  31.594  1.00  0.00     0.031 C 
ATOM     51  C   UNL A   1      37.218  34.097  35.724  1.00  0.00     0.029 A 
ATOM     52  N   UNL A   1      38.905  32.643  35.521  1.00  0.00    -0.354 N 
ATOM     53  C   UNL A   1      39.220  30.060  32.085  1.00  0.00     0.074 A 
ATOM     54  C   UNL A   1      38.095  30.234  31.193  1.00  0.00     0.031 C 
ATOM     55  C   UNL A   1      38.031  34.276  36.774  1.00  0.00     0.029 A 
ATOM     56  C   UNL A   1      39.141  33.329  36.690  1.00  0.00     0.049 A 
ATOM     57  H   UNL A   1      39.485  31.917  35.195  1.00  0.00     0.167 HD
ATOM     58  C   UNL A   1      40.244  29.199  31.865  1.00  0.00     0.034 A 
ATOM     59  C   UNL A   1      40.134  33.219  37.597  1.00  0.00     0.034 A 
ATOM     60  C   UNL A   1      41.364  29.033  32.760  1.00  0.00     0.049 A 
ATOM     61  C   UNL A   1      41.242  32.228  37.354  1.00  0.00     0.074 A 
ATOM     62  C   UNL A   1      42.459  28.198  32.615  1.00  0.00     0.029 A 
ATOM     63  N   UNL A   1      41.539  29.708  33.961  1.00  0.00    -0.354 N 
ATOM     64  N   UNL A   1      41.430  31.435  36.325  1.00  0.00    -0.248 NA
ATOM     65  C   UNL A   1      42.280  32.118  38.389  1.00  0.00     0.031 C 
ATOM     66  C   UNL A   1      43.256  28.317  33.754  1.00  0.00     0.029 A 
ATOM     67  C   UNL A   1      42.707  29.286  34.578  1.00  0.00     0.049 A 
ATOM     68  H   UNL A   1      40.924  30.387  34.322  1.00  0.00     0.167 HD
ATOM     69  C   UNL A   1      42.609  30.742  36.582  1.00  0.00     0.074 A 
ATOM     70  C   UNL A   1      43.112  31.239  37.846  1.00  0.00     0.031 C 
ATOM     71  C   UNL A   1      43.212  29.776  35.841  1.00  0.00     0.034 A 
BRANCH  58  72
ATOM     72  C   UNL A   1      40.230  28.370  30.599  1.00  0.00     0.023 A 
ATOM     73  C   UNL A   1      41.048  28.721  29.509  1.00  0.00     0.031 A 
ATOM     74  C   UNL A   1      39.323  27.307  30.430  1.00  0.00     0.131 A 
ATOM     75  C   UNL A   1      40.923  28.034  28.293  1.00  0.00     0.055 A 
ATOM     76  C   UNL A   1      39.236  26.596  29.233  1.00  0.00     0.041 A 
ATOM     77  F   UNL A   1      38.513  26.934  31.435  1.00  0.00    -0.206 F 
ATOM     78  C   UNL A   1      40.030  26.968  28.153  1.00  0.00     0.022 A 
BRANCH  75  79
ATOM     79  S   UNL A   1      41.861  28.542  26.825  1.00  0.00     0.124 S 
ATOM     80  O   UNL A   1      42.581  27.314  26.491  1.00  0.00    -0.237 OA
ATOM     81  O   UNL A   1      40.796  28.912  25.896  1.00  0.00    -0.237 OA
ATOM     82  O   UNL A   1      42.694  29.640  27.301  1.00  0.00    -0.744 OA
ENDBRANCH  75  79
ENDBRANCH  58  72
BRANCH  59  83
ATOM     83  C   UNL A   1      40.135  34.131  38.779  1.00  0.00     0.023 A 
ATOM     84  C   UNL A   1      40.761  35.390  38.718  1.00  0.00     0.031 A 
ATOM     85  C   UNL A   1      39.630  33.705  40.018  1.00  0.00     0.131 A 
ATOM     86  C   UNL A   1      40.949  36.132  39.890  1.00  0.00     0.055 A 
ATOM     87  C   UNL A   1      39.747  34.485  41.169  1.00  0.00     0.041 A 
ATOM     88  F   UNL A   1      39.033  32.508  40.130  1.00  0.00    -0.206 F 
ATOM     89  C   UNL A   1      40.430  35.697  41.113  1.00  0.00     0.022 A 
BRANCH  86  90
ATOM     90  S   UNL A   1      42.007  37.607  39.894  1.00  0.00     0.124 S 
ATOM     91  O   UNL A   1      42.877  37.356  41.040  1.00  0.00    -0.237 OA
ATOM     92  O   UNL A   1      42.647  37.514  38.584  1.00  0.00    -0.237 OA
ATOM     93  O   UNL A   1      41.063  38.708  40.047  1.00  0.00    -0.744 OA
ENDBRANCH  86  90
ENDBRANCH  59  83
BRANCH  71  94
ATOM     94  C   UNL A   1      44.489  29.156  36.363  1.00  0.00     0.023 A 
ATOM     95  C   UNL A   1      44.437  28.086  37.277  1.00  0.00     0.031 A 
ATOM     96  C   UNL A   1      45.748  29.710  36.066  1.00  0.00     0.131 A 
ATOM     97  C   UNL A   1      45.614  27.628  37.887  1.00  0.00     0.055 A 
ATOM     98  C   UNL A   1      46.922  29.216  36.635  1.00  0.00     0.041 A 
ATOM     99  F   UNL A   1      45.854  30.742  35.212  1.00  0.00    -0.206 F 
ATOM    100  C   UNL A   1      46.857  28.180  37.561  1.00  0.00     0.022 A 
BRANCH  97 101
ATOM    101  S   UNL A   1      45.567  26.368  39.191  1.00  0.00     0.124 S 
ATOM    102  O   UNL A   1      45.438  25.136  38.416  1.00  0.00    -0.237 OA
ATOM    103  O   UNL A   1      46.856  26.558  39.850  1.00  0.00    -0.237 OA
ATOM    104  O   UNL A   1      44.397  26.727  39.987  1.00  0.00    -0.744 OA
ENDBRANCH  97 101
ENDBRANCH  71  94
ENDBRANCH  45  46
ENDBRANCH  37  40
ENDBRANCH  35  36
ENDBRANCH  34  35
ENDBRANCH   1  34
TORSDOF 18
ENDMDL
MODEL 3
REMARK VINA RESULT:     -12.9      1.923      7.786
REMARK SMILES C[C@H]1N=c2ccc(OC(F)(F)F)cc2=C1CCN1C(=O)c2ccc(C(=O)NCCCNC(=O)c3ccc(-c4c5nc(c(-c6cc(S(=O)(=O)[O-])ccc6F)c6ccc([nH]6)c(-c6cc(S(=O)(=O)[O-])ccc6F)c6nc(c(-c7cc(S(=O)(=O)[O-])ccc7F)c7ccc4[nH]7)C=C6)C=C5)cc3)cc2C1=O
REMARK SMILES IDX 28 1 27 2 25 3 26 4 24 6 18 7 19 8 99 9 20 10 21 11 98 12
REMARK SMILES IDX 100 13 22 14 97 15 23 16 17 17 16 18 15 19 1 20 2 21 3 22
REMARK SMILES IDX 4 23 14 24 5 25 13 26 6 27 7 28 8 29 9 30 10 31 11 32 12 33
REMARK SMILES IDX 29 34 30 35 31 36 32 37 33 39 34 40 35 41 96 42 36 43 95 44
REMARK SMILES IDX 37 45 38 46 39 47 89 48 40 49 94 50 88 51 90 52 41 53 93 54
REMARK SMILES IDX 87 55 86 56 42 58 74 59 54 60 73 61 55 62 58 63 72 64 91 65
REMARK SMILES IDX 56 66 57 67 71 69 92 70 59 71 43 72 44 73 52 74 45 75 51 76
REMARK SMILES IDX 53 77 50 78 46 79 47 80 48 81 49 82 75 83 76 84 84 85 77 86
REMARK SMILES IDX 83 87 85 88 82 89 78 90 79 91 80 92 81 93 60 94 61 95 69 96
REMARK SMILES IDX 62 97 68 98 70 99 67 100 63 101 64 102 65 103 66 104
REMARK H PARENT 27 5 31 38 90 57 58 68
REMARK Flexibility Score: inf
ROOT
ATOM      1  C   UNL A   1      33.824  31.204  27.648  1.00  0.00     0.118 C 
ENDROOT
BRANCH   1   2
ATOM      2  N   UNL A   1      32.739  31.677  26.803  1.00  0.00    -0.352 N 
ATOM      3  C   UNL A   1      31.712  31.020  26.184  1.00  0.00     0.251 C 
ATOM      4  O   UNL A   1      30.802  31.668  25.671  1.00  0.00    -0.269 OA
ATOM      5  H   UNL A   1      32.746  32.649  26.648  1.00  0.00     0.163 HD
BRANCH   3   6
ATOM      6  C   UNL A   1      31.612  29.547  26.161  1.00  0.00     0.040 A 
ATOM      7  N   UNL A   1      31.080  25.219  24.749  1.00  0.00    -0.274 N 
ATOM      8  C   UNL A   1      31.281  25.376  26.094  1.00  0.00     0.261 C 
ATOM      9  C   UNL A   1      30.847  26.425  24.137  1.00  0.00     0.261 C 
ATOM     10  O   UNL A   1      31.416  24.531  26.959  1.00  0.00    -0.269 OA
ATOM     11  C   UNL A   1      31.338  26.814  26.343  1.00  0.00     0.053 A 
ATOM     12  C   UNL A   1      31.106  27.465  25.141  1.00  0.00     0.054 A 
ATOM     13  O   UNL A   1      30.525  26.657  22.991  1.00  0.00    -0.269 OA
ATOM     14  C   UNL A   1      31.666  27.494  27.498  1.00  0.00     0.015 A 
ATOM     15  C   UNL A   1      31.245  28.838  25.008  1.00  0.00     0.028 A 
ATOM     16  C   UNL A   1      31.790  28.882  27.400  1.00  0.00     0.015 A 
BRANCH   7  17
ATOM     17  C   UNL A   1      31.028  23.913  24.113  1.00  0.00     0.134 C 
BRANCH  17  18
ATOM     18  C   UNL A   1      32.241  23.505  23.254  1.00  0.00     0.056 C 
BRANCH  18  19
ATOM     19  C   UNL A   1      33.518  23.052  23.919  1.00  0.00    -0.035 C 
ATOM     20  C   UNL A   1      34.702  24.855  25.314  1.00  0.00     0.038 C 
ATOM     21  C   UNL A   1      34.722  23.964  24.071  1.00  0.00     0.129 C 
ATOM     22  N   UNL A   1      35.871  23.056  24.310  1.00  0.00    -0.277 NA
ATOM     23  C   UNL A   1      35.307  21.908  24.490  1.00  0.00     0.066 A 
ATOM     24  C   UNL A   1      33.860  21.798  24.248  1.00  0.00     0.005 A 
ATOM     25  C   UNL A   1      36.018  20.694  24.908  1.00  0.00     0.032 A 
ATOM     26  C   UNL A   1      33.220  20.514  24.279  1.00  0.00     0.057 A 
ATOM     27  C   UNL A   1      35.337  19.542  25.007  1.00  0.00     0.049 A 
ATOM     28  C   UNL A   1      33.925  19.422  24.645  1.00  0.00     0.130 A 
BRANCH  28  29
ATOM     29  O   UNL A   1      33.288  18.197  24.664  1.00  0.00    -0.406 OA
BRANCH  29  30
ATOM     30  C   UNL A   1      33.538  17.252  23.634  1.00  0.00     0.573 C 
ATOM     31  F   UNL A   1      34.857  17.005  23.496  1.00  0.00    -0.132 F 
ATOM     32  F   UNL A   1      32.886  16.095  23.882  1.00  0.00    -0.132 F 
ATOM     33  F   UNL A   1      33.078  17.747  22.465  1.00  0.00    -0.132 F 
ENDBRANCH  29  30
ENDBRANCH  28  29
ENDBRANCH  18  19
ENDBRANCH  17  18
ENDBRANCH   7  17
ENDBRANCH   3   6
ENDBRANCH   1   2
BRANCH   1  34
ATOM     34  C   UNL A   1      34.448  32.326  28.474  1.00  0.00     0.042 C 
BRANCH  34  35
ATOM     35  C   UNL A   1      34.145  33.748  27.998  1.00  0.00     0.118 C 
BRANCH  35  36
ATOM     36  N   UNL A   1      33.304  34.522  28.904  1.00  0.00    -0.352 N 
ATOM     37  C   UNL A   1      33.415  34.728  30.264  1.00  0.00     0.251 C 
ATOM     38  H   UNL A   1      32.537  34.969  28.477  1.00  0.00     0.163 HD
ATOM     39  O   UNL A   1      32.539  35.363  30.845  1.00  0.00    -0.269 OA
BRANCH  37  40
ATOM     40  C   UNL A   1      34.545  34.149  31.036  1.00  0.00     0.039 A 
ATOM     41  C   UNL A   1      35.854  34.595  30.859  1.00  0.00     0.014 A 
ATOM     42  C   UNL A   1      34.287  33.123  31.953  1.00  0.00     0.014 A 
ATOM     43  C   UNL A   1      36.910  33.883  31.422  1.00  0.00     0.010 A 
ATOM     44  C   UNL A   1      35.348  32.472  32.597  1.00  0.00     0.010 A 
ATOM     45  C   UNL A   1      36.676  32.798  32.285  1.00  0.00    -0.014 A 
BRANCH  45  46
ATOM     46  C   UNL A   1      37.834  32.028  32.827  1.00  0.00     0.031 A 
ATOM     47  C   UNL A   1      38.504  30.949  32.012  1.00  0.00     0.074 A 
ATOM     48  C   UNL A   1      38.337  32.353  34.034  1.00  0.00     0.049 A 
ATOM     49  N   UNL A   1      39.583  30.259  32.286  1.00  0.00    -0.248 NA
ATOM     50  C   UNL A   1      37.883  30.593  30.727  1.00  0.00     0.031 C 
ATOM     51  C   UNL A   1      37.775  33.368  34.923  1.00  0.00     0.029 A 
ATOM     52  N   UNL A   1      39.445  31.897  34.706  1.00  0.00    -0.354 N 
ATOM     53  C   UNL A   1      39.770  29.392  31.214  1.00  0.00     0.074 A 
ATOM     54  C   UNL A   1      38.660  29.602  30.312  1.00  0.00     0.031 C 
ATOM     55  C   UNL A   1      38.577  33.511  35.987  1.00  0.00     0.029 A 
ATOM     56  C   UNL A   1      39.675  32.552  35.895  1.00  0.00     0.049 A 
ATOM     57  H   UNL A   1      40.020  31.171  34.370  1.00  0.00     0.167 HD
ATOM     58  C   UNL A   1      40.786  28.523  30.987  1.00  0.00     0.034 A 
ATOM     59  C   UNL A   1      40.655  32.407  36.811  1.00  0.00     0.034 A 
ATOM     60  C   UNL A   1      41.892  28.321  31.891  1.00  0.00     0.049 A 
ATOM     61  C   UNL A   1      41.754  31.407  36.558  1.00  0.00     0.074 A 
ATOM     62  C   UNL A   1      42.978  27.475  31.739  1.00  0.00     0.029 A 
ATOM     63  N   UNL A   1      42.061  28.965  33.109  1.00  0.00    -0.354 N 
ATOM     64  N   UNL A   1      41.944  30.636  35.512  1.00  0.00    -0.248 NA
ATOM     65  C   UNL A   1      42.777  31.259  37.602  1.00  0.00     0.031 C 
ATOM     66  C   UNL A   1      43.762  27.556  32.891  1.00  0.00     0.029 A 
ATOM     67  C   UNL A   1      43.215  28.512  33.731  1.00  0.00     0.049 A 
ATOM     68  H   UNL A   1      41.450  29.643  33.479  1.00  0.00     0.167 HD
ATOM     69  C   UNL A   1      43.111  29.921  35.768  1.00  0.00     0.074 A 
ATOM     70  C   UNL A   1      43.604  30.382  37.049  1.00  0.00     0.031 C 
ATOM     71  C   UNL A   1      43.710  28.966  35.011  1.00  0.00     0.034 A 
BRANCH  58  72
ATOM     72  C   UNL A   1      40.777  27.724  29.701  1.00  0.00     0.023 A 
ATOM     73  C   UNL A   1      41.686  28.025  28.670  1.00  0.00     0.031 A 
ATOM     74  C   UNL A   1      39.795  26.748  29.452  1.00  0.00     0.131 A 
ATOM     75  C   UNL A   1      41.577  27.377  27.431  1.00  0.00     0.055 A 
ATOM     76  C   UNL A   1      39.719  26.072  28.234  1.00  0.00     0.041 A 
ATOM     77  F   UNL A   1      38.897  26.426  30.399  1.00  0.00    -0.206 F 
ATOM     78  C   UNL A   1      40.605  26.395  27.212  1.00  0.00     0.022 A 
BRANCH  75  79
ATOM     79  S   UNL A   1      42.641  27.831  26.034  1.00  0.00     0.124 S 
ATOM     80  O   UNL A   1      43.884  27.136  26.367  1.00  0.00    -0.237 OA
ATOM     81  O   UNL A   1      41.905  27.281  24.898  1.00  0.00    -0.237 OA
ATOM     82  O   UNL A   1      42.707  29.286  26.099  1.00  0.00    -0.744 OA
ENDBRANCH  75  79
ENDBRANCH  58  72
BRANCH  59  83
ATOM     83  C   UNL A   1      40.653  33.291  38.014  1.00  0.00     0.023 A 
ATOM     84  C   UNL A   1      39.798  33.028  39.101  1.00  0.00     0.031 A 
ATOM     85  C   UNL A   1      41.402  34.478  38.037  1.00  0.00     0.131 A 
ATOM     86  C   UNL A   1      39.644  33.982  40.114  1.00  0.00     0.055 A 
ATOM     87  C   UNL A   1      41.307  35.389  39.090  1.00  0.00     0.041 A 
ATOM     88  F   UNL A   1      42.224  34.780  37.020  1.00  0.00    -0.206 F 
ATOM     89  C   UNL A   1      40.407  35.154  40.125  1.00  0.00     0.022 A 
BRANCH  86  90
ATOM     90  S   UNL A   1      38.339  33.807  41.362  1.00  0.00     0.124 S 
ATOM     91  O   UNL A   1      38.328  35.129  41.980  1.00  0.00    -0.237 OA
ATOM     92  O   UNL A   1      37.179  33.487  40.533  1.00  0.00    -0.237 OA
ATOM     93  O   UNL A   1      38.815  32.717  42.208  1.00  0.00    -0.744 OA
ENDBRANCH  86  90
ENDBRANCH  59  83
BRANCH  71  94
ATOM     94  C   UNL A   1      44.973  28.317  35.535  1.00  0.00     0.023 A 
ATOM     95  C   UNL A   1      44.896  27.197  36.385  1.00  0.00     0.031 A 
ATOM     96  C   UNL A   1      46.239  28.886  35.304  1.00  0.00     0.131 A 
ATOM     97  C   UNL A   1      46.054  26.705  37.002  1.00  0.00     0.055 A 
ATOM     98  C   UNL A   1      47.397  28.359  35.879  1.00  0.00     0.041 A 
ATOM     99  F   UNL A   1      46.369  29.963  34.513  1.00  0.00    -0.206 F 
ATOM    100  C   UNL A   1      47.306  27.274  36.743  1.00  0.00     0.022 A 
BRANCH  97 101
ATOM    101  S   UNL A   1      45.971  25.374  38.232  1.00  0.00     0.124 S 
ATOM    102  O   UNL A   1      44.632  24.836  38.004  1.00  0.00    -0.237 OA
ATOM    103  O   UNL A   1      47.071  24.505  37.821  1.00  0.00    -0.237 OA
ATOM    104  O   UNL A   1      46.157  26.059  39.506  1.00  0.00    -0.744 OA
ENDBRANCH  97 101
ENDBRANCH  71  94
ENDBRANCH  45  46
ENDBRANCH  37  40
ENDBRANCH  35  36
ENDBRANCH  34  35
ENDBRANCH   1  34
TORSDOF 18
ENDMDL
