MODEL 1
REMARK VINA RESULT:     -12.3      0.000      0.000
REMARK SMILES C[C@H](c1ccccc1F)N(C)c1cccc(F)c1C(=O)NCCCNC(=O)c1ccc(-c2c3nc(c(-c4cc(S(=O)(=O)[O-])ccc4F)c4ccc([nH]4)c(-c4cc(S(=O)(=O)[O-])ccc4F)c4nc(c(-c5cc(S(=O)(=O)[O-])ccc5F)c5ccc2[nH]5)C=C4)C=C3)cc1
REMARK SMILES IDX 23 1 22 2 21 3 19 4 20 5 18 7 12 8 13 9 14 10 16 11 15 12
REMARK SMILES IDX 17 13 10 14 11 15 2 16 1 17 3 18 4 19 8 20 5 21 7 22 9 23
REMARK SMILES IDX 6 24 24 25 25 26 26 27 27 29 28 30 29 31 90 32 30 33 89 34
REMARK SMILES IDX 31 35 32 36 33 37 83 38 34 39 88 40 82 41 84 42 35 43 87 44
REMARK SMILES IDX 81 45 80 46 36 48 68 49 48 50 67 51 49 52 52 53 66 54 85 55
REMARK SMILES IDX 50 56 51 57 65 59 86 60 53 61 37 62 38 63 46 64 39 65 45 66
REMARK SMILES IDX 47 67 44 68 40 69 41 70 42 71 43 72 69 73 70 74 78 75 71 76
REMARK SMILES IDX 77 77 79 78 76 79 72 80 73 81 74 82 75 83 54 84 55 85 63 86
REMARK SMILES IDX 56 87 62 88 64 89 61 90 57 91 58 92 59 93 60 94
REMARK H PARENT 21 6 25 28 84 47 52 58
REMARK Flexibility Score: inf
ROOT
ATOM      1  C   UNL A   1      33.759  29.145  24.393  1.00  0.00     0.042 C 
ENDROOT
BRANCH   1   2
ATOM      2  C   UNL A   1      33.271  29.118  22.951  1.00  0.00     0.118 C 
BRANCH   2   3
ATOM      3  N   UNL A   1      33.666  27.950  22.168  1.00  0.00    -0.352 N 
ATOM      4  C   UNL A   1      33.113  26.679  22.083  1.00  0.00     0.256 C 
ATOM      5  O   UNL A   1      33.479  25.962  21.153  1.00  0.00    -0.269 OA
ATOM      6  H   UNL A   1      34.460  28.087  21.602  1.00  0.00     0.163 HD
BRANCH   4   7
ATOM      7  C   UNL A   1      32.173  26.169  23.119  1.00  0.00     0.098 A 
ATOM      8  C   UNL A   1      32.589  25.341  24.189  1.00  0.00     0.053 A 
ATOM      9  C   UNL A   1      31.682  25.180  25.261  1.00  0.00     0.027 A 
ATOM     10  C   UNL A   1      30.374  25.659  25.221  1.00  0.00     0.005 A 
ATOM     11  C   UNL A   1      30.819  26.522  23.033  1.00  0.00     0.138 A 
ATOM     12  C   UNL A   1      29.928  26.293  24.077  1.00  0.00     0.040 A 
ATOM     13  F   UNL A   1      30.329  27.101  21.925  1.00  0.00    -0.206 F 
BRANCH   8  14
ATOM     14  N   UNL A   1      33.787  24.629  24.250  1.00  0.00    -0.367 N 
ATOM     15  C   UNL A   1      34.824  25.060  25.170  1.00  0.00     0.144 C 
BRANCH  14  16
ATOM     16  C   UNL A   1      34.030  23.458  23.362  1.00  0.00     0.112 C 
ATOM     17  C   UNL A   1      32.717  22.875  22.826  1.00  0.00     0.036 C 
BRANCH  16  18
ATOM     18  C   UNL A   1      34.999  22.472  24.004  1.00  0.00     0.010 A 
ATOM     19  C   UNL A   1      34.470  21.403  24.760  1.00  0.00     0.009 A 
ATOM     20  C   UNL A   1      36.382  22.491  23.791  1.00  0.00     0.128 A 
ATOM     21  C   UNL A   1      35.289  20.371  25.223  1.00  0.00     0.001 A 
ATOM     22  C   UNL A   1      37.204  21.460  24.250  1.00  0.00     0.039 A 
ATOM     23  F   UNL A   1      36.963  23.474  23.091  1.00  0.00    -0.207 F 
ATOM     24  C   UNL A   1      36.656  20.391  24.955  1.00  0.00     0.003 A 
ENDBRANCH  16  18
ENDBRANCH  14  16
ENDBRANCH   8  14
ENDBRANCH   4   7
ENDBRANCH   2   3
ENDBRANCH   1   2
BRANCH   1  25
ATOM     25  C   UNL A   1      32.685  29.095  25.468  1.00  0.00     0.118 C 
BRANCH  25  26
ATOM     26  N   UNL A   1      32.287  30.404  25.965  1.00  0.00    -0.352 N 
ATOM     27  C   UNL A   1      32.849  31.232  26.913  1.00  0.00     0.251 C 
ATOM     28  H   UNL A   1      31.469  30.763  25.549  1.00  0.00     0.163 HD
ATOM     29  O   UNL A   1      32.237  32.239  27.258  1.00  0.00    -0.269 OA
BRANCH  27  30
ATOM     30  C   UNL A   1      34.151  30.909  27.547  1.00  0.00     0.039 A 
ATOM     31  C   UNL A   1      35.087  31.933  27.729  1.00  0.00     0.014 A 
ATOM     32  C   UNL A   1      34.473  29.609  27.938  1.00  0.00     0.014 A 
ATOM     33  C   UNL A   1      36.295  31.669  28.384  1.00  0.00     0.010 A 
ATOM     34  C   UNL A   1      35.627  29.368  28.680  1.00  0.00     0.010 A 
ATOM     35  C   UNL A   1      36.553  30.394  28.913  1.00  0.00    -0.014 A 
BRANCH  35  36
ATOM     36  C   UNL A   1      37.784  30.108  29.702  1.00  0.00     0.031 A 
ATOM     37  C   UNL A   1      38.871  29.242  29.120  1.00  0.00     0.074 A 
ATOM     38  C   UNL A   1      37.895  30.574  30.962  1.00  0.00     0.049 A 
ATOM     39  N   UNL A   1      39.965  28.798  29.684  1.00  0.00    -0.248 NA
ATOM     40  C   UNL A   1      38.690  28.792  27.730  1.00  0.00     0.031 C 
ATOM     41  C   UNL A   1      36.899  31.397  31.651  1.00  0.00     0.029 A 
ATOM     42  N   UNL A   1      38.896  30.424  31.892  1.00  0.00    -0.354 N 
ATOM     43  C   UNL A   1      40.592  28.009  28.727  1.00  0.00     0.074 A 
ATOM     44  C   UNL A   1      39.728  27.984  27.568  1.00  0.00     0.031 C 
ATOM     45  C   UNL A   1      37.356  31.714  32.873  1.00  0.00     0.029 A 
ATOM     46  C   UNL A   1      38.651  31.074  33.080  1.00  0.00     0.049 A 
ATOM     47  H   UNL A   1      39.712  29.900  31.723  1.00  0.00     0.167 HD
ATOM     48  C   UNL A   1      41.794  27.386  28.797  1.00  0.00     0.034 A 
ATOM     49  C   UNL A   1      39.378  31.141  34.213  1.00  0.00     0.034 A 
ATOM     50  C   UNL A   1      42.661  27.442  29.947  1.00  0.00     0.049 A 
ATOM     51  C   UNL A   1      40.693  30.411  34.282  1.00  0.00     0.074 A 
ATOM     52  C   UNL A   1      43.919  26.887  30.099  1.00  0.00     0.029 A 
ATOM     53  N   UNL A   1      42.362  28.089  31.137  1.00  0.00    -0.354 N 
ATOM     54  N   UNL A   1      41.275  29.677  33.363  1.00  0.00    -0.248 NA
ATOM     55  C   UNL A   1      41.449  30.517  35.537  1.00  0.00     0.031 C 
ATOM     56  C   UNL A   1      44.352  27.141  31.403  1.00  0.00     0.029 A 
ATOM     57  C   UNL A   1      43.400  27.920  32.040  1.00  0.00     0.049 A 
ATOM     58  H   UNL A   1      41.536  28.593  31.315  1.00  0.00     0.167 HD
ATOM     59  C   UNL A   1      42.476  29.251  33.921  1.00  0.00     0.074 A 
ATOM     60  C   UNL A   1      42.538  29.813  35.255  1.00  0.00     0.031 C 
ATOM     61  C   UNL A   1      43.443  28.473  33.372  1.00  0.00     0.034 A 
BRANCH  48  62
ATOM     62  C   UNL A   1      42.239  26.583  27.601  1.00  0.00     0.023 A 
ATOM     63  C   UNL A   1      41.921  25.220  27.471  1.00  0.00     0.031 A 
ATOM     64  C   UNL A   1      42.972  27.193  26.568  1.00  0.00     0.131 A 
ATOM     65  C   UNL A   1      42.374  24.501  26.356  1.00  0.00     0.055 A 
ATOM     66  C   UNL A   1      43.361  26.488  25.428  1.00  0.00     0.041 A 
ATOM     67  F   UNL A   1      43.319  28.487  26.647  1.00  0.00    -0.206 F 
ATOM     68  C   UNL A   1      43.070  25.131  25.320  1.00  0.00     0.022 A 
BRANCH  65  69
ATOM     69  S   UNL A   1      42.116  22.706  26.317  1.00  0.00     0.124 S 
ATOM     70  O   UNL A   1      42.689  22.356  25.019  1.00  0.00    -0.237 OA
ATOM     71  O   UNL A   1      42.858  22.253  27.487  1.00  0.00    -0.237 OA
ATOM     72  O   UNL A   1      40.664  22.567  26.407  1.00  0.00    -0.744 OA
ENDBRANCH  65  69
ENDBRANCH  48  62
BRANCH  49  73
ATOM     73  C   UNL A   1      38.873  31.928  35.372  1.00  0.00     0.023 A 
ATOM     74  C   UNL A   1      38.251  31.295  36.458  1.00  0.00     0.031 A 
ATOM     75  C   UNL A   1      39.031  33.326  35.422  1.00  0.00     0.131 A 
ATOM     76  C   UNL A   1      37.795  32.059  37.545  1.00  0.00     0.055 A 
ATOM     77  C   UNL A   1      38.611  34.076  36.521  1.00  0.00     0.041 A 
ATOM     78  F   UNL A   1      39.630  33.977  34.412  1.00  0.00    -0.206 F 
ATOM     79  C   UNL A   1      37.984  33.443  37.589  1.00  0.00     0.022 A 
BRANCH  76  80
ATOM     80  S   UNL A   1      36.931  31.220  38.901  1.00  0.00     0.124 S 
ATOM     81  O   UNL A   1      36.787  29.869  38.370  1.00  0.00    -0.237 OA
ATOM     82  O   UNL A   1      37.869  31.379  40.007  1.00  0.00    -0.237 OA
ATOM     83  O   UNL A   1      35.687  31.977  39.030  1.00  0.00    -0.744 OA
ENDBRANCH  76  80
ENDBRANCH  49  73
BRANCH  61  84
ATOM     84  C   UNL A   1      44.672  28.199  34.198  1.00  0.00     0.023 A 
ATOM     85  C   UNL A   1      45.774  29.069  34.187  1.00  0.00     0.031 A 
ATOM     86  C   UNL A   1      44.710  27.086  35.056  1.00  0.00     0.131 A 
ATOM     87  C   UNL A   1      46.881  28.799  35.005  1.00  0.00     0.055 A 
ATOM     88  C   UNL A   1      45.793  26.849  35.903  1.00  0.00     0.041 A 
ATOM     89  F   UNL A   1      43.679  26.226  35.105  1.00  0.00    -0.206 F 
ATOM     90  C   UNL A   1      46.888  27.705  35.876  1.00  0.00     0.022 A 
BRANCH  87  91
ATOM     91  S   UNL A   1      48.332  29.881  34.894  1.00  0.00     0.124 S 
ATOM     92  O   UNL A   1      49.400  28.926  34.613  1.00  0.00    -0.237 OA
ATOM     93  O   UNL A   1      47.975  30.778  33.800  1.00  0.00    -0.237 OA
ATOM     94  O   UNL A   1      48.394  30.509  36.212  1.00  0.00    -0.744 OA
ENDBRANCH  87  91
ENDBRANCH  61  84
ENDBRANCH  35  36
ENDBRANCH  27  30
ENDBRANCH  25  26
ENDBRANCH   1  25
TORSDOF 16
ENDMDL
MODEL 2
REMARK VINA RESULT:     -12.2      1.749      2.167
REMARK SMILES C[C@H](c1ccccc1F)N(C)c1cccc(F)c1C(=O)NCCCNC(=O)c1ccc(-c2c3nc(c(-c4cc(S(=O)(=O)[O-])ccc4F)c4ccc([nH]4)c(-c4cc(S(=O)(=O)[O-])ccc4F)c4nc(c(-c5cc(S(=O)(=O)[O-])ccc5F)c5ccc2[nH]5)C=C4)C=C3)cc1
REMARK SMILES IDX 23 1 22 2 21 3 19 4 20 5 18 7 12 8 13 9 14 10 16 11 15 12
REMARK SMILES IDX 17 13 10 14 11 15 2 16 1 17 3 18 4 19 8 20 5 21 7 22 9 23
REMARK SMILES IDX 6 24 24 25 25 26 26 27 27 29 28 30 29 31 90 32 30 33 89 34
REMARK SMILES IDX 31 35 32 36 33 37 83 38 34 39 88 40 82 41 84 42 35 43 87 44
REMARK SMILES IDX 81 45 80 46 36 48 68 49 48 50 67 51 49 52 52 53 66 54 85 55
REMARK SMILES IDX 50 56 51 57 65 59 86 60 53 61 37 62 38 63 46 64 39 65 45 66
REMARK SMILES IDX 47 67 44 68 40 69 41 70 42 71 43 72 69 73 70 74 78 75 71 76
REMARK SMILES IDX 77 77 79 78 76 79 72 80 73 81 74 82 75 83 54 84 55 85 63 86
REMARK SMILES IDX 56 87 62 88 64 89 61 90 57 91 58 92 59 93 60 94
REMARK H PARENT 21 6 25 28 84 47 52 58
REMARK Flexibility Score: inf
ROOT
ATOM      1  C   UNL A   1      32.734  29.464  24.813  1.00  0.00     0.042 C 
ENDROOT
BRANCH   1   2
ATOM      2  C   UNL A   1      33.795  28.374  24.774  1.00  0.00     0.118 C 
BRANCH   2   3
ATOM      3  N   UNL A   1      34.066  27.795  23.460  1.00  0.00    -0.352 N 
ATOM      4  C   UNL A   1      33.227  27.166  22.551  1.00  0.00     0.256 C 
ATOM      5  O   UNL A   1      33.650  27.003  21.407  1.00  0.00    -0.269 OA
ATOM      6  H   UNL A   1      35.004  27.863  23.170  1.00  0.00     0.163 HD
BRANCH   4   7
ATOM      7  C   UNL A   1      31.896  26.635  22.957  1.00  0.00     0.098 A 
ATOM      8  C   UNL A   1      31.727  25.357  23.541  1.00  0.00     0.053 A 
ATOM      9  C   UNL A   1      30.483  25.097  24.158  1.00  0.00     0.027 A 
ATOM     10  C   UNL A   1      29.398  25.967  24.065  1.00  0.00     0.005 A 
ATOM     11  C   UNL A   1      30.762  27.434  22.753  1.00  0.00     0.138 A 
ATOM     12  C   UNL A   1      29.528  27.121  23.317  1.00  0.00     0.040 A 
ATOM     13  F   UNL A   1      30.827  28.542  21.999  1.00  0.00    -0.206 F 
BRANCH   8  14
ATOM     14  N   UNL A   1      32.657  24.319  23.511  1.00  0.00    -0.367 N 
ATOM     15  C   UNL A   1      33.000  23.708  22.239  1.00  0.00     0.144 C 
BRANCH  14  16
ATOM     16  C   UNL A   1      33.275  23.805  24.765  1.00  0.00     0.112 C 
ATOM     17  C   UNL A   1      34.535  24.594  25.137  1.00  0.00     0.036 C 
BRANCH  16  18
ATOM     18  C   UNL A   1      33.411  22.286  24.730  1.00  0.00     0.010 A 
ATOM     19  C   UNL A   1      34.703  21.728  24.626  1.00  0.00     0.009 A 
ATOM     20  C   UNL A   1      32.339  21.406  24.916  1.00  0.00     0.128 A 
ATOM     21  C   UNL A   1      34.910  20.354  24.766  1.00  0.00     0.001 A 
ATOM     22  C   UNL A   1      32.541  20.032  25.060  1.00  0.00     0.039 A 
ATOM     23  F   UNL A   1      31.081  21.856  25.017  1.00  0.00    -0.207 F 
ATOM     24  C   UNL A   1      33.829  19.506  24.999  1.00  0.00     0.003 A 
ENDBRANCH  16  18
ENDBRANCH  14  16
ENDBRANCH   8  14
ENDBRANCH   4   7
ENDBRANCH   2   3
ENDBRANCH   1   2
BRANCH   1  25
ATOM     25  C   UNL A   1      32.192  29.828  26.186  1.00  0.00     0.118 C 
BRANCH  25  26
ATOM     26  N   UNL A   1      32.093  31.262  26.419  1.00  0.00    -0.352 N 
ATOM     27  C   UNL A   1      32.885  32.126  27.145  1.00  0.00     0.251 C 
ATOM     28  H   UNL A   1      31.323  31.691  25.981  1.00  0.00     0.163 HD
ATOM     29  O   UNL A   1      32.508  33.284  27.303  1.00  0.00    -0.269 OA
BRANCH  27  30
ATOM     30  C   UNL A   1      34.156  31.676  27.763  1.00  0.00     0.039 A 
ATOM     31  C   UNL A   1      35.150  32.623  28.033  1.00  0.00     0.014 A 
ATOM     32  C   UNL A   1      34.393  30.333  28.055  1.00  0.00     0.014 A 
ATOM     33  C   UNL A   1      36.331  32.235  28.676  1.00  0.00     0.010 A 
ATOM     34  C   UNL A   1      35.520  29.965  28.787  1.00  0.00     0.010 A 
ATOM     35  C   UNL A   1      36.504  30.910  29.107  1.00  0.00    -0.014 A 
BRANCH  35  36
ATOM     36  C   UNL A   1      37.703  30.489  29.882  1.00  0.00     0.031 A 
ATOM     37  C   UNL A   1      38.731  29.585  29.253  1.00  0.00     0.074 A 
ATOM     38  C   UNL A   1      37.836  30.867  31.170  1.00  0.00     0.049 A 
ATOM     39  N   UNL A   1      39.785  29.030  29.794  1.00  0.00    -0.248 NA
ATOM     40  C   UNL A   1      38.532  29.235  27.837  1.00  0.00     0.031 C 
ATOM     41  C   UNL A   1      36.895  31.716  31.904  1.00  0.00     0.029 A 
ATOM     42  N   UNL A   1      38.815  30.589  32.093  1.00  0.00    -0.354 N 
ATOM     43  C   UNL A   1      40.364  28.258  28.793  1.00  0.00     0.074 A 
ATOM     44  C   UNL A   1      39.511  28.367  27.630  1.00  0.00     0.031 C 
ATOM     45  C   UNL A   1      37.362  31.923  33.144  1.00  0.00     0.029 A 
ATOM     46  C   UNL A   1      38.606  31.181  33.318  1.00  0.00     0.049 A 
ATOM     47  H   UNL A   1      39.594  30.019  31.896  1.00  0.00     0.167 HD
ATOM     48  C   UNL A   1      41.518  27.548  28.830  1.00  0.00     0.034 A 
ATOM     49  C   UNL A   1      39.325  31.126  34.457  1.00  0.00     0.034 A 
ATOM     50  C   UNL A   1      42.376  27.470  29.985  1.00  0.00     0.049 A 
ATOM     51  C   UNL A   1      40.585  30.301  34.487  1.00  0.00     0.074 A 
ATOM     52  C   UNL A   1      43.590  26.819  30.108  1.00  0.00     0.029 A 
ATOM     53  N   UNL A   1      42.113  28.062  31.212  1.00  0.00    -0.354 N 
ATOM     54  N   UNL A   1      41.122  29.585  33.526  1.00  0.00    -0.248 NA
ATOM     55  C   UNL A   1      41.335  30.275  35.749  1.00  0.00     0.031 C 
ATOM     56  C   UNL A   1      44.028  26.960  31.428  1.00  0.00     0.029 A 
ATOM     57  C   UNL A   1      43.127  27.765  32.107  1.00  0.00     0.049 A 
ATOM     58  H   UNL A   1      41.323  28.613  31.417  1.00  0.00     0.167 HD
ATOM     59  C   UNL A   1      42.284  29.041  34.063  1.00  0.00     0.074 A 
ATOM     60  C   UNL A   1      42.373  29.513  35.430  1.00  0.00     0.031 C 
ATOM     61  C   UNL A   1      43.198  28.230  33.472  1.00  0.00     0.034 A 
BRANCH  48  62
ATOM     62  C   UNL A   1      41.916  26.790  27.588  1.00  0.00     0.023 A 
ATOM     63  C   UNL A   1      41.720  25.402  27.480  1.00  0.00     0.031 A 
ATOM     64  C   UNL A   1      42.478  27.466  26.492  1.00  0.00     0.131 A 
ATOM     65  C   UNL A   1      42.126  24.728  26.319  1.00  0.00     0.055 A 
ATOM     66  C   UNL A   1      42.816  26.800  25.313  1.00  0.00     0.041 A 
ATOM     67  F   UNL A   1      42.705  28.788  26.547  1.00  0.00    -0.206 F 
ATOM     68  C   UNL A   1      42.649  25.421  25.224  1.00  0.00     0.022 A 
BRANCH  65  69
ATOM     69  S   UNL A   1      42.039  22.917  26.292  1.00  0.00     0.124 S 
ATOM     70  O   UNL A   1      40.599  22.691  26.392  1.00  0.00    -0.237 OA
ATOM     71  O   UNL A   1      42.650  22.589  25.008  1.00  0.00    -0.237 OA
ATOM     72  O   UNL A   1      42.809  22.519  27.468  1.00  0.00    -0.744 OA
ENDBRANCH  65  69
ENDBRANCH  48  62
BRANCH  49  73
ATOM     73  C   UNL A   1      38.868  31.875  35.660  1.00  0.00     0.023 A 
ATOM     74  C   UNL A   1      38.168  31.228  36.689  1.00  0.00     0.031 A 
ATOM     75  C   UNL A   1      39.147  33.246  35.809  1.00  0.00     0.131 A 
ATOM     76  C   UNL A   1      37.758  31.954  37.820  1.00  0.00     0.055 A 
ATOM     77  C   UNL A   1      38.772  33.954  36.952  1.00  0.00     0.041 A 
ATOM     78  F   UNL A   1      39.823  33.907  34.857  1.00  0.00    -0.206 F 
ATOM     79  C   UNL A   1      38.068  33.309  37.963  1.00  0.00     0.022 A 
BRANCH  76  80
ATOM     80  S   UNL A   1      36.794  31.105  39.100  1.00  0.00     0.124 S 
ATOM     81  O   UNL A   1      35.618  31.962  39.204  1.00  0.00    -0.237 OA
ATOM     82  O   UNL A   1      36.582  29.791  38.502  1.00  0.00    -0.237 OA
ATOM     83  O   UNL A   1      37.684  31.121  40.260  1.00  0.00    -0.744 OA
ENDBRANCH  76  80
ENDBRANCH  49  73
BRANCH  61  84
ATOM     84  C   UNL A   1      44.396  27.819  34.285  1.00  0.00     0.023 A 
ATOM     85  C   UNL A   1      44.415  26.619  35.014  1.00  0.00     0.031 A 
ATOM     86  C   UNL A   1      45.558  28.611  34.276  1.00  0.00     0.131 A 
ATOM     87  C   UNL A   1      45.568  26.253  35.723  1.00  0.00     0.055 A 
ATOM     88  C   UNL A   1      46.719  28.219  34.943  1.00  0.00     0.041 A 
ATOM     89  F   UNL A   1      45.592  29.766  33.591  1.00  0.00    -0.206 F 
ATOM     90  C   UNL A   1      46.725  27.037  35.676  1.00  0.00     0.022 A 
BRANCH  87  91
ATOM     91  S   UNL A   1      45.529  24.752  36.739  1.00  0.00     0.124 S 
ATOM     92  O   UNL A   1      44.387  24.037  36.176  1.00  0.00    -0.237 OA
ATOM     93  O   UNL A   1      46.840  24.163  36.482  1.00  0.00    -0.237 OA
ATOM     94  O   UNL A   1      45.335  25.260  38.095  1.00  0.00    -0.744 OA
ENDBRANCH  87  91
ENDBRANCH  61  84
ENDBRANCH  35  36
ENDBRANCH  27  30
ENDBRANCH  25  26
ENDBRANCH   1  25
TORSDOF 16
ENDMDL
MODEL 3
REMARK VINA RESULT:     -12.2      1.989      7.808
REMARK SMILES C[C@H](c1ccccc1F)N(C)c1cccc(F)c1C(=O)NCCCNC(=O)c1ccc(-c2c3nc(c(-c4cc(S(=O)(=O)[O-])ccc4F)c4ccc([nH]4)c(-c4cc(S(=O)(=O)[O-])ccc4F)c4nc(c(-c5cc(S(=O)(=O)[O-])ccc5F)c5ccc2[nH]5)C=C4)C=C3)cc1
REMARK SMILES IDX 23 1 22 2 21 3 19 4 20 5 18 7 12 8 13 9 14 10 16 11 15 12
REMARK SMILES IDX 17 13 10 14 11 15 2 16 1 17 3 18 4 19 8 20 5 21 7 22 9 23
REMARK SMILES IDX 6 24 24 25 25 26 26 27 27 29 28 30 29 31 90 32 30 33 89 34
REMARK SMILES IDX 31 35 32 36 33 37 83 38 34 39 88 40 82 41 84 42 35 43 87 44
REMARK SMILES IDX 81 45 80 46 36 48 68 49 48 50 67 51 49 52 52 53 66 54 85 55
REMARK SMILES IDX 50 56 51 57 65 59 86 60 53 61 37 62 38 63 46 64 39 65 45 66
REMARK SMILES IDX 47 67 44 68 40 69 41 70 42 71 43 72 69 73 70 74 78 75 71 76
REMARK SMILES IDX 77 77 79 78 76 79 72 80 73 81 74 82 75 83 54 84 55 85 63 86
REMARK SMILES IDX 56 87 62 88 64 89 61 90 57 91 58 92 59 93 60 94
REMARK H PARENT 21 6 25 28 84 47 52 58
REMARK Flexibility Score: inf
ROOT
ATOM      1  C   UNL A   1      31.763  29.084  27.180  1.00  0.00     0.042 C 
ENDROOT
BRANCH   1   2
ATOM      2  C   UNL A   1      32.026  27.587  27.099  1.00  0.00     0.118 C 
BRANCH   2   3
ATOM      3  N   UNL A   1      30.843  26.738  26.985  1.00  0.00    -0.352 N 
ATOM      4  C   UNL A   1      30.438  25.867  25.982  1.00  0.00     0.256 C 
ATOM      5  O   UNL A   1      29.534  25.077  26.247  1.00  0.00    -0.269 OA
ATOM      6  H   UNL A   1      30.227  26.791  27.750  1.00  0.00     0.163 HD
BRANCH   4   7
ATOM      7  C   UNL A   1      31.018  25.936  24.611  1.00  0.00     0.098 A 
ATOM      8  C   UNL A   1      31.861  24.928  24.086  1.00  0.00     0.053 A 
ATOM      9  C   UNL A   1      32.090  24.951  22.691  1.00  0.00     0.027 A 
ATOM     10  C   UNL A   1      31.663  25.996  21.874  1.00  0.00     0.005 A 
ATOM     11  C   UNL A   1      30.716  27.044  23.807  1.00  0.00     0.138 A 
ATOM     12  C   UNL A   1      31.013  27.072  22.447  1.00  0.00     0.040 A 
ATOM     13  F   UNL A   1      30.124  28.130  24.327  1.00  0.00    -0.206 F 
BRANCH   8  14
ATOM     14  N   UNL A   1      32.526  23.953  24.828  1.00  0.00    -0.367 N 
ATOM     15  C   UNL A   1      31.918  22.644  24.989  1.00  0.00     0.144 C 
BRANCH  14  16
ATOM     16  C   UNL A   1      33.829  24.246  25.487  1.00  0.00     0.112 C 
ATOM     17  C   UNL A   1      34.193  25.731  25.380  1.00  0.00     0.036 C 
BRANCH  16  18
ATOM     18  C   UNL A   1      34.901  23.251  25.053  1.00  0.00     0.010 A 
ATOM     19  C   UNL A   1      35.520  23.433  23.798  1.00  0.00     0.009 A 
ATOM     20  C   UNL A   1      35.395  22.234  25.877  1.00  0.00     0.128 A 
ATOM     21  C   UNL A   1      36.626  22.668  23.420  1.00  0.00     0.001 A 
ATOM     22  C   UNL A   1      36.501  21.468  25.505  1.00  0.00     0.039 A 
ATOM     23  F   UNL A   1      34.858  21.992  27.080  1.00  0.00    -0.207 F 
ATOM     24  C   UNL A   1      37.127  21.694  24.281  1.00  0.00     0.003 A 
ENDBRANCH  16  18
ENDBRANCH  14  16
ENDBRANCH   8  14
ENDBRANCH   4   7
ENDBRANCH   2   3
ENDBRANCH   1   2
BRANCH   1  25
ATOM     25  C   UNL A   1      32.567  29.961  26.234  1.00  0.00     0.118 C 
BRANCH  25  26
ATOM     26  N   UNL A   1      32.541  31.376  26.577  1.00  0.00    -0.352 N 
ATOM     27  C   UNL A   1      33.388  32.146  27.345  1.00  0.00     0.251 C 
ATOM     28  H   UNL A   1      31.783  31.872  26.193  1.00  0.00     0.163 HD
ATOM     29  O   UNL A   1      33.069  33.303  27.600  1.00  0.00    -0.269 OA
BRANCH  27  30
ATOM     30  C   UNL A   1      34.651  31.593  27.895  1.00  0.00     0.039 A 
ATOM     31  C   UNL A   1      35.741  32.450  28.081  1.00  0.00     0.014 A 
ATOM     32  C   UNL A   1      34.783  30.239  28.203  1.00  0.00     0.014 A 
ATOM     33  C   UNL A   1      36.920  31.968  28.659  1.00  0.00     0.010 A 
ATOM     34  C   UNL A   1      35.917  29.783  28.874  1.00  0.00     0.010 A 
ATOM     35  C   UNL A   1      37.000  30.640  29.110  1.00  0.00    -0.014 A 
BRANCH  35  36
ATOM     36  C   UNL A   1      38.203  30.125  29.820  1.00  0.00     0.031 A 
ATOM     37  C   UNL A   1      38.524  30.608  31.211  1.00  0.00     0.074 A 
ATOM     38  C   UNL A   1      39.040  29.273  29.193  1.00  0.00     0.049 A 
ATOM     39  N   UNL A   1      39.572  30.357  31.952  1.00  0.00    -0.248 NA
ATOM     40  C   UNL A   1      37.551  31.516  31.840  1.00  0.00     0.031 C 
ATOM     41  C   UNL A   1      38.857  28.755  27.836  1.00  0.00     0.029 A 
ATOM     42  N   UNL A   1      40.212  28.691  29.612  1.00  0.00    -0.354 N 
ATOM     43  C   UNL A   1      39.393  31.084  33.123  1.00  0.00     0.074 A 
ATOM     44  C   UNL A   1      38.166  31.834  32.970  1.00  0.00     0.031 C 
ATOM     45  C   UNL A   1      39.854  27.902  27.551  1.00  0.00     0.029 A 
ATOM     46  C   UNL A   1      40.777  27.852  28.679  1.00  0.00     0.049 A 
ATOM     47  H   UNL A   1      40.609  28.860  30.497  1.00  0.00     0.167 HD
ATOM     48  C   UNL A   1      40.165  31.102  34.237  1.00  0.00     0.034 A 
ATOM     49  C   UNL A   1      41.915  27.130  28.720  1.00  0.00     0.034 A 
ATOM     50  C   UNL A   1      41.371  30.327  34.390  1.00  0.00     0.049 A 
ATOM     51  C   UNL A   1      42.777  27.193  29.953  1.00  0.00     0.074 A 
ATOM     52  C   UNL A   1      42.197  30.237  35.496  1.00  0.00     0.029 A 
ATOM     53  N   UNL A   1      41.921  29.512  33.412  1.00  0.00    -0.354 N 
ATOM     54  N   UNL A   1      42.586  27.879  31.056  1.00  0.00    -0.248 NA
ATOM     55  C   UNL A   1      44.005  26.387  29.950  1.00  0.00     0.031 C 
ATOM     56  C   UNL A   1      43.282  29.420  35.164  1.00  0.00     0.029 A 
ATOM     57  C   UNL A   1      43.093  28.939  33.879  1.00  0.00     0.049 A 
ATOM     58  H   UNL A   1      41.537  29.361  32.518  1.00  0.00     0.167 HD
ATOM     59  C   UNL A   1      43.659  27.571  31.885  1.00  0.00     0.074 A 
ATOM     60  C   UNL A   1      44.492  26.634  31.159  1.00  0.00     0.031 C 
ATOM     61  C   UNL A   1      43.923  28.018  33.140  1.00  0.00     0.034 A 
BRANCH  48  62
ATOM     62  C   UNL A   1      39.736  31.992  35.375  1.00  0.00     0.023 A 
ATOM     63  C   UNL A   1      38.912  31.516  36.410  1.00  0.00     0.031 A 
ATOM     64  C   UNL A   1      40.172  33.327  35.439  1.00  0.00     0.131 A 
ATOM     65  C   UNL A   1      38.513  32.381  37.439  1.00  0.00     0.055 A 
ATOM     66  C   UNL A   1      39.828  34.163  36.502  1.00  0.00     0.041 A 
ATOM     67  F   UNL A   1      40.945  33.839  34.468  1.00  0.00    -0.206 F 
ATOM     68  C   UNL A   1      38.987  33.695  37.506  1.00  0.00     0.022 A 
BRANCH  65  69
ATOM     69  S   UNL A   1      37.296  31.791  38.647  1.00  0.00     0.124 S 
ATOM     70  O   UNL A   1      36.190  32.720  38.425  1.00  0.00    -0.237 OA
ATOM     71  O   UNL A   1      37.069  30.415  38.223  1.00  0.00    -0.237 OA
ATOM     72  O   UNL A   1      37.982  31.945  39.928  1.00  0.00    -0.744 OA
ENDBRANCH  65  69
ENDBRANCH  48  62
BRANCH  49  73
ATOM     73  C   UNL A   1      42.302  26.289  27.554  1.00  0.00     0.023 A 
ATOM     74  C   UNL A   1      41.943  24.934  27.491  1.00  0.00     0.031 A 
ATOM     75  C   UNL A   1      43.014  26.836  26.470  1.00  0.00     0.131 A 
ATOM     76  C   UNL A   1      42.309  24.165  26.374  1.00  0.00     0.055 A 
ATOM     77  C   UNL A   1      43.341  26.078  25.345  1.00  0.00     0.041 A 
ATOM     78  F   UNL A   1      43.371  28.130  26.478  1.00  0.00    -0.206 F 
ATOM     79  C   UNL A   1      42.992  24.732  25.295  1.00  0.00     0.022 A 
BRANCH  76  80
ATOM     80  S   UNL A   1      41.892  22.399  26.355  1.00  0.00     0.124 S 
ATOM     81  O   UNL A   1      40.441  22.439  26.222  1.00  0.00    -0.237 OA
ATOM     82  O   UNL A   1      42.632  21.923  25.192  1.00  0.00    -0.237 OA
ATOM     83  O   UNL A   1      42.389  21.921  27.644  1.00  0.00    -0.744 OA
ENDBRANCH  76  80
ENDBRANCH  49  73
BRANCH  61  84
ATOM     84  C   UNL A   1      45.149  27.481  33.828  1.00  0.00     0.023 A 
ATOM     85  C   UNL A   1      45.115  26.289  34.569  1.00  0.00     0.031 A 
ATOM     86  C   UNL A   1      46.383  28.141  33.686  1.00  0.00     0.131 A 
ATOM     87  C   UNL A   1      46.291  25.801  35.159  1.00  0.00     0.055 A 
ATOM     88  C   UNL A   1      47.558  27.627  34.233  1.00  0.00     0.041 A 
ATOM     89  F   UNL A   1      46.468  29.284  32.984  1.00  0.00    -0.206 F 
ATOM     90  C   UNL A   1      47.514  26.453  34.979  1.00  0.00     0.022 A 
BRANCH  87  91
ATOM     91  S   UNL A   1      46.197  24.317  36.195  1.00  0.00     0.124 S 
ATOM     92  O   UNL A   1      44.808  24.347  36.641  1.00  0.00    -0.237 OA
ATOM     93  O   UNL A   1      46.543  23.254  35.256  1.00  0.00    -0.237 OA
ATOM     94  O   UNL A   1      47.189  24.564  37.239  1.00  0.00    -0.744 OA
ENDBRANCH  87  91
ENDBRANCH  61  84
ENDBRANCH  35  36
ENDBRANCH  27  30
ENDBRANCH  25  26
ENDBRANCH   1  25
TORSDOF 16
ENDMDL
