MODEL 1
REMARK VINA RESULT:     -13.7      0.000      0.000
REMARK SMILES CCC(=O)N1CCC[C@](C[C@H]2CC(c3ccc(C)cc3)=NO2)(C(=O)NCCCNC(=O)c2ccc(-c3c4nc(c(-c5cc(S(=O)(=O)[O-])ccc5F)c5ccc([nH]5)c(-c5cc(S(=O)(=O)[O-])ccc5F)c5nc(c(-c6cc(S(=O)(=O)[O-])ccc6F)c6ccc3[nH]6)C=C5)C=C4)cc2)C1
REMARK SMILES IDX 27 1 26 2 25 3 23 4 24 5 9 7 5 8 6 9 95 10 7 11 8 12 3 13
REMARK SMILES IDX 4 14 2 15 1 16 10 17 11 18 12 19 22 20 13 21 21 22 14 23
REMARK SMILES IDX 15 24 20 25 16 26 19 27 17 28 18 29 28 30 29 31 30 32 31 34
REMARK SMILES IDX 32 35 33 36 94 37 34 38 93 39 35 40 36 41 37 42 87 43 38 44
REMARK SMILES IDX 92 45 86 46 88 47 39 48 91 49 85 50 84 51 40 53 72 54 52 55
REMARK SMILES IDX 71 56 53 57 56 58 70 59 89 60 54 61 55 62 69 64 90 65 57 66
REMARK SMILES IDX 41 67 42 68 50 69 43 70 49 71 51 72 48 73 44 74 45 75 46 76
REMARK SMILES IDX 47 77 73 78 74 79 82 80 75 81 81 82 83 83 80 84 76 85 77 86
REMARK SMILES IDX 78 87 79 88 58 89 59 90 67 91 60 92 66 93 68 94 65 95 61 96
REMARK SMILES IDX 62 97 63 98 64 99
REMARK H PARENT 25 6 29 33 88 52 56 63
REMARK Flexibility Score: inf
ROOT
ATOM      1  C   UNL A   1      33.115  31.353  27.277  1.00  0.00     0.042 C 
ENDROOT
BRANCH   1   2
ATOM      2  C   UNL A   1      32.357  30.386  26.366  1.00  0.00     0.117 C 
BRANCH   2   3
ATOM      3  N   UNL A   1      31.846  29.234  27.108  1.00  0.00    -0.355 N 
ATOM      4  C   UNL A   1      31.566  27.932  26.852  1.00  0.00     0.228 C 
ATOM      5  O   UNL A   1      30.883  27.396  27.735  1.00  0.00    -0.274 OA
ATOM      6  H   UNL A   1      31.653  29.467  28.045  1.00  0.00     0.163 HD
BRANCH   4   7
ATOM      7  C   UNL A   1      32.100  27.070  25.649  1.00  0.00     0.070 C 
ATOM      8  N   UNL A   1      30.517  28.084  23.908  1.00  0.00    -0.342 N 
ATOM      9  C   UNL A   1      29.750  26.848  23.823  1.00  0.00     0.119 C 
ATOM     10  C   UNL A   1      31.907  27.929  24.354  1.00  0.00     0.136 C 
ATOM     11  C   UNL A   1      29.779  26.066  25.126  1.00  0.00     0.023 C 
ATOM     12  C   UNL A   1      31.218  25.801  25.573  1.00  0.00     0.021 C 
BRANCH   8  13
ATOM     13  C   UNL A   1      29.905  29.257  23.491  1.00  0.00     0.222 C 
ATOM     14  O   UNL A   1      30.038  30.312  24.124  1.00  0.00    -0.275 OA
BRANCH  13  15
ATOM     15  C   UNL A   1      28.881  29.240  22.359  1.00  0.00     0.097 C 
ATOM     16  C   UNL A   1      27.548  29.933  22.554  1.00  0.00     0.014 C 
ENDBRANCH  13  15
ENDBRANCH   8  13
BRANCH   7  17
ATOM     17  C   UNL A   1      33.599  26.690  25.828  1.00  0.00     0.067 C 
BRANCH  17  18
ATOM     18  C   UNL A   1      34.390  25.711  24.946  1.00  0.00     0.211 C 
ATOM     19  C   UNL A   1      34.426  24.270  25.399  1.00  0.00     0.108 C 
ATOM     20  O   UNL A   1      33.991  25.724  23.578  1.00  0.00    -0.392 OA
ATOM     21  C   UNL A   1      33.797  23.644  24.212  1.00  0.00     0.091 C 
ATOM     22  N   UNL A   1      33.599  24.420  23.198  1.00  0.00    -0.090 NA
BRANCH  21  23
ATOM     23  C   UNL A   1      33.509  22.208  24.194  1.00  0.00    -0.001 A 
ATOM     24  C   UNL A   1      34.238  21.332  24.998  1.00  0.00     0.010 A 
ATOM     25  C   UNL A   1      32.499  21.736  23.355  1.00  0.00     0.010 A 
ATOM     26  C   UNL A   1      33.952  19.967  24.962  1.00  0.00     0.004 A 
ATOM     27  C   UNL A   1      32.231  20.368  23.307  1.00  0.00     0.004 A 
ATOM     28  C   UNL A   1      32.949  19.475  24.116  1.00  0.00    -0.051 A 
ATOM     29  C   UNL A   1      32.653  18.005  24.052  1.00  0.00     0.044 C 
ENDBRANCH  21  23
ENDBRANCH  17  18
ENDBRANCH   7  17
ENDBRANCH   4   7
ENDBRANCH   2   3
ENDBRANCH   1   2
BRANCH   1  30
ATOM     30  C   UNL A   1      34.418  30.772  27.819  1.00  0.00     0.118 C 
BRANCH  30  31
ATOM     31  N   UNL A   1      35.044  31.587  28.858  1.00  0.00    -0.352 N 
ATOM     32  C   UNL A   1      36.168  31.284  29.617  1.00  0.00     0.251 C 
ATOM     33  H   UNL A   1      34.619  32.456  29.040  1.00  0.00     0.163 HD
ATOM     34  O   UNL A   1      36.585  32.022  30.483  1.00  0.00    -0.269 OA
BRANCH  32  35
ATOM     35  C   UNL A   1      36.911  30.054  29.253  1.00  0.00     0.039 A 
ATOM     36  C   UNL A   1      37.088  29.099  30.258  1.00  0.00     0.014 A 
ATOM     37  C   UNL A   1      37.658  30.017  28.079  1.00  0.00     0.014 A 
ATOM     38  C   UNL A   1      38.182  28.240  30.187  1.00  0.00     0.010 A 
ATOM     39  C   UNL A   1      38.794  29.230  28.056  1.00  0.00     0.010 A 
ATOM     40  C   UNL A   1      39.095  28.394  29.144  1.00  0.00    -0.014 A 
BRANCH  40  41
ATOM     41  C   UNL A   1      40.452  27.854  29.193  1.00  0.00     0.031 A 
ATOM     42  C   UNL A   1      40.735  26.465  28.777  1.00  0.00     0.074 A 
ATOM     43  C   UNL A   1      41.481  28.648  29.563  1.00  0.00     0.049 A 
ATOM     44  N   UNL A   1      41.805  25.811  29.085  1.00  0.00    -0.248 NA
ATOM     45  C   UNL A   1      39.775  25.668  28.030  1.00  0.00     0.031 C 
ATOM     46  C   UNL A   1      42.908  28.388  29.397  1.00  0.00     0.029 A 
ATOM     47  N   UNL A   1      41.425  29.737  30.434  1.00  0.00    -0.354 N 
ATOM     48  C   UNL A   1      41.819  24.649  28.347  1.00  0.00     0.074 A 
ATOM     49  C   UNL A   1      40.489  24.565  27.794  1.00  0.00     0.031 C 
ATOM     50  C   UNL A   1      43.583  29.077  30.327  1.00  0.00     0.029 A 
ATOM     51  C   UNL A   1      42.606  29.693  31.206  1.00  0.00     0.049 A 
ATOM     52  H   UNL A   1      40.704  30.405  30.497  1.00  0.00     0.167 HD
ATOM     53  C   UNL A   1      42.996  23.975  28.192  1.00  0.00     0.034 A 
ATOM     54  C   UNL A   1      42.553  29.560  32.563  1.00  0.00     0.034 A 
ATOM     55  C   UNL A   1      44.044  24.501  29.080  1.00  0.00     0.049 A 
ATOM     56  C   UNL A   1      43.237  28.316  33.095  1.00  0.00     0.074 A 
ATOM     57  C   UNL A   1      45.182  25.272  28.909  1.00  0.00     0.029 A 
ATOM     58  N   UNL A   1      43.852  24.418  30.449  1.00  0.00    -0.354 N 
ATOM     59  N   UNL A   1      43.797  27.405  32.345  1.00  0.00    -0.248 NA
ATOM     60  C   UNL A   1      43.263  27.955  34.514  1.00  0.00     0.031 C 
ATOM     61  C   UNL A   1      45.649  25.671  30.200  1.00  0.00     0.029 A 
ATOM     62  C   UNL A   1      44.805  25.128  31.150  1.00  0.00     0.049 A 
ATOM     63  H   UNL A   1      43.120  23.912  30.872  1.00  0.00     0.167 HD
ATOM     64  C   UNL A   1      44.178  26.344  33.123  1.00  0.00     0.074 A 
ATOM     65  C   UNL A   1      43.832  26.738  34.477  1.00  0.00     0.031 C 
ATOM     66  C   UNL A   1      44.702  25.196  32.602  1.00  0.00     0.034 A 
BRANCH  53  67
ATOM     67  C   UNL A   1      43.286  22.992  27.068  1.00  0.00     0.023 A 
ATOM     68  C   UNL A   1      42.717  21.700  27.130  1.00  0.00     0.031 A 
ATOM     69  C   UNL A   1      44.142  23.204  25.969  1.00  0.00     0.131 A 
ATOM     70  C   UNL A   1      43.074  20.688  26.216  1.00  0.00     0.055 A 
ATOM     71  C   UNL A   1      44.536  22.187  25.088  1.00  0.00     0.041 A 
ATOM     72  F   UNL A   1      44.603  24.412  25.640  1.00  0.00    -0.206 F 
ATOM     73  C   UNL A   1      44.012  20.916  25.216  1.00  0.00     0.022 A 
BRANCH  70  74
ATOM     74  S   UNL A   1      42.299  19.053  26.353  1.00  0.00     0.124 S 
ATOM     75  O   UNL A   1      42.345  18.809  27.790  1.00  0.00    -0.237 OA
ATOM     76  O   UNL A   1      40.981  19.292  25.777  1.00  0.00    -0.237 OA
ATOM     77  O   UNL A   1      43.174  18.197  25.553  1.00  0.00    -0.744 OA
ENDBRANCH  70  74
ENDBRANCH  53  67
BRANCH  54  78
ATOM     78  C   UNL A   1      41.361  30.235  33.157  1.00  0.00     0.023 A 
ATOM     79  C   UNL A   1      41.421  31.643  33.268  1.00  0.00     0.031 A 
ATOM     80  C   UNL A   1      40.102  29.627  33.220  1.00  0.00     0.131 A 
ATOM     81  C   UNL A   1      40.246  32.405  33.233  1.00  0.00     0.055 A 
ATOM     82  C   UNL A   1      38.930  30.391  33.285  1.00  0.00     0.041 A 
ATOM     83  F   UNL A   1      39.972  28.299  33.089  1.00  0.00    -0.206 F 
ATOM     84  C   UNL A   1      38.996  31.786  33.239  1.00  0.00     0.022 A 
BRANCH  81  85
ATOM     85  S   UNL A   1      40.379  34.179  32.854  1.00  0.00     0.124 S 
ATOM     86  O   UNL A   1      40.480  34.181  31.401  1.00  0.00    -0.237 OA
ATOM     87  O   UNL A   1      39.140  34.726  33.406  1.00  0.00    -0.237 OA
ATOM     88  O   UNL A   1      41.580  34.597  33.574  1.00  0.00    -0.744 OA
ENDBRANCH  81  85
ENDBRANCH  54  78
BRANCH  66  89
ATOM     89  C   UNL A   1      45.125  24.026  33.450  1.00  0.00     0.023 A 
ATOM     90  C   UNL A   1      46.447  23.873  33.900  1.00  0.00     0.031 A 
ATOM     91  C   UNL A   1      44.228  22.985  33.772  1.00  0.00     0.131 A 
ATOM     92  C   UNL A   1      46.815  22.766  34.684  1.00  0.00     0.055 A 
ATOM     93  C   UNL A   1      44.618  21.844  34.479  1.00  0.00     0.041 A 
ATOM     94  F   UNL A   1      42.928  23.052  33.453  1.00  0.00    -0.206 F 
ATOM     95  C   UNL A   1      45.916  21.733  34.951  1.00  0.00     0.022 A 
BRANCH  92  96
ATOM     96  S   UNL A   1      48.469  22.733  35.424  1.00  0.00     0.124 S 
ATOM     97  O   UNL A   1      48.181  22.717  36.853  1.00  0.00    -0.237 OA
ATOM     98  O   UNL A   1      49.012  21.493  34.873  1.00  0.00    -0.237 OA
ATOM     99  O   UNL A   1      49.094  23.956  34.928  1.00  0.00    -0.744 OA
ENDBRANCH  92  96
ENDBRANCH  66  89
ENDBRANCH  40  41
ENDBRANCH  32  35
ENDBRANCH  30  31
ENDBRANCH   1  30
TORSDOF 18
ENDMDL
MODEL 2
REMARK VINA RESULT:     -12.8      1.651      2.081
REMARK SMILES CCC(=O)N1CCC[C@](C[C@H]2CC(c3ccc(C)cc3)=NO2)(C(=O)NCCCNC(=O)c2ccc(-c3c4nc(c(-c5cc(S(=O)(=O)[O-])ccc5F)c5ccc([nH]5)c(-c5cc(S(=O)(=O)[O-])ccc5F)c5nc(c(-c6cc(S(=O)(=O)[O-])ccc6F)c6ccc3[nH]6)C=C5)C=C4)cc2)C1
REMARK SMILES IDX 27 1 26 2 25 3 23 4 24 5 9 7 5 8 6 9 95 10 7 11 8 12 3 13
REMARK SMILES IDX 4 14 2 15 1 16 10 17 11 18 12 19 22 20 13 21 21 22 14 23
REMARK SMILES IDX 15 24 20 25 16 26 19 27 17 28 18 29 28 30 29 31 30 32 31 34
REMARK SMILES IDX 32 35 33 36 94 37 34 38 93 39 35 40 36 41 37 42 87 43 38 44
REMARK SMILES IDX 92 45 86 46 88 47 39 48 91 49 85 50 84 51 40 53 72 54 52 55
REMARK SMILES IDX 71 56 53 57 56 58 70 59 89 60 54 61 55 62 69 64 90 65 57 66
REMARK SMILES IDX 41 67 42 68 50 69 43 70 49 71 51 72 48 73 44 74 45 75 46 76
REMARK SMILES IDX 47 77 73 78 74 79 82 80 75 81 81 82 83 83 80 84 76 85 77 86
REMARK SMILES IDX 78 87 79 88 58 89 59 90 67 91 60 92 66 93 68 94 65 95 61 96
REMARK SMILES IDX 62 97 63 98 64 99
REMARK H PARENT 25 6 29 33 88 52 56 63
REMARK Flexibility Score: inf
ROOT
ATOM      1  C   UNL A   1      33.760  29.233  27.644  1.00  0.00     0.042 C 
ENDROOT
BRANCH   1   2
ATOM      2  C   UNL A   1      32.935  28.409  26.655  1.00  0.00     0.117 C 
BRANCH   2   3
ATOM      3  N   UNL A   1      31.885  29.211  26.028  1.00  0.00    -0.355 N 
ATOM      4  C   UNL A   1      31.360  29.367  24.788  1.00  0.00     0.228 C 
ATOM      5  O   UNL A   1      30.653  30.378  24.680  1.00  0.00    -0.274 OA
ATOM      6  H   UNL A   1      31.440  29.796  26.684  1.00  0.00     0.163 HD
BRANCH   4   7
ATOM      7  C   UNL A   1      31.482  28.368  23.578  1.00  0.00     0.070 C 
ATOM      8  N   UNL A   1      28.969  28.278  23.088  1.00  0.00    -0.342 N 
ATOM      9  C   UNL A   1      28.878  26.909  23.582  1.00  0.00     0.119 C 
ATOM     10  C   UNL A   1      30.295  28.683  22.607  1.00  0.00     0.136 C 
ATOM     11  C   UNL A   1      29.916  26.618  24.653  1.00  0.00     0.023 C 
ATOM     12  C   UNL A   1      31.325  26.939  24.151  1.00  0.00     0.021 C 
BRANCH   8  13
ATOM     13  C   UNL A   1      27.803  29.029  23.042  1.00  0.00     0.222 C 
ATOM     14  O   UNL A   1      26.702  28.524  23.299  1.00  0.00    -0.275 OA
BRANCH  13  15
ATOM     15  C   UNL A   1      27.812  30.443  22.468  1.00  0.00     0.097 C 
ATOM     16  C   UNL A   1      27.687  31.626  23.407  1.00  0.00     0.014 C 
ENDBRANCH  13  15
ENDBRANCH   8  13
BRANCH   7  17
ATOM     17  C   UNL A   1      32.842  28.519  22.837  1.00  0.00     0.067 C 
BRANCH  17  18
ATOM     18  C   UNL A   1      33.822  27.380  22.517  1.00  0.00     0.211 C 
ATOM     19  C   UNL A   1      33.979  26.305  23.568  1.00  0.00     0.108 C 
ATOM     20  O   UNL A   1      33.561  26.732  21.274  1.00  0.00    -0.392 OA
ATOM     21  C   UNL A   1      33.545  25.138  22.765  1.00  0.00     0.091 C 
ATOM     22  N   UNL A   1      33.360  25.352  21.504  1.00  0.00    -0.090 NA
BRANCH  21  23
ATOM     23  C   UNL A   1      33.426  23.814  23.381  1.00  0.00    -0.001 A 
ATOM     24  C   UNL A   1      32.174  23.313  23.738  1.00  0.00     0.010 A 
ATOM     25  C   UNL A   1      34.585  23.072  23.608  1.00  0.00     0.010 A 
ATOM     26  C   UNL A   1      32.082  22.052  24.328  1.00  0.00     0.004 A 
ATOM     27  C   UNL A   1      34.490  21.821  24.219  1.00  0.00     0.004 A 
ATOM     28  C   UNL A   1      33.238  21.298  24.574  1.00  0.00    -0.051 A 
ATOM     29  C   UNL A   1      33.150  19.953  25.233  1.00  0.00     0.044 C 
ENDBRANCH  21  23
ENDBRANCH  17  18
ENDBRANCH   7  17
ENDBRANCH   4   7
ENDBRANCH   2   3
ENDBRANCH   1   2
BRANCH   1  30
ATOM     30  C   UNL A   1      34.415  30.456  27.010  1.00  0.00     0.118 C 
BRANCH  30  31
ATOM     31  N   UNL A   1      34.965  31.404  27.977  1.00  0.00    -0.352 N 
ATOM     32  C   UNL A   1      36.014  31.204  28.866  1.00  0.00     0.251 C 
ATOM     33  H   UNL A   1      34.541  32.292  28.000  1.00  0.00     0.163 HD
ATOM     34  O   UNL A   1      36.368  32.052  29.655  1.00  0.00    -0.269 OA
BRANCH  32  35
ATOM     35  C   UNL A   1      36.764  29.931  28.741  1.00  0.00     0.039 A 
ATOM     36  C   UNL A   1      36.936  29.180  29.908  1.00  0.00     0.014 A 
ATOM     37  C   UNL A   1      37.519  29.679  27.600  1.00  0.00     0.014 A 
ATOM     38  C   UNL A   1      38.033  28.328  30.004  1.00  0.00     0.010 A 
ATOM     39  C   UNL A   1      38.658  28.907  27.731  1.00  0.00     0.010 A 
ATOM     40  C   UNL A   1      38.953  28.289  28.957  1.00  0.00    -0.014 A 
BRANCH  40  41
ATOM     41  C   UNL A   1      40.312  27.774  29.115  1.00  0.00     0.031 A 
ATOM     42  C   UNL A   1      40.632  26.364  28.814  1.00  0.00     0.074 A 
ATOM     43  C   UNL A   1      41.312  28.607  29.481  1.00  0.00     0.049 A 
ATOM     44  N   UNL A   1      41.691  25.748  29.223  1.00  0.00    -0.248 NA
ATOM     45  C   UNL A   1      39.721  25.501  28.077  1.00  0.00     0.031 C 
ATOM     46  C   UNL A   1      42.747  28.357  29.407  1.00  0.00     0.029 A 
ATOM     47  N   UNL A   1      41.198  29.754  30.267  1.00  0.00    -0.354 N 
ATOM     48  C   UNL A   1      41.756  24.538  28.572  1.00  0.00     0.074 A 
ATOM     49  C   UNL A   1      40.458  24.395  27.958  1.00  0.00     0.031 C 
ATOM     50  C   UNL A   1      43.365  29.120  30.320  1.00  0.00     0.029 A 
ATOM     51  C   UNL A   1      42.337  29.782  31.101  1.00  0.00     0.049 A 
ATOM     52  H   UNL A   1      40.467  30.414  30.245  1.00  0.00     0.167 HD
ATOM     53  C   UNL A   1      42.948  23.872  28.526  1.00  0.00     0.034 A 
ATOM     54  C   UNL A   1      42.213  29.744  32.459  1.00  0.00     0.034 A 
ATOM     55  C   UNL A   1      43.941  24.474  29.427  1.00  0.00     0.049 A 
ATOM     56  C   UNL A   1      42.882  28.551  33.113  1.00  0.00     0.074 A 
ATOM     57  C   UNL A   1      45.079  25.248  29.261  1.00  0.00     0.029 A 
ATOM     58  N   UNL A   1      43.678  24.485  30.787  1.00  0.00    -0.354 N 
ATOM     59  N   UNL A   1      43.491  27.598  32.460  1.00  0.00    -0.248 NA
ATOM     60  C   UNL A   1      42.838  28.291  34.553  1.00  0.00     0.031 C 
ATOM     61  C   UNL A   1      45.472  25.744  30.543  1.00  0.00     0.029 A 
ATOM     62  C   UNL A   1      44.585  25.257  31.485  1.00  0.00     0.049 A 
ATOM     63  H   UNL A   1      42.931  24.000  31.207  1.00  0.00     0.167 HD
ATOM     64  C   UNL A   1      43.842  26.600  33.331  1.00  0.00     0.074 A 
ATOM     65  C   UNL A   1      43.421  27.083  34.633  1.00  0.00     0.031 C 
ATOM     66  C   UNL A   1      44.405  25.426  32.920  1.00  0.00     0.034 A 
BRANCH  53  67
ATOM     67  C   UNL A   1      43.307  22.816  27.492  1.00  0.00     0.023 A 
ATOM     68  C   UNL A   1      44.412  23.044  26.641  1.00  0.00     0.031 A 
ATOM     69  C   UNL A   1      42.598  21.627  27.227  1.00  0.00     0.131 A 
ATOM     70  C   UNL A   1      44.700  22.192  25.556  1.00  0.00     0.055 A 
ATOM     71  C   UNL A   1      42.853  20.805  26.121  1.00  0.00     0.041 A 
ATOM     72  F   UNL A   1      41.661  21.151  28.049  1.00  0.00    -0.206 F 
ATOM     73  C   UNL A   1      43.901  21.092  25.268  1.00  0.00     0.022 A 
BRANCH  70  74
ATOM     74  S   UNL A   1      46.139  22.544  24.509  1.00  0.00     0.124 S 
ATOM     75  O   UNL A   1      45.517  23.028  23.281  1.00  0.00    -0.237 OA
ATOM     76  O   UNL A   1      46.861  23.530  25.303  1.00  0.00    -0.237 OA
ATOM     77  O   UNL A   1      46.799  21.244  24.395  1.00  0.00    -0.744 OA
ENDBRANCH  70  74
ENDBRANCH  53  67
BRANCH  54  78
ATOM     78  C   UNL A   1      40.985  30.442  32.941  1.00  0.00     0.023 A 
ATOM     79  C   UNL A   1      40.983  31.853  32.853  1.00  0.00     0.031 A 
ATOM     80  C   UNL A   1      39.752  29.793  33.078  1.00  0.00     0.131 A 
ATOM     81  C   UNL A   1      39.777  32.549  32.700  1.00  0.00     0.055 A 
ATOM     82  C   UNL A   1      38.547  30.506  33.023  1.00  0.00     0.041 A 
ATOM     83  F   UNL A   1      39.682  28.455  33.133  1.00  0.00    -0.206 F 
ATOM     84  C   UNL A   1      38.554  31.882  32.782  1.00  0.00     0.022 A 
BRANCH  81  85
ATOM     85  S   UNL A   1      39.839  34.257  32.077  1.00  0.00     0.124 S 
ATOM     86  O   UNL A   1      41.121  34.728  32.586  1.00  0.00    -0.237 OA
ATOM     87  O   UNL A   1      39.755  34.081  30.629  1.00  0.00    -0.237 OA
ATOM     88  O   UNL A   1      38.657  34.882  32.665  1.00  0.00    -0.744 OA
ENDBRANCH  81  85
ENDBRANCH  54  78
BRANCH  66  89
ATOM     89  C   UNL A   1      44.796  24.325  33.870  1.00  0.00     0.023 A 
ATOM     90  C   UNL A   1      46.139  23.992  34.111  1.00  0.00     0.031 A 
ATOM     91  C   UNL A   1      43.826  23.523  34.509  1.00  0.00     0.131 A 
ATOM     92  C   UNL A   1      46.473  22.954  34.998  1.00  0.00     0.055 A 
ATOM     93  C   UNL A   1      44.161  22.437  35.323  1.00  0.00     0.041 A 
ATOM     94  F   UNL A   1      42.515  23.786  34.406  1.00  0.00    -0.206 F 
ATOM     95  C   UNL A   1      45.493  22.152  35.582  1.00  0.00     0.022 A 
BRANCH  92  96
ATOM     96  S   UNL A   1      48.213  22.716  35.445  1.00  0.00     0.124 S 
ATOM     97  O   UNL A   1      48.325  23.448  36.700  1.00  0.00    -0.237 OA
ATOM     98  O   UNL A   1      48.293  21.260  35.550  1.00  0.00    -0.237 OA
ATOM     99  O   UNL A   1      48.942  23.295  34.318  1.00  0.00    -0.744 OA
ENDBRANCH  92  96
ENDBRANCH  66  89
ENDBRANCH  40  41
ENDBRANCH  32  35
ENDBRANCH  30  31
ENDBRANCH   1  30
TORSDOF 18
ENDMDL
MODEL 3
REMARK VINA RESULT:     -12.6      2.665      3.212
REMARK SMILES CCC(=O)N1CCC[C@](C[C@H]2CC(c3ccc(C)cc3)=NO2)(C(=O)NCCCNC(=O)c2ccc(-c3c4nc(c(-c5cc(S(=O)(=O)[O-])ccc5F)c5ccc([nH]5)c(-c5cc(S(=O)(=O)[O-])ccc5F)c5nc(c(-c6cc(S(=O)(=O)[O-])ccc6F)c6ccc3[nH]6)C=C5)C=C4)cc2)C1
REMARK SMILES IDX 27 1 26 2 25 3 23 4 24 5 9 7 5 8 6 9 95 10 7 11 8 12 3 13
REMARK SMILES IDX 4 14 2 15 1 16 10 17 11 18 12 19 22 20 13 21 21 22 14 23
REMARK SMILES IDX 15 24 20 25 16 26 19 27 17 28 18 29 28 30 29 31 30 32 31 34
REMARK SMILES IDX 32 35 33 36 94 37 34 38 93 39 35 40 36 41 37 42 87 43 38 44
REMARK SMILES IDX 92 45 86 46 88 47 39 48 91 49 85 50 84 51 40 53 72 54 52 55
REMARK SMILES IDX 71 56 53 57 56 58 70 59 89 60 54 61 55 62 69 64 90 65 57 66
REMARK SMILES IDX 41 67 42 68 50 69 43 70 49 71 51 72 48 73 44 74 45 75 46 76
REMARK SMILES IDX 47 77 73 78 74 79 82 80 75 81 81 82 83 83 80 84 76 85 77 86
REMARK SMILES IDX 78 87 79 88 58 89 59 90 67 91 60 92 66 93 68 94 65 95 61 96
REMARK SMILES IDX 62 97 63 98 64 99
REMARK H PARENT 25 6 29 33 88 52 56 63
REMARK Flexibility Score: inf
ROOT
ATOM      1  C   UNL A   1      33.789  28.416  27.270  1.00  0.00     0.042 C 
ENDROOT
BRANCH   1   2
ATOM      2  C   UNL A   1      32.440  27.830  26.853  1.00  0.00     0.117 C 
BRANCH   2   3
ATOM      3  N   UNL A   1      31.617  28.815  26.152  1.00  0.00    -0.355 N 
ATOM      4  C   UNL A   1      31.277  29.094  24.869  1.00  0.00     0.228 C 
ATOM      5  O   UNL A   1      30.762  30.212  24.732  1.00  0.00    -0.274 OA
ATOM      6  H   UNL A   1      31.197  29.446  26.781  1.00  0.00     0.163 HD
BRANCH   4   7
ATOM      7  C   UNL A   1      31.380  28.126  23.632  1.00  0.00     0.070 C 
ATOM      8  N   UNL A   1      28.875  28.149  23.101  1.00  0.00    -0.342 N 
ATOM      9  C   UNL A   1      28.722  26.772  23.553  1.00  0.00     0.119 C 
ATOM     10  C   UNL A   1      30.223  28.515  22.653  1.00  0.00     0.136 C 
ATOM     11  C   UNL A   1      29.730  26.409  24.632  1.00  0.00     0.023 C 
ATOM     12  C   UNL A   1      31.158  26.688  24.161  1.00  0.00     0.021 C 
BRANCH   8  13
ATOM     13  C   UNL A   1      27.739  28.947  23.058  1.00  0.00     0.222 C 
ATOM     14  O   UNL A   1      26.626  28.497  23.359  1.00  0.00    -0.275 OA
BRANCH  13  15
ATOM     15  C   UNL A   1      27.792  30.341  22.439  1.00  0.00     0.097 C 
ATOM     16  C   UNL A   1      27.670  31.556  23.336  1.00  0.00     0.014 C 
ENDBRANCH  13  15
ENDBRANCH   8  13
BRANCH   7  17
ATOM     17  C   UNL A   1      32.758  28.244  22.918  1.00  0.00     0.067 C 
BRANCH  17  18
ATOM     18  C   UNL A   1      33.612  27.071  22.413  1.00  0.00     0.211 C 
ATOM     19  C   UNL A   1      33.900  25.967  23.405  1.00  0.00     0.108 C 
ATOM     20  O   UNL A   1      33.107  26.463  21.227  1.00  0.00    -0.392 OA
ATOM     21  C   UNL A   1      33.278  24.839  22.674  1.00  0.00     0.091 C 
ATOM     22  N   UNL A   1      32.885  25.089  21.469  1.00  0.00    -0.090 NA
BRANCH  21  23
ATOM     23  C   UNL A   1      33.206  23.507  23.283  1.00  0.00    -0.001 A 
ATOM     24  C   UNL A   1      33.976  23.204  24.406  1.00  0.00     0.010 A 
ATOM     25  C   UNL A   1      32.362  22.553  22.715  1.00  0.00     0.010 A 
ATOM     26  C   UNL A   1      33.898  21.929  24.967  1.00  0.00     0.004 A 
ATOM     27  C   UNL A   1      32.304  21.273  23.267  1.00  0.00     0.004 A 
ATOM     28  C   UNL A   1      33.064  20.955  24.402  1.00  0.00    -0.051 A 
ATOM     29  C   UNL A   1      32.994  19.574  24.984  1.00  0.00     0.044 C 
ENDBRANCH  21  23
ENDBRANCH  17  18
ENDBRANCH   7  17
ENDBRANCH   4   7
ENDBRANCH   2   3
ENDBRANCH   1   2
BRANCH   1  30
ATOM     30  C   UNL A   1      34.236  29.581  26.392  1.00  0.00     0.118 C 
BRANCH  30  31
ATOM     31  N   UNL A   1      34.495  30.816  27.129  1.00  0.00    -0.352 N 
ATOM     32  C   UNL A   1      35.531  31.078  28.017  1.00  0.00     0.251 C 
ATOM     33  H   UNL A   1      33.858  31.551  26.978  1.00  0.00     0.163 HD
ATOM     34  O   UNL A   1      35.632  32.132  28.606  1.00  0.00    -0.269 OA
BRANCH  32  35
ATOM     35  C   UNL A   1      36.585  30.043  28.142  1.00  0.00     0.039 A 
ATOM     36  C   UNL A   1      36.664  29.362  29.361  1.00  0.00     0.014 A 
ATOM     37  C   UNL A   1      37.622  29.994  27.217  1.00  0.00     0.014 A 
ATOM     38  C   UNL A   1      37.887  28.823  29.752  1.00  0.00     0.010 A 
ATOM     39  C   UNL A   1      38.856  29.542  27.646  1.00  0.00     0.010 A 
ATOM     40  C   UNL A   1      39.004  29.022  28.942  1.00  0.00    -0.014 A 
BRANCH  40  41
ATOM     41  C   UNL A   1      40.373  28.876  29.431  1.00  0.00     0.031 A 
ATOM     42  C   UNL A   1      41.172  27.676  29.112  1.00  0.00     0.074 A 
ATOM     43  C   UNL A   1      40.950  29.876  30.136  1.00  0.00     0.049 A 
ATOM     44  N   UNL A   1      42.236  27.311  29.748  1.00  0.00    -0.248 NA
ATOM     45  C   UNL A   1      40.778  26.734  28.076  1.00  0.00     0.031 C 
ATOM     46  C   UNL A   1      42.365  30.041  30.449  1.00  0.00     0.029 A 
ATOM     47  N   UNL A   1      40.302  30.802  30.954  1.00  0.00    -0.354 N 
ATOM     48  C   UNL A   1      42.825  26.290  29.039  1.00  0.00     0.074 A 
ATOM     49  C   UNL A   1      41.824  25.904  28.074  1.00  0.00     0.031 C 
ATOM     50  C   UNL A   1      42.478  30.779  31.561  1.00  0.00     0.029 A 
ATOM     51  C   UNL A   1      41.138  30.998  32.074  1.00  0.00     0.049 A 
ATOM     52  H   UNL A   1      39.433  31.233  30.785  1.00  0.00     0.167 HD
ATOM     53  C   UNL A   1      44.136  25.989  29.274  1.00  0.00     0.034 A 
ATOM     54  C   UNL A   1      40.705  30.704  33.334  1.00  0.00     0.034 A 
ATOM     55  C   UNL A   1      44.647  26.679  30.467  1.00  0.00     0.049 A 
ATOM     56  C   UNL A   1      41.526  29.645  34.044  1.00  0.00     0.074 A 
ATOM     57  C   UNL A   1      45.497  27.749  30.697  1.00  0.00     0.029 A 
ATOM     58  N   UNL A   1      44.069  26.392  31.693  1.00  0.00    -0.354 N 
ATOM     59  N   UNL A   1      42.537  29.015  33.509  1.00  0.00    -0.248 NA
ATOM     60  C   UNL A   1      41.213  29.147  35.385  1.00  0.00     0.031 C 
ATOM     61  C   UNL A   1      45.395  28.113  32.075  1.00  0.00     0.029 A 
ATOM     62  C   UNL A   1      44.498  27.254  32.683  1.00  0.00     0.049 A 
ATOM     63  H   UNL A   1      43.428  25.660  31.842  1.00  0.00     0.167 HD
ATOM     64  C   UNL A   1      42.953  28.020  34.354  1.00  0.00     0.074 A 
ATOM     65  C   UNL A   1      42.099  28.147  35.521  1.00  0.00     0.031 C 
ATOM     66  C   UNL A   1      43.931  27.127  34.018  1.00  0.00     0.034 A 
BRANCH  53  67
ATOM     67  C   UNL A   1      45.042  25.257  28.296  1.00  0.00     0.023 A 
ATOM     68  C   UNL A   1      45.869  26.014  27.435  1.00  0.00     0.031 A 
ATOM     69  C   UNL A   1      45.104  23.864  28.092  1.00  0.00     0.131 A 
ATOM     70  C   UNL A   1      46.605  25.412  26.395  1.00  0.00     0.055 A 
ATOM     71  C   UNL A   1      45.796  23.267  27.029  1.00  0.00     0.041 A 
ATOM     72  F   UNL A   1      44.553  22.989  28.936  1.00  0.00    -0.206 F 
ATOM     73  C   UNL A   1      46.543  24.043  26.164  1.00  0.00     0.022 A 
BRANCH  70  74
ATOM     74  S   UNL A   1      47.650  26.447  25.332  1.00  0.00     0.124 S 
ATOM     75  O   UNL A   1      48.887  25.677  25.271  1.00  0.00    -0.237 OA
ATOM     76  O   UNL A   1      46.865  26.514  24.105  1.00  0.00    -0.237 OA
ATOM     77  O   UNL A   1      47.742  27.705  26.072  1.00  0.00    -0.744 OA
ENDBRANCH  70  74
ENDBRANCH  53  67
BRANCH  54  78
ATOM     78  C   UNL A   1      39.243  30.953  33.509  1.00  0.00     0.023 A 
ATOM     79  C   UNL A   1      38.831  32.304  33.547  1.00  0.00     0.031 A 
ATOM     80  C   UNL A   1      38.274  29.980  33.235  1.00  0.00     0.131 A 
ATOM     81  C   UNL A   1      37.546  32.663  33.121  1.00  0.00     0.055 A 
ATOM     82  C   UNL A   1      36.960  30.339  32.905  1.00  0.00     0.041 A 
ATOM     83  F   UNL A   1      38.605  28.684  33.152  1.00  0.00    -0.206 F 
ATOM     84  C   UNL A   1      36.605  31.685  32.796  1.00  0.00     0.022 A 
BRANCH  81  85
ATOM     85  S   UNL A   1      37.233  34.403  32.692  1.00  0.00     0.124 S 
ATOM     86  O   UNL A   1      37.032  35.014  33.999  1.00  0.00    -0.237 OA
ATOM     87  O   UNL A   1      38.453  34.792  31.988  1.00  0.00    -0.237 OA
ATOM     88  O   UNL A   1      36.052  34.339  31.834  1.00  0.00    -0.744 OA
ENDBRANCH  81  85
ENDBRANCH  54  78
BRANCH  66  89
ATOM     89  C   UNL A   1      44.395  26.032  34.941  1.00  0.00     0.023 A 
ATOM     90  C   UNL A   1      45.644  26.079  35.583  1.00  0.00     0.031 A 
ATOM     91  C   UNL A   1      43.627  24.864  35.146  1.00  0.00     0.131 A 
ATOM     92  C   UNL A   1      46.053  25.037  36.433  1.00  0.00     0.055 A 
ATOM     93  C   UNL A   1      44.076  23.793  35.923  1.00  0.00     0.041 A 
ATOM     94  F   UNL A   1      42.393  24.735  34.638  1.00  0.00    -0.206 F 
ATOM     95  C   UNL A   1      45.291  23.879  36.584  1.00  0.00     0.022 A 
BRANCH  92  96
ATOM     96  S   UNL A   1      47.565  25.252  37.408  1.00  0.00     0.124 S 
ATOM     97  O   UNL A   1      47.126  26.123  38.492  1.00  0.00    -0.237 OA
ATOM     98  O   UNL A   1      47.870  23.874  37.786  1.00  0.00    -0.237 OA
ATOM     99  O   UNL A   1      48.503  25.856  36.465  1.00  0.00    -0.744 OA
ENDBRANCH  92  96
ENDBRANCH  66  89
ENDBRANCH  40  41
ENDBRANCH  32  35
ENDBRANCH  30  31
ENDBRANCH   1  30
TORSDOF 18
ENDMDL
