MODEL 1
REMARK VINA RESULT:     -10.4      0.000      0.000
REMARK SMILES CC(C)[C@@H](CO)NC(=O)CC(C)(C)CC(=O)NCCCNC(=O)c1ccc(-c2c3nc(c(-c4cc(S(=O)(=O)[O-])ccc4F)c4ccc([nH]4)c(-c4cc(S(=O)(=O)[O-])ccc4F)c4nc(c(-c5cc(S(=O)(=O)[O-])ccc5F)c5ccc2[nH]5)C=C4)C=C3)cc1
REMARK SMILES IDX 15 1 16 2 17 3 14 5 11 6 12 7 13 8 10 9 8 10 7 11 9 13 4 14
REMARK SMILES IDX 2 15 1 16 3 17 5 18 6 19 18 21 19 22 20 23 21 24 22 25 23 27
REMARK SMILES IDX 24 28 25 29 86 30 26 31 85 32 27 33 28 34 29 35 79 36 30 37
REMARK SMILES IDX 84 38 78 39 80 40 31 41 83 42 77 43 76 44 32 46 64 47 44 48
REMARK SMILES IDX 63 49 45 50 48 51 62 52 81 53 46 54 47 55 61 57 82 58 49 59
REMARK SMILES IDX 33 60 34 61 42 62 35 63 41 64 43 65 40 66 36 67 37 68 38 69
REMARK SMILES IDX 39 70 65 71 66 72 74 73 67 74 73 75 75 76 72 77 68 78 69 79
REMARK SMILES IDX 70 80 71 81 50 82 51 83 59 84 52 85 58 86 60 87 57 88 53 89
REMARK SMILES IDX 54 90 55 91 56 92
REMARK H PARENT 17 4 7 12 6 20 21 26 80 45 48 56
REMARK Flexibility Score: inf
ROOT
ATOM      1  C   UNL A   1      30.790  26.296  26.201  1.00  0.00     0.220 C 
ATOM      2  O   UNL A   1      30.066  25.326  26.415  1.00  0.00    -0.275 OA
ATOM      3  N   UNL A   1      31.025  27.156  27.231  1.00  0.00    -0.356 N 
ATOM      4  H   UNL A   1      30.637  26.874  28.091  1.00  0.00     0.163 HD
ENDROOT
BRANCH   1   5
ATOM      5  C   UNL A   1      31.437  26.530  24.853  1.00  0.00     0.107 C 
BRANCH   5   6
ATOM      6  C   UNL A   1      30.528  26.386  23.606  1.00  0.00    -0.018 C 
ATOM      7  C   UNL A   1      29.088  26.651  24.078  1.00  0.00     0.012 C 
ATOM      8  C   UNL A   1      30.486  24.956  23.042  1.00  0.00     0.012 C 
BRANCH   6   9
ATOM      9  C   UNL A   1      30.968  27.292  22.421  1.00  0.00     0.107 C 
BRANCH   9  10
ATOM     10  C   UNL A   1      31.584  28.657  22.689  1.00  0.00     0.220 C 
ATOM     11  N   UNL A   1      30.823  29.783  22.646  1.00  0.00    -0.351 N 
ATOM     12  H   UNL A   1      31.329  30.626  22.673  1.00  0.00     0.163 HD
ATOM     13  O   UNL A   1      32.790  28.790  22.894  1.00  0.00    -0.275 OA
BRANCH  11  14
ATOM     14  C   UNL A   1      29.377  29.939  22.570  1.00  0.00     0.110 C 
BRANCH  14  15
ATOM     15  C   UNL A   1      28.832  30.667  23.835  1.00  0.00     0.007 C 
ATOM     16  C   UNL A   1      29.677  31.910  24.136  1.00  0.00     0.009 C 
ATOM     17  C   UNL A   1      27.350  31.078  23.765  1.00  0.00     0.009 C 
ENDBRANCH  14  15
BRANCH  14  18
ATOM     18  C   UNL A   1      28.977  30.627  21.246  1.00  0.00     0.181 C 
BRANCH  18  19
ATOM     19  O   UNL A   1      27.789  30.067  20.692  1.00  0.00    -0.394 OA
ATOM     20  H   UNL A   1      27.721  29.134  20.947  1.00  0.00     0.210 HD
ENDBRANCH  18  19
ENDBRANCH  14  18
ENDBRANCH  11  14
ENDBRANCH   9  10
ENDBRANCH   6   9
ENDBRANCH   5   6
ENDBRANCH   1   5
BRANCH   3  21
ATOM     21  C   UNL A   1      31.747  28.419  27.284  1.00  0.00     0.117 C 
BRANCH  21  22
ATOM     22  C   UNL A   1      33.260  28.220  27.291  1.00  0.00     0.042 C 
BRANCH  22  23
ATOM     23  C   UNL A   1      34.017  29.199  26.409  1.00  0.00     0.118 C 
BRANCH  23  24
ATOM     24  N   UNL A   1      33.867  30.561  26.884  1.00  0.00    -0.352 N 
ATOM     25  C   UNL A   1      34.533  31.197  27.900  1.00  0.00     0.251 C 
ATOM     26  H   UNL A   1      33.195  31.103  26.412  1.00  0.00     0.163 HD
ATOM     27  O   UNL A   1      34.051  32.233  28.366  1.00  0.00    -0.269 OA
BRANCH  25  28
ATOM     28  C   UNL A   1      35.797  30.653  28.454  1.00  0.00     0.039 A 
ATOM     29  C   UNL A   1      37.008  31.004  27.851  1.00  0.00     0.014 A 
ATOM     30  C   UNL A   1      35.800  29.747  29.520  1.00  0.00     0.014 A 
ATOM     31  C   UNL A   1      38.210  30.472  28.328  1.00  0.00     0.010 A 
ATOM     32  C   UNL A   1      37.003  29.297  30.059  1.00  0.00     0.010 A 
ATOM     33  C   UNL A   1      38.222  29.624  29.447  1.00  0.00    -0.014 A 
BRANCH  33  34
ATOM     34  C   UNL A   1      39.485  29.014  29.943  1.00  0.00     0.031 A 
ATOM     35  C   UNL A   1      40.199  29.619  31.126  1.00  0.00     0.074 A 
ATOM     36  C   UNL A   1      40.023  27.957  29.304  1.00  0.00     0.049 A 
ATOM     37  N   UNL A   1      41.341  29.284  31.671  1.00  0.00    -0.248 NA
ATOM     38  C   UNL A   1      39.559  30.786  31.753  1.00  0.00     0.031 C 
ATOM     39  C   UNL A   1      39.464  27.316  28.112  1.00  0.00     0.029 A 
ATOM     40  N   UNL A   1      41.168  27.243  29.558  1.00  0.00    -0.354 N 
ATOM     41  C   UNL A   1      41.570  30.215  32.679  1.00  0.00     0.074 A 
ATOM     42  C   UNL A   1      40.481  31.165  32.623  1.00  0.00     0.031 C 
ATOM     43  C   UNL A   1      40.257  26.297  27.748  1.00  0.00     0.029 A 
ATOM     44  C   UNL A   1      41.400  26.232  28.655  1.00  0.00     0.049 A 
ATOM     45  H   UNL A   1      41.766  27.438  30.315  1.00  0.00     0.167 HD
ATOM     46  C   UNL A   1      42.579  30.260  33.586  1.00  0.00     0.034 A 
ATOM     47  C   UNL A   1      42.422  25.358  28.559  1.00  0.00     0.034 A 
ATOM     48  C   UNL A   1      43.640  29.284  33.648  1.00  0.00     0.049 A 
ATOM     49  C   UNL A   1      43.521  25.406  29.588  1.00  0.00     0.074 A 
ATOM     50  C   UNL A   1      44.658  29.172  34.578  1.00  0.00     0.029 A 
ATOM     51  N   UNL A   1      43.826  28.253  32.733  1.00  0.00    -0.354 N 
ATOM     52  N   UNL A   1      43.684  26.245  30.585  1.00  0.00    -0.248 NA
ATOM     53  C   UNL A   1      44.565  24.378  29.487  1.00  0.00     0.031 C 
ATOM     54  C   UNL A   1      45.495  28.119  34.190  1.00  0.00     0.029 A 
ATOM     55  C   UNL A   1      44.961  27.525  33.058  1.00  0.00     0.049 A 
ATOM     56  H   UNL A   1      43.237  28.068  31.967  1.00  0.00     0.167 HD
ATOM     57  C   UNL A   1      44.840  25.835  31.241  1.00  0.00     0.074 A 
ATOM     58  C   UNL A   1      45.323  24.663  30.537  1.00  0.00     0.031 C 
ATOM     59  C   UNL A   1      45.445  26.374  32.331  1.00  0.00     0.034 A 
BRANCH  46  60
ATOM     60  C   UNL A   1      42.590  31.420  34.557  1.00  0.00     0.023 A 
ATOM     61  C   UNL A   1      41.757  31.447  35.691  1.00  0.00     0.031 A 
ATOM     62  C   UNL A   1      43.401  32.543  34.315  1.00  0.00     0.131 A 
ATOM     63  C   UNL A   1      41.679  32.606  36.478  1.00  0.00     0.055 A 
ATOM     64  C   UNL A   1      43.386  33.659  35.156  1.00  0.00     0.041 A 
ATOM     65  F   UNL A   1      44.205  32.587  33.242  1.00  0.00    -0.206 F 
ATOM     66  C   UNL A   1      42.506  33.704  36.233  1.00  0.00     0.022 A 
BRANCH  63  67
ATOM     67  S   UNL A   1      40.352  32.726  37.710  1.00  0.00     0.124 S 
ATOM     68  O   UNL A   1      39.423  31.698  37.244  1.00  0.00    -0.237 OA
ATOM     69  O   UNL A   1      41.053  32.436  38.955  1.00  0.00    -0.237 OA
ATOM     70  O   UNL A   1      39.872  34.098  37.566  1.00  0.00    -0.744 OA
ENDBRANCH  63  67
ENDBRANCH  46  60
BRANCH  47  71
ATOM     71  C   UNL A   1      42.456  24.377  27.440  1.00  0.00     0.023 A 
ATOM     72  C   UNL A   1      41.722  23.183  27.495  1.00  0.00     0.031 A 
ATOM     73  C   UNL A   1      43.228  24.628  26.292  1.00  0.00     0.131 A 
ATOM     74  C   UNL A   1      41.796  22.269  26.432  1.00  0.00     0.055 A 
ATOM     75  C   UNL A   1      43.267  23.735  25.220  1.00  0.00     0.041 A 
ATOM     76  F   UNL A   1      43.939  25.762  26.186  1.00  0.00    -0.206 F 
ATOM     77  C   UNL A   1      42.553  22.543  25.290  1.00  0.00     0.022 A 
BRANCH  74  78
ATOM     78  S   UNL A   1      40.914  20.690  26.575  1.00  0.00     0.124 S 
ATOM     79  O   UNL A   1      41.685  19.835  25.679  1.00  0.00    -0.237 OA
ATOM     80  O   UNL A   1      41.038  20.402  28.001  1.00  0.00    -0.237 OA
ATOM     81  O   UNL A   1      39.562  21.012  26.125  1.00  0.00    -0.744 OA
ENDBRANCH  74  78
ENDBRANCH  47  71
BRANCH  59  82
ATOM     82  C   UNL A   1      46.684  25.678  32.840  1.00  0.00     0.023 A 
ATOM     83  C   UNL A   1      47.955  25.944  32.299  1.00  0.00     0.031 A 
ATOM     84  C   UNL A   1      46.591  24.732  33.875  1.00  0.00     0.131 A 
ATOM     85  C   UNL A   1      49.072  25.232  32.760  1.00  0.00     0.055 A 
ATOM     86  C   UNL A   1      47.714  24.068  34.369  1.00  0.00     0.041 A 
ATOM     87  F   UNL A   1      45.401  24.437  34.425  1.00  0.00    -0.206 F 
ATOM     88  C   UNL A   1      48.963  24.308  33.802  1.00  0.00     0.022 A 
BRANCH  85  89
ATOM     89  S   UNL A   1      50.662  25.463  31.917  1.00  0.00     0.124 S 
ATOM     90  O   UNL A   1      50.728  26.915  31.786  1.00  0.00    -0.237 OA
ATOM     91  O   UNL A   1      51.604  24.864  32.857  1.00  0.00    -0.237 OA
ATOM     92  O   UNL A   1      50.494  24.735  30.661  1.00  0.00    -0.744 OA
ENDBRANCH  85  89
ENDBRANCH  59  82
ENDBRANCH  33  34
ENDBRANCH  25  28
ENDBRANCH  23  24
ENDBRANCH  22  23
ENDBRANCH  21  22
ENDBRANCH   3  21
TORSDOF 20
ENDMDL
MODEL 2
REMARK VINA RESULT:     -10.4      1.807      3.420
REMARK SMILES CC(C)[C@@H](CO)NC(=O)CC(C)(C)CC(=O)NCCCNC(=O)c1ccc(-c2c3nc(c(-c4cc(S(=O)(=O)[O-])ccc4F)c4ccc([nH]4)c(-c4cc(S(=O)(=O)[O-])ccc4F)c4nc(c(-c5cc(S(=O)(=O)[O-])ccc5F)c5ccc2[nH]5)C=C4)C=C3)cc1
REMARK SMILES IDX 15 1 16 2 17 3 14 5 11 6 12 7 13 8 10 9 8 10 7 11 9 13 4 14
REMARK SMILES IDX 2 15 1 16 3 17 5 18 6 19 18 21 19 22 20 23 21 24 22 25 23 27
REMARK SMILES IDX 24 28 25 29 86 30 26 31 85 32 27 33 28 34 29 35 79 36 30 37
REMARK SMILES IDX 84 38 78 39 80 40 31 41 83 42 77 43 76 44 32 46 64 47 44 48
REMARK SMILES IDX 63 49 45 50 48 51 62 52 81 53 46 54 47 55 61 57 82 58 49 59
REMARK SMILES IDX 33 60 34 61 42 62 35 63 41 64 43 65 40 66 36 67 37 68 38 69
REMARK SMILES IDX 39 70 65 71 66 72 74 73 67 74 73 75 75 76 72 77 68 78 69 79
REMARK SMILES IDX 70 80 71 81 50 82 51 83 59 84 52 85 58 86 60 87 57 88 53 89
REMARK SMILES IDX 54 90 55 91 56 92
REMARK H PARENT 17 4 7 12 6 20 21 26 80 45 48 56
REMARK Flexibility Score: inf
ROOT
ATOM      1  C   UNL A   1      32.736  28.659  23.692  1.00  0.00     0.220 C 
ATOM      2  O   UNL A   1      33.343  28.957  22.665  1.00  0.00    -0.275 OA
ATOM      3  N   UNL A   1      32.282  29.672  24.482  1.00  0.00    -0.356 N 
ATOM      4  H   UNL A   1      32.427  30.572  24.111  1.00  0.00     0.163 HD
ENDROOT
BRANCH   1   5
ATOM      5  C   UNL A   1      32.462  27.219  24.069  1.00  0.00     0.107 C 
BRANCH   5   6
ATOM      6  C   UNL A   1      31.176  26.576  23.491  1.00  0.00    -0.018 C 
ATOM      7  C   UNL A   1      31.589  25.859  22.194  1.00  0.00     0.012 C 
ATOM      8  C   UNL A   1      30.128  27.605  23.039  1.00  0.00     0.012 C 
BRANCH   6   9
ATOM      9  C   UNL A   1      30.446  25.651  24.505  1.00  0.00     0.107 C 
BRANCH   9  10
ATOM     10  C   UNL A   1      30.960  25.520  25.931  1.00  0.00     0.220 C 
ATOM     11  N   UNL A   1      31.741  24.468  26.294  1.00  0.00    -0.351 N 
ATOM     12  H   UNL A   1      31.893  24.380  27.262  1.00  0.00     0.163 HD
ATOM     13  O   UNL A   1      30.643  26.326  26.805  1.00  0.00    -0.275 OA
BRANCH  11  14
ATOM     14  C   UNL A   1      32.389  23.450  25.478  1.00  0.00     0.110 C 
BRANCH  14  15
ATOM     15  C   UNL A   1      33.823  23.900  25.069  1.00  0.00     0.007 C 
ATOM     16  C   UNL A   1      34.822  23.559  26.181  1.00  0.00     0.009 C 
ATOM     17  C   UNL A   1      34.338  23.316  23.741  1.00  0.00     0.009 C 
ENDBRANCH  14  15
BRANCH  14  18
ATOM     18  C   UNL A   1      32.355  22.082  26.193  1.00  0.00     0.181 C 
BRANCH  18  19
ATOM     19  O   UNL A   1      31.394  21.202  25.617  1.00  0.00    -0.394 OA
ATOM     20  H   UNL A   1      30.834  20.831  26.317  1.00  0.00     0.210 HD
ENDBRANCH  18  19
ENDBRANCH  14  18
ENDBRANCH  11  14
ENDBRANCH   9  10
ENDBRANCH   6   9
ENDBRANCH   5   6
ENDBRANCH   1   5
BRANCH   3  21
ATOM     21  C   UNL A   1      31.620  29.658  25.779  1.00  0.00     0.117 C 
BRANCH  21  22
ATOM     22  C   UNL A   1      32.571  29.271  26.908  1.00  0.00     0.042 C 
BRANCH  22  23
ATOM     23  C   UNL A   1      33.906  29.997  26.869  1.00  0.00     0.118 C 
BRANCH  23  24
ATOM     24  N   UNL A   1      33.834  31.270  27.558  1.00  0.00    -0.352 N 
ATOM     25  C   UNL A   1      34.593  31.727  28.606  1.00  0.00     0.251 C 
ATOM     26  H   UNL A   1      33.147  31.892  27.229  1.00  0.00     0.163 HD
ATOM     27  O   UNL A   1      34.179  32.687  29.262  1.00  0.00    -0.269 OA
BRANCH  25  28
ATOM     28  C   UNL A   1      35.876  31.078  28.969  1.00  0.00     0.039 A 
ATOM     29  C   UNL A   1      35.858  29.978  29.831  1.00  0.00     0.014 A 
ATOM     30  C   UNL A   1      37.103  31.581  28.526  1.00  0.00     0.014 A 
ATOM     31  C   UNL A   1      37.057  29.373  30.223  1.00  0.00     0.010 A 
ATOM     32  C   UNL A   1      38.289  30.917  28.833  1.00  0.00     0.010 A 
ATOM     33  C   UNL A   1      38.285  29.827  29.716  1.00  0.00    -0.014 A 
BRANCH  33  34
ATOM     34  C   UNL A   1      39.574  29.225  30.153  1.00  0.00     0.031 A 
ATOM     35  C   UNL A   1      40.330  29.825  31.312  1.00  0.00     0.074 A 
ATOM     36  C   UNL A   1      40.095  28.180  29.480  1.00  0.00     0.049 A 
ATOM     37  N   UNL A   1      41.497  29.496  31.805  1.00  0.00    -0.248 NA
ATOM     38  C   UNL A   1      39.705  30.978  31.977  1.00  0.00     0.031 C 
ATOM     39  C   UNL A   1      39.493  27.546  28.306  1.00  0.00     0.029 A 
ATOM     40  N   UNL A   1      41.257  27.476  29.679  1.00  0.00    -0.354 N 
ATOM     41  C   UNL A   1      41.758  30.419  32.813  1.00  0.00     0.074 A 
ATOM     42  C   UNL A   1      40.658  31.358  32.813  1.00  0.00     0.031 C 
ATOM     43  C   UNL A   1      40.281  26.539  27.898  1.00  0.00     0.029 A 
ATOM     44  C   UNL A   1      41.461  26.477  28.757  1.00  0.00     0.049 A 
ATOM     45  H   UNL A   1      41.884  27.669  30.413  1.00  0.00     0.167 HD
ATOM     46  C   UNL A   1      42.804  30.465  33.678  1.00  0.00     0.034 A 
ATOM     47  C   UNL A   1      42.487  25.615  28.609  1.00  0.00     0.034 A 
ATOM     48  C   UNL A   1      43.876  29.499  33.685  1.00  0.00     0.049 A 
ATOM     49  C   UNL A   1      43.627  25.663  29.591  1.00  0.00     0.074 A 
ATOM     50  C   UNL A   1      44.933  29.389  34.571  1.00  0.00     0.029 A 
ATOM     51  N   UNL A   1      44.034  28.480  32.752  1.00  0.00    -0.354 N 
ATOM     52  N   UNL A   1      43.823  26.493  30.590  1.00  0.00    -0.248 NA
ATOM     53  C   UNL A   1      44.676  24.647  29.436  1.00  0.00     0.031 C 
ATOM     54  C   UNL A   1      45.764  28.349  34.137  1.00  0.00     0.029 A 
ATOM     55  C   UNL A   1      45.189  27.761  33.021  1.00  0.00     0.049 A 
ATOM     56  H   UNL A   1      43.416  28.297  32.009  1.00  0.00     0.167 HD
ATOM     57  C   UNL A   1      45.010  26.088  31.193  1.00  0.00     0.074 A 
ATOM     58  C   UNL A   1      45.474  24.929  30.456  1.00  0.00     0.031 C 
ATOM     59  C   UNL A   1      45.654  26.622  32.263  1.00  0.00     0.034 A 
BRANCH  46  60
ATOM     60  C   UNL A   1      42.843  31.616  34.660  1.00  0.00     0.023 A 
ATOM     61  C   UNL A   1      42.159  31.567  35.888  1.00  0.00     0.031 A 
ATOM     62  C   UNL A   1      43.527  32.801  34.339  1.00  0.00     0.131 A 
ATOM     63  C   UNL A   1      42.088  32.710  36.699  1.00  0.00     0.055 A 
ATOM     64  C   UNL A   1      43.529  33.907  35.195  1.00  0.00     0.041 A 
ATOM     65  F   UNL A   1      44.185  32.919  33.176  1.00  0.00    -0.206 F 
ATOM     66  C   UNL A   1      42.788  33.873  36.372  1.00  0.00     0.022 A 
BRANCH  63  67
ATOM     67  S   UNL A   1      40.919  32.713  38.088  1.00  0.00     0.124 S 
ATOM     68  O   UNL A   1      41.665  31.971  39.101  1.00  0.00    -0.237 OA
ATOM     69  O   UNL A   1      40.737  34.137  38.342  1.00  0.00    -0.237 OA
ATOM     70  O   UNL A   1      39.750  32.018  37.554  1.00  0.00    -0.744 OA
ENDBRANCH  63  67
ENDBRANCH  46  60
BRANCH  47  71
ATOM     71  C   UNL A   1      42.484  24.646  27.479  1.00  0.00     0.023 A 
ATOM     72  C   UNL A   1      41.720  23.470  27.528  1.00  0.00     0.031 A 
ATOM     73  C   UNL A   1      43.250  24.890  26.325  1.00  0.00     0.131 A 
ATOM     74  C   UNL A   1      41.760  22.566  26.455  1.00  0.00     0.055 A 
ATOM     75  C   UNL A   1      43.255  24.009  25.243  1.00  0.00     0.041 A 
ATOM     76  F   UNL A   1      43.988  26.007  26.224  1.00  0.00    -0.206 F 
ATOM     77  C   UNL A   1      42.512  22.834  25.307  1.00  0.00     0.022 A 
BRANCH  74  78
ATOM     78  S   UNL A   1      40.840  21.009  26.590  1.00  0.00     0.124 S 
ATOM     79  O   UNL A   1      40.849  20.781  28.031  1.00  0.00    -0.237 OA
ATOM     80  O   UNL A   1      39.551  21.366  26.005  1.00  0.00    -0.237 OA
ATOM     81  O   UNL A   1      41.638  20.072  25.804  1.00  0.00    -0.744 OA
ENDBRANCH  74  78
ENDBRANCH  47  71
BRANCH  59  82
ATOM     82  C   UNL A   1      46.920  25.934  32.712  1.00  0.00     0.023 A 
ATOM     83  C   UNL A   1      46.899  24.900  33.666  1.00  0.00     0.031 A 
ATOM     84  C   UNL A   1      48.163  26.324  32.185  1.00  0.00     0.131 A 
ATOM     85  C   UNL A   1      48.104  24.329  34.100  1.00  0.00     0.055 A 
ATOM     86  C   UNL A   1      49.353  25.712  32.578  1.00  0.00     0.041 A 
ATOM     87  F   UNL A   1      48.241  27.308  31.274  1.00  0.00    -0.206 F 
ATOM     88  C   UNL A   1      49.329  24.716  33.552  1.00  0.00     0.022 A 
BRANCH  85  89
ATOM     89  S   UNL A   1      48.059  23.131  35.462  1.00  0.00     0.124 S 
ATOM     90  O   UNL A   1      48.484  21.902  34.800  1.00  0.00    -0.237 OA
ATOM     91  O   UNL A   1      49.008  23.703  36.412  1.00  0.00    -0.237 OA
ATOM     92  O   UNL A   1      46.663  23.152  35.893  1.00  0.00    -0.744 OA
ENDBRANCH  85  89
ENDBRANCH  59  82
ENDBRANCH  33  34
ENDBRANCH  25  28
ENDBRANCH  23  24
ENDBRANCH  22  23
ENDBRANCH  21  22
ENDBRANCH   3  21
TORSDOF 20
ENDMDL
MODEL 3
REMARK VINA RESULT:     -10.4      5.241      8.742
REMARK SMILES CC(C)[C@@H](CO)NC(=O)CC(C)(C)CC(=O)NCCCNC(=O)c1ccc(-c2c3nc(c(-c4cc(S(=O)(=O)[O-])ccc4F)c4ccc([nH]4)c(-c4cc(S(=O)(=O)[O-])ccc4F)c4nc(c(-c5cc(S(=O)(=O)[O-])ccc5F)c5ccc2[nH]5)C=C4)C=C3)cc1
REMARK SMILES IDX 15 1 16 2 17 3 14 5 11 6 12 7 13 8 10 9 8 10 7 11 9 13 4 14
REMARK SMILES IDX 2 15 1 16 3 17 5 18 6 19 18 21 19 22 20 23 21 24 22 25 23 27
REMARK SMILES IDX 24 28 25 29 86 30 26 31 85 32 27 33 28 34 29 35 79 36 30 37
REMARK SMILES IDX 84 38 78 39 80 40 31 41 83 42 77 43 76 44 32 46 64 47 44 48
REMARK SMILES IDX 63 49 45 50 48 51 62 52 81 53 46 54 47 55 61 57 82 58 49 59
REMARK SMILES IDX 33 60 34 61 42 62 35 63 41 64 43 65 40 66 36 67 37 68 38 69
REMARK SMILES IDX 39 70 65 71 66 72 74 73 67 74 73 75 75 76 72 77 68 78 69 79
REMARK SMILES IDX 70 80 71 81 50 82 51 83 59 84 52 85 58 86 60 87 57 88 53 89
REMARK SMILES IDX 54 90 55 91 56 92
REMARK H PARENT 17 4 7 12 6 20 21 26 80 45 48 56
REMARK Flexibility Score: inf
ROOT
ATOM      1  C   UNL A   1      37.015  23.175  25.347  1.00  0.00     0.220 C 
ATOM      2  O   UNL A   1      37.443  24.076  26.066  1.00  0.00    -0.275 OA
ATOM      3  N   UNL A   1      37.382  21.896  25.639  1.00  0.00    -0.356 N 
ATOM      4  H   UNL A   1      37.914  21.805  26.462  1.00  0.00     0.163 HD
ENDROOT
BRANCH   1   5
ATOM      5  C   UNL A   1      36.083  23.453  24.187  1.00  0.00     0.107 C 
BRANCH   5   6
ATOM      6  C   UNL A   1      34.625  23.845  24.539  1.00  0.00    -0.018 C 
ATOM      7  C   UNL A   1      34.091  24.662  23.350  1.00  0.00     0.012 C 
ATOM      8  C   UNL A   1      34.522  24.804  25.736  1.00  0.00     0.012 C 
BRANCH   6   9
ATOM      9  C   UNL A   1      33.735  22.624  24.901  1.00  0.00     0.107 C 
BRANCH   9  10
ATOM     10  C   UNL A   1      32.413  22.399  24.182  1.00  0.00     0.220 C 
ATOM     11  N   UNL A   1      31.254  22.902  24.684  1.00  0.00    -0.351 N 
ATOM     12  H   UNL A   1      30.437  22.576  24.244  1.00  0.00     0.163 HD
ATOM     13  O   UNL A   1      32.344  21.713  23.162  1.00  0.00    -0.275 OA
BRANCH  11  14
ATOM     14  C   UNL A   1      31.031  23.849  25.768  1.00  0.00     0.110 C 
BRANCH  14  15
ATOM     15  C   UNL A   1      30.406  25.170  25.229  1.00  0.00     0.007 C 
ATOM     16  C   UNL A   1      31.313  26.360  25.563  1.00  0.00     0.009 C 
ATOM     17  C   UNL A   1      30.105  25.182  23.719  1.00  0.00     0.009 C 
ENDBRANCH  14  15
BRANCH  14  18
ATOM     18  C   UNL A   1      30.202  23.193  26.895  1.00  0.00     0.181 C 
BRANCH  18  19
ATOM     19  O   UNL A   1      29.613  21.965  26.478  1.00  0.00    -0.394 OA
ATOM     20  H   UNL A   1      30.283  21.416  26.041  1.00  0.00     0.210 HD
ENDBRANCH  18  19
ENDBRANCH  14  18
ENDBRANCH  11  14
ENDBRANCH   9  10
ENDBRANCH   6   9
ENDBRANCH   5   6
ENDBRANCH   1   5
BRANCH   3  21
ATOM     21  C   UNL A   1      37.127  20.640  24.948  1.00  0.00     0.117 C 
BRANCH  21  22
ATOM     22  C   UNL A   1      38.297  19.668  25.064  1.00  0.00     0.042 C 
BRANCH  22  23
ATOM     23  C   UNL A   1      39.399  20.136  26.000  1.00  0.00     0.118 C 
BRANCH  23  24
ATOM     24  N   UNL A   1      40.493  19.185  26.044  1.00  0.00    -0.352 N 
ATOM     25  C   UNL A   1      41.843  19.421  26.010  1.00  0.00     0.251 C 
ATOM     26  H   UNL A   1      40.229  18.239  26.108  1.00  0.00     0.163 HD
ATOM     27  O   UNL A   1      42.601  18.488  25.731  1.00  0.00    -0.269 OA
BRANCH  25  28
ATOM     28  C   UNL A   1      42.397  20.772  26.277  1.00  0.00     0.039 A 
ATOM     29  C   UNL A   1      42.395  21.257  27.588  1.00  0.00     0.014 A 
ATOM     30  C   UNL A   1      42.856  21.593  25.243  1.00  0.00     0.014 A 
ATOM     31  C   UNL A   1      42.873  22.542  27.861  1.00  0.00     0.010 A 
ATOM     32  C   UNL A   1      43.426  22.833  25.528  1.00  0.00     0.010 A 
ATOM     33  C   UNL A   1      43.407  23.339  26.836  1.00  0.00    -0.014 A 
BRANCH  33  34
ATOM     34  C   UNL A   1      43.881  24.725  27.098  1.00  0.00     0.031 A 
ATOM     35  C   UNL A   1      42.940  25.741  27.694  1.00  0.00     0.074 A 
ATOM     36  C   UNL A   1      45.131  25.090  26.752  1.00  0.00     0.049 A 
ATOM     37  N   UNL A   1      43.132  27.014  27.937  1.00  0.00    -0.248 NA
ATOM     38  C   UNL A   1      41.585  25.271  28.021  1.00  0.00     0.031 C 
ATOM     39  C   UNL A   1      46.119  24.218  26.114  1.00  0.00     0.029 A 
ATOM     40  N   UNL A   1      45.781  26.293  26.876  1.00  0.00    -0.354 N 
ATOM     41  C   UNL A   1      41.918  27.498  28.413  1.00  0.00     0.074 A 
ATOM     42  C   UNL A   1      40.981  26.398  28.359  1.00  0.00     0.031 C 
ATOM     43  C   UNL A   1      47.252  24.910  25.916  1.00  0.00     0.029 A 
ATOM     44  C   UNL A   1      47.062  26.282  26.378  1.00  0.00     0.049 A 
ATOM     45  H   UNL A   1      45.367  27.088  27.283  1.00  0.00     0.167 HD
ATOM     46  C   UNL A   1      41.618  28.738  28.877  1.00  0.00     0.034 A 
ATOM     47  C   UNL A   1      47.979  27.267  26.292  1.00  0.00     0.034 A 
ATOM     48  C   UNL A   1      42.575  29.815  28.955  1.00  0.00     0.049 A 
ATOM     49  C   UNL A   1      47.638  28.630  26.834  1.00  0.00     0.074 A 
ATOM     50  C   UNL A   1      42.412  31.079  29.493  1.00  0.00     0.029 A 
ATOM     51  N   UNL A   1      43.876  29.758  28.467  1.00  0.00    -0.354 N 
ATOM     52  N   UNL A   1      46.509  29.053  27.354  1.00  0.00    -0.248 NA
ATOM     53  C   UNL A   1      48.702  29.642  26.792  1.00  0.00     0.031 C 
ATOM     54  C   UNL A   1      43.588  31.806  29.273  1.00  0.00     0.029 A 
ATOM     55  C   UNL A   1      44.513  30.974  28.661  1.00  0.00     0.049 A 
ATOM     56  H   UNL A   1      44.285  28.969  28.046  1.00  0.00     0.167 HD
ATOM     57  C   UNL A   1      46.732  30.378  27.718  1.00  0.00     0.074 A 
ATOM     58  C   UNL A   1      48.109  30.675  27.374  1.00  0.00     0.031 C 
ATOM     59  C   UNL A   1      45.879  31.266  28.290  1.00  0.00     0.034 A 
BRANCH  46  60
ATOM     60  C   UNL A   1      40.189  28.992  29.305  1.00  0.00     0.023 A 
ATOM     61  C   UNL A   1      39.814  29.025  30.661  1.00  0.00     0.031 A 
ATOM     62  C   UNL A   1      39.175  29.146  28.344  1.00  0.00     0.131 A 
ATOM     63  C   UNL A   1      38.459  29.104  31.014  1.00  0.00     0.055 A 
ATOM     64  C   UNL A   1      37.835  29.317  28.704  1.00  0.00     0.041 A 
ATOM     65  F   UNL A   1      39.463  29.107  27.033  1.00  0.00    -0.206 F 
ATOM     66  C   UNL A   1      37.468  29.275  30.045  1.00  0.00     0.022 A 
BRANCH  63  67
ATOM     67  S   UNL A   1      37.997  28.795  32.742  1.00  0.00     0.124 S 
ATOM     68  O   UNL A   1      36.674  29.413  32.808  1.00  0.00    -0.237 OA
ATOM     69  O   UNL A   1      38.027  27.340  32.820  1.00  0.00    -0.237 OA
ATOM     70  O   UNL A   1      39.035  29.486  33.503  1.00  0.00    -0.744 OA
ENDBRANCH  63  67
ENDBRANCH  46  60
BRANCH  47  71
ATOM     71  C   UNL A   1      49.298  26.999  25.655  1.00  0.00     0.023 A 
ATOM     72  C   UNL A   1      50.395  26.556  26.408  1.00  0.00     0.031 A 
ATOM     73  C   UNL A   1      49.475  27.180  24.271  1.00  0.00     0.131 A 
ATOM     74  C   UNL A   1      51.630  26.336  25.779  1.00  0.00     0.055 A 
ATOM     75  C   UNL A   1      50.693  26.922  23.644  1.00  0.00     0.041 A 
ATOM     76  F   UNL A   1      48.451  27.591  23.505  1.00  0.00    -0.206 F 
ATOM     77  C   UNL A   1      51.783  26.504  24.400  1.00  0.00     0.022 A 
BRANCH  74  78
ATOM     78  S   UNL A   1      53.056  25.860  26.796  1.00  0.00     0.124 S 
ATOM     79  O   UNL A   1      52.468  25.815  28.131  1.00  0.00    -0.237 OA
ATOM     80  O   UNL A   1      53.428  24.574  26.214  1.00  0.00    -0.237 OA
ATOM     81  O   UNL A   1      54.012  26.942  26.570  1.00  0.00    -0.744 OA
ENDBRANCH  74  78
ENDBRANCH  47  71
BRANCH  59  82
ATOM     82  C   UNL A   1      46.426  32.638  28.602  1.00  0.00     0.023 A 
ATOM     83  C   UNL A   1      46.330  33.697  27.682  1.00  0.00     0.031 A 
ATOM     84  C   UNL A   1      47.058  32.885  29.833  1.00  0.00     0.131 A 
ATOM     85  C   UNL A   1      46.905  34.940  27.987  1.00  0.00     0.055 A 
ATOM     86  C   UNL A   1      47.576  34.139  30.155  1.00  0.00     0.041 A 
ATOM     87  F   UNL A   1      47.179  31.908  30.747  1.00  0.00    -0.206 F 
ATOM     88  C   UNL A   1      47.513  35.172  29.223  1.00  0.00     0.022 A 
BRANCH  85  89
ATOM     89  S   UNL A   1      46.928  36.227  26.709  1.00  0.00     0.124 S 
ATOM     90  O   UNL A   1      46.669  35.457  25.497  1.00  0.00    -0.237 OA
ATOM     91  O   UNL A   1      45.854  37.115  27.142  1.00  0.00    -0.237 OA
ATOM     92  O   UNL A   1      48.274  36.789  26.811  1.00  0.00    -0.744 OA
ENDBRANCH  85  89
ENDBRANCH  59  82
ENDBRANCH  33  34
ENDBRANCH  25  28
ENDBRANCH  23  24
ENDBRANCH  22  23
ENDBRANCH  21  22
ENDBRANCH   3  21
TORSDOF 20
ENDMDL
