MODEL 1
REMARK VINA RESULT:     -13.1      0.000      0.000
REMARK SMILES O=C1OC(c2ccc(Cl)cc2)=N/C1=C/Nc1ccc(O)c(C(=O)NCCCNC(=O)c2ccc(-c3c4nc(c(-c5cc(S(=O)(=O)[O-])ccc5F)c5ccc([nH]5)c(-c5cc(S(=O)(=O)[O-])ccc5F)c5nc(c(-c6cc(S(=O)(=O)[O-])ccc6F)c6ccc3[nH]6)C=C5)C=C4)cc2)c1
REMARK SMILES IDX 26 1 25 2 24 3 22 4 23 5 21 7 16 8 17 9 94 10 18 11 19 12
REMARK SMILES IDX 15 13 14 15 1 16 2 17 3 18 13 19 4 20 12 21 5 22 6 23 11 24
REMARK SMILES IDX 7 25 10 26 8 27 9 28 20 29 27 31 28 32 29 33 30 35 31 36
REMARK SMILES IDX 32 37 93 38 33 39 92 40 34 41 35 42 36 43 86 44 37 45 91 46
REMARK SMILES IDX 85 47 87 48 38 49 90 50 84 51 83 52 39 54 71 55 51 56 70 57
REMARK SMILES IDX 52 58 55 59 69 60 88 61 53 62 54 63 68 65 89 66 56 67 40 68
REMARK SMILES IDX 41 69 49 70 42 71 48 72 50 73 47 74 43 75 44 76 45 77 46 78
REMARK SMILES IDX 72 79 73 80 81 81 74 82 80 83 82 84 79 85 75 86 76 87 77 88
REMARK SMILES IDX 78 89 57 90 58 91 66 92 59 93 65 94 67 95 64 96 60 97 61 98
REMARK SMILES IDX 62 99 63 100
REMARK H PARENT 24 6 15 14 20 30 28 34 87 53 55 64
REMARK Flexibility Score: inf
ROOT
ATOM      1  C   UNL A   1      33.637  28.957  23.307  1.00  0.00     0.042 C 
ENDROOT
BRANCH   1   2
ATOM      2  C   UNL A   1      32.343  28.364  22.746  1.00  0.00     0.118 C 
BRANCH   2   3
ATOM      3  N   UNL A   1      31.552  29.389  22.100  1.00  0.00    -0.352 N 
ATOM      4  C   UNL A   1      30.202  29.587  21.988  1.00  0.00     0.255 C 
ATOM      5  O   UNL A   1      29.863  30.561  21.306  1.00  0.00    -0.269 OA
ATOM      6  H   UNL A   1      32.090  30.081  21.654  1.00  0.00     0.163 HD
BRANCH   4   7
ATOM      7  C   UNL A   1      29.136  28.801  22.687  1.00  0.00     0.083 A 
ATOM      8  C   UNL A   1      28.751  26.701  23.919  1.00  0.00     0.039 A 
ATOM      9  C   UNL A   1      27.392  27.002  23.983  1.00  0.00     0.030 A 
ATOM     10  C   UNL A   1      29.599  27.591  23.252  1.00  0.00     0.043 A 
ATOM     11  C   UNL A   1      26.914  28.211  23.487  1.00  0.00     0.049 A 
ATOM     12  C   UNL A   1      27.786  29.118  22.873  1.00  0.00     0.128 A 
BRANCH   8  13
ATOM     13  N   UNL A   1      29.279  25.515  24.444  1.00  0.00    -0.360 N 
ATOM     14  H   UNL A   1      28.835  25.147  25.243  1.00  0.00     0.166 HD
BRANCH  13  15
ATOM     15  C   UNL A   1      30.352  24.818  23.959  1.00  0.00     0.119 C 
ATOM     16  O   UNL A   1      30.732  24.607  26.953  1.00  0.00    -0.244 OA
ATOM     17  C   UNL A   1      31.454  24.141  26.098  1.00  0.00     0.365 C 
ATOM     18  O   UNL A   1      32.577  23.385  26.277  1.00  0.00    -0.402 OA
ATOM     19  C   UNL A   1      31.357  24.235  24.617  1.00  0.00     0.168 C 
ATOM     20  C   UNL A   1      33.064  23.146  25.039  1.00  0.00     0.231 C 
ATOM     21  N   UNL A   1      32.419  23.612  24.020  1.00  0.00    -0.204 NA
BRANCH  20  22
ATOM     22  C   UNL A   1      34.330  22.427  24.998  1.00  0.00     0.037 A 
ATOM     23  C   UNL A   1      35.542  23.120  25.016  1.00  0.00     0.015 A 
ATOM     24  C   UNL A   1      34.300  21.029  24.983  1.00  0.00     0.015 A 
ATOM     25  C   UNL A   1      36.738  22.400  25.024  1.00  0.00     0.021 A 
ATOM     26  C   UNL A   1      35.498  20.315  24.970  1.00  0.00     0.021 A 
ATOM     27  C   UNL A   1      36.712  21.004  24.996  1.00  0.00     0.041 A 
ATOM     28  Cl  UNL A   1      38.188  20.121  25.001  1.00  0.00    -0.084 Cl
ENDBRANCH  20  22
ENDBRANCH  13  15
ENDBRANCH   8  13
BRANCH  12  29
ATOM     29  O   UNL A   1      27.260  30.328  22.534  1.00  0.00    -0.507 OA
ATOM     30  H   UNL A   1      26.336  30.471  22.595  1.00  0.00     0.293 HD
ENDBRANCH  12  29
ENDBRANCH   4   7
ENDBRANCH   2   3
ENDBRANCH   1   2
BRANCH   1  31
ATOM     31  C   UNL A   1      33.655  29.023  24.830  1.00  0.00     0.118 C 
BRANCH  31  32
ATOM     32  N   UNL A   1      32.888  30.160  25.323  1.00  0.00    -0.352 N 
ATOM     33  C   UNL A   1      32.967  30.818  26.524  1.00  0.00     0.251 C 
ATOM     34  H   UNL A   1      32.212  30.509  24.700  1.00  0.00     0.163 HD
ATOM     35  O   UNL A   1      32.048  31.559  26.865  1.00  0.00    -0.269 OA
BRANCH  33  36
ATOM     36  C   UNL A   1      34.139  30.628  27.407  1.00  0.00     0.039 A 
ATOM     37  C   UNL A   1      34.313  29.398  28.045  1.00  0.00     0.014 A 
ATOM     38  C   UNL A   1      35.050  31.666  27.625  1.00  0.00     0.014 A 
ATOM     39  C   UNL A   1      35.436  29.187  28.847  1.00  0.00     0.010 A 
ATOM     40  C   UNL A   1      36.209  31.428  28.359  1.00  0.00     0.010 A 
ATOM     41  C   UNL A   1      36.415  30.185  28.975  1.00  0.00    -0.014 A 
BRANCH  41  42
ATOM     42  C   UNL A   1      37.674  29.941  29.724  1.00  0.00     0.031 A 
ATOM     43  C   UNL A   1      38.732  29.034  29.159  1.00  0.00     0.074 A 
ATOM     44  C   UNL A   1      37.828  30.484  30.948  1.00  0.00     0.049 A 
ATOM     45  N   UNL A   1      39.853  28.633  29.700  1.00  0.00    -0.248 NA
ATOM     46  C   UNL A   1      38.478  28.488  27.818  1.00  0.00     0.031 C 
ATOM     47  C   UNL A   1      36.857  31.358  31.610  1.00  0.00     0.029 A 
ATOM     48  N   UNL A   1      38.851  30.379  31.856  1.00  0.00    -0.354 N 
ATOM     49  C   UNL A   1      40.438  27.781  28.769  1.00  0.00     0.074 A 
ATOM     50  C   UNL A   1      39.510  27.673  27.662  1.00  0.00     0.031 C 
ATOM     51  C   UNL A   1      37.344  31.733  32.803  1.00  0.00     0.029 A 
ATOM     52  C   UNL A   1      38.631  31.079  33.019  1.00  0.00     0.049 A 
ATOM     53  H   UNL A   1      39.665  29.851  31.692  1.00  0.00     0.167 HD
ATOM     54  C   UNL A   1      41.646  27.165  28.825  1.00  0.00     0.034 A 
ATOM     55  C   UNL A   1      39.371  31.169  34.142  1.00  0.00     0.034 A 
ATOM     56  C   UNL A   1      42.548  27.278  29.946  1.00  0.00     0.049 A 
ATOM     57  C   UNL A   1      40.673  30.416  34.214  1.00  0.00     0.074 A 
ATOM     58  C   UNL A   1      43.812  26.734  30.094  1.00  0.00     0.029 A 
ATOM     59  N   UNL A   1      42.276  27.967  31.122  1.00  0.00    -0.354 N 
ATOM     60  N   UNL A   1      41.238  29.652  33.306  1.00  0.00    -0.248 NA
ATOM     61  C   UNL A   1      41.440  30.539  35.460  1.00  0.00     0.031 C 
ATOM     62  C   UNL A   1      44.265  27.020  31.385  1.00  0.00     0.029 A 
ATOM     63  C   UNL A   1      43.327  27.822  32.016  1.00  0.00     0.049 A 
ATOM     64  H   UNL A   1      41.455  28.484  31.296  1.00  0.00     0.167 HD
ATOM     65  C   UNL A   1      42.440  29.227  33.863  1.00  0.00     0.074 A 
ATOM     66  C   UNL A   1      42.525  29.832  35.177  1.00  0.00     0.031 C 
ATOM     67  C   UNL A   1      43.392  28.415  33.333  1.00  0.00     0.034 A 
BRANCH  54  68
ATOM     68  C   UNL A   1      42.033  26.290  27.655  1.00  0.00     0.023 A 
ATOM     69  C   UNL A   1      41.618  24.949  27.567  1.00  0.00     0.031 A 
ATOM     70  C   UNL A   1      42.864  26.785  26.634  1.00  0.00     0.131 A 
ATOM     71  C   UNL A   1      42.107  24.127  26.540  1.00  0.00     0.055 A 
ATOM     72  C   UNL A   1      43.269  25.988  25.561  1.00  0.00     0.041 A 
ATOM     73  F   UNL A   1      43.313  28.050  26.669  1.00  0.00    -0.206 F 
ATOM     74  C   UNL A   1      42.907  24.645  25.520  1.00  0.00     0.022 A 
BRANCH  71  75
ATOM     75  S   UNL A   1      41.828  22.339  26.660  1.00  0.00     0.124 S 
ATOM     76  O   UNL A   1      42.659  21.987  27.809  1.00  0.00    -0.237 OA
ATOM     77  O   UNL A   1      40.386  22.258  26.865  1.00  0.00    -0.237 OA
ATOM     78  O   UNL A   1      42.306  21.831  25.376  1.00  0.00    -0.744 OA
ENDBRANCH  71  75
ENDBRANCH  54  68
BRANCH  55  79
ATOM     79  C   UNL A   1      38.895  31.991  35.292  1.00  0.00     0.023 A 
ATOM     80  C   UNL A   1      38.331  31.385  36.425  1.00  0.00     0.031 A 
ATOM     81  C   UNL A   1      38.975  33.395  35.266  1.00  0.00     0.131 A 
ATOM     82  C   UNL A   1      37.831  32.180  37.468  1.00  0.00     0.055 A 
ATOM     83  C   UNL A   1      38.528  34.180  36.331  1.00  0.00     0.041 A 
ATOM     84  F   UNL A   1      39.507  34.027  34.207  1.00  0.00    -0.206 F 
ATOM     85  C   UNL A   1      37.942  33.572  37.436  1.00  0.00     0.022 A 
BRANCH  82  86
ATOM     86  S   UNL A   1      36.955  31.370  38.834  1.00  0.00     0.124 S 
ATOM     87  O   UNL A   1      35.708  32.124  38.874  1.00  0.00    -0.237 OA
ATOM     88  O   UNL A   1      36.860  29.994  38.359  1.00  0.00    -0.237 OA
ATOM     89  O   UNL A   1      37.846  31.572  39.975  1.00  0.00    -0.744 OA
ENDBRANCH  82  86
ENDBRANCH  55  79
BRANCH  67  90
ATOM     90  C   UNL A   1      44.625  28.166  34.167  1.00  0.00     0.023 A 
ATOM     91  C   UNL A   1      44.719  27.072  35.045  1.00  0.00     0.031 A 
ATOM     92  C   UNL A   1      45.727  29.037  34.078  1.00  0.00     0.131 A 
ATOM     93  C   UNL A   1      45.867  26.907  35.835  1.00  0.00     0.055 A 
ATOM     94  C   UNL A   1      46.891  28.830  34.817  1.00  0.00     0.041 A 
ATOM     95  F   UNL A   1      45.691  30.103  33.262  1.00  0.00    -0.206 F 
ATOM     96  C   UNL A   1      46.962  27.766  35.710  1.00  0.00     0.022 A 
BRANCH  93  97
ATOM     97  S   UNL A   1      45.875  25.605  37.099  1.00  0.00     0.124 S 
ATOM     98  O   UNL A   1      47.283  25.565  37.482  1.00  0.00    -0.237 OA
ATOM     99  O   UNL A   1      44.957  26.135  38.101  1.00  0.00    -0.237 OA
ATOM    100  O   UNL A   1      45.395  24.426  36.381  1.00  0.00    -0.744 OA
ENDBRANCH  93  97
ENDBRANCH  67  90
ENDBRANCH  41  42
ENDBRANCH  33  36
ENDBRANCH  31  32
ENDBRANCH   1  31
TORSDOF 17
ENDMDL
MODEL 2
REMARK VINA RESULT:     -12.9      2.449      3.206
REMARK SMILES O=C1OC(c2ccc(Cl)cc2)=N/C1=C/Nc1ccc(O)c(C(=O)NCCCNC(=O)c2ccc(-c3c4nc(c(-c5cc(S(=O)(=O)[O-])ccc5F)c5ccc([nH]5)c(-c5cc(S(=O)(=O)[O-])ccc5F)c5nc(c(-c6cc(S(=O)(=O)[O-])ccc6F)c6ccc3[nH]6)C=C5)C=C4)cc2)c1
REMARK SMILES IDX 26 1 25 2 24 3 22 4 23 5 21 7 16 8 17 9 94 10 18 11 19 12
REMARK SMILES IDX 15 13 14 15 1 16 2 17 3 18 13 19 4 20 12 21 5 22 6 23 11 24
REMARK SMILES IDX 7 25 10 26 8 27 9 28 20 29 27 31 28 32 29 33 30 35 31 36
REMARK SMILES IDX 32 37 93 38 33 39 92 40 34 41 35 42 36 43 86 44 37 45 91 46
REMARK SMILES IDX 85 47 87 48 38 49 90 50 84 51 83 52 39 54 71 55 51 56 70 57
REMARK SMILES IDX 52 58 55 59 69 60 88 61 53 62 54 63 68 65 89 66 56 67 40 68
REMARK SMILES IDX 41 69 49 70 42 71 48 72 50 73 47 74 43 75 44 76 45 77 46 78
REMARK SMILES IDX 72 79 73 80 81 81 74 82 80 83 82 84 79 85 75 86 76 87 77 88
REMARK SMILES IDX 78 89 57 90 58 91 66 92 59 93 65 94 67 95 64 96 60 97 61 98
REMARK SMILES IDX 62 99 63 100
REMARK H PARENT 24 6 15 14 20 30 28 34 87 53 55 64
REMARK Flexibility Score: inf
ROOT
ATOM      1  C   UNL A   1      31.887  31.758  26.879  1.00  0.00     0.042 C 
ENDROOT
BRANCH   1   2
ATOM      2  C   UNL A   1      32.136  30.263  26.666  1.00  0.00     0.118 C 
BRANCH   2   3
ATOM      3  N   UNL A   1      32.822  30.036  25.412  1.00  0.00    -0.352 N 
ATOM      4  C   UNL A   1      32.483  29.345  24.281  1.00  0.00     0.255 C 
ATOM      5  O   UNL A   1      33.348  29.313  23.398  1.00  0.00    -0.269 OA
ATOM      6  H   UNL A   1      33.707  30.462  25.363  1.00  0.00     0.163 HD
BRANCH   4   7
ATOM      7  C   UNL A   1      31.149  28.728  23.993  1.00  0.00     0.083 A 
ATOM      8  C   UNL A   1      29.922  26.593  24.102  1.00  0.00     0.039 A 
ATOM      9  C   UNL A   1      28.831  27.204  23.486  1.00  0.00     0.030 A 
ATOM     10  C   UNL A   1      31.072  27.357  24.325  1.00  0.00     0.043 A 
ATOM     11  C   UNL A   1      28.853  28.565  23.199  1.00  0.00     0.049 A 
ATOM     12  C   UNL A   1      29.993  29.328  23.481  1.00  0.00     0.128 A 
BRANCH   8  13
ATOM     13  N   UNL A   1      29.922  25.236  24.446  1.00  0.00    -0.360 N 
ATOM     14  H   UNL A   1      29.372  24.975  25.221  1.00  0.00     0.166 HD
BRANCH  13  15
ATOM     15  C   UNL A   1      30.612  24.238  23.814  1.00  0.00     0.119 C 
ATOM     16  O   UNL A   1      30.278  23.136  26.612  1.00  0.00    -0.244 OA
ATOM     17  C   UNL A   1      30.843  22.597  25.685  1.00  0.00     0.365 C 
ATOM     18  O   UNL A   1      31.423  21.360  25.669  1.00  0.00    -0.402 OA
ATOM     19  C   UNL A   1      31.082  23.087  24.302  1.00  0.00     0.168 C 
ATOM     20  C   UNL A   1      31.964  21.221  24.438  1.00  0.00     0.231 C 
ATOM     21  N   UNL A   1      31.818  22.182  23.586  1.00  0.00    -0.204 NA
BRANCH  20  22
ATOM     22  C   UNL A   1      32.726  19.998  24.230  1.00  0.00     0.037 A 
ATOM     23  C   UNL A   1      33.982  19.834  24.819  1.00  0.00     0.015 A 
ATOM     24  C   UNL A   1      32.153  18.979  23.462  1.00  0.00     0.015 A 
ATOM     25  C   UNL A   1      34.667  18.630  24.639  1.00  0.00     0.021 A 
ATOM     26  C   UNL A   1      32.851  17.787  23.269  1.00  0.00     0.021 A 
ATOM     27  C   UNL A   1      34.102  17.616  23.862  1.00  0.00     0.041 A 
ATOM     28  Cl  UNL A   1      34.951  16.138  23.639  1.00  0.00    -0.084 Cl
ENDBRANCH  20  22
ENDBRANCH  13  15
ENDBRANCH   8  13
BRANCH  12  29
ATOM     29  O   UNL A   1      29.883  30.672  23.289  1.00  0.00    -0.507 OA
ATOM     30  H   UNL A   1      30.511  31.123  22.760  1.00  0.00     0.293 HD
ENDBRANCH  12  29
ENDBRANCH   4   7
ENDBRANCH   2   3
ENDBRANCH   1   2
BRANCH   1  31
ATOM     31  C   UNL A   1      33.150  32.529  27.245  1.00  0.00     0.118 C 
BRANCH  31  32
ATOM     32  N   UNL A   1      32.837  33.870  27.718  1.00  0.00    -0.352 N 
ATOM     33  C   UNL A   1      33.278  34.533  28.836  1.00  0.00     0.251 C 
ATOM     34  H   UNL A   1      32.215  34.379  27.150  1.00  0.00     0.163 HD
ATOM     35  O   UNL A   1      32.680  35.538  29.213  1.00  0.00    -0.269 OA
BRANCH  33  36
ATOM     36  C   UNL A   1      34.451  34.036  29.587  1.00  0.00     0.039 A 
ATOM     37  C   UNL A   1      34.246  33.207  30.692  1.00  0.00     0.014 A 
ATOM     38  C   UNL A   1      35.749  34.405  29.219  1.00  0.00     0.014 A 
ATOM     39  C   UNL A   1      35.344  32.694  31.386  1.00  0.00     0.010 A 
ATOM     40  C   UNL A   1      36.842  33.830  29.861  1.00  0.00     0.010 A 
ATOM     41  C   UNL A   1      36.650  32.965  30.949  1.00  0.00    -0.014 A 
BRANCH  41  42
ATOM     42  C   UNL A   1      37.829  32.335  31.598  1.00  0.00     0.031 A 
ATOM     43  C   UNL A   1      38.545  31.196  30.929  1.00  0.00     0.074 A 
ATOM     44  C   UNL A   1      38.204  32.749  32.824  1.00  0.00     0.049 A 
ATOM     45  N   UNL A   1      39.534  30.465  31.374  1.00  0.00    -0.248 NA
ATOM     46  C   UNL A   1      38.066  30.814  29.593  1.00  0.00     0.031 C 
ATOM     47  C   UNL A   1      37.566  33.827  33.583  1.00  0.00     0.029 A 
ATOM     48  N   UNL A   1      39.206  32.309  33.652  1.00  0.00    -0.354 N 
ATOM     49  C   UNL A   1      39.793  29.531  30.377  1.00  0.00     0.074 A 
ATOM     50  C   UNL A   1      38.810  29.749  29.336  1.00  0.00     0.031 C 
ATOM     51  C   UNL A   1      38.211  33.986  34.748  1.00  0.00     0.029 A 
ATOM     52  C   UNL A   1      39.266  32.983  34.850  1.00  0.00     0.049 A 
ATOM     53  H   UNL A   1      39.824  31.582  33.413  1.00  0.00     0.167 HD
ATOM     54  C   UNL A   1      40.775  28.595  30.326  1.00  0.00     0.034 A 
ATOM     55  C   UNL A   1      40.066  32.801  35.919  1.00  0.00     0.034 A 
ATOM     56  C   UNL A   1      41.736  28.388  31.383  1.00  0.00     0.049 A 
ATOM     57  C   UNL A   1      41.100  31.706  35.873  1.00  0.00     0.074 A 
ATOM     58  C   UNL A   1      42.797  27.501  31.421  1.00  0.00     0.029 A 
ATOM     59  N   UNL A   1      41.744  29.065  32.597  1.00  0.00    -0.354 N 
ATOM     60  N   UNL A   1      41.366  30.861  34.903  1.00  0.00    -0.248 NA
ATOM     61  C   UNL A   1      41.942  31.541  37.064  1.00  0.00     0.031 C 
ATOM     62  C   UNL A   1      43.390  27.579  32.685  1.00  0.00     0.029 A 
ATOM     63  C   UNL A   1      42.761  28.582  33.407  1.00  0.00     0.049 A 
ATOM     64  H   UNL A   1      41.119  29.784  32.845  1.00  0.00     0.167 HD
ATOM     65  C   UNL A   1      42.427  30.083  35.358  1.00  0.00     0.074 A 
ATOM     66  C   UNL A   1      42.760  30.571  36.681  1.00  0.00     0.031 C 
ATOM     67  C   UNL A   1      43.072  29.063  34.734  1.00  0.00     0.034 A 
BRANCH  54  68
ATOM     68  C   UNL A   1      40.824  27.708  29.103  1.00  0.00     0.023 A 
ATOM     69  C   UNL A   1      41.758  27.923  28.073  1.00  0.00     0.031 A 
ATOM     70  C   UNL A   1      39.900  26.661  28.939  1.00  0.00     0.131 A 
ATOM     71  C   UNL A   1      41.688  27.170  26.892  1.00  0.00     0.055 A 
ATOM     72  C   UNL A   1      39.898  25.851  27.801  1.00  0.00     0.041 A 
ATOM     73  F   UNL A   1      38.969  26.416  29.874  1.00  0.00    -0.206 F 
ATOM     74  C   UNL A   1      40.782  26.115  26.760  1.00  0.00     0.022 A 
BRANCH  71  75
ATOM     75  S   UNL A   1      42.674  27.706  25.467  1.00  0.00     0.124 S 
ATOM     76  O   UNL A   1      42.653  26.511  24.627  1.00  0.00    -0.237 OA
ATOM     77  O   UNL A   1      41.918  28.850  24.972  1.00  0.00    -0.237 OA
ATOM     78  O   UNL A   1      43.975  28.024  26.052  1.00  0.00    -0.744 OA
ENDBRANCH  71  75
ENDBRANCH  54  68
BRANCH  55  79
ATOM     79  C   UNL A   1      39.916  33.663  37.126  1.00  0.00     0.023 A 
ATOM     80  C   UNL A   1      39.371  33.151  38.314  1.00  0.00     0.031 A 
ATOM     81  C   UNL A   1      40.292  35.019  37.105  1.00  0.00     0.131 A 
ATOM     82  C   UNL A   1      39.179  33.996  39.417  1.00  0.00     0.055 A 
ATOM     83  C   UNL A   1      40.152  35.842  38.223  1.00  0.00     0.041 A 
ATOM     84  F   UNL A   1      40.820  35.560  35.995  1.00  0.00    -0.206 F 
ATOM     85  C   UNL A   1      39.582  35.334  39.386  1.00  0.00     0.022 A 
BRANCH  82  86
ATOM     86  S   UNL A   1      38.316  33.343  40.872  1.00  0.00     0.124 S 
ATOM     87  O   UNL A   1      38.671  31.930  40.818  1.00  0.00    -0.237 OA
ATOM     88  O   UNL A   1      38.918  34.116  41.954  1.00  0.00    -0.237 OA
ATOM     89  O   UNL A   1      36.913  33.647  40.599  1.00  0.00    -0.744 OA
ENDBRANCH  82  86
ENDBRANCH  55  79
BRANCH  67  90
ATOM     90  C   UNL A   1      44.229  28.430  35.469  1.00  0.00     0.023 A 
ATOM     91  C   UNL A   1      44.041  27.391  36.397  1.00  0.00     0.031 A 
ATOM     92  C   UNL A   1      45.543  28.874  35.233  1.00  0.00     0.131 A 
ATOM     93  C   UNL A   1      45.141  26.866  37.091  1.00  0.00     0.055 A 
ATOM     94  C   UNL A   1      46.640  28.303  35.877  1.00  0.00     0.041 A 
ATOM     95  F   UNL A   1      45.783  29.869  34.364  1.00  0.00    -0.206 F 
ATOM     96  C   UNL A   1      46.442  27.299  36.821  1.00  0.00     0.022 A 
BRANCH  93  97
ATOM     97  S   UNL A   1      44.843  25.670  38.421  1.00  0.00     0.124 S 
ATOM     98  O   UNL A   1      43.790  26.328  39.188  1.00  0.00    -0.237 OA
ATOM     99  O   UNL A   1      44.443  24.475  37.686  1.00  0.00    -0.237 OA
ATOM    100  O   UNL A   1      46.135  25.578  39.097  1.00  0.00    -0.744 OA
ENDBRANCH  93  97
ENDBRANCH  67  90
ENDBRANCH  41  42
ENDBRANCH  33  36
ENDBRANCH  31  32
ENDBRANCH   1  31
TORSDOF 17
ENDMDL
MODEL 3
REMARK VINA RESULT:     -12.7      5.912     10.837
REMARK SMILES O=C1OC(c2ccc(Cl)cc2)=N/C1=C/Nc1ccc(O)c(C(=O)NCCCNC(=O)c2ccc(-c3c4nc(c(-c5cc(S(=O)(=O)[O-])ccc5F)c5ccc([nH]5)c(-c5cc(S(=O)(=O)[O-])ccc5F)c5nc(c(-c6cc(S(=O)(=O)[O-])ccc6F)c6ccc3[nH]6)C=C5)C=C4)cc2)c1
REMARK SMILES IDX 26 1 25 2 24 3 22 4 23 5 21 7 16 8 17 9 94 10 18 11 19 12
REMARK SMILES IDX 15 13 14 15 1 16 2 17 3 18 13 19 4 20 12 21 5 22 6 23 11 24
REMARK SMILES IDX 7 25 10 26 8 27 9 28 20 29 27 31 28 32 29 33 30 35 31 36
REMARK SMILES IDX 32 37 93 38 33 39 92 40 34 41 35 42 36 43 86 44 37 45 91 46
REMARK SMILES IDX 85 47 87 48 38 49 90 50 84 51 83 52 39 54 71 55 51 56 70 57
REMARK SMILES IDX 52 58 55 59 69 60 88 61 53 62 54 63 68 65 89 66 56 67 40 68
REMARK SMILES IDX 41 69 49 70 42 71 48 72 50 73 47 74 43 75 44 76 45 77 46 78
REMARK SMILES IDX 72 79 73 80 81 81 74 82 80 83 82 84 79 85 75 86 76 87 77 88
REMARK SMILES IDX 78 89 57 90 58 91 66 92 59 93 65 94 67 95 64 96 60 97 61 98
REMARK SMILES IDX 62 99 63 100
REMARK H PARENT 24 6 15 14 20 30 28 34 87 53 55 64
REMARK Flexibility Score: inf
ROOT
ATOM      1  C   UNL A   1      38.190  20.183  25.134  1.00  0.00     0.042 C 
ENDROOT
BRANCH   1   2
ATOM      2  C   UNL A   1      37.219  21.344  24.906  1.00  0.00     0.118 C 
BRANCH   2   3
ATOM      3  N   UNL A   1      36.291  21.455  26.009  1.00  0.00    -0.352 N 
ATOM      4  C   UNL A   1      34.933  21.304  26.099  1.00  0.00     0.255 C 
ATOM      5  O   UNL A   1      34.445  21.527  27.213  1.00  0.00    -0.269 OA
ATOM      6  H   UNL A   1      36.719  21.684  26.865  1.00  0.00     0.163 HD
BRANCH   4   7
ATOM      7  C   UNL A   1      34.030  20.806  25.013  1.00  0.00     0.083 A 
ATOM      8  C   UNL A   1      32.443  21.573  23.289  1.00  0.00     0.039 A 
ATOM      9  C   UNL A   1      32.159  20.244  22.978  1.00  0.00     0.030 A 
ATOM     10  C   UNL A   1      33.356  21.834  24.317  1.00  0.00     0.043 A 
ATOM     11  C   UNL A   1      32.847  19.210  23.605  1.00  0.00     0.049 A 
ATOM     12  C   UNL A   1      33.799  19.491  24.592  1.00  0.00     0.128 A 
BRANCH   8  13
ATOM     13  N   UNL A   1      31.804  22.642  22.651  1.00  0.00    -0.360 N 
ATOM     14  H   UNL A   1      31.759  22.610  21.668  1.00  0.00     0.166 HD
BRANCH  13  15
ATOM     15  C   UNL A   1      31.238  23.730  23.259  1.00  0.00     0.119 C 
ATOM     16  O   UNL A   1      33.977  24.760  22.490  1.00  0.00    -0.244 OA
ATOM     17  C   UNL A   1      33.109  25.377  23.068  1.00  0.00     0.365 C 
ATOM     18  O   UNL A   1      33.141  26.681  23.472  1.00  0.00    -0.402 OA
ATOM     19  C   UNL A   1      31.761  24.932  23.514  1.00  0.00     0.168 C 
ATOM     20  C   UNL A   1      31.971  26.900  24.113  1.00  0.00     0.231 C 
ATOM     21  N   UNL A   1      31.117  25.933  24.189  1.00  0.00    -0.204 NA
BRANCH  20  22
ATOM     22  C   UNL A   1      31.833  28.218  24.718  1.00  0.00     0.037 A 
ATOM     23  C   UNL A   1      30.962  29.163  24.172  1.00  0.00     0.015 A 
ATOM     24  C   UNL A   1      32.560  28.496  25.880  1.00  0.00     0.015 A 
ATOM     25  C   UNL A   1      30.816  30.400  24.803  1.00  0.00     0.021 A 
ATOM     26  C   UNL A   1      32.427  29.741  26.494  1.00  0.00     0.021 A 
ATOM     27  C   UNL A   1      31.551  30.685  25.956  1.00  0.00     0.041 A 
ATOM     28  Cl  UNL A   1      31.373  32.212  26.727  1.00  0.00    -0.084 Cl
ENDBRANCH  20  22
ENDBRANCH  13  15
ENDBRANCH   8  13
BRANCH  12  29
ATOM     29  O   UNL A   1      34.516  18.431  25.059  1.00  0.00    -0.507 OA
ATOM     30  H   UNL A   1      34.190  17.924  25.776  1.00  0.00     0.293 HD
ENDBRANCH  12  29
ENDBRANCH   4   7
ENDBRANCH   2   3
ENDBRANCH   1   2
BRANCH   1  31
ATOM     31  C   UNL A   1      39.336  20.537  26.074  1.00  0.00     0.118 C 
BRANCH  31  32
ATOM     32  N   UNL A   1      40.369  19.510  26.065  1.00  0.00    -0.352 N 
ATOM     33  C   UNL A   1      41.735  19.637  26.040  1.00  0.00     0.251 C 
ATOM     34  H   UNL A   1      40.037  18.583  26.079  1.00  0.00     0.163 HD
ATOM     35  O   UNL A   1      42.423  18.663  25.744  1.00  0.00    -0.269 OA
BRANCH  33  36
ATOM     36  C   UNL A   1      42.372  20.935  26.353  1.00  0.00     0.039 A 
ATOM     37  C   UNL A   1      42.707  21.794  25.303  1.00  0.00     0.014 A 
ATOM     38  C   UNL A   1      42.661  21.294  27.672  1.00  0.00     0.014 A 
ATOM     39  C   UNL A   1      43.269  23.041  25.583  1.00  0.00     0.010 A 
ATOM     40  C   UNL A   1      43.147  22.568  27.954  1.00  0.00     0.010 A 
ATOM     41  C   UNL A   1      43.452  23.456  26.912  1.00  0.00    -0.014 A 
BRANCH  41  42
ATOM     42  C   UNL A   1      43.936  24.823  27.234  1.00  0.00     0.031 A 
ATOM     43  C   UNL A   1      42.986  25.860  27.764  1.00  0.00     0.074 A 
ATOM     44  C   UNL A   1      45.220  25.143  26.981  1.00  0.00     0.049 A 
ATOM     45  N   UNL A   1      43.201  27.124  28.021  1.00  0.00    -0.248 NA
ATOM     46  C   UNL A   1      41.605  25.420  28.009  1.00  0.00     0.031 C 
ATOM     47  C   UNL A   1      46.227  24.227  26.442  1.00  0.00     0.029 A 
ATOM     48  N   UNL A   1      45.898  26.326  27.136  1.00  0.00    -0.354 N 
ATOM     49  C   UNL A   1      41.981  27.634  28.453  1.00  0.00     0.074 A 
ATOM     50  C   UNL A   1      41.020  26.556  28.356  1.00  0.00     0.031 C 
ATOM     51  C   UNL A   1      47.400  24.871  26.341  1.00  0.00     0.029 A 
ATOM     52  C   UNL A   1      47.216  26.261  26.747  1.00  0.00     0.049 A 
ATOM     53  H   UNL A   1      45.482  27.143  27.491  1.00  0.00     0.167 HD
ATOM     54  C   UNL A   1      41.698  28.881  28.910  1.00  0.00     0.034 A 
ATOM     55  C   UNL A   1      48.165  27.217  26.701  1.00  0.00     0.034 A 
ATOM     56  C   UNL A   1      42.672  29.944  28.986  1.00  0.00     0.049 A 
ATOM     57  C   UNL A   1      47.809  28.613  27.141  1.00  0.00     0.074 A 
ATOM     58  C   UNL A   1      42.508  31.230  29.471  1.00  0.00     0.029 A 
ATOM     59  N   UNL A   1      43.988  29.852  28.550  1.00  0.00    -0.354 N 
ATOM     60  N   UNL A   1      46.664  29.070  27.594  1.00  0.00    -0.248 NA
ATOM     61  C   UNL A   1      48.874  29.621  27.066  1.00  0.00     0.031 C 
ATOM     62  C   UNL A   1      43.693  31.937  29.248  1.00  0.00     0.029 A 
ATOM     63  C   UNL A   1      44.631  31.070  28.710  1.00  0.00     0.049 A 
ATOM     64  H   UNL A   1      44.404  29.039  28.180  1.00  0.00     0.167 HD
ATOM     65  C   UNL A   1      46.881  30.414  27.885  1.00  0.00     0.074 A 
ATOM     66  C   UNL A   1      48.268  30.687  27.571  1.00  0.00     0.031 C 
ATOM     67  C   UNL A   1      46.012  31.337  28.374  1.00  0.00     0.034 A 
BRANCH  54  68
ATOM     68  C   UNL A   1      40.271  29.159  29.324  1.00  0.00     0.023 A 
ATOM     69  C   UNL A   1      39.870  29.104  30.672  1.00  0.00     0.031 A 
ATOM     70  C   UNL A   1      39.287  29.440  28.360  1.00  0.00     0.131 A 
ATOM     71  C   UNL A   1      38.513  29.232  31.007  1.00  0.00     0.055 A 
ATOM     72  C   UNL A   1      37.953  29.663  28.711  1.00  0.00     0.041 A 
ATOM     73  F   UNL A   1      39.599  29.486  27.055  1.00  0.00    -0.206 F 
ATOM     74  C   UNL A   1      37.556  29.540  30.039  1.00  0.00     0.022 A 
BRANCH  71  75
ATOM     75  S   UNL A   1      37.999  28.813  32.695  1.00  0.00     0.124 S 
ATOM     76  O   UNL A   1      36.628  29.315  32.719  1.00  0.00    -0.237 OA
ATOM     77  O   UNL A   1      38.150  27.362  32.720  1.00  0.00    -0.237 OA
ATOM     78  O   UNL A   1      38.941  29.552  33.533  1.00  0.00    -0.744 OA
ENDBRANCH  71  75
ENDBRANCH  54  68
BRANCH  55  79
ATOM     79  C   UNL A   1      49.536  26.893  26.211  1.00  0.00     0.023 A 
ATOM     80  C   UNL A   1      50.602  26.729  27.109  1.00  0.00     0.031 A 
ATOM     81  C   UNL A   1      49.807  26.767  24.837  1.00  0.00     0.131 A 
ATOM     82  C   UNL A   1      51.896  26.489  26.623  1.00  0.00     0.055 A 
ATOM     83  C   UNL A   1      51.085  26.471  24.360  1.00  0.00     0.041 A 
ATOM     84  F   UNL A   1      48.824  26.913  23.933  1.00  0.00    -0.206 F 
ATOM     85  C   UNL A   1      52.141  26.341  25.255  1.00  0.00     0.022 A 
BRANCH  82  86
ATOM     86  S   UNL A   1      53.274  26.454  27.802  1.00  0.00     0.124 S 
ATOM     87  O   UNL A   1      52.586  26.156  29.053  1.00  0.00    -0.237 OA
ATOM     88  O   UNL A   1      54.110  25.388  27.258  1.00  0.00    -0.237 OA
ATOM     89  O   UNL A   1      53.840  27.798  27.702  1.00  0.00    -0.744 OA
ENDBRANCH  82  86
ENDBRANCH  55  79
BRANCH  67  90
ATOM     90  C   UNL A   1      46.554  32.722  28.633  1.00  0.00     0.023 A 
ATOM     91  C   UNL A   1      46.593  33.704  27.628  1.00  0.00     0.031 A 
ATOM     92  C   UNL A   1      47.037  33.065  29.910  1.00  0.00     0.131 A 
ATOM     93  C   UNL A   1      47.149  34.962  27.902  1.00  0.00     0.055 A 
ATOM     94  C   UNL A   1      47.527  34.339  30.193  1.00  0.00     0.041 A 
ATOM     95  F   UNL A   1      47.032  32.165  30.907  1.00  0.00    -0.206 F 
ATOM     96  C   UNL A   1      47.596  35.293  29.183  1.00  0.00     0.022 A 
BRANCH  93  97
ATOM     97  S   UNL A   1      47.367  36.134  26.534  1.00  0.00     0.124 S 
ATOM     98  O   UNL A   1      47.951  37.286  27.215  1.00  0.00    -0.237 OA
ATOM     99  O   UNL A   1      48.258  35.407  25.636  1.00  0.00    -0.237 OA
ATOM    100  O   UNL A   1      46.009  36.334  26.033  1.00  0.00    -0.744 OA
ENDBRANCH  93  97
ENDBRANCH  67  90
ENDBRANCH  41  42
ENDBRANCH  33  36
ENDBRANCH  31  32
ENDBRANCH   1  31
TORSDOF 17
ENDMDL
