MODEL 1
REMARK VINA RESULT:     -11.9      0.000      0.000
REMARK SMILES O=C(Cc1ccc(S(=O)(=O)C[C@H]2CCCO2)cc1)NCCCNC(=O)c1ccc(-c2c3nc(c(-c4cc(S(=O)(=O)[O-])ccc4F)c4ccc([nH]4)c(-c4cc(S(=O)(=O)[O-])ccc4F)c4nc(c(-c5cc(S(=O)(=O)[O-])ccc5F)c5ccc2[nH]5)C=C4)C=C3)cc1
REMARK SMILES IDX 20 1 19 2 1 3 2 4 3 6 4 7 5 8 18 9 6 10 17 11 7 12 8 13 9 14
REMARK SMILES IDX 10 15 11 16 12 17 13 18 16 19 14 20 15 21 21 22 22 23 23 24
REMARK SMILES IDX 24 25 25 27 26 28 27 29 88 30 28 31 87 32 29 33 30 34 31 35
REMARK SMILES IDX 81 36 32 37 86 38 80 39 82 40 33 41 85 42 79 43 78 44 34 46
REMARK SMILES IDX 66 47 46 48 65 49 47 50 50 51 64 52 83 53 48 54 49 55 63 57
REMARK SMILES IDX 84 58 51 59 35 60 36 61 44 62 37 63 43 64 45 65 42 66 38 67
REMARK SMILES IDX 39 68 40 69 41 70 67 71 68 72 76 73 69 74 75 75 77 76 74 77
REMARK SMILES IDX 70 78 71 79 72 80 73 81 52 82 53 83 61 84 54 85 60 86 62 87
REMARK SMILES IDX 59 88 55 89 56 90 57 91 58 92
REMARK H PARENT 19 5 23 26 82 45 50 56
REMARK Flexibility Score: inf
ROOT
ATOM      1  C   UNL A   1      34.525  20.985  24.939  1.00  0.00     0.117 C 
ENDROOT
BRANCH   1   2
ATOM      2  N   UNL A   1      33.393  21.767  25.392  1.00  0.00    -0.356 N 
ATOM      3  O   UNL A   1      34.118  22.039  27.560  1.00  0.00    -0.275 OA
ATOM      4  C   UNL A   1      33.310  22.284  26.670  1.00  0.00     0.224 C 
ATOM      5  H   UNL A   1      32.654  21.937  24.764  1.00  0.00     0.163 HD
BRANCH   4   6
ATOM      6  C   UNL A   1      32.128  23.211  26.881  1.00  0.00     0.135 C 
BRANCH   6   7
ATOM      7  C   UNL A   1      32.213  24.559  26.189  1.00  0.00    -0.039 A 
ATOM      8  C   UNL A   1      33.418  25.239  25.956  1.00  0.00     0.005 A 
ATOM      9  C   UNL A   1      31.019  25.143  25.737  1.00  0.00     0.005 A 
ATOM     10  C   UNL A   1      33.435  26.445  25.251  1.00  0.00     0.020 A 
ATOM     11  C   UNL A   1      31.027  26.364  25.057  1.00  0.00     0.020 A 
ATOM     12  C   UNL A   1      32.239  27.003  24.795  1.00  0.00     0.067 A 
BRANCH  12  13
ATOM     13  S   UNL A   1      32.333  28.532  23.890  1.00  0.00     0.180 S 
ATOM     14  O   UNL A   1      33.128  29.418  24.725  1.00  0.00    -0.224 OA
ATOM     15  O   UNL A   1      32.785  28.219  22.547  1.00  0.00    -0.224 OA
BRANCH  13  16
ATOM     16  C   UNL A   1      30.726  29.255  23.791  1.00  0.00     0.174 C 
BRANCH  16  17
ATOM     17  C   UNL A   1      29.795  28.791  22.678  1.00  0.00     0.133 C 
ATOM     18  C   UNL A   1      28.434  28.275  23.120  1.00  0.00     0.035 C 
ATOM     19  O   UNL A   1      29.569  29.785  21.682  1.00  0.00    -0.377 OA
ATOM     20  C   UNL A   1      27.485  29.385  22.762  1.00  0.00     0.031 C 
ATOM     21  C   UNL A   1      28.159  30.047  21.581  1.00  0.00     0.160 C 
ENDBRANCH  16  17
ENDBRANCH  13  16
ENDBRANCH  12  13
ENDBRANCH   6   7
ENDBRANCH   4   6
ENDBRANCH   1   2
BRANCH   1  22
ATOM     22  C   UNL A   1      35.625  21.841  24.331  1.00  0.00     0.042 C 
BRANCH  22  23
ATOM     23  C   UNL A   1      36.768  22.182  25.283  1.00  0.00     0.118 C 
BRANCH  23  24
ATOM     24  N   UNL A   1      37.744  21.109  25.428  1.00  0.00    -0.352 N 
ATOM     25  C   UNL A   1      39.013  21.153  25.955  1.00  0.00     0.251 C 
ATOM     26  H   UNL A   1      37.453  20.227  25.101  1.00  0.00     0.163 HD
ATOM     27  O   UNL A   1      39.738  20.164  25.881  1.00  0.00    -0.269 OA
BRANCH  25  28
ATOM     28  C   UNL A   1      39.513  22.400  26.573  1.00  0.00     0.039 A 
ATOM     29  C   UNL A   1      40.472  22.317  27.588  1.00  0.00     0.014 A 
ATOM     30  C   UNL A   1      39.065  23.647  26.131  1.00  0.00     0.014 A 
ATOM     31  C   UNL A   1      41.051  23.487  28.090  1.00  0.00     0.010 A 
ATOM     32  C   UNL A   1      39.690  24.806  26.585  1.00  0.00     0.010 A 
ATOM     33  C   UNL A   1      40.701  24.736  27.557  1.00  0.00    -0.014 A 
BRANCH  33  34
ATOM     34  C   UNL A   1      41.387  25.989  27.973  1.00  0.00     0.031 A 
ATOM     35  C   UNL A   1      40.615  27.064  28.686  1.00  0.00     0.074 A 
ATOM     36  C   UNL A   1      42.668  26.202  27.615  1.00  0.00     0.049 A 
ATOM     37  N   UNL A   1      40.970  28.290  28.972  1.00  0.00    -0.248 NA
ATOM     38  C   UNL A   1      39.248  26.719  29.103  1.00  0.00     0.031 C 
ATOM     39  C   UNL A   1      43.517  25.247  26.896  1.00  0.00     0.029 A 
ATOM     40  N   UNL A   1      43.476  27.300  27.782  1.00  0.00    -0.354 N 
ATOM     41  C   UNL A   1      39.863  28.874  29.578  1.00  0.00     0.074 A 
ATOM     42  C   UNL A   1      38.812  27.876  29.576  1.00  0.00     0.031 C 
ATOM     43  C   UNL A   1      44.723  25.800  26.690  1.00  0.00     0.029 A 
ATOM     44  C   UNL A   1      44.721  27.163  27.212  1.00  0.00     0.049 A 
ATOM     45  H   UNL A   1      43.191  28.110  28.264  1.00  0.00     0.167 HD
ATOM     46  C   UNL A   1      39.740  30.120  30.099  1.00  0.00     0.034 A 
ATOM     47  C   UNL A   1      45.736  28.043  27.096  1.00  0.00     0.034 A 
ATOM     48  C   UNL A   1      40.804  31.094  30.112  1.00  0.00     0.049 A 
ATOM     49  C   UNL A   1      45.572  29.428  27.666  1.00  0.00     0.074 A 
ATOM     50  C   UNL A   1      40.804  32.366  30.660  1.00  0.00     0.029 A 
ATOM     51  N   UNL A   1      42.059  30.908  29.547  1.00  0.00    -0.354 N 
ATOM     52  N   UNL A   1      44.527  29.957  28.258  1.00  0.00    -0.248 NA
ATOM     53  C   UNL A   1      46.726  30.332  27.558  1.00  0.00     0.031 C 
ATOM     54  C   UNL A   1      42.036  32.967  30.379  1.00  0.00     0.029 A 
ATOM     55  C   UNL A   1      42.831  32.047  29.714  1.00  0.00     0.049 A 
ATOM     56  H   UNL A   1      42.357  30.086  29.095  1.00  0.00     0.167 HD
ATOM     57  C   UNL A   1      44.911  31.244  28.623  1.00  0.00     0.074 A 
ATOM     58  C   UNL A   1      46.281  31.411  28.187  1.00  0.00     0.031 C 
ATOM     59  C   UNL A   1      44.197  32.198  29.273  1.00  0.00     0.034 A 
BRANCH  46  60
ATOM     60  C   UNL A   1      38.396  30.502  30.670  1.00  0.00     0.023 A 
ATOM     61  C   UNL A   1      37.409  31.122  29.884  1.00  0.00     0.031 A 
ATOM     62  C   UNL A   1      38.109  30.273  32.027  1.00  0.00     0.131 A 
ATOM     63  C   UNL A   1      36.217  31.564  30.477  1.00  0.00     0.055 A 
ATOM     64  C   UNL A   1      36.886  30.641  32.593  1.00  0.00     0.041 A 
ATOM     65  F   UNL A   1      39.020  29.702  32.832  1.00  0.00    -0.206 F 
ATOM     66  C   UNL A   1      35.938  31.305  31.821  1.00  0.00     0.022 A 
BRANCH  63  67
ATOM     67  S   UNL A   1      35.103  32.610  29.502  1.00  0.00     0.124 S 
ATOM     68  O   UNL A   1      34.361  31.612  28.733  1.00  0.00    -0.237 OA
ATOM     69  O   UNL A   1      34.348  33.313  30.532  1.00  0.00    -0.237 OA
ATOM     70  O   UNL A   1      36.012  33.441  28.716  1.00  0.00    -0.744 OA
ENDBRANCH  63  67
ENDBRANCH  46  60
BRANCH  47  71
ATOM     71  C   UNL A   1      46.992  27.654  26.395  1.00  0.00     0.023 A 
ATOM     72  C   UNL A   1      47.151  27.882  25.020  1.00  0.00     0.031 A 
ATOM     73  C   UNL A   1      48.038  27.016  27.084  1.00  0.00     0.131 A 
ATOM     74  C   UNL A   1      48.311  27.440  24.367  1.00  0.00     0.055 A 
ATOM     75  C   UNL A   1      49.211  26.620  26.440  1.00  0.00     0.041 A 
ATOM     76  F   UNL A   1      47.939  26.780  28.403  1.00  0.00    -0.206 F 
ATOM     77  C   UNL A   1      49.347  26.820  25.069  1.00  0.00     0.022 A 
BRANCH  74  78
ATOM     78  S   UNL A   1      48.415  27.619  22.564  1.00  0.00     0.124 S 
ATOM     79  O   UNL A   1      49.651  28.378  22.412  1.00  0.00    -0.237 OA
ATOM     80  O   UNL A   1      48.456  26.229  22.125  1.00  0.00    -0.237 OA
ATOM     81  O   UNL A   1      47.191  28.343  22.224  1.00  0.00    -0.744 OA
ENDBRANCH  74  78
ENDBRANCH  47  71
BRANCH  59  82
ATOM     82  C   UNL A   1      44.911  33.483  29.606  1.00  0.00     0.023 A 
ATOM     83  C   UNL A   1      44.883  34.593  28.746  1.00  0.00     0.031 A 
ATOM     84  C   UNL A   1      45.623  33.592  30.814  1.00  0.00     0.131 A 
ATOM     85  C   UNL A   1      45.588  35.758  29.090  1.00  0.00     0.055 A 
ATOM     86  C   UNL A   1      46.283  34.768  31.172  1.00  0.00     0.041 A 
ATOM     87  F   UNL A   1      45.679  32.559  31.670  1.00  0.00    -0.206 F 
ATOM     88  C   UNL A   1      46.275  35.857  30.303  1.00  0.00     0.022 A 
BRANCH  85  89
ATOM     89  S   UNL A   1      45.643  37.129  27.904  1.00  0.00     0.124 S 
ATOM     90  O   UNL A   1      45.924  36.436  26.651  1.00  0.00    -0.237 OA
ATOM     91  O   UNL A   1      44.306  37.703  28.028  1.00  0.00    -0.237 OA
ATOM     92  O   UNL A   1      46.726  37.972  28.404  1.00  0.00    -0.744 OA
ENDBRANCH  85  89
ENDBRANCH  59  82
ENDBRANCH  33  34
ENDBRANCH  25  28
ENDBRANCH  23  24
ENDBRANCH  22  23
ENDBRANCH   1  22
TORSDOF 17
ENDMDL
MODEL 2
REMARK VINA RESULT:     -11.6      5.275     10.468
REMARK SMILES O=C(Cc1ccc(S(=O)(=O)C[C@H]2CCCO2)cc1)NCCCNC(=O)c1ccc(-c2c3nc(c(-c4cc(S(=O)(=O)[O-])ccc4F)c4ccc([nH]4)c(-c4cc(S(=O)(=O)[O-])ccc4F)c4nc(c(-c5cc(S(=O)(=O)[O-])ccc5F)c5ccc2[nH]5)C=C4)C=C3)cc1
REMARK SMILES IDX 20 1 19 2 1 3 2 4 3 6 4 7 5 8 18 9 6 10 17 11 7 12 8 13 9 14
REMARK SMILES IDX 10 15 11 16 12 17 13 18 16 19 14 20 15 21 21 22 22 23 23 24
REMARK SMILES IDX 24 25 25 27 26 28 27 29 88 30 28 31 87 32 29 33 30 34 31 35
REMARK SMILES IDX 81 36 32 37 86 38 80 39 82 40 33 41 85 42 79 43 78 44 34 46
REMARK SMILES IDX 66 47 46 48 65 49 47 50 50 51 64 52 83 53 48 54 49 55 63 57
REMARK SMILES IDX 84 58 51 59 35 60 36 61 44 62 37 63 43 64 45 65 42 66 38 67
REMARK SMILES IDX 39 68 40 69 41 70 67 71 68 72 76 73 69 74 75 75 77 76 74 77
REMARK SMILES IDX 70 78 71 79 72 80 73 81 52 82 53 83 61 84 54 85 60 86 62 87
REMARK SMILES IDX 59 88 55 89 56 90 57 91 58 92
REMARK H PARENT 19 5 23 26 82 45 50 56
REMARK Flexibility Score: inf
ROOT
ATOM      1  C   UNL A   1      31.589  28.848  24.370  1.00  0.00     0.117 C 
ENDROOT
BRANCH   1   2
ATOM      2  N   UNL A   1      32.116  27.623  23.805  1.00  0.00    -0.356 N 
ATOM      3  O   UNL A   1      30.714  27.556  21.980  1.00  0.00    -0.275 OA
ATOM      4  C   UNL A   1      31.664  27.101  22.609  1.00  0.00     0.224 C 
ATOM      5  H   UNL A   1      32.824  27.143  24.293  1.00  0.00     0.163 HD
BRANCH   4   6
ATOM      6  C   UNL A   1      32.465  25.910  22.118  1.00  0.00     0.135 C 
BRANCH   6   7
ATOM      7  C   UNL A   1      32.759  24.839  23.152  1.00  0.00    -0.039 A 
ATOM      8  C   UNL A   1      31.790  23.957  23.655  1.00  0.00     0.005 A 
ATOM      9  C   UNL A   1      34.080  24.711  23.611  1.00  0.00     0.005 A 
ATOM     10  C   UNL A   1      32.139  22.947  24.555  1.00  0.00     0.020 A 
ATOM     11  C   UNL A   1      34.429  23.722  24.533  1.00  0.00     0.020 A 
ATOM     12  C   UNL A   1      33.461  22.825  24.987  1.00  0.00     0.067 A 
BRANCH  12  13
ATOM     13  S   UNL A   1      33.841  21.507  26.120  1.00  0.00     0.180 S 
ATOM     14  O   UNL A   1      35.279  21.318  26.013  1.00  0.00    -0.224 OA
ATOM     15  O   UNL A   1      33.259  21.850  27.403  1.00  0.00    -0.224 OA
BRANCH  13  16
ATOM     16  C   UNL A   1      33.102  20.010  25.547  1.00  0.00     0.174 C 
BRANCH  16  17
ATOM     17  C   UNL A   1      33.596  19.420  24.232  1.00  0.00     0.133 C 
ATOM     18  C   UNL A   1      34.378  18.119  24.337  1.00  0.00     0.035 C 
ATOM     19  O   UNL A   1      32.555  19.213  23.281  1.00  0.00    -0.377 OA
ATOM     20  C   UNL A   1      33.412  17.069  23.862  1.00  0.00     0.031 C 
ATOM     21  C   UNL A   1      32.524  17.828  22.900  1.00  0.00     0.160 C 
ENDBRANCH  16  17
ENDBRANCH  13  16
ENDBRANCH  12  13
ENDBRANCH   6   7
ENDBRANCH   4   6
ENDBRANCH   1   2
BRANCH   1  22
ATOM     22  C   UNL A   1      32.642  29.649  25.121  1.00  0.00     0.042 C 
BRANCH  22  23
ATOM     23  C   UNL A   1      32.259  30.023  26.550  1.00  0.00     0.118 C 
BRANCH  23  24
ATOM     24  N   UNL A   1      32.072  31.456  26.746  1.00  0.00    -0.352 N 
ATOM     25  C   UNL A   1      32.900  32.365  27.360  1.00  0.00     0.251 C 
ATOM     26  H   UNL A   1      31.232  31.825  26.387  1.00  0.00     0.163 HD
ATOM     27  O   UNL A   1      32.516  33.518  27.537  1.00  0.00    -0.269 OA
BRANCH  25  28
ATOM     28  C   UNL A   1      34.234  31.942  27.839  1.00  0.00     0.039 A 
ATOM     29  C   UNL A   1      35.265  32.886  27.897  1.00  0.00     0.014 A 
ATOM     30  C   UNL A   1      34.460  30.630  28.263  1.00  0.00     0.014 A 
ATOM     31  C   UNL A   1      36.492  32.537  28.470  1.00  0.00     0.010 A 
ATOM     32  C   UNL A   1      35.658  30.304  28.892  1.00  0.00     0.010 A 
ATOM     33  C   UNL A   1      36.681  31.259  29.017  1.00  0.00    -0.014 A 
BRANCH  33  34
ATOM     34  C   UNL A   1      37.922  30.892  29.748  1.00  0.00     0.031 A 
ATOM     35  C   UNL A   1      38.900  29.932  29.130  1.00  0.00     0.074 A 
ATOM     36  C   UNL A   1      38.115  31.336  31.006  1.00  0.00     0.049 A 
ATOM     37  N   UNL A   1      39.940  29.347  29.666  1.00  0.00    -0.248 NA
ATOM     38  C   UNL A   1      38.650  29.557  27.730  1.00  0.00     0.031 C 
ATOM     39  C   UNL A   1      37.225  32.250  31.728  1.00  0.00     0.029 A 
ATOM     40  N   UNL A   1      39.108  31.059  31.913  1.00  0.00    -0.354 N 
ATOM     41  C   UNL A   1      40.456  28.513  28.679  1.00  0.00     0.074 A 
ATOM     42  C   UNL A   1      39.583  28.640  27.529  1.00  0.00     0.031 C 
ATOM     43  C   UNL A   1      37.715  32.460  32.960  1.00  0.00     0.029 A 
ATOM     44  C   UNL A   1      38.922  31.658  33.138  1.00  0.00     0.049 A 
ATOM     45  H   UNL A   1      39.881  30.484  31.707  1.00  0.00     0.167 HD
ATOM     46  C   UNL A   1      41.560  27.727  28.725  1.00  0.00     0.034 A 
ATOM     47  C   UNL A   1      39.626  31.554  34.283  1.00  0.00     0.034 A 
ATOM     48  C   UNL A   1      42.430  27.630  29.871  1.00  0.00     0.049 A 
ATOM     49  C   UNL A   1      40.839  30.661  34.318  1.00  0.00     0.074 A 
ATOM     50  C   UNL A   1      43.603  26.906  30.006  1.00  0.00     0.029 A 
ATOM     51  N   UNL A   1      42.221  28.273  31.085  1.00  0.00    -0.354 N 
ATOM     52  N   UNL A   1      41.328  29.898  33.368  1.00  0.00    -0.248 NA
ATOM     53  C   UNL A   1      41.600  30.621  35.575  1.00  0.00     0.031 C 
ATOM     54  C   UNL A   1      44.072  27.066  31.315  1.00  0.00     0.029 A 
ATOM     55  C   UNL A   1      43.230  27.945  31.977  1.00  0.00     0.049 A 
ATOM     56  H   UNL A   1      41.468  28.875  31.281  1.00  0.00     0.167 HD
ATOM     57  C   UNL A   1      42.472  29.314  33.904  1.00  0.00     0.074 A 
ATOM     58  C   UNL A   1      42.602  29.813  35.257  1.00  0.00     0.031 C 
ATOM     59  C   UNL A   1      43.345  28.452  33.324  1.00  0.00     0.034 A 
BRANCH  46  60
ATOM     60  C   UNL A   1      41.866  26.892  27.505  1.00  0.00     0.023 A 
ATOM     61  C   UNL A   1      41.599  25.513  27.468  1.00  0.00     0.031 A 
ATOM     62  C   UNL A   1      42.465  27.477  26.375  1.00  0.00     0.131 A 
ATOM     63  C   UNL A   1      42.001  24.751  26.361  1.00  0.00     0.055 A 
ATOM     64  C   UNL A   1      42.787  26.728  25.241  1.00  0.00     0.041 A 
ATOM     65  F   UNL A   1      42.762  28.787  26.359  1.00  0.00    -0.206 F 
ATOM     66  C   UNL A   1      42.571  25.353  25.236  1.00  0.00     0.022 A 
BRANCH  63  67
ATOM     67  S   UNL A   1      41.903  22.944  26.473  1.00  0.00     0.124 S 
ATOM     68  O   UNL A   1      42.381  22.542  25.152  1.00  0.00    -0.237 OA
ATOM     69  O   UNL A   1      42.790  22.649  27.592  1.00  0.00    -0.237 OA
ATOM     70  O   UNL A   1      40.484  22.692  26.717  1.00  0.00    -0.744 OA
ENDBRANCH  63  67
ENDBRANCH  46  60
BRANCH  47  71
ATOM     71  C   UNL A   1      39.194  32.294  35.502  1.00  0.00     0.023 A 
ATOM     72  C   UNL A   1      38.502  31.643  36.534  1.00  0.00     0.031 A 
ATOM     73  C   UNL A   1      39.435  33.673  35.635  1.00  0.00     0.131 A 
ATOM     74  C   UNL A   1      38.039  32.376  37.637  1.00  0.00     0.055 A 
ATOM     75  C   UNL A   1      39.014  34.390  36.756  1.00  0.00     0.041 A 
ATOM     76  F   UNL A   1      40.099  34.342  34.678  1.00  0.00    -0.206 F 
ATOM     77  C   UNL A   1      38.300  33.743  37.760  1.00  0.00     0.022 A 
BRANCH  74  78
ATOM     78  S   UNL A   1      37.021  31.530  38.877  1.00  0.00     0.124 S 
ATOM     79  O   UNL A   1      37.877  31.592  40.057  1.00  0.00    -0.237 OA
ATOM     80  O   UNL A   1      35.825  32.364  38.907  1.00  0.00    -0.237 OA
ATOM     81  O   UNL A   1      36.834  30.196  38.310  1.00  0.00    -0.744 OA
ENDBRANCH  74  78
ENDBRANCH  47  71
BRANCH  59  82
ATOM     82  C   UNL A   1      44.551  28.047  34.133  1.00  0.00     0.023 A 
ATOM     83  C   UNL A   1      44.536  26.924  34.976  1.00  0.00     0.031 A 
ATOM     84  C   UNL A   1      45.735  28.799  34.043  1.00  0.00     0.131 A 
ATOM     85  C   UNL A   1      45.677  26.605  35.730  1.00  0.00     0.055 A 
ATOM     86  C   UNL A   1      46.880  28.451  34.759  1.00  0.00     0.041 A 
ATOM     87  F   UNL A   1      45.799  29.881  33.250  1.00  0.00    -0.206 F 
ATOM     88  C   UNL A   1      46.853  27.353  35.615  1.00  0.00     0.022 A 
BRANCH  85  89
ATOM     89  S   UNL A   1      45.591  25.229  36.907  1.00  0.00     0.124 S 
ATOM     90  O   UNL A   1      45.428  24.081  36.021  1.00  0.00    -0.237 OA
ATOM     91  O   UNL A   1      46.874  25.325  37.596  1.00  0.00    -0.237 OA
ATOM     92  O   UNL A   1      44.425  25.551  37.727  1.00  0.00    -0.744 OA
ENDBRANCH  85  89
ENDBRANCH  59  82
ENDBRANCH  33  34
ENDBRANCH  25  28
ENDBRANCH  23  24
ENDBRANCH  22  23
ENDBRANCH   1  22
TORSDOF 17
ENDMDL
MODEL 3
REMARK VINA RESULT:     -11.2      6.590      9.892
REMARK SMILES O=C(Cc1ccc(S(=O)(=O)C[C@H]2CCCO2)cc1)NCCCNC(=O)c1ccc(-c2c3nc(c(-c4cc(S(=O)(=O)[O-])ccc4F)c4ccc([nH]4)c(-c4cc(S(=O)(=O)[O-])ccc4F)c4nc(c(-c5cc(S(=O)(=O)[O-])ccc5F)c5ccc2[nH]5)C=C4)C=C3)cc1
REMARK SMILES IDX 20 1 19 2 1 3 2 4 3 6 4 7 5 8 18 9 6 10 17 11 7 12 8 13 9 14
REMARK SMILES IDX 10 15 11 16 12 17 13 18 16 19 14 20 15 21 21 22 22 23 23 24
REMARK SMILES IDX 24 25 25 27 26 28 27 29 88 30 28 31 87 32 29 33 30 34 31 35
REMARK SMILES IDX 81 36 32 37 86 38 80 39 82 40 33 41 85 42 79 43 78 44 34 46
REMARK SMILES IDX 66 47 46 48 65 49 47 50 50 51 64 52 83 53 48 54 49 55 63 57
REMARK SMILES IDX 84 58 51 59 35 60 36 61 44 62 37 63 43 64 45 65 42 66 38 67
REMARK SMILES IDX 39 68 40 69 41 70 67 71 68 72 76 73 69 74 75 75 77 76 74 77
REMARK SMILES IDX 70 78 71 79 72 80 73 81 52 82 53 83 61 84 54 85 60 86 62 87
REMARK SMILES IDX 59 88 55 89 56 90 57 91 58 92
REMARK H PARENT 19 5 23 26 82 45 50 56
REMARK Flexibility Score: inf
ROOT
ATOM      1  C   UNL A   1      35.719  33.816  29.138  1.00  0.00     0.117 C 
ENDROOT
BRANCH   1   2
ATOM      2  N   UNL A   1      35.202  32.467  29.026  1.00  0.00    -0.356 N 
ATOM      3  O   UNL A   1      36.864  31.667  27.650  1.00  0.00    -0.275 OA
ATOM      4  C   UNL A   1      35.859  31.475  28.325  1.00  0.00     0.224 C 
ATOM      5  H   UNL A   1      34.349  32.249  29.467  1.00  0.00     0.163 HD
BRANCH   4   6
ATOM      6  C   UNL A   1      35.234  30.101  28.477  1.00  0.00     0.135 C 
BRANCH   6   7
ATOM      7  C   UNL A   1      34.223  29.712  27.414  1.00  0.00    -0.039 A 
ATOM      8  C   UNL A   1      33.066  30.455  27.132  1.00  0.00     0.005 A 
ATOM      9  C   UNL A   1      34.476  28.557  26.657  1.00  0.00     0.005 A 
ATOM     10  C   UNL A   1      32.211  30.081  26.092  1.00  0.00     0.020 A 
ATOM     11  C   UNL A   1      33.608  28.161  25.636  1.00  0.00     0.020 A 
ATOM     12  C   UNL A   1      32.488  28.938  25.340  1.00  0.00     0.067 A 
BRANCH  12  13
ATOM     13  S   UNL A   1      31.367  28.528  24.020  1.00  0.00     0.180 S 
ATOM     14  O   UNL A   1      32.174  28.565  22.811  1.00  0.00    -0.224 OA
ATOM     15  O   UNL A   1      30.687  27.300  24.388  1.00  0.00    -0.224 OA
BRANCH  13  16
ATOM     16  C   UNL A   1      30.166  29.810  23.851  1.00  0.00     0.174 C 
BRANCH  16  17
ATOM     17  C   UNL A   1      28.979  29.567  22.926  1.00  0.00     0.133 C 
ATOM     18  C   UNL A   1      27.707  30.331  23.260  1.00  0.00     0.035 C 
ATOM     19  O   UNL A   1      29.275  29.815  21.554  1.00  0.00    -0.377 OA
ATOM     20  C   UNL A   1      27.647  31.418  22.222  1.00  0.00     0.031 C 
ATOM     21  C   UNL A   1      28.371  30.809  21.043  1.00  0.00     0.160 C 
ENDBRANCH  16  17
ENDBRANCH  13  16
ENDBRANCH  12  13
ENDBRANCH   6   7
ENDBRANCH   4   6
ENDBRANCH   1   2
BRANCH   1  22
ATOM     22  C   UNL A   1      34.639  34.874  28.970  1.00  0.00     0.042 C 
BRANCH  22  23
ATOM     23  C   UNL A   1      33.265  34.472  29.499  1.00  0.00     0.118 C 
BRANCH  23  24
ATOM     24  N   UNL A   1      32.665  35.468  30.378  1.00  0.00    -0.352 N 
ATOM     25  C   UNL A   1      32.933  35.737  31.699  1.00  0.00     0.251 C 
ATOM     26  H   UNL A   1      31.968  36.030  29.966  1.00  0.00     0.163 HD
ATOM     27  O   UNL A   1      32.235  36.541  32.312  1.00  0.00    -0.269 OA
BRANCH  25  28
ATOM     28  C   UNL A   1      34.035  35.030  32.387  1.00  0.00     0.039 A 
ATOM     29  C   UNL A   1      33.786  33.777  32.956  1.00  0.00     0.014 A 
ATOM     30  C   UNL A   1      35.317  35.584  32.442  1.00  0.00     0.014 A 
ATOM     31  C   UNL A   1      34.845  33.038  33.493  1.00  0.00     0.010 A 
ATOM     32  C   UNL A   1      36.379  34.819  32.917  1.00  0.00     0.010 A 
ATOM     33  C   UNL A   1      36.156  33.532  33.432  1.00  0.00    -0.014 A 
BRANCH  33  34
ATOM     34  C   UNL A   1      37.323  32.722  33.875  1.00  0.00     0.031 A 
ATOM     35  C   UNL A   1      38.041  33.074  35.148  1.00  0.00     0.074 A 
ATOM     36  C   UNL A   1      37.800  31.743  33.079  1.00  0.00     0.049 A 
ATOM     37  N   UNL A   1      39.173  32.618  35.616  1.00  0.00    -0.248 NA
ATOM     38  C   UNL A   1      37.410  34.103  35.988  1.00  0.00     0.031 C 
ATOM     39  C   UNL A   1      37.209  31.325  31.805  1.00  0.00     0.029 A 
ATOM     40  N   UNL A   1      38.905  30.941  33.210  1.00  0.00    -0.354 N 
ATOM     41  C   UNL A   1      39.408  33.322  36.792  1.00  0.00     0.074 A 
ATOM     42  C   UNL A   1      38.319  34.265  36.938  1.00  0.00     0.031 C 
ATOM     43  C   UNL A   1      37.955  30.341  31.277  1.00  0.00     0.029 A 
ATOM     44  C   UNL A   1      39.104  30.094  32.143  1.00  0.00     0.049 A 
ATOM     45  H   UNL A   1      39.502  30.967  33.993  1.00  0.00     0.167 HD
ATOM     46  C   UNL A   1      40.430  33.184  37.674  1.00  0.00     0.034 A 
ATOM     47  C   UNL A   1      40.110  29.236  31.877  1.00  0.00     0.034 A 
ATOM     48  C   UNL A   1      41.496  32.223  37.524  1.00  0.00     0.049 A 
ATOM     49  C   UNL A   1      41.244  29.111  32.861  1.00  0.00     0.074 A 
ATOM     50  C   UNL A   1      42.551  31.964  38.382  1.00  0.00     0.029 A 
ATOM     51  N   UNL A   1      41.647  31.366  36.441  1.00  0.00    -0.354 N 
ATOM     52  N   UNL A   1      41.440  29.767  33.981  1.00  0.00    -0.248 NA
ATOM     53  C   UNL A   1      42.290  28.127  32.548  1.00  0.00     0.031 C 
ATOM     54  C   UNL A   1      43.368  30.991  37.795  1.00  0.00     0.029 A 
ATOM     55  C   UNL A   1      42.788  30.594  36.601  1.00  0.00     0.049 A 
ATOM     56  H   UNL A   1      41.034  31.314  35.674  1.00  0.00     0.167 HD
ATOM     57  C   UNL A   1      42.612  29.248  34.522  1.00  0.00     0.074 A 
ATOM     58  C   UNL A   1      43.079  28.227  33.609  1.00  0.00     0.031 C 
ATOM     59  C   UNL A   1      43.240  29.579  35.679  1.00  0.00     0.034 A 
BRANCH  46  60
ATOM     60  C   UNL A   1      40.451  34.116  38.860  1.00  0.00     0.023 A 
ATOM     61  C   UNL A   1      39.811  33.788  40.069  1.00  0.00     0.031 A 
ATOM     62  C   UNL A   1      41.091  35.365  38.772  1.00  0.00     0.131 A 
ATOM     63  C   UNL A   1      39.756  34.727  41.109  1.00  0.00     0.055 A 
ATOM     64  C   UNL A   1      41.104  36.263  39.841  1.00  0.00     0.041 A 
ATOM     65  F   UNL A   1      41.702  35.742  37.637  1.00  0.00    -0.206 F 
ATOM     66  C   UNL A   1      40.419  35.953  41.014  1.00  0.00     0.022 A 
BRANCH  63  67
ATOM     67  S   UNL A   1      38.682  34.383  42.528  1.00  0.00     0.124 S 
ATOM     68  O   UNL A   1      38.401  32.960  42.345  1.00  0.00    -0.237 OA
ATOM     69  O   UNL A   1      39.535  34.724  43.660  1.00  0.00    -0.237 OA
ATOM     70  O   UNL A   1      37.539  35.268  42.317  1.00  0.00    -0.744 OA
ENDBRANCH  63  67
ENDBRANCH  46  60
BRANCH  47  71
ATOM     71  C   UNL A   1      40.107  28.442  30.616  1.00  0.00     0.023 A 
ATOM     72  C   UNL A   1      40.944  28.788  29.544  1.00  0.00     0.031 A 
ATOM     73  C   UNL A   1      39.241  27.347  30.452  1.00  0.00     0.131 A 
ATOM     74  C   UNL A   1      40.870  28.071  28.340  1.00  0.00     0.055 A 
ATOM     75  C   UNL A   1      39.204  26.608  29.269  1.00  0.00     0.041 A 
ATOM     76  F   UNL A   1      38.425  26.971  31.450  1.00  0.00    -0.206 F 
ATOM     77  C   UNL A   1      40.014  26.977  28.199  1.00  0.00     0.022 A 
BRANCH  74  78
ATOM     78  S   UNL A   1      41.859  28.640  26.929  1.00  0.00     0.124 S 
ATOM     79  O   UNL A   1      40.823  29.003  25.968  1.00  0.00    -0.237 OA
ATOM     80  O   UNL A   1      42.608  29.747  27.513  1.00  0.00    -0.237 OA
ATOM     81  O   UNL A   1      42.655  27.467  26.577  1.00  0.00    -0.744 OA
ENDBRANCH  74  78
ENDBRANCH  47  71
BRANCH  59  82
ATOM     82  C   UNL A   1      44.464  28.781  36.049  1.00  0.00     0.023 A 
ATOM     83  C   UNL A   1      44.380  27.598  36.801  1.00  0.00     0.031 A 
ATOM     84  C   UNL A   1      45.733  29.215  35.627  1.00  0.00     0.131 A 
ATOM     85  C   UNL A   1      45.553  26.906  37.143  1.00  0.00     0.055 A 
ATOM     86  C   UNL A   1      46.891  28.498  35.931  1.00  0.00     0.041 A 
ATOM     87  F   UNL A   1      45.866  30.340  34.905  1.00  0.00    -0.206 F 
ATOM     88  C   UNL A   1      46.805  27.341  36.700  1.00  0.00     0.022 A 
BRANCH  85  89
ATOM     89  S   UNL A   1      45.428  25.455  38.223  1.00  0.00     0.124 S 
ATOM     90  O   UNL A   1      45.180  26.065  39.525  1.00  0.00    -0.237 OA
ATOM     91  O   UNL A   1      44.307  24.724  37.638  1.00  0.00    -0.237 OA
ATOM     92  O   UNL A   1      46.730  24.807  38.078  1.00  0.00    -0.744 OA
ENDBRANCH  85  89
ENDBRANCH  59  82
ENDBRANCH  33  34
ENDBRANCH  25  28
ENDBRANCH  23  24
ENDBRANCH  22  23
ENDBRANCH   1  22
TORSDOF 17
ENDMDL
