MODEL 1
REMARK VINA RESULT:     -12.6      0.000      0.000
REMARK SMILES O=C(NCCCNC(=O)c1cc(O)cc(-c2cc(O)ccc2Cl)c1)c1ccc(-c2c3nc(c(-c4cc(S(=O)(=O)[O-])ccc4F)c4ccc([nH]4)c(-c4cc(S(=O)(=O)[O-])ccc4F)c4nc(c(-c5cc(S(=O)(=O)[O-])ccc5F)c5ccc2[nH]5)C=C4)C=C3)cc1
REMARK SMILES IDX 4 1 3 2 1 3 2 4 25 6 26 7 87 8 27 9 86 10 28 11 29 12 30 13
REMARK SMILES IDX 80 14 31 15 85 16 79 17 81 18 32 19 84 20 78 21 77 22 33 24
REMARK SMILES IDX 65 25 45 26 64 27 46 28 49 29 63 30 82 31 47 32 48 33 62 35
REMARK SMILES IDX 83 36 50 37 34 38 35 39 43 40 36 41 42 42 44 43 41 44 37 45
REMARK SMILES IDX 38 46 39 47 40 48 66 49 67 50 75 51 68 52 74 53 76 54 73 55
REMARK SMILES IDX 69 56 70 57 71 58 72 59 51 60 52 61 60 62 53 63 59 64 61 65
REMARK SMILES IDX 58 66 54 67 55 68 56 69 57 70 5 71 6 72 7 73 8 74 9 76 10 77
REMARK SMILES IDX 11 78 24 79 12 80 15 81 14 82 13 83 16 85 17 86 22 87 18 88
REMARK SMILES IDX 21 89 23 90 20 91 19 92
REMARK H PARENT 3 5 81 23 49 34 7 75 13 84 19 93
REMARK Flexibility Score: inf
ROOT
ATOM      1  C   UNL A   1      32.875  29.977  26.036  1.00  0.00     0.118 C 
ENDROOT
BRANCH   1   2
ATOM      2  N   UNL A   1      32.642  31.369  26.405  1.00  0.00    -0.352 N 
ATOM      3  O   UNL A   1      32.829  33.274  27.587  1.00  0.00    -0.269 OA
ATOM      4  C   UNL A   1      33.303  32.174  27.303  1.00  0.00     0.251 C 
ATOM      5  H   UNL A   1      31.892  31.801  25.935  1.00  0.00     0.163 HD
BRANCH   4   6
ATOM      6  C   UNL A   1      34.560  31.721  27.936  1.00  0.00     0.039 A 
ATOM      7  C   UNL A   1      34.680  30.422  28.428  1.00  0.00     0.014 A 
ATOM      8  C   UNL A   1      35.644  32.601  28.030  1.00  0.00     0.014 A 
ATOM      9  C   UNL A   1      35.794  30.063  29.174  1.00  0.00     0.010 A 
ATOM     10  C   UNL A   1      36.817  32.196  28.679  1.00  0.00     0.010 A 
ATOM     11  C   UNL A   1      36.889  30.935  29.290  1.00  0.00    -0.014 A 
BRANCH  11  12
ATOM     12  C   UNL A   1      38.105  30.464  30.007  1.00  0.00     0.031 A 
ATOM     13  C   UNL A   1      38.367  30.847  31.438  1.00  0.00     0.074 A 
ATOM     14  C   UNL A   1      38.943  29.625  29.364  1.00  0.00     0.049 A 
ATOM     15  N   UNL A   1      39.357  30.490  32.217  1.00  0.00    -0.248 NA
ATOM     16  C   UNL A   1      37.402  31.754  32.074  1.00  0.00     0.031 C 
ATOM     17  C   UNL A   1      38.791  29.191  27.971  1.00  0.00     0.029 A 
ATOM     18  N   UNL A   1      40.065  28.964  29.793  1.00  0.00    -0.354 N 
ATOM     19  C   UNL A   1      39.139  31.129  33.433  1.00  0.00     0.074 A 
ATOM     20  C   UNL A   1      37.945  31.933  33.271  1.00  0.00     0.031 C 
ATOM     21  C   UNL A   1      39.742  28.293  27.683  1.00  0.00     0.029 A 
ATOM     22  C   UNL A   1      40.621  28.147  28.835  1.00  0.00     0.049 A 
ATOM     23  H   UNL A   1      40.437  29.064  30.699  1.00  0.00     0.167 HD
ATOM     24  C   UNL A   1      39.860  31.042  34.579  1.00  0.00     0.034 A 
ATOM     25  C   UNL A   1      41.728  27.382  28.869  1.00  0.00     0.034 A 
ATOM     26  C   UNL A   1      41.054  30.240  34.720  1.00  0.00     0.049 A 
ATOM     27  C   UNL A   1      42.531  27.335  30.140  1.00  0.00     0.074 A 
ATOM     28  C   UNL A   1      41.865  30.084  35.832  1.00  0.00     0.029 A 
ATOM     29  N   UNL A   1      41.612  29.457  33.716  1.00  0.00    -0.354 N 
ATOM     30  N   UNL A   1      42.307  27.949  31.279  1.00  0.00    -0.248 NA
ATOM     31  C   UNL A   1      43.730  26.490  30.133  1.00  0.00     0.031 C 
ATOM     32  C   UNL A   1      42.941  29.258  35.484  1.00  0.00     0.029 A 
ATOM     33  C   UNL A   1      42.764  28.836  34.176  1.00  0.00     0.049 A 
ATOM     34  H   UNL A   1      41.241  29.357  32.809  1.00  0.00     0.167 HD
ATOM     35  C   UNL A   1      43.333  27.550  32.129  1.00  0.00     0.074 A 
ATOM     36  C   UNL A   1      44.152  26.619  31.381  1.00  0.00     0.031 C 
ATOM     37  C   UNL A   1      43.580  27.923  33.411  1.00  0.00     0.034 A 
BRANCH  24  38
ATOM     38  C   UNL A   1      39.394  31.862  35.760  1.00  0.00     0.023 A 
ATOM     39  C   UNL A   1      38.620  31.299  36.790  1.00  0.00     0.031 A 
ATOM     40  C   UNL A   1      39.715  33.229  35.852  1.00  0.00     0.131 A 
ATOM     41  C   UNL A   1      38.142  32.110  37.832  1.00  0.00     0.055 A 
ATOM     42  C   UNL A   1      39.300  34.013  36.931  1.00  0.00     0.041 A 
ATOM     43  F   UNL A   1      40.434  33.828  34.889  1.00  0.00    -0.206 F 
ATOM     44  C   UNL A   1      38.498  33.457  37.923  1.00  0.00     0.022 A 
BRANCH  41  45
ATOM     45  S   UNL A   1      36.943  31.406  38.997  1.00  0.00     0.124 S 
ATOM     46  O   UNL A   1      36.716  30.081  38.425  1.00  0.00    -0.237 OA
ATOM     47  O   UNL A   1      37.671  31.439  40.260  1.00  0.00    -0.237 OA
ATOM     48  O   UNL A   1      35.804  32.317  38.910  1.00  0.00    -0.744 OA
ENDBRANCH  41  45
ENDBRANCH  24  38
BRANCH  25  49
ATOM     49  C   UNL A   1      42.164  26.636  27.654  1.00  0.00     0.023 A 
ATOM     50  C   UNL A   1      41.973  25.250  27.541  1.00  0.00     0.031 A 
ATOM     51  C   UNL A   1      42.818  27.299  26.599  1.00  0.00     0.131 A 
ATOM     52  C   UNL A   1      42.476  24.566  26.423  1.00  0.00     0.055 A 
ATOM     53  C   UNL A   1      43.259  26.624  25.462  1.00  0.00     0.041 A 
ATOM     54  F   UNL A   1      43.025  28.624  26.654  1.00  0.00    -0.206 F 
ATOM     55  C   UNL A   1      43.102  25.244  25.377  1.00  0.00     0.022 A 
BRANCH  52  56
ATOM     56  S   UNL A   1      42.388  22.754  26.405  1.00  0.00     0.124 S 
ATOM     57  O   UNL A   1      41.029  22.517  26.880  1.00  0.00    -0.237 OA
ATOM     58  O   UNL A   1      42.638  22.454  25.000  1.00  0.00    -0.237 OA
ATOM     59  O   UNL A   1      43.450  22.353  27.326  1.00  0.00    -0.744 OA
ENDBRANCH  52  56
ENDBRANCH  25  49
BRANCH  37  60
ATOM     60  C   UNL A   1      44.773  27.285  34.079  1.00  0.00     0.023 A 
ATOM     61  C   UNL A   1      44.654  26.091  34.813  1.00  0.00     0.031 A 
ATOM     62  C   UNL A   1      46.034  27.903  34.018  1.00  0.00     0.131 A 
ATOM     63  C   UNL A   1      45.761  25.590  35.514  1.00  0.00     0.055 A 
ATOM     64  C   UNL A   1      47.146  27.365  34.666  1.00  0.00     0.041 A 
ATOM     65  F   UNL A   1      46.203  29.046  33.334  1.00  0.00    -0.206 F 
ATOM     66  C   UNL A   1      47.010  26.212  35.433  1.00  0.00     0.022 A 
BRANCH  63  67
ATOM     67  S   UNL A   1      45.520  24.175  36.622  1.00  0.00     0.124 S 
ATOM     68  O   UNL A   1      46.887  23.699  36.810  1.00  0.00    -0.237 OA
ATOM     69  O   UNL A   1      44.894  24.794  37.785  1.00  0.00    -0.237 OA
ATOM     70  O   UNL A   1      44.652  23.283  35.854  1.00  0.00    -0.744 OA
ENDBRANCH  63  67
ENDBRANCH  37  60
ENDBRANCH  11  12
ENDBRANCH   4   6
ENDBRANCH   1   2
BRANCH   1  71
ATOM     71  C   UNL A   1      31.772  29.044  26.509  1.00  0.00     0.042 C 
BRANCH  71  72
ATOM     72  C   UNL A   1      32.127  27.569  26.424  1.00  0.00     0.118 C 
BRANCH  72  73
ATOM     73  N   UNL A   1      32.705  27.204  25.137  1.00  0.00    -0.352 N 
ATOM     74  C   UNL A   1      32.107  27.003  23.918  1.00  0.00     0.251 C 
ATOM     75  H   UNL A   1      33.682  27.082  25.142  1.00  0.00     0.163 HD
ATOM     76  O   UNL A   1      32.755  26.516  22.996  1.00  0.00    -0.269 OA
BRANCH  74  77
ATOM     77  C   UNL A   1      30.689  27.362  23.706  1.00  0.00     0.044 A 
ATOM     78  C   UNL A   1      29.662  26.507  24.112  1.00  0.00     0.060 A 
ATOM     79  C   UNL A   1      30.388  28.613  23.151  1.00  0.00     0.023 A 
ATOM     80  C   UNL A   1      28.347  26.855  23.846  1.00  0.00     0.116 A 
ATOM     81  C   UNL A   1      29.054  28.997  22.939  1.00  0.00    -0.012 A 
ATOM     82  C   UNL A   1      28.040  28.077  23.257  1.00  0.00     0.055 A 
BRANCH  80  83
ATOM     83  O   UNL A   1      27.317  26.017  24.157  1.00  0.00    -0.508 OA
ATOM     84  H   UNL A   1      26.550  26.354  24.574  1.00  0.00     0.293 HD
ENDBRANCH  80  83
BRANCH  81  85
ATOM     85  C   UNL A   1      28.720  30.333  22.413  1.00  0.00     0.004 A 
ATOM     86  C   UNL A   1      28.156  30.453  21.128  1.00  0.00     0.056 A 
ATOM     87  C   UNL A   1      28.944  31.517  23.150  1.00  0.00     0.049 A 
ATOM     88  C   UNL A   1      27.821  31.706  20.617  1.00  0.00     0.116 A 
ATOM     89  C   UNL A   1      28.596  32.767  22.627  1.00  0.00     0.025 A 
ATOM     90  Cl  UNL A   1      29.688  31.506  24.716  1.00  0.00    -0.084 Cl
ATOM     91  C   UNL A   1      28.032  32.861  21.358  1.00  0.00     0.048 A 
BRANCH  88  92
ATOM     92  O   UNL A   1      27.277  31.850  19.376  1.00  0.00    -0.508 OA
ATOM     93  H   UNL A   1      27.073  31.092  18.863  1.00  0.00     0.293 HD
ENDBRANCH  88  92
ENDBRANCH  81  85
ENDBRANCH  74  77
ENDBRANCH  72  73
ENDBRANCH  71  72
ENDBRANCH   1  71
TORSDOF 16
ENDMDL
MODEL 2
REMARK VINA RESULT:     -12.4      5.446     10.382
REMARK SMILES O=C(NCCCNC(=O)c1cc(O)cc(-c2cc(O)ccc2Cl)c1)c1ccc(-c2c3nc(c(-c4cc(S(=O)(=O)[O-])ccc4F)c4ccc([nH]4)c(-c4cc(S(=O)(=O)[O-])ccc4F)c4nc(c(-c5cc(S(=O)(=O)[O-])ccc5F)c5ccc2[nH]5)C=C4)C=C3)cc1
REMARK SMILES IDX 4 1 3 2 1 3 2 4 25 6 26 7 87 8 27 9 86 10 28 11 29 12 30 13
REMARK SMILES IDX 80 14 31 15 85 16 79 17 81 18 32 19 84 20 78 21 77 22 33 24
REMARK SMILES IDX 65 25 45 26 64 27 46 28 49 29 63 30 82 31 47 32 48 33 62 35
REMARK SMILES IDX 83 36 50 37 34 38 35 39 43 40 36 41 42 42 44 43 41 44 37 45
REMARK SMILES IDX 38 46 39 47 40 48 66 49 67 50 75 51 68 52 74 53 76 54 73 55
REMARK SMILES IDX 69 56 70 57 71 58 72 59 51 60 52 61 60 62 53 63 59 64 61 65
REMARK SMILES IDX 58 66 54 67 55 68 56 69 57 70 5 71 6 72 7 73 8 74 9 76 10 77
REMARK SMILES IDX 11 78 24 79 12 80 15 81 14 82 13 83 16 85 17 86 22 87 18 88
REMARK SMILES IDX 21 89 23 90 20 91 19 92
REMARK H PARENT 3 5 81 23 49 34 7 75 13 84 19 93
REMARK Flexibility Score: inf
ROOT
ATOM      1  C   UNL A   1      36.078  22.216  26.092  1.00  0.00     0.118 C 
ENDROOT
BRANCH   1   2
ATOM      2  N   UNL A   1      37.078  21.182  25.848  1.00  0.00    -0.352 N 
ATOM      3  O   UNL A   1      39.108  20.292  25.461  1.00  0.00    -0.269 OA
ATOM      4  C   UNL A   1      38.451  21.249  25.870  1.00  0.00     0.251 C 
ATOM      5  H   UNL A   1      36.710  20.294  25.632  1.00  0.00     0.163 HD
BRANCH   4   6
ATOM      6  C   UNL A   1      39.137  22.464  26.361  1.00  0.00     0.039 A 
ATOM      7  C   UNL A   1      38.748  23.728  25.920  1.00  0.00     0.014 A 
ATOM      8  C   UNL A   1      40.177  22.343  27.289  1.00  0.00     0.014 A 
ATOM      9  C   UNL A   1      39.509  24.841  26.249  1.00  0.00     0.010 A 
ATOM     10  C   UNL A   1      40.868  23.483  27.716  1.00  0.00     0.010 A 
ATOM     11  C   UNL A   1      40.564  24.740  27.170  1.00  0.00    -0.014 A 
BRANCH  11  12
ATOM     12  C   UNL A   1      41.280  25.980  27.575  1.00  0.00     0.031 A 
ATOM     13  C   UNL A   1      42.674  26.273  27.092  1.00  0.00     0.074 A 
ATOM     14  C   UNL A   1      40.624  26.878  28.339  1.00  0.00     0.049 A 
ATOM     15  N   UNL A   1      43.421  27.324  27.321  1.00  0.00    -0.248 NA
ATOM     16  C   UNL A   1      43.318  25.252  26.253  1.00  0.00     0.031 C 
ATOM     17  C   UNL A   1      39.269  26.696  28.871  1.00  0.00     0.029 A 
ATOM     18  N   UNL A   1      40.983  28.127  28.776  1.00  0.00    -0.354 N 
ATOM     19  C   UNL A   1      44.623  27.093  26.660  1.00  0.00     0.074 A 
ATOM     20  C   UNL A   1      44.520  25.779  26.059  1.00  0.00     0.031 C 
ATOM     21  C   UNL A   1      38.892  27.813  29.507  1.00  0.00     0.029 A 
ATOM     22  C   UNL A   1      40.000  28.758  29.503  1.00  0.00     0.049 A 
ATOM     23  H   UNL A   1      41.860  28.532  28.589  1.00  0.00     0.167 HD
ATOM     24  C   UNL A   1      45.703  27.906  26.554  1.00  0.00     0.034 A 
ATOM     25  C   UNL A   1      39.995  29.955  30.119  1.00  0.00     0.034 A 
ATOM     26  C   UNL A   1      45.791  29.212  27.167  1.00  0.00     0.049 A 
ATOM     27  C   UNL A   1      41.222  30.820  30.019  1.00  0.00     0.074 A 
ATOM     28  C   UNL A   1      46.840  30.116  27.130  1.00  0.00     0.029 A 
ATOM     29  N   UNL A   1      44.791  29.803  27.931  1.00  0.00    -0.354 N 
ATOM     30  N   UNL A   1      42.349  30.581  29.390  1.00  0.00    -0.248 NA
ATOM     31  C   UNL A   1      41.175  32.115  30.706  1.00  0.00     0.031 C 
ATOM     32  C   UNL A   1      46.498  31.223  27.917  1.00  0.00     0.029 A 
ATOM     33  C   UNL A   1      45.207  31.046  28.387  1.00  0.00     0.049 A 
ATOM     34  H   UNL A   1      43.914  29.398  28.121  1.00  0.00     0.167 HD
ATOM     35  C   UNL A   1      43.140  31.707  29.594  1.00  0.00     0.074 A 
ATOM     36  C   UNL A   1      42.346  32.634  30.375  1.00  0.00     0.031 C 
ATOM     37  C   UNL A   1      44.409  31.952  29.180  1.00  0.00     0.034 A 
BRANCH  24  38
ATOM     38  C   UNL A   1      46.890  27.390  25.774  1.00  0.00     0.023 A 
ATOM     39  C   UNL A   1      47.152  27.819  24.460  1.00  0.00     0.031 A 
ATOM     40  C   UNL A   1      47.765  26.448  26.343  1.00  0.00     0.131 A 
ATOM     41  C   UNL A   1      48.221  27.261  23.740  1.00  0.00     0.055 A 
ATOM     42  C   UNL A   1      48.871  25.953  25.648  1.00  0.00     0.041 A 
ATOM     43  F   UNL A   1      47.556  25.985  27.586  1.00  0.00    -0.206 F 
ATOM     44  C   UNL A   1      49.097  26.350  24.334  1.00  0.00     0.022 A 
BRANCH  41  45
ATOM     45  S   UNL A   1      48.371  27.648  21.974  1.00  0.00     0.124 S 
ATOM     46  O   UNL A   1      47.070  28.250  21.690  1.00  0.00    -0.237 OA
ATOM     47  O   UNL A   1      49.513  28.555  21.945  1.00  0.00    -0.237 OA
ATOM     48  O   UNL A   1      48.594  26.344  21.354  1.00  0.00    -0.744 OA
ENDBRANCH  41  45
ENDBRANCH  24  38
BRANCH  25  49
ATOM     49  C   UNL A   1      38.811  30.386  30.917  1.00  0.00     0.023 A 
ATOM     50  C   UNL A   1      37.844  31.248  30.380  1.00  0.00     0.031 A 
ATOM     51  C   UNL A   1      38.653  29.968  32.252  1.00  0.00     0.131 A 
ATOM     52  C   UNL A   1      36.791  31.704  31.188  1.00  0.00     0.055 A 
ATOM     53  C   UNL A   1      37.571  30.374  33.031  1.00  0.00     0.041 A 
ATOM     54  F   UNL A   1      39.548  29.141  32.815  1.00  0.00    -0.206 F 
ATOM     55  C   UNL A   1      36.639  31.261  32.503  1.00  0.00     0.022 A 
BRANCH  52  56
ATOM     56  S   UNL A   1      35.675  32.971  30.523  1.00  0.00     0.124 S 
ATOM     57  O   UNL A   1      36.107  34.159  31.251  1.00  0.00    -0.237 OA
ATOM     58  O   UNL A   1      35.995  32.939  29.101  1.00  0.00    -0.237 OA
ATOM     59  O   UNL A   1      34.347  32.472  30.874  1.00  0.00    -0.744 OA
ENDBRANCH  52  56
ENDBRANCH  25  49
BRANCH  37  60
ATOM     60  C   UNL A   1      44.989  33.295  29.545  1.00  0.00     0.023 A 
ATOM     61  C   UNL A   1      44.846  34.413  28.703  1.00  0.00     0.031 A 
ATOM     62  C   UNL A   1      45.732  33.448  30.729  1.00  0.00     0.131 A 
ATOM     63  C   UNL A   1      45.495  35.615  29.022  1.00  0.00     0.055 A 
ATOM     64  C   UNL A   1      46.322  34.665  31.072  1.00  0.00     0.041 A 
ATOM     65  F   UNL A   1      45.902  32.414  31.568  1.00  0.00    -0.206 F 
ATOM     66  C   UNL A   1      46.221  35.752  30.208  1.00  0.00     0.022 A 
BRANCH  63  67
ATOM     67  S   UNL A   1      45.470  36.964  27.810  1.00  0.00     0.124 S 
ATOM     68  O   UNL A   1      45.045  36.274  26.596  1.00  0.00    -0.237 OA
ATOM     69  O   UNL A   1      44.501  37.887  28.391  1.00  0.00    -0.237 OA
ATOM     70  O   UNL A   1      46.851  37.441  27.800  1.00  0.00    -0.744 OA
ENDBRANCH  63  67
ENDBRANCH  37  60
ENDBRANCH  11  12
ENDBRANCH   4   6
ENDBRANCH   1   2
BRANCH   1  71
ATOM     71  C   UNL A   1      34.721  21.651  26.479  1.00  0.00     0.042 C 
BRANCH  71  72
ATOM     72  C   UNL A   1      33.993  22.456  27.542  1.00  0.00     0.118 C 
BRANCH  72  73
ATOM     73  N   UNL A   1      32.550  22.474  27.345  1.00  0.00    -0.352 N 
ATOM     74  C   UNL A   1      31.752  23.379  26.692  1.00  0.00     0.251 C 
ATOM     75  H   UNL A   1      32.069  21.713  27.745  1.00  0.00     0.163 HD
ATOM     76  O   UNL A   1      30.532  23.305  26.801  1.00  0.00    -0.269 OA
BRANCH  74  77
ATOM     77  C   UNL A   1      32.348  24.446  25.860  1.00  0.00     0.044 A 
ATOM     78  C   UNL A   1      32.876  24.163  24.598  1.00  0.00     0.060 A 
ATOM     79  C   UNL A   1      32.311  25.766  26.331  1.00  0.00     0.023 A 
ATOM     80  C   UNL A   1      33.475  25.181  23.872  1.00  0.00     0.116 A 
ATOM     81  C   UNL A   1      32.859  26.810  25.569  1.00  0.00    -0.012 A 
ATOM     82  C   UNL A   1      33.480  26.487  24.350  1.00  0.00     0.055 A 
BRANCH  80  83
ATOM     83  O   UNL A   1      34.070  24.937  22.671  1.00  0.00    -0.508 OA
ATOM     84  H   UNL A   1      34.073  25.597  22.007  1.00  0.00     0.293 HD
ENDBRANCH  80  83
BRANCH  81  85
ATOM     85  C   UNL A   1      32.773  28.210  26.022  1.00  0.00     0.004 A 
ATOM     86  C   UNL A   1      33.655  28.674  27.019  1.00  0.00     0.056 A 
ATOM     87  C   UNL A   1      31.831  29.122  25.496  1.00  0.00     0.049 A 
ATOM     88  C   UNL A   1      33.598  29.997  27.452  1.00  0.00     0.116 A 
ATOM     89  C   UNL A   1      31.791  30.450  25.936  1.00  0.00     0.025 A 
ATOM     90  Cl  UNL A   1      30.654  28.657  24.312  1.00  0.00    -0.084 Cl
ATOM     91  C   UNL A   1      32.678  30.888  26.916  1.00  0.00     0.048 A 
BRANCH  88  92
ATOM     92  O   UNL A   1      34.438  30.470  28.416  1.00  0.00    -0.508 OA
ATOM     93  H   UNL A   1      34.877  31.289  28.295  1.00  0.00     0.293 HD
ENDBRANCH  88  92
ENDBRANCH  81  85
ENDBRANCH  74  77
ENDBRANCH  72  73
ENDBRANCH  71  72
ENDBRANCH   1  71
TORSDOF 16
ENDMDL
MODEL 3
REMARK VINA RESULT:     -12.4      6.434     11.351
REMARK SMILES O=C(NCCCNC(=O)c1cc(O)cc(-c2cc(O)ccc2Cl)c1)c1ccc(-c2c3nc(c(-c4cc(S(=O)(=O)[O-])ccc4F)c4ccc([nH]4)c(-c4cc(S(=O)(=O)[O-])ccc4F)c4nc(c(-c5cc(S(=O)(=O)[O-])ccc5F)c5ccc2[nH]5)C=C4)C=C3)cc1
REMARK SMILES IDX 4 1 3 2 1 3 2 4 25 6 26 7 87 8 27 9 86 10 28 11 29 12 30 13
REMARK SMILES IDX 80 14 31 15 85 16 79 17 81 18 32 19 84 20 78 21 77 22 33 24
REMARK SMILES IDX 65 25 45 26 64 27 46 28 49 29 63 30 82 31 47 32 48 33 62 35
REMARK SMILES IDX 83 36 50 37 34 38 35 39 43 40 36 41 42 42 44 43 41 44 37 45
REMARK SMILES IDX 38 46 39 47 40 48 66 49 67 50 75 51 68 52 74 53 76 54 73 55
REMARK SMILES IDX 69 56 70 57 71 58 72 59 51 60 52 61 60 62 53 63 59 64 61 65
REMARK SMILES IDX 58 66 54 67 55 68 56 69 57 70 5 71 6 72 7 73 8 74 9 76 10 77
REMARK SMILES IDX 11 78 24 79 12 80 15 81 14 82 13 83 16 85 17 86 22 87 18 88
REMARK SMILES IDX 21 89 23 90 20 91 19 92
REMARK H PARENT 3 5 81 23 49 34 7 75 13 84 19 93
REMARK Flexibility Score: inf
ROOT
ATOM      1  C   UNL A   1      37.043  22.277  25.093  1.00  0.00     0.118 C 
ENDROOT
BRANCH   1   2
ATOM      2  N   UNL A   1      37.933  21.193  25.493  1.00  0.00    -0.352 N 
ATOM      3  O   UNL A   1      39.829  20.196  26.181  1.00  0.00    -0.269 OA
ATOM      4  C   UNL A   1      39.173  21.233  26.087  1.00  0.00     0.251 C 
ATOM      5  H   UNL A   1      37.591  20.288  25.308  1.00  0.00     0.163 HD
BRANCH   4   6
ATOM      6  C   UNL A   1      39.724  22.509  26.592  1.00  0.00     0.039 A 
ATOM      7  C   UNL A   1      39.274  23.727  26.086  1.00  0.00     0.014 A 
ATOM      8  C   UNL A   1      40.697  22.492  27.597  1.00  0.00     0.014 A 
ATOM      9  C   UNL A   1      39.921  24.905  26.438  1.00  0.00     0.010 A 
ATOM     10  C   UNL A   1      41.265  23.692  28.040  1.00  0.00     0.010 A 
ATOM     11  C   UNL A   1      40.908  24.909  27.437  1.00  0.00    -0.014 A 
BRANCH  11  12
ATOM     12  C   UNL A   1      41.493  26.210  27.858  1.00  0.00     0.031 A 
ATOM     13  C   UNL A   1      42.899  26.594  27.482  1.00  0.00     0.074 A 
ATOM     14  C   UNL A   1      40.711  27.076  28.533  1.00  0.00     0.049 A 
ATOM     15  N   UNL A   1      43.544  27.704  27.735  1.00  0.00    -0.248 NA
ATOM     16  C   UNL A   1      43.684  25.602  26.734  1.00  0.00     0.031 C 
ATOM     17  C   UNL A   1      39.333  26.807  28.959  1.00  0.00     0.029 A 
ATOM     18  N   UNL A   1      40.940  28.360  28.956  1.00  0.00    -0.354 N 
ATOM     19  C   UNL A   1      44.811  27.547  27.183  1.00  0.00     0.074 A 
ATOM     20  C   UNL A   1      44.856  26.213  26.621  1.00  0.00     0.031 C 
ATOM     21  C   UNL A   1      38.822  27.909  29.523  1.00  0.00     0.029 A 
ATOM     22  C   UNL A   1      39.855  28.935  29.578  1.00  0.00     0.049 A 
ATOM     23  H   UNL A   1      41.797  28.826  28.828  1.00  0.00     0.167 HD
ATOM     24  C   UNL A   1      45.834  28.437  27.139  1.00  0.00     0.034 A 
ATOM     25  C   UNL A   1      39.710  30.145  30.151  1.00  0.00     0.034 A 
ATOM     26  C   UNL A   1      45.774  29.763  27.713  1.00  0.00     0.049 A 
ATOM     27  C   UNL A   1      40.874  31.097  30.122  1.00  0.00     0.074 A 
ATOM     28  C   UNL A   1      46.753  30.742  27.732  1.00  0.00     0.029 A 
ATOM     29  N   UNL A   1      44.672  30.297  28.371  1.00  0.00    -0.354 N 
ATOM     30  N   UNL A   1      42.065  30.927  29.597  1.00  0.00    -0.248 NA
ATOM     31  C   UNL A   1      40.674  32.404  30.759  1.00  0.00     0.031 C 
ATOM     32  C   UNL A   1      46.266  31.841  28.450  1.00  0.00     0.029 A 
ATOM     33  C   UNL A   1      44.955  31.580  28.817  1.00  0.00     0.049 A 
ATOM     34  H   UNL A   1      43.814  29.831  28.502  1.00  0.00     0.167 HD
ATOM     35  C   UNL A   1      42.751  32.115  29.827  1.00  0.00     0.074 A 
ATOM     36  C   UNL A   1      41.828  33.001  30.508  1.00  0.00     0.031 C 
ATOM     37  C   UNL A   1      44.029  32.444  29.511  1.00  0.00     0.034 A 
BRANCH  24  38
ATOM     38  C   UNL A   1      47.118  27.991  26.478  1.00  0.00     0.023 A 
ATOM     39  C   UNL A   1      47.306  28.096  25.088  1.00  0.00     0.031 A 
ATOM     40  C   UNL A   1      48.163  27.442  27.242  1.00  0.00     0.131 A 
ATOM     41  C   UNL A   1      48.482  27.601  24.500  1.00  0.00     0.055 A 
ATOM     42  C   UNL A   1      49.361  27.022  26.660  1.00  0.00     0.041 A 
ATOM     43  F   UNL A   1      48.035  27.298  28.572  1.00  0.00    -0.206 F 
ATOM     44  C   UNL A   1      49.521  27.089  25.279  1.00  0.00     0.022 A 
BRANCH  41  45
ATOM     45  S   UNL A   1      48.578  27.522  22.691  1.00  0.00     0.124 S 
ATOM     46  O   UNL A   1      48.572  26.079  22.456  1.00  0.00    -0.237 OA
ATOM     47  O   UNL A   1      47.377  28.239  22.278  1.00  0.00    -0.237 OA
ATOM     48  O   UNL A   1      49.840  28.190  22.384  1.00  0.00    -0.744 OA
ENDBRANCH  41  45
ENDBRANCH  24  38
BRANCH  25  49
ATOM     49  C   UNL A   1      38.434  30.506  30.833  1.00  0.00     0.023 A 
ATOM     50  C   UNL A   1      37.427  31.221  30.167  1.00  0.00     0.031 A 
ATOM     51  C   UNL A   1      38.222  30.173  32.184  1.00  0.00     0.131 A 
ATOM     52  C   UNL A   1      36.278  31.623  30.866  1.00  0.00     0.055 A 
ATOM     53  C   UNL A   1      37.051  30.518  32.856  1.00  0.00     0.041 A 
ATOM     54  F   UNL A   1      39.151  29.487  32.868  1.00  0.00    -0.206 F 
ATOM     55  C   UNL A   1      36.076  31.263  32.199  1.00  0.00     0.022 A 
BRANCH  52  56
ATOM     56  S   UNL A   1      35.093  32.714  30.031  1.00  0.00     0.124 S 
ATOM     57  O   UNL A   1      34.183  33.052  31.120  1.00  0.00    -0.237 OA
ATOM     58  O   UNL A   1      35.956  33.791  29.559  1.00  0.00    -0.237 OA
ATOM     59  O   UNL A   1      34.529  31.864  28.985  1.00  0.00    -0.744 OA
ENDBRANCH  52  56
ENDBRANCH  25  49
BRANCH  37  60
ATOM     60  C   UNL A   1      44.477  33.837  29.877  1.00  0.00     0.023 A 
ATOM     61  C   UNL A   1      44.308  34.920  28.995  1.00  0.00     0.031 A 
ATOM     62  C   UNL A   1      45.118  34.076  31.105  1.00  0.00     0.131 A 
ATOM     63  C   UNL A   1      44.838  36.177  29.324  1.00  0.00     0.055 A 
ATOM     64  C   UNL A   1      45.587  35.343  31.453  1.00  0.00     0.041 A 
ATOM     65  F   UNL A   1      45.307  33.078  31.982  1.00  0.00    -0.206 F 
ATOM     66  C   UNL A   1      45.464  36.398  30.553  1.00  0.00     0.022 A 
BRANCH  63  67
ATOM     67  S   UNL A   1      44.795  37.491  28.075  1.00  0.00     0.124 S 
ATOM     68  O   UNL A   1      44.442  38.659  28.875  1.00  0.00    -0.237 OA
ATOM     69  O   UNL A   1      46.155  37.465  27.549  1.00  0.00    -0.237 OA
ATOM     70  O   UNL A   1      43.762  37.043  27.142  1.00  0.00    -0.744 OA
ENDBRANCH  63  67
ENDBRANCH  37  60
ENDBRANCH  11  12
ENDBRANCH   4   6
ENDBRANCH   1   2
BRANCH   1  71
ATOM     71  C   UNL A   1      35.771  22.341  25.925  1.00  0.00     0.042 C 
BRANCH  71  72
ATOM     72  C   UNL A   1      34.811  23.441  25.508  1.00  0.00     0.118 C 
BRANCH  72  73
ATOM     73  N   UNL A   1      33.547  23.388  26.229  1.00  0.00    -0.352 N 
ATOM     74  C   UNL A   1      32.403  22.675  25.970  1.00  0.00     0.251 C 
ATOM     75  H   UNL A   1      33.506  23.955  27.034  1.00  0.00     0.163 HD
ATOM     76  O   UNL A   1      31.379  22.915  26.603  1.00  0.00    -0.269 OA
BRANCH  74  77
ATOM     77  C   UNL A   1      32.391  21.622  24.932  1.00  0.00     0.044 A 
ATOM     78  C   UNL A   1      32.107  21.929  23.599  1.00  0.00     0.060 A 
ATOM     79  C   UNL A   1      32.740  20.314  25.297  1.00  0.00     0.023 A 
ATOM     80  C   UNL A   1      32.051  20.906  22.667  1.00  0.00     0.116 A 
ATOM     81  C   UNL A   1      32.748  19.286  24.341  1.00  0.00    -0.012 A 
ATOM     82  C   UNL A   1      32.355  19.597  23.028  1.00  0.00     0.055 A 
BRANCH  80  83
ATOM     83  O   UNL A   1      31.704  21.148  21.371  1.00  0.00    -0.508 OA
ATOM     84  H   UNL A   1      31.838  20.489  20.720  1.00  0.00     0.293 HD
ENDBRANCH  80  83
BRANCH  81  85
ATOM     85  C   UNL A   1      33.171  17.920  24.696  1.00  0.00     0.004 A 
ATOM     86  C   UNL A   1      32.198  16.945  24.994  1.00  0.00     0.056 A 
ATOM     87  C   UNL A   1      34.530  17.536  24.753  1.00  0.00     0.049 A 
ATOM     88  C   UNL A   1      32.577  15.644  25.320  1.00  0.00     0.116 A 
ATOM     89  C   UNL A   1      34.895  16.224  25.074  1.00  0.00     0.025 A 
ATOM     90  Cl  UNL A   1      35.821  18.658  24.468  1.00  0.00    -0.084 Cl
ATOM     91  C   UNL A   1      33.916  15.276  25.357  1.00  0.00     0.048 A 
BRANCH  88  92
ATOM     92  O   UNL A   1      31.656  14.684  25.615  1.00  0.00    -0.508 OA
ATOM     93  H   UNL A   1      31.861  13.780  25.478  1.00  0.00     0.293 HD
ENDBRANCH  88  92
ENDBRANCH  81  85
ENDBRANCH  74  77
ENDBRANCH  72  73
ENDBRANCH  71  72
ENDBRANCH   1  71
TORSDOF 16
ENDMDL
