MODEL 1
REMARK VINA RESULT:     -10.2      0.000      0.000
REMARK SMILES O=C(COc1cc(-c2ccccc2)nc(Nc2ccccc2Br)n1)NCCCNC(=O)c1ccc(-c2c3nc(c(-c4cc(S(=O)(=O)[O-])ccc4F)c4ccc([nH]4)c(-c4cc(S(=O)(=O)[O-])ccc4F)c4nc(c(-c5cc(S(=O)(=O)[O-])ccc5F)c5ccc2[nH]5)C=C4)C=C3)cc1
REMARK SMILES IDX 26 1 25 2 1 3 2 4 3 6 4 7 5 8 6 9 24 10 7 11 15 12 14 13
REMARK SMILES IDX 8 14 9 15 13 16 10 17 12 18 11 19 16 20 17 22 18 23 22 24
REMARK SMILES IDX 19 25 21 26 23 27 20 28 27 29 28 30 29 31 30 32 31 34 32 35
REMARK SMILES IDX 33 36 94 37 34 38 93 39 35 40 36 41 37 42 87 43 38 44 92 45
REMARK SMILES IDX 86 46 88 47 39 48 91 49 85 50 84 51 40 53 72 54 52 55 71 56
REMARK SMILES IDX 53 57 56 58 70 59 89 60 54 61 55 62 69 64 90 65 57 66 41 67
REMARK SMILES IDX 42 68 50 69 43 70 49 71 51 72 48 73 44 74 45 75 46 76 47 77
REMARK SMILES IDX 73 78 74 79 82 80 75 81 81 82 83 83 80 84 76 85 77 86 78 87
REMARK SMILES IDX 79 88 58 89 59 90 67 91 60 92 66 93 68 94 65 95 61 96 62 97
REMARK SMILES IDX 63 98 64 99
REMARK H PARENT 25 5 16 21 29 33 88 52 56 63
REMARK Flexibility Score: inf
ROOT
ATOM      1  C   UNL A   1      32.379  35.724  32.012  1.00  0.00     0.117 C 
ENDROOT
BRANCH   1   2
ATOM      2  N   UNL A   1      33.404  34.750  32.341  1.00  0.00    -0.353 N 
ATOM      3  O   UNL A   1      34.763  36.178  33.529  1.00  0.00    -0.271 OA
ATOM      4  C   UNL A   1      34.449  35.040  33.198  1.00  0.00     0.258 C 
ATOM      5  H   UNL A   1      33.352  33.853  31.939  1.00  0.00     0.163 HD
BRANCH   4   6
ATOM      6  C   UNL A   1      35.137  33.794  33.770  1.00  0.00     0.331 C 
BRANCH   6   7
ATOM      7  O   UNL A   1      36.187  34.083  34.697  1.00  0.00    -0.467 OA
BRANCH   7   8
ATOM      8  C   UNL A   1      36.864  32.951  35.090  1.00  0.00     0.219 A 
ATOM      9  C   UNL A   1      37.400  32.099  34.166  1.00  0.00     0.097 A 
ATOM     10  N   UNL A   1      37.068  32.817  36.402  1.00  0.00    -0.177 NA
ATOM     11  C   UNL A   1      38.117  31.031  34.646  1.00  0.00     0.080 A 
ATOM     12  C   UNL A   1      37.788  31.753  36.800  1.00  0.00     0.231 A 
ATOM     13  N   UNL A   1      38.320  30.843  35.962  1.00  0.00    -0.212 NA
BRANCH  11  14
ATOM     14  C   UNL A   1      38.647  30.040  33.702  1.00  0.00     0.000 A 
ATOM     15  C   UNL A   1      39.999  29.667  33.734  1.00  0.00     0.010 A 
ATOM     16  C   UNL A   1      37.784  29.334  32.840  1.00  0.00     0.010 A 
ATOM     17  C   UNL A   1      40.465  28.601  32.958  1.00  0.00     0.001 A 
ATOM     18  C   UNL A   1      38.249  28.271  32.064  1.00  0.00     0.001 A 
ATOM     19  C   UNL A   1      39.589  27.899  32.132  1.00  0.00     0.000 A 
ENDBRANCH  11  14
BRANCH  12  20
ATOM     20  N   UNL A   1      38.099  31.576  38.145  1.00  0.00    -0.323 N 
ATOM     21  H   UNL A   1      38.912  31.046  38.316  1.00  0.00     0.170 HD
BRANCH  20  22
ATOM     22  C   UNL A   1      37.440  32.031  39.292  1.00  0.00     0.055 A 
ATOM     23  C   UNL A   1      36.409  31.229  39.816  1.00  0.00     0.027 A 
ATOM     24  C   UNL A   1      37.772  33.207  39.988  1.00  0.00     0.041 A 
ATOM     25  C   UNL A   1      35.740  31.578  40.992  1.00  0.00     0.002 A 
ATOM     26  C   UNL A   1      37.099  33.557  41.167  1.00  0.00     0.018 A 
ATOM     27  Br  UNL A   1      39.022  34.480  39.319  1.00  0.00    -0.049 Br
ATOM     28  C   UNL A   1      36.088  32.741  41.670  1.00  0.00     0.001 A 
ENDBRANCH  20  22
ENDBRANCH  12  20
ENDBRANCH   7   8
ENDBRANCH   6   7
ENDBRANCH   4   6
ENDBRANCH   1   2
BRANCH   1  29
ATOM     29  C   UNL A   1      32.633  36.454  30.709  1.00  0.00     0.042 C 
BRANCH  29  30
ATOM     30  C   UNL A   1      33.567  35.719  29.758  1.00  0.00     0.118 C 
BRANCH  30  31
ATOM     31  N   UNL A   1      32.881  34.782  28.880  1.00  0.00    -0.352 N 
ATOM     32  C   UNL A   1      33.333  33.609  28.322  1.00  0.00     0.251 C 
ATOM     33  H   UNL A   1      31.955  35.024  28.650  1.00  0.00     0.163 HD
ATOM     34  O   UNL A   1      32.634  33.039  27.486  1.00  0.00    -0.269 OA
BRANCH  32  35
ATOM     35  C   UNL A   1      34.655  33.055  28.694  1.00  0.00     0.039 A 
ATOM     36  C   UNL A   1      35.783  33.460  27.975  1.00  0.00     0.014 A 
ATOM     37  C   UNL A   1      34.792  32.138  29.738  1.00  0.00     0.014 A 
ATOM     38  C   UNL A   1      37.048  32.994  28.343  1.00  0.00     0.010 A 
ATOM     39  C   UNL A   1      36.060  31.749  30.164  1.00  0.00     0.010 A 
ATOM     40  C   UNL A   1      37.203  32.160  29.462  1.00  0.00    -0.014 A 
BRANCH  40  41
ATOM     41  C   UNL A   1      38.546  31.684  29.891  1.00  0.00     0.031 A 
ATOM     42  C   UNL A   1      39.309  32.438  30.950  1.00  0.00     0.074 A 
ATOM     43  C   UNL A   1      39.099  30.603  29.304  1.00  0.00     0.049 A 
ATOM     44  N   UNL A   1      40.512  32.220  31.419  1.00  0.00    -0.248 NA
ATOM     45  C   UNL A   1      38.642  33.611  31.535  1.00  0.00     0.031 C 
ATOM     46  C   UNL A   1      38.477  29.809  28.242  1.00  0.00     0.029 A 
ATOM     47  N   UNL A   1      40.307  29.986  29.511  1.00  0.00    -0.354 N 
ATOM     48  C   UNL A   1      40.747  33.233  32.344  1.00  0.00     0.074 A 
ATOM     49  C   UNL A   1      39.593  34.104  32.312  1.00  0.00     0.031 C 
ATOM     50  C   UNL A   1      39.293  28.793  27.917  1.00  0.00     0.029 A 
ATOM     51  C   UNL A   1      40.516  28.890  28.706  1.00  0.00     0.049 A 
ATOM     52  H   UNL A   1      40.964  30.300  30.175  1.00  0.00     0.167 HD
ATOM     53  C   UNL A   1      41.813  33.404  33.165  1.00  0.00     0.034 A 
ATOM     54  C   UNL A   1      41.578  28.063  28.606  1.00  0.00     0.034 A 
ATOM     55  C   UNL A   1      42.953  32.520  33.192  1.00  0.00     0.049 A 
ATOM     56  C   UNL A   1      42.769  28.295  29.503  1.00  0.00     0.074 A 
ATOM     57  C   UNL A   1      44.065  32.574  34.014  1.00  0.00     0.029 A 
ATOM     58  N   UNL A   1      43.132  31.425  32.356  1.00  0.00    -0.354 N 
ATOM     59  N   UNL A   1      42.956  29.230  30.406  1.00  0.00    -0.248 NA
ATOM     60  C   UNL A   1      43.887  27.351  29.376  1.00  0.00     0.031 C 
ATOM     61  C   UNL A   1      44.951  31.565  33.622  1.00  0.00     0.029 A 
ATOM     62  C   UNL A   1      44.352  30.818  32.619  1.00  0.00     0.049 A 
ATOM     63  H   UNL A   1      42.489  31.124  31.674  1.00  0.00     0.167 HD
ATOM     64  C   UNL A   1      44.195  28.961  30.981  1.00  0.00     0.074 A 
ATOM     65  C   UNL A   1      44.703  27.770  30.331  1.00  0.00     0.031 C 
ATOM     66  C   UNL A   1      44.852  29.633  31.962  1.00  0.00     0.034 A 
BRANCH  53  67
ATOM     67  C   UNL A   1      41.802  34.609  34.078  1.00  0.00     0.023 A 
ATOM     68  C   UNL A   1      42.434  35.813  33.721  1.00  0.00     0.031 A 
ATOM     69  C   UNL A   1      41.178  34.545  35.336  1.00  0.00     0.131 A 
ATOM     70  C   UNL A   1      42.498  36.872  34.640  1.00  0.00     0.055 A 
ATOM     71  C   UNL A   1      41.166  35.635  36.210  1.00  0.00     0.041 A 
ATOM     72  F   UNL A   1      40.578  33.416  35.746  1.00  0.00    -0.206 F 
ATOM     73  C   UNL A   1      41.844  36.802  35.871  1.00  0.00     0.022 A 
BRANCH  70  74
ATOM     74  S   UNL A   1      43.585  38.277  34.267  1.00  0.00     0.124 S 
ATOM     75  O   UNL A   1      44.352  38.391  35.505  1.00  0.00    -0.237 OA
ATOM     76  O   UNL A   1      44.321  37.805  33.100  1.00  0.00    -0.237 OA
ATOM     77  O   UNL A   1      42.652  39.373  34.016  1.00  0.00    -0.744 OA
ENDBRANCH  70  74
ENDBRANCH  53  67
BRANCH  54  78
ATOM     78  C   UNL A   1      41.577  26.943  27.619  1.00  0.00     0.023 A 
ATOM     79  C   UNL A   1      41.390  25.613  28.031  1.00  0.00     0.031 A 
ATOM     80  C   UNL A   1      41.815  27.180  26.253  1.00  0.00     0.131 A 
ATOM     81  C   UNL A   1      41.501  24.569  27.100  1.00  0.00     0.055 A 
ATOM     82  C   UNL A   1      41.862  26.143  25.320  1.00  0.00     0.041 A 
ATOM     83  F   UNL A   1      41.999  28.432  25.803  1.00  0.00    -0.206 F 
ATOM     84  C   UNL A   1      41.719  24.825  25.744  1.00  0.00     0.022 A 
BRANCH  81  85
ATOM     85  S   UNL A   1      41.455  22.858  27.703  1.00  0.00     0.124 S 
ATOM     86  O   UNL A   1      40.028  22.565  27.651  1.00  0.00    -0.237 OA
ATOM     87  O   UNL A   1      42.289  22.171  26.722  1.00  0.00    -0.237 OA
ATOM     88  O   UNL A   1      42.025  22.955  29.044  1.00  0.00    -0.744 OA
ENDBRANCH  81  85
ENDBRANCH  54  78
BRANCH  66  89
ATOM     89  C   UNL A   1      46.166  29.057  32.434  1.00  0.00     0.023 A 
ATOM     90  C   UNL A   1      46.237  28.106  33.466  1.00  0.00     0.031 A 
ATOM     91  C   UNL A   1      47.372  29.479  31.844  1.00  0.00     0.131 A 
ATOM     92  C   UNL A   1      47.487  27.656  33.920  1.00  0.00     0.055 A 
ATOM     93  C   UNL A   1      48.608  28.975  32.250  1.00  0.00     0.041 A 
ATOM     94  F   UNL A   1      47.368  30.389  30.856  1.00  0.00    -0.206 F 
ATOM     95  C   UNL A   1      48.671  28.069  33.305  1.00  0.00     0.022 A 
BRANCH  92  96
ATOM     96  S   UNL A   1      47.552  26.605  35.396  1.00  0.00     0.124 S 
ATOM     97  O   UNL A   1      47.956  25.320  34.836  1.00  0.00    -0.237 OA
ATOM     98  O   UNL A   1      48.547  27.284  36.220  1.00  0.00    -0.237 OA
ATOM     99  O   UNL A   1      46.184  26.653  35.912  1.00  0.00    -0.744 OA
ENDBRANCH  92  96
ENDBRANCH  66  89
ENDBRANCH  40  41
ENDBRANCH  32  35
ENDBRANCH  30  31
ENDBRANCH  29  30
ENDBRANCH   1  29
TORSDOF 18
ENDMDL
MODEL 2
REMARK VINA RESULT:     -10.2      5.457      8.663
REMARK SMILES O=C(COc1cc(-c2ccccc2)nc(Nc2ccccc2Br)n1)NCCCNC(=O)c1ccc(-c2c3nc(c(-c4cc(S(=O)(=O)[O-])ccc4F)c4ccc([nH]4)c(-c4cc(S(=O)(=O)[O-])ccc4F)c4nc(c(-c5cc(S(=O)(=O)[O-])ccc5F)c5ccc2[nH]5)C=C4)C=C3)cc1
REMARK SMILES IDX 26 1 25 2 1 3 2 4 3 6 4 7 5 8 6 9 24 10 7 11 15 12 14 13
REMARK SMILES IDX 8 14 9 15 13 16 10 17 12 18 11 19 16 20 17 22 18 23 22 24
REMARK SMILES IDX 19 25 21 26 23 27 20 28 27 29 28 30 29 31 30 32 31 34 32 35
REMARK SMILES IDX 33 36 94 37 34 38 93 39 35 40 36 41 37 42 87 43 38 44 92 45
REMARK SMILES IDX 86 46 88 47 39 48 91 49 85 50 84 51 40 53 72 54 52 55 71 56
REMARK SMILES IDX 53 57 56 58 70 59 89 60 54 61 55 62 69 64 90 65 57 66 41 67
REMARK SMILES IDX 42 68 50 69 43 70 49 71 51 72 48 73 44 74 45 75 46 76 47 77
REMARK SMILES IDX 73 78 74 79 82 80 75 81 81 82 83 83 80 84 76 85 77 86 78 87
REMARK SMILES IDX 79 88 58 89 59 90 67 91 60 92 66 93 68 94 65 95 61 96 62 97
REMARK SMILES IDX 63 98 64 99
REMARK H PARENT 25 5 16 21 29 33 88 52 56 63
REMARK Flexibility Score: inf
ROOT
ATOM      1  C   UNL A   1      32.293  27.022  25.270  1.00  0.00     0.117 C 
ENDROOT
BRANCH   1   2
ATOM      2  N   UNL A   1      32.514  25.793  26.009  1.00  0.00    -0.353 N 
ATOM      3  O   UNL A   1      30.307  25.377  26.511  1.00  0.00    -0.271 OA
ATOM      4  C   UNL A   1      31.472  24.999  26.451  1.00  0.00     0.258 C 
ATOM      5  H   UNL A   1      33.439  25.514  26.201  1.00  0.00     0.163 HD
BRANCH   4   6
ATOM      6  C   UNL A   1      31.893  23.563  26.784  1.00  0.00     0.331 C 
BRANCH   6   7
ATOM      7  O   UNL A   1      31.610  22.619  25.747  1.00  0.00    -0.467 OA
BRANCH   7   8
ATOM      8  C   UNL A   1      32.693  21.819  25.459  1.00  0.00     0.219 A 
ATOM      9  C   UNL A   1      32.555  20.463  25.350  1.00  0.00     0.097 A 
ATOM     10  N   UNL A   1      33.830  22.456  25.171  1.00  0.00    -0.177 NA
ATOM     11  C   UNL A   1      33.673  19.751  24.994  1.00  0.00     0.080 A 
ATOM     12  C   UNL A   1      34.881  21.694  24.819  1.00  0.00     0.231 A 
ATOM     13  N   UNL A   1      34.845  20.352  24.724  1.00  0.00    -0.212 NA
BRANCH  11  14
ATOM     14  C   UNL A   1      33.602  18.285  24.941  1.00  0.00     0.000 A 
ATOM     15  C   UNL A   1      34.661  17.533  24.412  1.00  0.00     0.010 A 
ATOM     16  C   UNL A   1      32.537  17.594  25.551  1.00  0.00     0.010 A 
ATOM     17  C   UNL A   1      34.673  16.139  24.522  1.00  0.00     0.001 A 
ATOM     18  C   UNL A   1      32.546  16.203  25.659  1.00  0.00     0.001 A 
ATOM     19  C   UNL A   1      33.621  15.477  25.153  1.00  0.00     0.000 A 
ENDBRANCH  11  14
BRANCH  12  20
ATOM     20  N   UNL A   1      36.084  22.284  24.442  1.00  0.00    -0.323 N 
ATOM     21  H   UNL A   1      36.145  22.528  23.489  1.00  0.00     0.170 HD
BRANCH  20  22
ATOM     22  C   UNL A   1      37.220  22.584  25.201  1.00  0.00     0.055 A 
ATOM     23  C   UNL A   1      37.362  23.902  25.674  1.00  0.00     0.027 A 
ATOM     24  C   UNL A   1      38.202  21.647  25.571  1.00  0.00     0.041 A 
ATOM     25  C   UNL A   1      38.434  24.273  26.490  1.00  0.00     0.002 A 
ATOM     26  C   UNL A   1      39.278  22.021  26.388  1.00  0.00     0.018 A 
ATOM     27  Br  UNL A   1      38.244  19.873  24.877  1.00  0.00    -0.049 Br
ATOM     28  C   UNL A   1      39.390  23.330  26.850  1.00  0.00     0.001 A 
ENDBRANCH  20  22
ENDBRANCH  12  20
ENDBRANCH   7   8
ENDBRANCH   6   7
ENDBRANCH   4   6
ENDBRANCH   1   2
BRANCH   1  29
ATOM     29  C   UNL A   1      32.332  28.264  26.136  1.00  0.00     0.042 C 
BRANCH  29  30
ATOM     30  C   UNL A   1      33.075  29.435  25.508  1.00  0.00     0.118 C 
BRANCH  30  31
ATOM     31  N   UNL A   1      32.666  30.730  26.033  1.00  0.00    -0.352 N 
ATOM     32  C   UNL A   1      33.228  31.491  27.032  1.00  0.00     0.251 C 
ATOM     33  H   UNL A   1      31.866  31.119  25.612  1.00  0.00     0.163 HD
ATOM     34  O   UNL A   1      32.635  32.495  27.422  1.00  0.00    -0.269 OA
BRANCH  32  35
ATOM     35  C   UNL A   1      34.512  31.091  27.655  1.00  0.00     0.039 A 
ATOM     36  C   UNL A   1      35.495  32.064  27.856  1.00  0.00     0.014 A 
ATOM     37  C   UNL A   1      34.755  29.770  28.035  1.00  0.00     0.014 A 
ATOM     38  C   UNL A   1      36.692  31.721  28.491  1.00  0.00     0.010 A 
ATOM     39  C   UNL A   1      35.907  29.451  28.752  1.00  0.00     0.010 A 
ATOM     40  C   UNL A   1      36.896  30.419  28.976  1.00  0.00    -0.014 A 
BRANCH  40  41
ATOM     41  C   UNL A   1      38.149  30.047  29.687  1.00  0.00     0.031 A 
ATOM     42  C   UNL A   1      38.407  30.565  31.079  1.00  0.00     0.074 A 
ATOM     43  C   UNL A   1      39.073  29.281  29.072  1.00  0.00     0.049 A 
ATOM     44  N   UNL A   1      39.457  30.404  31.843  1.00  0.00    -0.248 NA
ATOM     45  C   UNL A   1      37.355  31.402  31.677  1.00  0.00     0.031 C 
ATOM     46  C   UNL A   1      38.957  28.747  27.713  1.00  0.00     0.029 A 
ATOM     47  N   UNL A   1      40.291  28.820  29.504  1.00  0.00    -0.354 N 
ATOM     48  C   UNL A   1      39.196  31.126  33.004  1.00  0.00     0.074 A 
ATOM     49  C   UNL A   1      37.923  31.784  32.809  1.00  0.00     0.031 C 
ATOM     50  C   UNL A   1      40.043  28.005  27.439  1.00  0.00     0.029 A 
ATOM     51  C   UNL A   1      40.955  28.051  28.577  1.00  0.00     0.049 A 
ATOM     52  H   UNL A   1      40.656  29.022  30.397  1.00  0.00     0.167 HD
ATOM     53  C   UNL A   1      39.936  31.209  34.138  1.00  0.00     0.034 A 
ATOM     54  C   UNL A   1      42.167  27.459  28.630  1.00  0.00     0.034 A 
ATOM     55  C   UNL A   1      41.200  30.537  34.320  1.00  0.00     0.049 A 
ATOM     56  C   UNL A   1      42.989  27.597  29.888  1.00  0.00     0.074 A 
ATOM     57  C   UNL A   1      42.009  30.517  35.443  1.00  0.00     0.029 A 
ATOM     58  N   UNL A   1      41.844  29.775  33.354  1.00  0.00    -0.354 N 
ATOM     59  N   UNL A   1      42.706  28.245  30.995  1.00  0.00    -0.248 NA
ATOM     60  C   UNL A   1      44.287  26.911  29.908  1.00  0.00     0.031 C 
ATOM     61  C   UNL A   1      43.176  29.812  35.131  1.00  0.00     0.029 A 
ATOM     62  C   UNL A   1      43.056  29.309  33.844  1.00  0.00     0.049 A 
ATOM     63  H   UNL A   1      41.493  29.593  32.453  1.00  0.00     0.167 HD
ATOM     64  C   UNL A   1      43.775  28.009  31.857  1.00  0.00     0.074 A 
ATOM     65  C   UNL A   1      44.699  27.151  31.144  1.00  0.00     0.031 C 
ATOM     66  C   UNL A   1      43.973  28.457  33.123  1.00  0.00     0.034 A 
BRANCH  53  67
ATOM     67  C   UNL A   1      39.403  32.079  35.254  1.00  0.00     0.023 A 
ATOM     68  C   UNL A   1      39.813  33.414  35.410  1.00  0.00     0.031 A 
ATOM     69  C   UNL A   1      38.496  31.558  36.193  1.00  0.00     0.131 A 
ATOM     70  C   UNL A   1      39.384  34.156  36.521  1.00  0.00     0.055 A 
ATOM     71  C   UNL A   1      37.999  32.330  37.246  1.00  0.00     0.041 A 
ATOM     72  F   UNL A   1      38.084  30.283  36.113  1.00  0.00    -0.206 F 
ATOM     73  C   UNL A   1      38.456  33.633  37.425  1.00  0.00     0.022 A 
BRANCH  70  74
ATOM     74  S   UNL A   1      40.177  35.753  36.856  1.00  0.00     0.124 S 
ATOM     75  O   UNL A   1      39.659  36.065  38.186  1.00  0.00    -0.237 OA
ATOM     76  O   UNL A   1      41.595  35.421  36.785  1.00  0.00    -0.237 OA
ATOM     77  O   UNL A   1      39.681  36.613  35.784  1.00  0.00    -0.744 OA
ENDBRANCH  70  74
ENDBRANCH  53  67
BRANCH  54  78
ATOM     78  C   UNL A   1      42.688  26.690  27.462  1.00  0.00     0.023 A 
ATOM     79  C   UNL A   1      42.610  25.287  27.425  1.00  0.00     0.031 A 
ATOM     80  C   UNL A   1      43.320  27.341  26.388  1.00  0.00     0.131 A 
ATOM     81  C   UNL A   1      43.203  24.581  26.367  1.00  0.00     0.055 A 
ATOM     82  C   UNL A   1      43.853  26.637  25.307  1.00  0.00     0.041 A 
ATOM     83  F   UNL A   1      43.421  28.680  26.371  1.00  0.00    -0.206 F 
ATOM     84  C   UNL A   1      43.810  25.247  25.300  1.00  0.00     0.022 A 
BRANCH  81  85
ATOM     85  S   UNL A   1      43.260  22.770  26.456  1.00  0.00     0.124 S 
ATOM     86  O   UNL A   1      42.528  22.392  25.253  1.00  0.00    -0.237 OA
ATOM     87  O   UNL A   1      44.696  22.512  26.441  1.00  0.00    -0.237 OA
ATOM     88  O   UNL A   1      42.587  22.469  27.717  1.00  0.00    -0.744 OA
ENDBRANCH  81  85
ENDBRANCH  54  78
BRANCH  66  89
ATOM     89  C   UNL A   1      45.211  27.973  33.842  1.00  0.00     0.023 A 
ATOM     90  C   UNL A   1      45.222  26.785  34.593  1.00  0.00     0.031 A 
ATOM     91  C   UNL A   1      46.398  28.725  33.783  1.00  0.00     0.131 A 
ATOM     92  C   UNL A   1      46.375  26.416  35.304  1.00  0.00     0.055 A 
ATOM     93  C   UNL A   1      47.564  28.317  34.433  1.00  0.00     0.041 A 
ATOM     94  F   UNL A   1      46.447  29.871  33.085  1.00  0.00    -0.206 F 
ATOM     95  C   UNL A   1      47.552  27.164  35.211  1.00  0.00     0.022 A 
BRANCH  92  96
ATOM     96  S   UNL A   1      46.286  25.003  36.437  1.00  0.00     0.124 S 
ATOM     97  O   UNL A   1      47.692  24.644  36.585  1.00  0.00    -0.237 OA
ATOM     98  O   UNL A   1      45.648  25.586  37.613  1.00  0.00    -0.237 OA
ATOM     99  O   UNL A   1      45.471  24.030  35.710  1.00  0.00    -0.744 OA
ENDBRANCH  92  96
ENDBRANCH  66  89
ENDBRANCH  40  41
ENDBRANCH  32  35
ENDBRANCH  30  31
ENDBRANCH  29  30
ENDBRANCH   1  29
TORSDOF 18
ENDMDL
MODEL 3
REMARK VINA RESULT:     -10.1      5.187      8.821
REMARK SMILES O=C(COc1cc(-c2ccccc2)nc(Nc2ccccc2Br)n1)NCCCNC(=O)c1ccc(-c2c3nc(c(-c4cc(S(=O)(=O)[O-])ccc4F)c4ccc([nH]4)c(-c4cc(S(=O)(=O)[O-])ccc4F)c4nc(c(-c5cc(S(=O)(=O)[O-])ccc5F)c5ccc2[nH]5)C=C4)C=C3)cc1
REMARK SMILES IDX 26 1 25 2 1 3 2 4 3 6 4 7 5 8 6 9 24 10 7 11 15 12 14 13
REMARK SMILES IDX 8 14 9 15 13 16 10 17 12 18 11 19 16 20 17 22 18 23 22 24
REMARK SMILES IDX 19 25 21 26 23 27 20 28 27 29 28 30 29 31 30 32 31 34 32 35
REMARK SMILES IDX 33 36 94 37 34 38 93 39 35 40 36 41 37 42 87 43 38 44 92 45
REMARK SMILES IDX 86 46 88 47 39 48 91 49 85 50 84 51 40 53 72 54 52 55 71 56
REMARK SMILES IDX 53 57 56 58 70 59 89 60 54 61 55 62 69 64 90 65 57 66 41 67
REMARK SMILES IDX 42 68 50 69 43 70 49 71 51 72 48 73 44 74 45 75 46 76 47 77
REMARK SMILES IDX 73 78 74 79 82 80 75 81 81 82 83 83 80 84 76 85 77 86 78 87
REMARK SMILES IDX 79 88 58 89 59 90 67 91 60 92 66 93 68 94 65 95 61 96 62 97
REMARK SMILES IDX 63 98 64 99
REMARK H PARENT 25 5 16 21 29 33 88 52 56 63
REMARK Flexibility Score: inf
ROOT
ATOM      1  C   UNL A   1      32.579  27.298  24.024  1.00  0.00     0.117 C 
ENDROOT
BRANCH   1   2
ATOM      2  N   UNL A   1      32.802  25.882  23.797  1.00  0.00    -0.353 N 
ATOM      3  O   UNL A   1      33.832  26.095  21.750  1.00  0.00    -0.271 OA
ATOM      4  C   UNL A   1      33.542  25.413  22.727  1.00  0.00     0.258 C 
ATOM      5  H   UNL A   1      32.413  25.233  24.427  1.00  0.00     0.163 HD
BRANCH   4   6
ATOM      6  C   UNL A   1      34.044  23.976  22.912  1.00  0.00     0.331 C 
BRANCH   6   7
ATOM      7  O   UNL A   1      35.464  23.839  22.809  1.00  0.00    -0.467 OA
BRANCH   7   8
ATOM      8  C   UNL A   1      35.989  23.064  23.819  1.00  0.00     0.219 A 
ATOM      9  C   UNL A   1      37.016  23.524  24.594  1.00  0.00     0.097 A 
ATOM     10  N   UNL A   1      35.353  21.917  24.066  1.00  0.00    -0.177 NA
ATOM     11  C   UNL A   1      37.431  22.713  25.621  1.00  0.00     0.080 A 
ATOM     12  C   UNL A   1      35.808  21.179  25.094  1.00  0.00     0.231 A 
ATOM     13  N   UNL A   1      36.837  21.535  25.885  1.00  0.00    -0.212 NA
BRANCH  11  14
ATOM     14  C   UNL A   1      38.583  23.120  26.435  1.00  0.00     0.000 A 
ATOM     15  C   UNL A   1      39.655  22.243  26.654  1.00  0.00     0.010 A 
ATOM     16  C   UNL A   1      38.707  24.446  26.895  1.00  0.00     0.010 A 
ATOM     17  C   UNL A   1      40.826  22.686  27.277  1.00  0.00     0.001 A 
ATOM     18  C   UNL A   1      39.874  24.889  27.519  1.00  0.00     0.001 A 
ATOM     19  C   UNL A   1      40.938  24.009  27.700  1.00  0.00     0.000 A 
ENDBRANCH  11  14
BRANCH  12  20
ATOM     20  N   UNL A   1      35.161  20.001  25.457  1.00  0.00    -0.323 N 
ATOM     21  H   UNL A   1      35.256  19.751  26.405  1.00  0.00     0.170 HD
BRANCH  20  22
ATOM     22  C   UNL A   1      34.398  19.116  24.687  1.00  0.00     0.055 A 
ATOM     23  C   UNL A   1      35.013  17.927  24.254  1.00  0.00     0.027 A 
ATOM     24  C   UNL A   1      33.042  19.308  24.363  1.00  0.00     0.041 A 
ATOM     25  C   UNL A   1      34.306  16.961  23.533  1.00  0.00     0.002 A 
ATOM     26  C   UNL A   1      32.335  18.338  23.638  1.00  0.00     0.018 A 
ATOM     27  Br  UNL A   1      32.117  20.932  24.727  1.00  0.00    -0.049 Br
ATOM     28  C   UNL A   1      32.965  17.165  23.229  1.00  0.00     0.001 A 
ENDBRANCH  20  22
ENDBRANCH  12  20
ENDBRANCH   7   8
ENDBRANCH   6   7
ENDBRANCH   4   6
ENDBRANCH   1   2
BRANCH   1  29
ATOM     29  C   UNL A   1      32.930  27.749  25.428  1.00  0.00     0.042 C 
BRANCH  29  30
ATOM     30  C   UNL A   1      33.892  28.927  25.478  1.00  0.00     0.118 C 
BRANCH  30  31
ATOM     31  N   UNL A   1      33.299  30.136  26.033  1.00  0.00    -0.352 N 
ATOM     32  C   UNL A   1      33.729  30.928  27.072  1.00  0.00     0.251 C 
ATOM     33  H   UNL A   1      32.465  30.429  25.602  1.00  0.00     0.163 HD
ATOM     34  O   UNL A   1      32.996  31.829  27.477  1.00  0.00    -0.269 OA
BRANCH  32  35
ATOM     35  C   UNL A   1      35.039  30.682  27.718  1.00  0.00     0.039 A 
ATOM     36  C   UNL A   1      35.958  31.732  27.802  1.00  0.00     0.014 A 
ATOM     37  C   UNL A   1      35.371  29.428  28.235  1.00  0.00     0.014 A 
ATOM     38  C   UNL A   1      37.178  31.538  28.456  1.00  0.00     0.010 A 
ATOM     39  C   UNL A   1      36.544  29.263  28.968  1.00  0.00     0.010 A 
ATOM     40  C   UNL A   1      37.469  30.312  29.075  1.00  0.00    -0.014 A 
BRANCH  40  41
ATOM     41  C   UNL A   1      38.748  30.100  29.807  1.00  0.00     0.031 A 
ATOM     42  C   UNL A   1      38.919  30.655  31.198  1.00  0.00     0.074 A 
ATOM     43  C   UNL A   1      39.767  29.450  29.211  1.00  0.00     0.049 A 
ATOM     44  N   UNL A   1      39.969  30.628  31.978  1.00  0.00    -0.248 NA
ATOM     45  C   UNL A   1      37.764  31.360  31.774  1.00  0.00     0.031 C 
ATOM     46  C   UNL A   1      39.739  28.897  27.855  1.00  0.00     0.029 A 
ATOM     47  N   UNL A   1      41.026  29.143  29.664  1.00  0.00    -0.354 N 
ATOM     48  C   UNL A   1      39.605  31.320  33.129  1.00  0.00     0.074 A 
ATOM     49  C   UNL A   1      38.264  31.816  32.911  1.00  0.00     0.031 C 
ATOM     50  C   UNL A   1      40.911  28.292  27.602  1.00  0.00     0.029 A 
ATOM     51  C   UNL A   1      41.793  28.456  28.752  1.00  0.00     0.049 A 
ATOM     52  H   UNL A   1      41.350  29.394  30.560  1.00  0.00     0.167 HD
ATOM     53  C   UNL A   1      40.312  31.500  34.273  1.00  0.00     0.034 A 
ATOM     54  C   UNL A   1      43.067  28.018  28.828  1.00  0.00     0.034 A 
ATOM     55  C   UNL A   1      41.646  30.990  34.479  1.00  0.00     0.049 A 
ATOM     56  C   UNL A   1      43.847  28.262  30.096  1.00  0.00     0.074 A 
ATOM     57  C   UNL A   1      42.434  31.075  35.613  1.00  0.00     0.029 A 
ATOM     58  N   UNL A   1      42.393  30.306  33.528  1.00  0.00    -0.354 N 
ATOM     59  N   UNL A   1      43.471  28.878  31.194  1.00  0.00    -0.248 NA
ATOM     60  C   UNL A   1      45.219  27.741  30.140  1.00  0.00     0.031 C 
ATOM     61  C   UNL A   1      43.683  30.516  35.323  1.00  0.00     0.029 A 
ATOM     62  C   UNL A   1      43.645  29.995  34.039  1.00  0.00     0.049 A 
ATOM     63  H   UNL A   1      42.080  30.076  32.623  1.00  0.00     0.167 HD
ATOM     64  C   UNL A   1      44.547  28.780  32.072  1.00  0.00     0.074 A 
ATOM     65  C   UNL A   1      45.580  28.037  31.380  1.00  0.00     0.031 C 
ATOM     66  C   UNL A   1      44.670  29.257  33.338  1.00  0.00     0.034 A 
BRANCH  53  67
ATOM     67  C   UNL A   1      39.660  32.305  35.374  1.00  0.00     0.023 A 
ATOM     68  C   UNL A   1      39.962  33.663  35.576  1.00  0.00     0.031 A 
ATOM     69  C   UNL A   1      38.746  31.700  36.255  1.00  0.00     0.131 A 
ATOM     70  C   UNL A   1      39.423  34.348  36.675  1.00  0.00     0.055 A 
ATOM     71  C   UNL A   1      38.141  32.412  37.293  1.00  0.00     0.041 A 
ATOM     72  F   UNL A   1      38.433  30.401  36.131  1.00  0.00    -0.206 F 
ATOM     73  C   UNL A   1      38.491  33.740  37.519  1.00  0.00     0.022 A 
BRANCH  70  74
ATOM     74  S   UNL A   1      40.079  35.991  37.079  1.00  0.00     0.124 S 
ATOM     75  O   UNL A   1      39.734  36.748  35.878  1.00  0.00    -0.237 OA
ATOM     76  O   UNL A   1      39.340  36.337  38.287  1.00  0.00    -0.237 OA
ATOM     77  O   UNL A   1      41.508  35.752  37.267  1.00  0.00    -0.744 OA
ENDBRANCH  70  74
ENDBRANCH  53  67
BRANCH  54  78
ATOM     78  C   UNL A   1      43.696  27.310  27.673  1.00  0.00     0.023 A 
ATOM     79  C   UNL A   1      43.844  25.913  27.673  1.00  0.00     0.031 A 
ATOM     80  C   UNL A   1      44.207  28.025  26.576  1.00  0.00     0.131 A 
ATOM     81  C   UNL A   1      44.534  25.283  26.626  1.00  0.00     0.055 A 
ATOM     82  C   UNL A   1      44.838  27.387  25.507  1.00  0.00     0.041 A 
ATOM     83  F   UNL A   1      44.092  29.362  26.523  1.00  0.00    -0.206 F 
ATOM     84  C   UNL A   1      45.018  26.008  25.535  1.00  0.00     0.022 A 
BRANCH  81  85
ATOM     85  S   UNL A   1      44.881  23.507  26.760  1.00  0.00     0.124 S 
ATOM     86  O   UNL A   1      46.325  23.472  26.562  1.00  0.00    -0.237 OA
ATOM     87  O   UNL A   1      44.411  23.208  28.108  1.00  0.00    -0.237 OA
ATOM     88  O   UNL A   1      44.088  22.923  25.681  1.00  0.00    -0.744 OA
ENDBRANCH  81  85
ENDBRANCH  54  78
BRANCH  66  89
ATOM     89  C   UNL A   1      45.947  28.933  34.078  1.00  0.00     0.023 A 
ATOM     90  C   UNL A   1      46.082  27.773  34.860  1.00  0.00     0.031 A 
ATOM     91  C   UNL A   1      47.044  29.811  34.007  1.00  0.00     0.131 A 
ATOM     92  C   UNL A   1      47.262  27.553  35.589  1.00  0.00     0.055 A 
ATOM     93  C   UNL A   1      48.241  29.552  34.676  1.00  0.00     0.041 A 
ATOM     94  F   UNL A   1      46.971  30.937  33.279  1.00  0.00    -0.206 F 
ATOM     95  C   UNL A   1      48.349  28.425  35.485  1.00  0.00     0.022 A 
BRANCH  92  96
ATOM     96  S   UNL A   1      47.319  26.169  36.759  1.00  0.00     0.124 S 
ATOM     97  O   UNL A   1      46.036  26.296  37.441  1.00  0.00    -0.237 OA
ATOM     98  O   UNL A   1      47.461  25.017  35.874  1.00  0.00    -0.237 OA
ATOM     99  O   UNL A   1      48.490  26.464  37.583  1.00  0.00    -0.744 OA
ENDBRANCH  92  96
ENDBRANCH  66  89
ENDBRANCH  40  41
ENDBRANCH  32  35
ENDBRANCH  30  31
ENDBRANCH  29  30
ENDBRANCH   1  29
TORSDOF 18
ENDMDL
