MODEL 1
REMARK VINA RESULT:     -11.7      0.000      0.000
REMARK SMILES C[C@@H]1CCC[C@@H](C)C1[N@H+]1CCO[C@H](CC(=O)NCCCNC(=O)c2ccc(-c3c4nc(c(-c5cc(S(=O)(=O)[O-])ccc5F)c5ccc([nH]5)c(-c5cc(S(=O)(=O)[O-])ccc5F)c5nc(c(-c6cc(S(=O)(=O)[O-])ccc6F)c6ccc3[nH]6)C=C5)C=C4)cc2)C1
REMARK SMILES IDX 19 1 18 2 17 3 15 4 16 5 14 7 13 8 9 9 10 10 87 11 11 13
REMARK SMILES IDX 12 14 8 15 1 16 2 17 3 18 4 19 6 20 5 21 7 22 20 23 21 24
REMARK SMILES IDX 22 25 23 27 24 28 25 29 86 30 26 31 85 32 27 33 28 34 29 35
REMARK SMILES IDX 79 36 30 37 84 38 78 39 80 40 31 41 83 42 77 43 76 44 32 46
REMARK SMILES IDX 64 47 44 48 63 49 45 50 48 51 62 52 81 53 46 54 47 55 61 57
REMARK SMILES IDX 82 58 49 59 33 60 34 61 42 62 35 63 41 64 43 65 40 66 36 67
REMARK SMILES IDX 37 68 38 69 39 70 65 71 66 72 74 73 67 74 73 75 75 76 72 77
REMARK SMILES IDX 68 78 69 79 70 80 71 81 50 82 51 83 59 84 52 85 58 86 60 87
REMARK SMILES IDX 57 88 53 89 54 90 55 91 56 92
REMARK H PARENT 17 6 9 12 21 26 80 45 48 56
REMARK Flexibility Score: inf
ROOT
ATOM      1  C   UNL A   1      32.954  29.467  25.131  1.00  0.00     0.042 C 
ENDROOT
BRANCH   1   2
ATOM      2  C   UNL A   1      31.430  29.542  25.126  1.00  0.00     0.117 C 
BRANCH   2   3
ATOM      3  N   UNL A   1      30.896  29.671  23.783  1.00  0.00    -0.356 N 
ATOM      4  C   UNL A   1      30.324  28.754  22.961  1.00  0.00     0.222 C 
ATOM      5  O   UNL A   1      30.006  29.111  21.827  1.00  0.00    -0.275 OA
ATOM      6  H   UNL A   1      30.961  30.576  23.402  1.00  0.00     0.163 HD
BRANCH   4   7
ATOM      7  C   UNL A   1      30.035  27.356  23.440  1.00  0.00     0.138 C 
BRANCH   7   8
ATOM      8  C   UNL A   1      31.200  26.366  23.464  1.00  0.00     0.182 C 
ATOM      9  N   UNL A   1      32.833  24.959  24.791  1.00  0.00    -0.328 N 
ATOM     10  C   UNL A   1      33.893  25.594  24.001  1.00  0.00     0.291 C 
ATOM     11  C   UNL A   1      31.681  25.897  24.855  1.00  0.00     0.295 C 
ATOM     12  H   UNL A   1      33.242  24.811  25.713  1.00  0.00     0.348 HD
ATOM     13  C   UNL A   1      33.440  26.194  22.658  1.00  0.00     0.222 C 
ATOM     14  O   UNL A   1      32.289  27.031  22.781  1.00  0.00    -0.366 OA
BRANCH   9  15
ATOM     15  C   UNL A   1      32.481  23.535  24.561  1.00  0.00     0.189 C 
ATOM     16  C   UNL A   1      32.227  21.603  22.905  1.00  0.00     0.014 C 
ATOM     17  C   UNL A   1      33.111  22.789  23.344  1.00  0.00     0.045 C 
ATOM     18  C   UNL A   1      34.547  22.293  23.594  1.00  0.00     0.009 C 
ATOM     19  C   UNL A   1      34.727  21.541  24.909  1.00  0.00     0.001 C 
ATOM     20  C   UNL A   1      32.655  22.654  25.842  1.00  0.00     0.045 C 
ATOM     21  C   UNL A   1      34.108  22.255  26.108  1.00  0.00     0.009 C 
ATOM     22  C   UNL A   1      32.003  23.262  27.088  1.00  0.00     0.014 C 
ENDBRANCH   9  15
ENDBRANCH   7   8
ENDBRANCH   4   7
ENDBRANCH   2   3
ENDBRANCH   1   2
BRANCH   1  23
ATOM     23  C   UNL A   1      33.607  29.555  26.506  1.00  0.00     0.118 C 
BRANCH  23  24
ATOM     24  N   UNL A   1      33.484  30.877  27.088  1.00  0.00    -0.352 N 
ATOM     25  C   UNL A   1      34.270  31.490  28.034  1.00  0.00     0.251 C 
ATOM     26  H   UNL A   1      32.728  31.413  26.758  1.00  0.00     0.163 HD
ATOM     27  O   UNL A   1      33.867  32.531  28.548  1.00  0.00    -0.269 OA
BRANCH  25  28
ATOM     28  C   UNL A   1      35.569  30.906  28.450  1.00  0.00     0.039 A 
ATOM     29  C   UNL A   1      35.561  29.861  29.378  1.00  0.00     0.014 A 
ATOM     30  C   UNL A   1      36.790  31.410  27.989  1.00  0.00     0.014 A 
ATOM     31  C   UNL A   1      36.766  29.308  29.823  1.00  0.00     0.010 A 
ATOM     32  C   UNL A   1      37.989  30.810  28.377  1.00  0.00     0.010 A 
ATOM     33  C   UNL A   1      37.992  29.767  29.317  1.00  0.00    -0.014 A 
BRANCH  33  34
ATOM     34  C   UNL A   1      39.279  29.200  29.806  1.00  0.00     0.031 A 
ATOM     35  C   UNL A   1      39.964  29.804  31.006  1.00  0.00     0.074 A 
ATOM     36  C   UNL A   1      39.845  28.160  29.161  1.00  0.00     0.049 A 
ATOM     37  N   UNL A   1      41.100  29.475  31.565  1.00  0.00    -0.248 NA
ATOM     38  C   UNL A   1      39.293  30.949  31.638  1.00  0.00     0.031 C 
ATOM     39  C   UNL A   1      39.301  27.511  27.967  1.00  0.00     0.029 A 
ATOM     40  N   UNL A   1      41.001  27.465  29.418  1.00  0.00    -0.354 N 
ATOM     41  C   UNL A   1      41.286  30.378  32.608  1.00  0.00     0.074 A 
ATOM     42  C   UNL A   1      40.177  31.308  32.555  1.00  0.00     0.031 C 
ATOM     43  C   UNL A   1      40.109  26.499  27.610  1.00  0.00     0.029 A 
ATOM     44  C   UNL A   1      41.246  26.448  28.525  1.00  0.00     0.049 A 
ATOM     45  H   UNL A   1      41.598  27.675  30.171  1.00  0.00     0.167 HD
ATOM     46  C   UNL A   1      42.273  30.415  33.540  1.00  0.00     0.034 A 
ATOM     47  C   UNL A   1      42.272  25.576  28.448  1.00  0.00     0.034 A 
ATOM     48  C   UNL A   1      43.365  29.473  33.589  1.00  0.00     0.049 A 
ATOM     49  C   UNL A   1      43.359  25.635  29.492  1.00  0.00     0.074 A 
ATOM     50  C   UNL A   1      44.394  29.392  34.509  1.00  0.00     0.029 A 
ATOM     51  N   UNL A   1      43.572  28.448  32.674  1.00  0.00    -0.354 N 
ATOM     52  N   UNL A   1      43.495  26.467  30.498  1.00  0.00    -0.248 NA
ATOM     53  C   UNL A   1      44.420  24.624  29.400  1.00  0.00     0.031 C 
ATOM     54  C   UNL A   1      45.255  28.358  34.119  1.00  0.00     0.029 A 
ATOM     55  C   UNL A   1      44.723  27.743  32.997  1.00  0.00     0.049 A 
ATOM     56  H   UNL A   1      42.986  28.249  31.908  1.00  0.00     0.167 HD
ATOM     57  C   UNL A   1      44.640  26.058  31.177  1.00  0.00     0.074 A 
ATOM     58  C   UNL A   1      45.143  24.896  30.475  1.00  0.00     0.031 C 
ATOM     59  C   UNL A   1      45.220  26.591  32.284  1.00  0.00     0.034 A 
BRANCH  46  60
ATOM     60  C   UNL A   1      42.219  31.528  34.562  1.00  0.00     0.023 A 
ATOM     61  C   UNL A   1      41.297  31.511  35.624  1.00  0.00     0.031 A 
ATOM     62  C   UNL A   1      43.075  32.639  34.455  1.00  0.00     0.131 A 
ATOM     63  C   UNL A   1      41.194  32.616  36.483  1.00  0.00     0.055 A 
ATOM     64  C   UNL A   1      43.026  33.698  35.365  1.00  0.00     0.041 A 
ATOM     65  F   UNL A   1      43.963  32.723  33.452  1.00  0.00    -0.206 F 
ATOM     66  C   UNL A   1      42.069  33.698  36.377  1.00  0.00     0.022 A 
BRANCH  63  67
ATOM     67  S   UNL A   1      39.798  32.686  37.639  1.00  0.00     0.124 S 
ATOM     68  O   UNL A   1      38.970  31.579  37.167  1.00  0.00    -0.237 OA
ATOM     69  O   UNL A   1      40.448  32.493  38.930  1.00  0.00    -0.237 OA
ATOM     70  O   UNL A   1      39.234  34.016  37.416  1.00  0.00    -0.744 OA
ENDBRANCH  63  67
ENDBRANCH  46  60
BRANCH  47  71
ATOM     71  C   UNL A   1      42.327  24.572  27.348  1.00  0.00     0.023 A 
ATOM     72  C   UNL A   1      41.555  23.401  27.395  1.00  0.00     0.031 A 
ATOM     73  C   UNL A   1      43.187  24.751  26.249  1.00  0.00     0.131 A 
ATOM     74  C   UNL A   1      41.692  22.431  26.389  1.00  0.00     0.055 A 
ATOM     75  C   UNL A   1      43.282  23.808  25.225  1.00  0.00     0.041 A 
ATOM     76  F   UNL A   1      43.942  25.857  26.152  1.00  0.00    -0.206 F 
ATOM     77  C   UNL A   1      42.541  22.633  25.298  1.00  0.00     0.022 A 
BRANCH  74  78
ATOM     78  S   UNL A   1      40.802  20.860  26.568  1.00  0.00     0.124 S 
ATOM     79  O   UNL A   1      41.633  19.955  25.783  1.00  0.00    -0.237 OA
ATOM     80  O   UNL A   1      40.826  20.664  28.014  1.00  0.00    -0.237 OA
ATOM     81  O   UNL A   1      39.486  21.150  26.003  1.00  0.00    -0.744 OA
ENDBRANCH  74  78
ENDBRANCH  47  71
BRANCH  59  82
ATOM     82  C   UNL A   1      46.437  25.881  32.828  1.00  0.00     0.023 A 
ATOM     83  C   UNL A   1      47.723  26.110  32.312  1.00  0.00     0.031 A 
ATOM     84  C   UNL A   1      46.298  24.941  33.867  1.00  0.00     0.131 A 
ATOM     85  C   UNL A   1      48.812  25.364  32.790  1.00  0.00     0.055 A 
ATOM     86  C   UNL A   1      47.394  24.248  34.382  1.00  0.00     0.041 A 
ATOM     87  F   UNL A   1      45.093  24.680  34.397  1.00  0.00    -0.206 F 
ATOM     88  C   UNL A   1      48.658  24.446  33.832  1.00  0.00     0.022 A 
BRANCH  85  89
ATOM     89  S   UNL A   1      50.415  25.531  31.957  1.00  0.00     0.124 S 
ATOM     90  O   UNL A   1      51.273  25.999  33.040  1.00  0.00    -0.237 OA
ATOM     91  O   UNL A   1      50.664  24.172  31.487  1.00  0.00    -0.237 OA
ATOM     92  O   UNL A   1      50.154  26.511  30.905  1.00  0.00    -0.744 OA
ENDBRANCH  85  89
ENDBRANCH  59  82
ENDBRANCH  33  34
ENDBRANCH  25  28
ENDBRANCH  23  24
ENDBRANCH   1  23
TORSDOF 15
ENDMDL
MODEL 2
REMARK VINA RESULT:     -11.5      3.509      8.732
REMARK SMILES C[C@@H]1CCC[C@@H](C)C1[N@H+]1CCO[C@H](CC(=O)NCCCNC(=O)c2ccc(-c3c4nc(c(-c5cc(S(=O)(=O)[O-])ccc5F)c5ccc([nH]5)c(-c5cc(S(=O)(=O)[O-])ccc5F)c5nc(c(-c6cc(S(=O)(=O)[O-])ccc6F)c6ccc3[nH]6)C=C5)C=C4)cc2)C1
REMARK SMILES IDX 19 1 18 2 17 3 15 4 16 5 14 7 13 8 9 9 10 10 87 11 11 13
REMARK SMILES IDX 12 14 8 15 1 16 2 17 3 18 4 19 6 20 5 21 7 22 20 23 21 24
REMARK SMILES IDX 22 25 23 27 24 28 25 29 86 30 26 31 85 32 27 33 28 34 29 35
REMARK SMILES IDX 79 36 30 37 84 38 78 39 80 40 31 41 83 42 77 43 76 44 32 46
REMARK SMILES IDX 64 47 44 48 63 49 45 50 48 51 62 52 81 53 46 54 47 55 61 57
REMARK SMILES IDX 82 58 49 59 33 60 34 61 42 62 35 63 41 64 43 65 40 66 36 67
REMARK SMILES IDX 37 68 38 69 39 70 65 71 66 72 74 73 67 74 73 75 75 76 72 77
REMARK SMILES IDX 68 78 69 79 70 80 71 81 50 82 51 83 59 84 52 85 58 86 60 87
REMARK SMILES IDX 57 88 53 89 54 90 55 91 56 92
REMARK H PARENT 17 6 9 12 21 26 80 45 48 56
REMARK Flexibility Score: inf
ROOT
ATOM      1  C   UNL A   1      31.579  31.930  26.640  1.00  0.00     0.042 C 
ENDROOT
BRANCH   1   2
ATOM      2  C   UNL A   1      31.616  30.430  26.361  1.00  0.00     0.117 C 
BRANCH   2   3
ATOM      3  N   UNL A   1      32.205  30.132  25.068  1.00  0.00    -0.356 N 
ATOM      4  C   UNL A   1      33.133  29.211  24.705  1.00  0.00     0.222 C 
ATOM      5  O   UNL A   1      33.515  29.204  23.534  1.00  0.00    -0.275 OA
ATOM      6  H   UNL A   1      31.875  30.693  24.330  1.00  0.00     0.163 HD
BRANCH   4   7
ATOM      7  C   UNL A   1      33.643  28.192  25.690  1.00  0.00     0.138 C 
BRANCH   7   8
ATOM      8  C   UNL A   1      32.990  26.810  25.673  1.00  0.00     0.182 C 
ATOM      9  N   UNL A   1      32.560  24.621  24.479  1.00  0.00    -0.328 N 
ATOM     10  C   UNL A   1      31.134  24.867  24.717  1.00  0.00     0.291 C 
ATOM     11  C   UNL A   1      33.252  25.936  24.428  1.00  0.00     0.295 C 
ATOM     12  H   UNL A   1      32.600  24.146  23.577  1.00  0.00     0.348 HD
ATOM     13  C   UNL A   1      30.820  25.836  25.870  1.00  0.00     0.222 C 
ATOM     14  O   UNL A   1      31.568  27.051  25.797  1.00  0.00    -0.366 OA
BRANCH   9  15
ATOM     15  C   UNL A   1      33.271  23.556  25.232  1.00  0.00     0.189 C 
ATOM     16  C   UNL A   1      33.484  22.198  27.388  1.00  0.00     0.014 C 
ATOM     17  C   UNL A   1      32.504  22.783  26.349  1.00  0.00     0.045 C 
ATOM     18  C   UNL A   1      31.593  21.662  25.816  1.00  0.00     0.009 C 
ATOM     19  C   UNL A   1      32.267  20.737  24.809  1.00  0.00     0.001 C 
ATOM     20  C   UNL A   1      33.982  22.525  24.296  1.00  0.00     0.045 C 
ATOM     21  C   UNL A   1      33.028  21.479  23.714  1.00  0.00     0.009 C 
ATOM     22  C   UNL A   1      34.828  23.182  23.202  1.00  0.00     0.014 C 
ENDBRANCH   9  15
ENDBRANCH   7   8
ENDBRANCH   4   7
ENDBRANCH   2   3
ENDBRANCH   1   2
BRANCH   1  23
ATOM     23  C   UNL A   1      32.835  32.504  27.285  1.00  0.00     0.118 C 
BRANCH  23  24
ATOM     24  N   UNL A   1      32.674  33.896  27.658  1.00  0.00    -0.352 N 
ATOM     25  C   UNL A   1      33.252  34.595  28.689  1.00  0.00     0.251 C 
ATOM     26  H   UNL A   1      32.061  34.415  27.089  1.00  0.00     0.163 HD
ATOM     27  O   UNL A   1      32.816  35.711  28.961  1.00  0.00    -0.269 OA
BRANCH  25  28
ATOM     28  C   UNL A   1      34.366  34.017  29.480  1.00  0.00     0.039 A 
ATOM     29  C   UNL A   1      35.678  34.331  29.111  1.00  0.00     0.014 A 
ATOM     30  C   UNL A   1      34.142  33.126  30.536  1.00  0.00     0.014 A 
ATOM     31  C   UNL A   1      36.755  33.778  29.809  1.00  0.00     0.010 A 
ATOM     32  C   UNL A   1      35.216  32.632  31.278  1.00  0.00     0.010 A 
ATOM     33  C   UNL A   1      36.536  32.933  30.908  1.00  0.00    -0.014 A 
BRANCH  33  34
ATOM     34  C   UNL A   1      37.680  32.320  31.639  1.00  0.00     0.031 A 
ATOM     35  C   UNL A   1      38.487  31.223  30.994  1.00  0.00     0.074 A 
ATOM     36  C   UNL A   1      37.980  32.731  32.888  1.00  0.00     0.049 A 
ATOM     37  N   UNL A   1      39.497  30.544  31.475  1.00  0.00    -0.248 NA
ATOM     38  C   UNL A   1      38.083  30.818  29.640  1.00  0.00     0.031 C 
ATOM     39  C   UNL A   1      37.251  33.758  33.635  1.00  0.00     0.029 A 
ATOM     40  N   UNL A   1      38.973  32.337  33.749  1.00  0.00    -0.354 N 
ATOM     41  C   UNL A   1      39.842  29.624  30.489  1.00  0.00     0.074 A 
ATOM     42  C   UNL A   1      38.887  29.791  29.413  1.00  0.00     0.031 C 
ATOM     43  C   UNL A   1      37.838  33.929  34.831  1.00  0.00     0.029 A 
ATOM     44  C   UNL A   1      38.958  33.002  34.953  1.00  0.00     0.049 A 
ATOM     45  H   UNL A   1      39.635  31.643  33.525  1.00  0.00     0.167 HD
ATOM     46  C   UNL A   1      40.873  28.741  30.467  1.00  0.00     0.034 A 
ATOM     47  C   UNL A   1      39.754  32.876  36.034  1.00  0.00     0.034 A 
ATOM     48  C   UNL A   1      41.826  28.595  31.541  1.00  0.00     0.049 A 
ATOM     49  C   UNL A   1      40.893  31.888  35.990  1.00  0.00     0.074 A 
ATOM     50  C   UNL A   1      42.930  27.764  31.608  1.00  0.00     0.029 A 
ATOM     51  N   UNL A   1      41.787  29.297  32.740  1.00  0.00    -0.354 N 
ATOM     52  N   UNL A   1      41.232  31.058  35.031  1.00  0.00    -0.248 NA
ATOM     53  C   UNL A   1      41.767  31.835  37.169  1.00  0.00     0.031 C 
ATOM     54  C   UNL A   1      43.522  27.918  32.868  1.00  0.00     0.029 A 
ATOM     55  C   UNL A   1      42.833  28.902  33.560  1.00  0.00     0.049 A 
ATOM     56  H   UNL A   1      41.114  29.976  32.973  1.00  0.00     0.167 HD
ATOM     57  C   UNL A   1      42.379  30.409  35.479  1.00  0.00     0.074 A 
ATOM     58  C   UNL A   1      42.681  30.956  36.786  1.00  0.00     0.031 C 
ATOM     59  C   UNL A   1      43.119  29.450  34.865  1.00  0.00     0.034 A 
BRANCH  46  60
ATOM     60  C   UNL A   1      41.000  27.854  29.250  1.00  0.00     0.023 A 
ATOM     61  C   UNL A   1      42.005  28.059  28.287  1.00  0.00     0.031 A 
ATOM     62  C   UNL A   1      40.084  26.810  29.027  1.00  0.00     0.131 A 
ATOM     63  C   UNL A   1      42.018  27.294  27.112  1.00  0.00     0.055 A 
ATOM     64  C   UNL A   1      40.155  25.994  27.896  1.00  0.00     0.041 A 
ATOM     65  F   UNL A   1      39.090  26.575  29.900  1.00  0.00    -0.206 F 
ATOM     66  C   UNL A   1      41.116  26.245  26.920  1.00  0.00     0.022 A 
BRANCH  63  67
ATOM     67  S   UNL A   1      43.132  27.790  25.768  1.00  0.00     0.124 S 
ATOM     68  O   UNL A   1      44.009  26.626  25.669  1.00  0.00    -0.237 OA
ATOM     69  O   UNL A   1      42.212  27.995  24.655  1.00  0.00    -0.237 OA
ATOM     70  O   UNL A   1      43.770  29.001  26.281  1.00  0.00    -0.744 OA
ENDBRANCH  63  67
ENDBRANCH  46  60
BRANCH  47  71
ATOM     71  C   UNL A   1      39.510  33.702  37.251  1.00  0.00     0.023 A 
ATOM     72  C   UNL A   1      38.795  33.191  38.345  1.00  0.00     0.031 A 
ATOM     73  C   UNL A   1      39.956  35.034  37.319  1.00  0.00     0.131 A 
ATOM     74  C   UNL A   1      38.504  34.019  39.441  1.00  0.00     0.055 A 
ATOM     75  C   UNL A   1      39.709  35.839  38.433  1.00  0.00     0.041 A 
ATOM     76  F   UNL A   1      40.651  35.570  36.304  1.00  0.00    -0.206 F 
ATOM     77  C   UNL A   1      38.967  35.336  39.497  1.00  0.00     0.022 A 
BRANCH  74  78
ATOM     78  S   UNL A   1      37.439  33.374  40.760  1.00  0.00     0.124 S 
ATOM     79  O   UNL A   1      38.316  32.403  41.402  1.00  0.00    -0.237 OA
ATOM     80  O   UNL A   1      37.144  34.580  41.526  1.00  0.00    -0.237 OA
ATOM     81  O   UNL A   1      36.304  32.808  40.033  1.00  0.00    -0.744 OA
ENDBRANCH  74  78
ENDBRANCH  47  71
BRANCH  59  82
ATOM     82  C   UNL A   1      44.359  28.975  35.586  1.00  0.00     0.023 A 
ATOM     83  C   UNL A   1      44.317  27.934  36.529  1.00  0.00     0.031 A 
ATOM     84  C   UNL A   1      45.598  29.593  35.338  1.00  0.00     0.131 A 
ATOM     85  C   UNL A   1      45.477  27.585  37.237  1.00  0.00     0.055 A 
ATOM     86  C   UNL A   1      46.762  29.199  35.999  1.00  0.00     0.041 A 
ATOM     87  F   UNL A   1      45.698  30.594  34.448  1.00  0.00    -0.206 F 
ATOM     88  C   UNL A   1      46.702  28.200  36.967  1.00  0.00     0.022 A 
BRANCH  85  89
ATOM     89  S   UNL A   1      45.342  26.389  38.595  1.00  0.00     0.124 S 
ATOM     90  O   UNL A   1      46.742  26.157  38.936  1.00  0.00    -0.237 OA
ATOM     91  O   UNL A   1      44.559  27.126  39.581  1.00  0.00    -0.237 OA
ATOM     92  O   UNL A   1      44.656  25.253  37.984  1.00  0.00    -0.744 OA
ENDBRANCH  85  89
ENDBRANCH  59  82
ENDBRANCH  33  34
ENDBRANCH  25  28
ENDBRANCH  23  24
ENDBRANCH   1  23
TORSDOF 15
ENDMDL
MODEL 3
REMARK VINA RESULT:     -11.4      3.471      8.788
REMARK SMILES C[C@@H]1CCC[C@@H](C)C1[N@H+]1CCO[C@H](CC(=O)NCCCNC(=O)c2ccc(-c3c4nc(c(-c5cc(S(=O)(=O)[O-])ccc5F)c5ccc([nH]5)c(-c5cc(S(=O)(=O)[O-])ccc5F)c5nc(c(-c6cc(S(=O)(=O)[O-])ccc6F)c6ccc3[nH]6)C=C5)C=C4)cc2)C1
REMARK SMILES IDX 19 1 18 2 17 3 15 4 16 5 14 7 13 8 9 9 10 10 87 11 11 13
REMARK SMILES IDX 12 14 8 15 1 16 2 17 3 18 4 19 6 20 5 21 7 22 20 23 21 24
REMARK SMILES IDX 22 25 23 27 24 28 25 29 86 30 26 31 85 32 27 33 28 34 29 35
REMARK SMILES IDX 79 36 30 37 84 38 78 39 80 40 31 41 83 42 77 43 76 44 32 46
REMARK SMILES IDX 64 47 44 48 63 49 45 50 48 51 62 52 81 53 46 54 47 55 61 57
REMARK SMILES IDX 82 58 49 59 33 60 34 61 42 62 35 63 41 64 43 65 40 66 36 67
REMARK SMILES IDX 37 68 38 69 39 70 65 71 66 72 74 73 67 74 73 75 75 76 72 77
REMARK SMILES IDX 68 78 69 79 70 80 71 81 50 82 51 83 59 84 52 85 58 86 60 87
REMARK SMILES IDX 57 88 53 89 54 90 55 91 56 92
REMARK H PARENT 17 6 9 12 21 26 80 45 48 56
REMARK Flexibility Score: inf
ROOT
ATOM      1  C   UNL A   1      31.527  31.815  26.387  1.00  0.00     0.042 C 
ENDROOT
BRANCH   1   2
ATOM      2  C   UNL A   1      31.650  30.396  25.840  1.00  0.00     0.117 C 
BRANCH   2   3
ATOM      3  N   UNL A   1      30.817  30.191  24.670  1.00  0.00    -0.356 N 
ATOM      4  C   UNL A   1      30.996  29.408  23.575  1.00  0.00     0.222 C 
ATOM      5  O   UNL A   1      30.153  29.462  22.679  1.00  0.00    -0.275 OA
ATOM      6  H   UNL A   1      29.979  30.707  24.669  1.00  0.00     0.163 HD
BRANCH   4   7
ATOM      7  C   UNL A   1      32.164  28.461  23.481  1.00  0.00     0.138 C 
BRANCH   7   8
ATOM      8  C   UNL A   1      32.016  27.094  24.150  1.00  0.00     0.182 C 
ATOM      9  N   UNL A   1      31.673  24.596  23.939  1.00  0.00    -0.328 N 
ATOM     10  C   UNL A   1      30.569  24.751  24.892  1.00  0.00     0.291 C 
ATOM     11  C   UNL A   1      31.838  25.881  23.211  1.00  0.00     0.295 C 
ATOM     12  H   UNL A   1      31.379  23.849  23.311  1.00  0.00     0.348 HD
ATOM     13  C   UNL A   1      30.631  26.016  25.767  1.00  0.00     0.222 C 
ATOM     14  O   UNL A   1      30.857  27.206  25.010  1.00  0.00    -0.366 OA
BRANCH   9  15
ATOM     15  C   UNL A   1      32.936  23.937  24.360  1.00  0.00     0.189 C 
ATOM     16  C   UNL A   1      34.594  23.425  26.239  1.00  0.00     0.014 C 
ATOM     17  C   UNL A   1      33.103  23.509  25.852  1.00  0.00     0.045 C 
ATOM     18  C   UNL A   1      32.408  22.180  26.198  1.00  0.00     0.009 C 
ATOM     19  C   UNL A   1      32.703  21.048  25.220  1.00  0.00     0.001 C 
ATOM     20  C   UNL A   1      33.328  22.735  23.440  1.00  0.00     0.045 C 
ATOM     21  C   UNL A   1      32.552  21.454  23.756  1.00  0.00     0.009 C 
ATOM     22  C   UNL A   1      33.271  23.071  21.947  1.00  0.00     0.014 C 
ENDBRANCH   9  15
ENDBRANCH   7   8
ENDBRANCH   4   7
ENDBRANCH   2   3
ENDBRANCH   1   2
BRANCH   1  23
ATOM     23  C   UNL A   1      32.712  32.298  27.217  1.00  0.00     0.118 C 
BRANCH  23  24
ATOM     24  N   UNL A   1      32.626  33.713  27.524  1.00  0.00    -0.352 N 
ATOM     25  C   UNL A   1      33.257  34.431  28.511  1.00  0.00     0.251 C 
ATOM     26  H   UNL A   1      32.029  34.234  26.941  1.00  0.00     0.163 HD
ATOM     27  O   UNL A   1      32.881  35.578  28.736  1.00  0.00    -0.269 OA
BRANCH  25  28
ATOM     28  C   UNL A   1      34.356  33.836  29.311  1.00  0.00     0.039 A 
ATOM     29  C   UNL A   1      35.671  34.207  29.016  1.00  0.00     0.014 A 
ATOM     30  C   UNL A   1      34.116  32.877  30.302  1.00  0.00     0.014 A 
ATOM     31  C   UNL A   1      36.736  33.641  29.722  1.00  0.00     0.010 A 
ATOM     32  C   UNL A   1      35.175  32.367  31.056  1.00  0.00     0.010 A 
ATOM     33  C   UNL A   1      36.499  32.726  30.760  1.00  0.00    -0.014 A 
BRANCH  33  34
ATOM     34  C   UNL A   1      37.630  32.101  31.499  1.00  0.00     0.031 A 
ATOM     35  C   UNL A   1      38.452  31.017  30.847  1.00  0.00     0.074 A 
ATOM     36  C   UNL A   1      37.907  32.487  32.760  1.00  0.00     0.049 A 
ATOM     37  N   UNL A   1      39.454  30.331  31.332  1.00  0.00    -0.248 NA
ATOM     38  C   UNL A   1      38.073  30.638  29.478  1.00  0.00     0.031 C 
ATOM     39  C   UNL A   1      37.163  33.498  33.515  1.00  0.00     0.029 A 
ATOM     40  N   UNL A   1      38.886  32.078  33.631  1.00  0.00    -0.354 N 
ATOM     41  C   UNL A   1      39.818  29.431  30.335  1.00  0.00     0.074 A 
ATOM     42  C   UNL A   1      38.883  29.618  29.246  1.00  0.00     0.031 C 
ATOM     43  C   UNL A   1      37.728  33.647  34.724  1.00  0.00     0.029 A 
ATOM     44  C   UNL A   1      38.848  32.719  34.848  1.00  0.00     0.049 A 
ATOM     45  H   UNL A   1      39.552  31.390  33.406  1.00  0.00     0.167 HD
ATOM     46  C   UNL A   1      40.852  28.551  30.315  1.00  0.00     0.034 A 
ATOM     47  C   UNL A   1      39.624  32.573  35.941  1.00  0.00     0.034 A 
ATOM     48  C   UNL A   1      41.785  28.385  31.402  1.00  0.00     0.049 A 
ATOM     49  C   UNL A   1      40.766  31.588  35.898  1.00  0.00     0.074 A 
ATOM     50  C   UNL A   1      42.890  27.555  31.473  1.00  0.00     0.029 A 
ATOM     51  N   UNL A   1      41.723  29.063  32.614  1.00  0.00    -0.354 N 
ATOM     52  N   UNL A   1      41.124  30.778  34.929  1.00  0.00    -0.248 NA
ATOM     53  C   UNL A   1      41.619  31.513  37.091  1.00  0.00     0.031 C 
ATOM     54  C   UNL A   1      43.459  27.685  32.746  1.00  0.00     0.029 A 
ATOM     55  C   UNL A   1      42.755  28.654  33.445  1.00  0.00     0.049 A 
ATOM     56  H   UNL A   1      41.045  29.737  32.848  1.00  0.00     0.167 HD
ATOM     57  C   UNL A   1      42.264  30.122  35.385  1.00  0.00     0.074 A 
ATOM     58  C   UNL A   1      42.541  30.644  36.707  1.00  0.00     0.031 C 
ATOM     59  C   UNL A   1      43.017  29.176  34.765  1.00  0.00     0.034 A 
BRANCH  46  60
ATOM     60  C   UNL A   1      41.002  27.687  29.082  1.00  0.00     0.023 A 
ATOM     61  C   UNL A   1      42.001  27.935  28.124  1.00  0.00     0.031 A 
ATOM     62  C   UNL A   1      40.113  26.624  28.842  1.00  0.00     0.131 A 
ATOM     63  C   UNL A   1      42.035  27.191  26.936  1.00  0.00     0.055 A 
ATOM     64  C   UNL A   1      40.207  25.829  27.696  1.00  0.00     0.041 A 
ATOM     65  F   UNL A   1      39.126  26.348  29.709  1.00  0.00    -0.206 F 
ATOM     66  C   UNL A   1      41.161  26.122  26.726  1.00  0.00     0.022 A 
BRANCH  63  67
ATOM     67  S   UNL A   1      43.136  27.739  25.602  1.00  0.00     0.124 S 
ATOM     68  O   UNL A   1      43.721  26.473  25.165  1.00  0.00    -0.237 OA
ATOM     69  O   UNL A   1      42.210  28.371  24.669  1.00  0.00    -0.237 OA
ATOM     70  O   UNL A   1      44.063  28.647  26.273  1.00  0.00    -0.744 OA
ENDBRANCH  63  67
ENDBRANCH  46  60
BRANCH  47  71
ATOM     71  C   UNL A   1      39.357  33.375  37.168  1.00  0.00     0.023 A 
ATOM     72  C   UNL A   1      39.983  34.613  37.379  1.00  0.00     0.031 A 
ATOM     73  C   UNL A   1      38.496  32.892  38.171  1.00  0.00     0.131 A 
ATOM     74  C   UNL A   1      39.780  35.305  38.584  1.00  0.00     0.055 A 
ATOM     75  C   UNL A   1      38.257  33.608  39.346  1.00  0.00     0.041 A 
ATOM     76  F   UNL A   1      37.865  31.718  38.017  1.00  0.00    -0.206 F 
ATOM     77  C   UNL A   1      38.912  34.817  39.562  1.00  0.00     0.022 A 
BRANCH  74  78
ATOM     78  S   UNL A   1      40.733  36.818  38.888  1.00  0.00     0.124 S 
ATOM     79  O   UNL A   1      39.676  37.809  39.048  1.00  0.00    -0.237 OA
ATOM     80  O   UNL A   1      41.475  36.469  40.095  1.00  0.00    -0.237 OA
ATOM     81  O   UNL A   1      41.543  36.957  37.680  1.00  0.00    -0.744 OA
ENDBRANCH  74  78
ENDBRANCH  47  71
BRANCH  59  82
ATOM     82  C   UNL A   1      44.244  28.689  35.499  1.00  0.00     0.023 A 
ATOM     83  C   UNL A   1      44.189  27.624  36.413  1.00  0.00     0.031 A 
ATOM     84  C   UNL A   1      45.485  29.321  35.293  1.00  0.00     0.131 A 
ATOM     85  C   UNL A   1      45.337  27.263  37.135  1.00  0.00     0.055 A 
ATOM     86  C   UNL A   1      46.637  28.916  35.968  1.00  0.00     0.041 A 
ATOM     87  F   UNL A   1      45.596  30.346  34.432  1.00  0.00    -0.206 F 
ATOM     88  C   UNL A   1      46.563  27.892  36.907  1.00  0.00     0.022 A 
BRANCH  85  89
ATOM     89  S   UNL A   1      45.182  26.030  38.458  1.00  0.00     0.124 S 
ATOM     90  O   UNL A   1      46.515  26.052  39.052  1.00  0.00    -0.237 OA
ATOM     91  O   UNL A   1      44.109  26.586  39.276  1.00  0.00    -0.237 OA
ATOM     92  O   UNL A   1      44.841  24.802  37.743  1.00  0.00    -0.744 OA
ENDBRANCH  85  89
ENDBRANCH  59  82
ENDBRANCH  33  34
ENDBRANCH  25  28
ENDBRANCH  23  24
ENDBRANCH   1  23
TORSDOF 15
ENDMDL
