MODEL 1
REMARK VINA RESULT:     -12.1      0.000      0.000
REMARK SMILES CC[N@@H+](C)Cc1cc2c(cc1Cl)C=C(C(=O)NCCCNC(=O)c1ccc(-c3c4nc(c(-c5cc(S(=O)(=O)[O-])ccc5F)c5ccc([nH]5)c(-c5cc(S(=O)(=O)[O-])ccc5F)c5nc(c(-c6cc(S(=O)(=O)[O-])ccc6F)c6ccc3[nH]6)C=C5)C=C4)cc1)[C@@H](C(F)(F)F)O2
REMARK SMILES IDX 19 1 18 2 17 3 15 4 16 5 14 7 6 8 7 9 11 10 8 11 10 12 12 13
REMARK SMILES IDX 9 14 92 15 13 16 87 17 5 18 3 19 4 20 2 22 1 23 88 24 89 25
REMARK SMILES IDX 90 26 91 27 20 28 21 29 22 30 23 32 24 33 25 34 86 35 26 36
REMARK SMILES IDX 85 37 27 38 28 39 29 40 79 41 30 42 84 43 78 44 80 45 31 46
REMARK SMILES IDX 83 47 77 48 76 49 32 51 64 52 44 53 63 54 45 55 48 56 62 57
REMARK SMILES IDX 81 58 46 59 47 60 61 62 82 63 49 64 33 65 34 66 42 67 35 68
REMARK SMILES IDX 41 69 43 70 40 71 36 72 37 73 38 74 39 75 65 76 66 77 74 78
REMARK SMILES IDX 67 79 73 80 75 81 72 82 68 83 69 84 70 85 71 86 50 87 51 88
REMARK SMILES IDX 59 89 52 90 58 91 60 92 57 93 53 94 54 95 55 96 56 97
REMARK H PARENT 17 6 3 21 21 31 80 50 48 61
REMARK Flexibility Score: inf
ROOT
ATOM      1  C   UNL A   1      31.411  31.643  26.578  1.00  0.00     0.042 C 
ENDROOT
BRANCH   1   2
ATOM      2  C   UNL A   1      31.655  30.452  25.667  1.00  0.00     0.118 C 
BRANCH   2   3
ATOM      3  N   UNL A   1      30.666  30.367  24.603  1.00  0.00    -0.352 N 
ATOM      4  C   UNL A   1      30.282  29.459  23.676  1.00  0.00     0.251 C 
ATOM      5  O   UNL A   1      29.348  29.811  22.947  1.00  0.00    -0.270 OA
ATOM      6  H   UNL A   1      30.134  31.192  24.539  1.00  0.00     0.163 HD
BRANCH   4   7
ATOM      7  C   UNL A   1      30.893  28.112  23.490  1.00  0.00     0.067 C 
ATOM      8  C   UNL A   1      31.799  23.143  23.629  1.00  0.00     0.029 A 
ATOM      9  C   UNL A   1      32.206  24.208  22.812  1.00  0.00     0.058 A 
ATOM     10  C   UNL A   1      31.039  23.449  24.770  1.00  0.00     0.050 A 
ATOM     11  C   UNL A   1      31.760  25.502  23.045  1.00  0.00     0.128 A 
ATOM     12  C   UNL A   1      30.608  24.763  25.015  1.00  0.00     0.033 A 
ATOM     13  Cl  UNL A   1      30.595  22.260  25.942  1.00  0.00    -0.084 Cl
ATOM     14  C   UNL A   1      30.942  25.788  24.131  1.00  0.00     0.019 A 
ATOM     15  O   UNL A   1      32.110  26.428  22.110  1.00  0.00    -0.475 OA
ATOM     16  C   UNL A   1      30.408  27.135  24.279  1.00  0.00     0.025 C 
ATOM     17  C   UNL A   1      31.994  27.817  22.510  1.00  0.00     0.314 C 
BRANCH   8  18
ATOM     18  C   UNL A   1      32.154  21.732  23.196  1.00  0.00     0.300 C 
BRANCH  18  19
ATOM     19  N   UNL A   1      33.302  21.099  23.885  1.00  0.00    -0.334 N 
ATOM     20  C   UNL A   1      32.961  19.869  24.598  1.00  0.00     0.333 C 
ATOM     21  H   UNL A   1      33.914  20.848  23.109  1.00  0.00     0.348 HD
BRANCH  19  22
ATOM     22  C   UNL A   1      34.069  21.998  24.757  1.00  0.00     0.258 C 
ATOM     23  C   UNL A   1      35.465  22.279  24.218  1.00  0.00     0.071 C 
ENDBRANCH  19  22
ENDBRANCH  18  19
ENDBRANCH   8  18
BRANCH  17  24
ATOM     24  C   UNL A   1      33.369  28.302  23.006  1.00  0.00     0.429 C 
ATOM     25  F   UNL A   1      33.535  27.999  24.317  1.00  0.00    -0.167 F 
ATOM     26  F   UNL A   1      34.398  27.726  22.343  1.00  0.00    -0.167 F 
ATOM     27  F   UNL A   1      33.524  29.641  22.878  1.00  0.00    -0.167 F 
ENDBRANCH  17  24
ENDBRANCH   4   7
ENDBRANCH   2   3
ENDBRANCH   1   2
BRANCH   1  28
ATOM     28  C   UNL A   1      32.705  32.186  27.170  1.00  0.00     0.118 C 
BRANCH  28  29
ATOM     29  N   UNL A   1      32.614  33.615  27.466  1.00  0.00    -0.352 N 
ATOM     30  C   UNL A   1      33.252  34.367  28.424  1.00  0.00     0.251 C 
ATOM     31  H   UNL A   1      31.996  34.118  26.887  1.00  0.00     0.163 HD
ATOM     32  O   UNL A   1      32.846  35.500  28.672  1.00  0.00    -0.269 OA
BRANCH  30  33
ATOM     33  C   UNL A   1      34.402  33.803  29.158  1.00  0.00     0.039 A 
ATOM     34  C   UNL A   1      35.695  34.236  28.867  1.00  0.00     0.014 A 
ATOM     35  C   UNL A   1      34.193  32.832  30.140  1.00  0.00     0.014 A 
ATOM     36  C   UNL A   1      36.782  33.556  29.394  1.00  0.00     0.010 A 
ATOM     37  C   UNL A   1      35.293  32.229  30.762  1.00  0.00     0.010 A 
ATOM     38  C   UNL A   1      36.597  32.549  30.355  1.00  0.00    -0.014 A 
BRANCH  38  39
ATOM     39  C   UNL A   1      37.791  31.869  30.922  1.00  0.00     0.031 A 
ATOM     40  C   UNL A   1      38.244  32.144  32.330  1.00  0.00     0.074 A 
ATOM     41  C   UNL A   1      38.424  30.941  30.174  1.00  0.00     0.049 A 
ATOM     42  N   UNL A   1      39.244  31.617  32.986  1.00  0.00    -0.248 NA
ATOM     43  C   UNL A   1      37.484  33.140  33.104  1.00  0.00     0.031 C 
ATOM     44  C   UNL A   1      38.065  30.597  28.797  1.00  0.00     0.029 A 
ATOM     45  N   UNL A   1      39.469  30.100  30.463  1.00  0.00    -0.354 N 
ATOM     46  C   UNL A   1      39.252  32.230  34.234  1.00  0.00     0.074 A 
ATOM     47  C   UNL A   1      38.171  33.190  34.239  1.00  0.00     0.031 C 
ATOM     48  C   UNL A   1      38.827  29.576  28.385  1.00  0.00     0.029 A 
ATOM     49  C   UNL A   1      39.791  29.249  29.431  1.00  0.00     0.049 A 
ATOM     50  H   UNL A   1      39.942  30.105  31.326  1.00  0.00     0.167 HD
ATOM     51  C   UNL A   1      40.079  31.999  35.280  1.00  0.00     0.034 A 
ATOM     52  C   UNL A   1      40.765  28.322  29.322  1.00  0.00     0.034 A 
ATOM     53  C   UNL A   1      41.130  31.013  35.268  1.00  0.00     0.049 A 
ATOM     54  C   UNL A   1      41.670  28.089  30.503  1.00  0.00     0.074 A 
ATOM     55  C   UNL A   1      42.008  30.693  36.288  1.00  0.00     0.029 A 
ATOM     56  N   UNL A   1      41.436  30.182  34.201  1.00  0.00    -0.354 N 
ATOM     57  N   UNL A   1      41.640  28.660  31.684  1.00  0.00    -0.248 NA
ATOM     58  C   UNL A   1      42.737  27.093  30.345  1.00  0.00     0.031 C 
ATOM     59  C   UNL A   1      42.879  29.710  35.821  1.00  0.00     0.029 A 
ATOM     60  C   UNL A   1      42.504  29.364  34.532  1.00  0.00     0.049 A 
ATOM     61  H   UNL A   1      40.966  30.176  33.335  1.00  0.00     0.167 HD
ATOM     62  C   UNL A   1      42.678  28.086  32.412  1.00  0.00     0.074 A 
ATOM     63  C   UNL A   1      43.290  27.096  31.551  1.00  0.00     0.031 C 
ATOM     64  C   UNL A   1      43.093  28.366  33.673  1.00  0.00     0.034 A 
BRANCH  51  65
ATOM     65  C   UNL A   1      39.898  32.798  36.547  1.00  0.00     0.023 A 
ATOM     66  C   UNL A   1      38.998  32.351  37.533  1.00  0.00     0.031 A 
ATOM     67  C   UNL A   1      40.481  34.067  36.702  1.00  0.00     0.131 A 
ATOM     68  C   UNL A   1      38.670  33.188  38.607  1.00  0.00     0.055 A 
ATOM     69  C   UNL A   1      40.181  34.881  37.796  1.00  0.00     0.041 A 
ATOM     70  F   UNL A   1      41.348  34.535  35.790  1.00  0.00    -0.206 F 
ATOM     71  C   UNL A   1      39.259  34.449  38.746  1.00  0.00     0.022 A 
BRANCH  68  72
ATOM     72  S   UNL A   1      37.419  32.702  39.826  1.00  0.00     0.124 S 
ATOM     73  O   UNL A   1      36.233  32.533  38.990  1.00  0.00    -0.237 OA
ATOM     74  O   UNL A   1      37.983  31.469  40.367  1.00  0.00    -0.237 OA
ATOM     75  O   UNL A   1      37.370  33.833  40.747  1.00  0.00    -0.744 OA
ENDBRANCH  68  72
ENDBRANCH  51  65
BRANCH  52  76
ATOM     76  C   UNL A   1      40.896  27.550  28.051  1.00  0.00     0.023 A 
ATOM     77  C   UNL A   1      40.525  26.192  27.997  1.00  0.00     0.031 A 
ATOM     78  C   UNL A   1      41.495  28.115  26.914  1.00  0.00     0.131 A 
ATOM     79  C   UNL A   1      40.832  25.428  26.863  1.00  0.00     0.055 A 
ATOM     80  C   UNL A   1      41.725  27.368  25.756  1.00  0.00     0.041 A 
ATOM     81  F   UNL A   1      41.880  29.400  26.920  1.00  0.00    -0.206 F 
ATOM     82  C   UNL A   1      41.413  26.012  25.735  1.00  0.00     0.022 A 
BRANCH  79  83
ATOM     83  S   UNL A   1      40.642  23.623  26.889  1.00  0.00     0.124 S 
ATOM     84  O   UNL A   1      41.586  23.205  25.860  1.00  0.00    -0.237 OA
ATOM     85  O   UNL A   1      41.020  23.299  28.264  1.00  0.00    -0.237 OA
ATOM     86  O   UNL A   1      39.230  23.422  26.577  1.00  0.00    -0.744 OA
ENDBRANCH  79  83
ENDBRANCH  52  76
BRANCH  64  87
ATOM     87  C   UNL A   1      44.271  27.605  34.227  1.00  0.00     0.023 A 
ATOM     88  C   UNL A   1      44.064  26.388  34.904  1.00  0.00     0.031 A 
ATOM     89  C   UNL A   1      45.561  28.161  34.230  1.00  0.00     0.131 A 
ATOM     90  C   UNL A   1      45.124  25.787  35.593  1.00  0.00     0.055 A 
ATOM     91  C   UNL A   1      46.625  27.534  34.879  1.00  0.00     0.041 A 
ATOM     92  F   UNL A   1      45.803  29.325  33.608  1.00  0.00    -0.206 F 
ATOM     93  C   UNL A   1      46.405  26.350  35.578  1.00  0.00     0.022 A 
BRANCH  90  94
ATOM     94  S   UNL A   1      44.861  24.309  36.610  1.00  0.00     0.124 S 
ATOM     95  O   UNL A   1      44.006  23.498  35.746  1.00  0.00    -0.237 OA
ATOM     96  O   UNL A   1      46.222  23.809  36.785  1.00  0.00    -0.237 OA
ATOM     97  O   UNL A   1      44.220  24.820  37.816  1.00  0.00    -0.744 OA
ENDBRANCH  90  94
ENDBRANCH  64  87
ENDBRANCH  38  39
ENDBRANCH  30  33
ENDBRANCH  28  29
ENDBRANCH   1  28
TORSDOF 17
ENDMDL
MODEL 2
REMARK VINA RESULT:     -12.0      6.190     11.319
REMARK SMILES CC[N@@H+](C)Cc1cc2c(cc1Cl)C=C(C(=O)NCCCNC(=O)c1ccc(-c3c4nc(c(-c5cc(S(=O)(=O)[O-])ccc5F)c5ccc([nH]5)c(-c5cc(S(=O)(=O)[O-])ccc5F)c5nc(c(-c6cc(S(=O)(=O)[O-])ccc6F)c6ccc3[nH]6)C=C5)C=C4)cc1)[C@@H](C(F)(F)F)O2
REMARK SMILES IDX 19 1 18 2 17 3 15 4 16 5 14 7 6 8 7 9 11 10 8 11 10 12 12 13
REMARK SMILES IDX 9 14 92 15 13 16 87 17 5 18 3 19 4 20 2 22 1 23 88 24 89 25
REMARK SMILES IDX 90 26 91 27 20 28 21 29 22 30 23 32 24 33 25 34 86 35 26 36
REMARK SMILES IDX 85 37 27 38 28 39 29 40 79 41 30 42 84 43 78 44 80 45 31 46
REMARK SMILES IDX 83 47 77 48 76 49 32 51 64 52 44 53 63 54 45 55 48 56 62 57
REMARK SMILES IDX 81 58 46 59 47 60 61 62 82 63 49 64 33 65 34 66 42 67 35 68
REMARK SMILES IDX 41 69 43 70 40 71 36 72 37 73 38 74 39 75 65 76 66 77 74 78
REMARK SMILES IDX 67 79 73 80 75 81 72 82 68 83 69 84 70 85 71 86 50 87 51 88
REMARK SMILES IDX 59 89 52 90 58 91 60 92 57 93 53 94 54 95 55 96 56 97
REMARK H PARENT 17 6 3 21 21 31 80 50 48 61
REMARK Flexibility Score: inf
ROOT
ATOM      1  C   UNL A   1      38.169  20.372  24.927  1.00  0.00     0.042 C 
ENDROOT
BRANCH   1   2
ATOM      2  C   UNL A   1      36.790  20.870  25.329  1.00  0.00     0.118 C 
BRANCH   2   3
ATOM      3  N   UNL A   1      35.749  19.900  25.024  1.00  0.00    -0.352 N 
ATOM      4  C   UNL A   1      34.410  19.911  24.825  1.00  0.00     0.251 C 
ATOM      5  O   UNL A   1      33.906  18.813  24.566  1.00  0.00    -0.270 OA
ATOM      6  H   UNL A   1      36.116  18.991  24.940  1.00  0.00     0.163 HD
BRANCH   4   7
ATOM      7  C   UNL A   1      33.543  21.122  24.897  1.00  0.00     0.067 C 
ATOM      8  C   UNL A   1      30.740  25.151  23.694  1.00  0.00     0.029 A 
ATOM      9  C   UNL A   1      30.842  24.303  24.807  1.00  0.00     0.058 A 
ATOM     10  C   UNL A   1      31.673  24.980  22.657  1.00  0.00     0.050 A 
ATOM     11  C   UNL A   1      31.742  23.246  24.824  1.00  0.00     0.128 A 
ATOM     12  C   UNL A   1      32.597  23.923  22.688  1.00  0.00     0.033 A 
ATOM     13  Cl  UNL A   1      31.761  26.043  21.298  1.00  0.00    -0.084 Cl
ATOM     14  C   UNL A   1      32.609  23.032  23.760  1.00  0.00     0.019 A 
ATOM     15  O   UNL A   1      31.657  22.411  25.897  1.00  0.00    -0.475 OA
ATOM     16  C   UNL A   1      33.461  21.850  23.768  1.00  0.00     0.025 C 
ATOM     17  C   UNL A   1      32.801  21.551  26.131  1.00  0.00     0.314 C 
BRANCH   8  18
ATOM     18  C   UNL A   1      29.600  26.151  23.657  1.00  0.00     0.300 C 
BRANCH  18  19
ATOM     19  N   UNL A   1      29.944  27.557  23.967  1.00  0.00    -0.334 N 
ATOM     20  C   UNL A   1      29.638  28.495  22.887  1.00  0.00     0.333 C 
ATOM     21  H   UNL A   1      29.324  27.770  24.747  1.00  0.00     0.348 HD
BRANCH  19  22
ATOM     22  C   UNL A   1      31.317  27.764  24.448  1.00  0.00     0.258 C 
ATOM     23  C   UNL A   1      31.389  27.884  25.964  1.00  0.00     0.071 C 
ENDBRANCH  19  22
ENDBRANCH  18  19
ENDBRANCH   8  18
BRANCH  17  24
ATOM     24  C   UNL A   1      33.720  22.227  27.165  1.00  0.00     0.429 C 
ATOM     25  F   UNL A   1      34.462  21.300  27.820  1.00  0.00    -0.167 F 
ATOM     26  F   UNL A   1      34.595  23.093  26.603  1.00  0.00    -0.167 F 
ATOM     27  F   UNL A   1      33.029  22.923  28.098  1.00  0.00    -0.167 F 
ENDBRANCH  17  24
ENDBRANCH   4   7
ENDBRANCH   2   3
ENDBRANCH   1   2
BRANCH   1  28
ATOM     28  C   UNL A   1      39.198  20.588  26.027  1.00  0.00     0.118 C 
BRANCH  28  29
ATOM     29  N   UNL A   1      40.212  19.534  26.043  1.00  0.00    -0.352 N 
ATOM     30  C   UNL A   1      41.584  19.619  26.058  1.00  0.00     0.251 C 
ATOM     31  H   UNL A   1      39.854  18.617  26.042  1.00  0.00     0.163 HD
ATOM     32  O   UNL A   1      42.254  18.620  25.811  1.00  0.00    -0.269 OA
BRANCH  30  33
ATOM     33  C   UNL A   1      42.239  20.910  26.349  1.00  0.00     0.039 A 
ATOM     34  C   UNL A   1      42.518  21.269  27.666  1.00  0.00     0.014 A 
ATOM     35  C   UNL A   1      42.572  21.774  25.302  1.00  0.00     0.014 A 
ATOM     36  C   UNL A   1      42.928  22.562  27.954  1.00  0.00     0.010 A 
ATOM     37  C   UNL A   1      43.100  23.038  25.589  1.00  0.00     0.010 A 
ATOM     38  C   UNL A   1      43.232  23.462  26.919  1.00  0.00    -0.014 A 
BRANCH  38  39
ATOM     39  C   UNL A   1      43.702  24.827  27.271  1.00  0.00     0.031 A 
ATOM     40  C   UNL A   1      45.133  25.235  27.050  1.00  0.00     0.074 A 
ATOM     41  C   UNL A   1      42.803  25.725  27.726  1.00  0.00     0.049 A 
ATOM     42  N   UNL A   1      45.699  26.393  27.275  1.00  0.00    -0.248 NA
ATOM     43  C   UNL A   1      46.053  24.218  26.515  1.00  0.00     0.031 C 
ATOM     44  C   UNL A   1      41.390  25.433  27.974  1.00  0.00     0.029 A 
ATOM     45  N   UNL A   1      42.923  27.057  28.030  1.00  0.00    -0.354 N 
ATOM     46  C   UNL A   1      47.038  26.239  26.934  1.00  0.00     0.074 A 
ATOM     47  C   UNL A   1      47.210  24.867  26.510  1.00  0.00     0.031 C 
ATOM     48  C   UNL A   1      40.762  26.562  28.326  1.00  0.00     0.029 A 
ATOM     49  C   UNL A   1      41.740  27.642  28.418  1.00  0.00     0.049 A 
ATOM     50  H   UNL A   1      43.775  27.548  27.975  1.00  0.00     0.167 HD
ATOM     51  C   UNL A   1      48.026  27.164  26.962  1.00  0.00     0.034 A 
ATOM     52  C   UNL A   1      41.467  28.899  28.824  1.00  0.00     0.034 A 
ATOM     53  C   UNL A   1      47.826  28.536  27.355  1.00  0.00     0.049 A 
ATOM     54  C   UNL A   1      42.587  29.906  28.845  1.00  0.00     0.074 A 
ATOM     55  C   UNL A   1      48.762  29.554  27.398  1.00  0.00     0.029 A 
ATOM     56  N   UNL A   1      46.618  29.087  27.757  1.00  0.00    -0.354 N 
ATOM     57  N   UNL A   1      43.840  29.746  28.491  1.00  0.00    -0.248 NA
ATOM     58  C   UNL A   1      42.265  31.258  29.318  1.00  0.00     0.031 C 
ATOM     59  C   UNL A   1      48.135  30.704  27.875  1.00  0.00     0.029 A 
ATOM     60  C   UNL A   1      46.791  30.426  28.067  1.00  0.00     0.049 A 
ATOM     61  H   UNL A   1      45.765  28.598  27.814  1.00  0.00     0.167 HD
ATOM     62  C   UNL A   1      44.453  30.979  28.689  1.00  0.00     0.074 A 
ATOM     63  C   UNL A   1      43.424  31.883  29.157  1.00  0.00     0.031 C 
ATOM     64  C   UNL A   1      45.754  31.323  28.514  1.00  0.00     0.034 A 
BRANCH  51  65
ATOM     65  C   UNL A   1      49.418  26.762  26.546  1.00  0.00     0.023 A 
ATOM     66  C   UNL A   1      49.932  27.196  25.310  1.00  0.00     0.031 A 
ATOM     67  C   UNL A   1      50.161  25.826  27.286  1.00  0.00     0.131 A 
ATOM     68  C   UNL A   1      51.132  26.658  24.827  1.00  0.00     0.055 A 
ATOM     69  C   UNL A   1      51.377  25.323  26.818  1.00  0.00     0.041 A 
ATOM     70  F   UNL A   1      49.715  25.385  28.472  1.00  0.00    -0.206 F 
ATOM     71  C   UNL A   1      51.859  25.727  25.576  1.00  0.00     0.022 A 
BRANCH  68  72
ATOM     72  S   UNL A   1      51.760  27.094  23.183  1.00  0.00     0.124 S 
ATOM     73  O   UNL A   1      52.187  28.477  23.381  1.00  0.00    -0.237 OA
ATOM     74  O   UNL A   1      52.838  26.126  23.002  1.00  0.00    -0.237 OA
ATOM     75  O   UNL A   1      50.603  26.923  22.310  1.00  0.00    -0.744 OA
ENDBRANCH  68  72
ENDBRANCH  51  65
BRANCH  52  76
ATOM     76  C   UNL A   1      40.070  29.251  29.215  1.00  0.00     0.023 A 
ATOM     77  C   UNL A   1      39.692  29.284  30.570  1.00  0.00     0.031 A 
ATOM     78  C   UNL A   1      39.070  29.444  28.248  1.00  0.00     0.131 A 
ATOM     79  C   UNL A   1      38.341  29.423  30.917  1.00  0.00     0.055 A 
ATOM     80  C   UNL A   1      37.737  29.663  28.601  1.00  0.00     0.041 A 
ATOM     81  F   UNL A   1      39.375  29.406  26.942  1.00  0.00    -0.206 F 
ATOM     82  C   UNL A   1      37.363  29.630  29.941  1.00  0.00     0.022 A 
BRANCH  79  83
ATOM     83  S   UNL A   1      37.798  29.165  32.630  1.00  0.00     0.124 S 
ATOM     84  O   UNL A   1      38.829  29.870  33.384  1.00  0.00    -0.237 OA
ATOM     85  O   UNL A   1      36.477  29.792  32.626  1.00  0.00    -0.237 OA
ATOM     86  O   UNL A   1      37.788  27.713  32.771  1.00  0.00    -0.744 OA
ENDBRANCH  79  83
ENDBRANCH  52  76
BRANCH  64  87
ATOM     87  C   UNL A   1      46.170  32.739  28.824  1.00  0.00     0.023 A 
ATOM     88  C   UNL A   1      46.190  33.705  27.800  1.00  0.00     0.031 A 
ATOM     89  C   UNL A   1      46.697  33.084  30.080  1.00  0.00     0.131 A 
ATOM     90  C   UNL A   1      46.768  34.958  28.038  1.00  0.00     0.055 A 
ATOM     91  C   UNL A   1      47.229  34.350  30.325  1.00  0.00     0.041 A 
ATOM     92  F   UNL A   1      46.710  32.192  31.082  1.00  0.00    -0.206 F 
ATOM     93  C   UNL A   1      47.281  35.288  29.297  1.00  0.00     0.022 A 
BRANCH  90  94
ATOM     94  S   UNL A   1      46.960  36.168  26.702  1.00  0.00     0.124 S 
ATOM     95  O   UNL A   1      47.241  35.309  25.555  1.00  0.00    -0.237 OA
ATOM     96  O   UNL A   1      45.652  36.820  26.687  1.00  0.00    -0.237 OA
ATOM     97  O   UNL A   1      48.072  37.004  27.140  1.00  0.00    -0.744 OA
ENDBRANCH  90  94
ENDBRANCH  64  87
ENDBRANCH  38  39
ENDBRANCH  30  33
ENDBRANCH  28  29
ENDBRANCH   1  28
TORSDOF 17
ENDMDL
MODEL 3
REMARK VINA RESULT:     -12.0      1.434      2.011
REMARK SMILES CC[N@@H+](C)Cc1cc2c(cc1Cl)C=C(C(=O)NCCCNC(=O)c1ccc(-c3c4nc(c(-c5cc(S(=O)(=O)[O-])ccc5F)c5ccc([nH]5)c(-c5cc(S(=O)(=O)[O-])ccc5F)c5nc(c(-c6cc(S(=O)(=O)[O-])ccc6F)c6ccc3[nH]6)C=C5)C=C4)cc1)[C@@H](C(F)(F)F)O2
REMARK SMILES IDX 19 1 18 2 17 3 15 4 16 5 14 7 6 8 7 9 11 10 8 11 10 12 12 13
REMARK SMILES IDX 9 14 92 15 13 16 87 17 5 18 3 19 4 20 2 22 1 23 88 24 89 25
REMARK SMILES IDX 90 26 91 27 20 28 21 29 22 30 23 32 24 33 25 34 86 35 26 36
REMARK SMILES IDX 85 37 27 38 28 39 29 40 79 41 30 42 84 43 78 44 80 45 31 46
REMARK SMILES IDX 83 47 77 48 76 49 32 51 64 52 44 53 63 54 45 55 48 56 62 57
REMARK SMILES IDX 81 58 46 59 47 60 61 62 82 63 49 64 33 65 34 66 42 67 35 68
REMARK SMILES IDX 41 69 43 70 40 71 36 72 37 73 38 74 39 75 65 76 66 77 74 78
REMARK SMILES IDX 67 79 73 80 75 81 72 82 68 83 69 84 70 85 71 86 50 87 51 88
REMARK SMILES IDX 59 89 52 90 58 91 60 92 57 93 53 94 54 95 55 96 56 97
REMARK H PARENT 17 6 3 21 21 31 80 50 48 61
REMARK Flexibility Score: inf
ROOT
ATOM      1  C   UNL A   1      31.403  32.063  26.876  1.00  0.00     0.042 C 
ENDROOT
BRANCH   1   2
ATOM      2  C   UNL A   1      31.667  30.629  26.444  1.00  0.00     0.118 C 
BRANCH   2   3
ATOM      3  N   UNL A   1      31.211  30.376  25.085  1.00  0.00    -0.352 N 
ATOM      4  C   UNL A   1      31.055  29.303  24.275  1.00  0.00     0.251 C 
ATOM      5  O   UNL A   1      30.605  29.551  23.152  1.00  0.00    -0.270 OA
ATOM      6  H   UNL A   1      30.944  31.208  24.634  1.00  0.00     0.163 HD
BRANCH   4   7
ATOM      7  C   UNL A   1      31.382  27.896  24.644  1.00  0.00     0.067 C 
ATOM      8  C   UNL A   1      33.815  23.700  26.062  1.00  0.00     0.029 A 
ATOM      9  C   UNL A   1      32.477  24.123  26.054  1.00  0.00     0.058 A 
ATOM     10  C   UNL A   1      34.766  24.536  25.452  1.00  0.00     0.050 A 
ATOM     11  C   UNL A   1      32.125  25.382  25.586  1.00  0.00     0.128 A 
ATOM     12  C   UNL A   1      34.403  25.799  24.960  1.00  0.00     0.033 A 
ATOM     13  Cl  UNL A   1      36.420  24.077  25.257  1.00  0.00    -0.084 Cl
ATOM     14  C   UNL A   1      33.083  26.238  25.057  1.00  0.00     0.019 A 
ATOM     15  O   UNL A   1      30.820  25.734  25.753  1.00  0.00    -0.475 OA
ATOM     16  C   UNL A   1      32.692  27.589  24.678  1.00  0.00     0.025 C 
ATOM     17  C   UNL A   1      30.350  26.848  24.952  1.00  0.00     0.314 C 
BRANCH   8  18
ATOM     18  C   UNL A   1      34.152  22.404  26.775  1.00  0.00     0.300 C 
BRANCH  18  19
ATOM     19  N   UNL A   1      34.407  21.225  25.917  1.00  0.00    -0.334 N 
ATOM     20  C   UNL A   1      35.815  21.038  25.567  1.00  0.00     0.333 C 
ATOM     21  H   UNL A   1      34.132  20.449  26.519  1.00  0.00     0.348 HD
BRANCH  19  22
ATOM     22  C   UNL A   1      33.568  21.145  24.714  1.00  0.00     0.258 C 
ATOM     23  C   UNL A   1      32.188  20.572  25.005  1.00  0.00     0.071 C 
ENDBRANCH  19  22
ENDBRANCH  18  19
ENDBRANCH   8  18
BRANCH  17  24
ATOM     24  C   UNL A   1      29.679  26.291  23.683  1.00  0.00     0.429 C 
ATOM     25  F   UNL A   1      29.552  24.944  23.765  1.00  0.00    -0.167 F 
ATOM     26  F   UNL A   1      28.434  26.785  23.488  1.00  0.00    -0.167 F 
ATOM     27  F   UNL A   1      30.385  26.562  22.560  1.00  0.00    -0.167 F 
ENDBRANCH  17  24
ENDBRANCH   4   7
ENDBRANCH   2   3
ENDBRANCH   1   2
BRANCH   1  28
ATOM     28  C   UNL A   1      32.658  32.922  26.803  1.00  0.00     0.118 C 
BRANCH  28  29
ATOM     29  N   UNL A   1      32.546  34.124  27.628  1.00  0.00    -0.352 N 
ATOM     30  C   UNL A   1      33.223  34.488  28.768  1.00  0.00     0.251 C 
ATOM     31  H   UNL A   1      31.877  34.777  27.317  1.00  0.00     0.163 HD
ATOM     32  O   UNL A   1      32.802  35.418  29.451  1.00  0.00    -0.269 OA
BRANCH  30  33
ATOM     33  C   UNL A   1      34.435  33.747  29.172  1.00  0.00     0.039 A 
ATOM     34  C   UNL A   1      34.317  32.546  29.872  1.00  0.00     0.014 A 
ATOM     35  C   UNL A   1      35.699  34.253  28.858  1.00  0.00     0.014 A 
ATOM     36  C   UNL A   1      35.443  31.969  30.438  1.00  0.00     0.010 A 
ATOM     37  C   UNL A   1      36.843  33.600  29.330  1.00  0.00     0.010 A 
ATOM     38  C   UNL A   1      36.722  32.482  30.168  1.00  0.00    -0.014 A 
BRANCH  38  39
ATOM     39  C   UNL A   1      37.905  31.811  30.767  1.00  0.00     0.031 A 
ATOM     40  C   UNL A   1      38.323  32.096  32.184  1.00  0.00     0.074 A 
ATOM     41  C   UNL A   1      38.560  30.881  30.041  1.00  0.00     0.049 A 
ATOM     42  N   UNL A   1      39.310  31.577  32.867  1.00  0.00    -0.248 NA
ATOM     43  C   UNL A   1      37.541  33.094  32.934  1.00  0.00     0.031 C 
ATOM     44  C   UNL A   1      38.235  30.527  28.658  1.00  0.00     0.029 A 
ATOM     45  N   UNL A   1      39.601  30.046  30.360  1.00  0.00    -0.354 N 
ATOM     46  C   UNL A   1      39.284  32.197  34.111  1.00  0.00     0.074 A 
ATOM     47  C   UNL A   1      38.200  33.153  34.084  1.00  0.00     0.031 C 
ATOM     48  C   UNL A   1      39.011  29.507  28.271  1.00  0.00     0.029 A 
ATOM     49  C   UNL A   1      39.951  29.190  29.341  1.00  0.00     0.049 A 
ATOM     50  H   UNL A   1      40.053  30.058  31.234  1.00  0.00     0.167 HD
ATOM     51  C   UNL A   1      40.087  31.977  35.179  1.00  0.00     0.034 A 
ATOM     52  C   UNL A   1      40.931  28.267  29.261  1.00  0.00     0.034 A 
ATOM     53  C   UNL A   1      41.142  30.995  35.198  1.00  0.00     0.049 A 
ATOM     54  C   UNL A   1      41.809  28.045  30.465  1.00  0.00     0.074 A 
ATOM     55  C   UNL A   1      41.997  30.685  36.240  1.00  0.00     0.029 A 
ATOM     56  N   UNL A   1      41.478  30.159  34.143  1.00  0.00    -0.354 N 
ATOM     57  N   UNL A   1      41.748  28.622  31.642  1.00  0.00    -0.248 NA
ATOM     58  C   UNL A   1      42.884  27.052  30.338  1.00  0.00     0.031 C 
ATOM     59  C   UNL A   1      42.883  29.703  35.800  1.00  0.00     0.029 A 
ATOM     60  C   UNL A   1      42.540  29.347  34.505  1.00  0.00     0.049 A 
ATOM     61  H   UNL A   1      41.028  30.146  33.266  1.00  0.00     0.167 HD
ATOM     62  C   UNL A   1      42.771  28.058  32.397  1.00  0.00     0.074 A 
ATOM     63  C   UNL A   1      43.408  27.066  31.558  1.00  0.00     0.031 C 
ATOM     64  C   UNL A   1      43.154  28.347  33.666  1.00  0.00     0.034 A 
BRANCH  51  65
ATOM     65  C   UNL A   1      39.872  32.782  36.436  1.00  0.00     0.023 A 
ATOM     66  C   UNL A   1      38.945  32.341  37.399  1.00  0.00     0.031 A 
ATOM     67  C   UNL A   1      40.452  34.051  36.600  1.00  0.00     0.131 A 
ATOM     68  C   UNL A   1      38.589  33.185  38.459  1.00  0.00     0.055 A 
ATOM     69  C   UNL A   1      40.123  34.872  37.681  1.00  0.00     0.041 A 
ATOM     70  F   UNL A   1      41.345  34.514  35.710  1.00  0.00    -0.206 F 
ATOM     71  C   UNL A   1      39.176  34.445  38.607  1.00  0.00     0.022 A 
BRANCH  68  72
ATOM     72  S   UNL A   1      37.305  32.706  39.646  1.00  0.00     0.124 S 
ATOM     73  O   UNL A   1      37.777  31.396  40.089  1.00  0.00    -0.237 OA
ATOM     74  O   UNL A   1      37.396  33.772  40.640  1.00  0.00    -0.237 OA
ATOM     75  O   UNL A   1      36.082  32.686  38.850  1.00  0.00    -0.744 OA
ENDBRANCH  68  72
ENDBRANCH  51  65
BRANCH  52  76
ATOM     76  C   UNL A   1      41.096  27.487  27.999  1.00  0.00     0.023 A 
ATOM     77  C   UNL A   1      40.771  26.118  27.955  1.00  0.00     0.031 A 
ATOM     78  C   UNL A   1      41.683  28.061  26.860  1.00  0.00     0.131 A 
ATOM     79  C   UNL A   1      41.110  25.354  26.831  1.00  0.00     0.055 A 
ATOM     80  C   UNL A   1      41.945  27.312  25.710  1.00  0.00     0.041 A 
ATOM     81  F   UNL A   1      42.025  29.358  26.855  1.00  0.00    -0.206 F 
ATOM     82  C   UNL A   1      41.679  25.946  25.701  1.00  0.00     0.022 A 
BRANCH  79  83
ATOM     83  S   UNL A   1      40.980  23.543  26.873  1.00  0.00     0.124 S 
ATOM     84  O   UNL A   1      39.561  23.336  26.610  1.00  0.00    -0.237 OA
ATOM     85  O   UNL A   1      41.888  23.150  25.796  1.00  0.00    -0.237 OA
ATOM     86  O   UNL A   1      41.435  23.199  28.216  1.00  0.00    -0.744 OA
ENDBRANCH  79  83
ENDBRANCH  52  76
BRANCH  64  87
ATOM     87  C   UNL A   1      44.321  27.595  34.253  1.00  0.00     0.023 A 
ATOM     88  C   UNL A   1      44.114  26.341  34.859  1.00  0.00     0.031 A 
ATOM     89  C   UNL A   1      45.591  28.186  34.358  1.00  0.00     0.131 A 
ATOM     90  C   UNL A   1      45.151  25.739  35.582  1.00  0.00     0.055 A 
ATOM     91  C   UNL A   1      46.635  27.560  35.039  1.00  0.00     0.041 A 
ATOM     92  F   UNL A   1      45.832  29.386  33.805  1.00  0.00    -0.206 F 
ATOM     93  C   UNL A   1      46.413  26.338  35.668  1.00  0.00     0.022 A 
BRANCH  90  94
ATOM     94  S   UNL A   1      44.877  24.206  36.511  1.00  0.00     0.124 S 
ATOM     95  O   UNL A   1      44.732  24.704  37.877  1.00  0.00    -0.237 OA
ATOM     96  O   UNL A   1      43.652  23.692  35.902  1.00  0.00    -0.237 OA
ATOM     97  O   UNL A   1      46.080  23.421  36.260  1.00  0.00    -0.744 OA
ENDBRANCH  90  94
ENDBRANCH  64  87
ENDBRANCH  38  39
ENDBRANCH  30  33
ENDBRANCH  28  29
ENDBRANCH   1  28
TORSDOF 17
ENDMDL
