MODEL 1
REMARK VINA RESULT:     -13.3      0.000      0.000
REMARK SMILES Cc1cc(C(=O)NCCCNC(=O)c2ccc(-c3c4nc(c(-c5cc(S(=O)(=O)[O-])ccc5F)c5ccc([nH]5)c(-c5cc(S(=O)(=O)[O-])ccc5F)c5nc(c(-c6cc(S(=O)(=O)[O-])ccc6F)c6ccc3[nH]6)C=C5)C=C4)cc2)ccc1NC(=O)N1C[C@@H](C)[C@H](C)C1
REMARK SMILES IDX 10 1 9 2 8 3 7 4 5 5 6 6 4 8 1 9 2 10 3 11 79 12 78 13 77 14
REMARK SMILES IDX 80 15 81 16 82 18 83 19 84 20 89 21 85 22 87 23 86 24 88 25
REMARK SMILES IDX 11 26 12 27 13 29 14 30 15 31 76 32 16 33 75 34 17 35 18 36
REMARK SMILES IDX 19 37 69 38 20 39 74 40 68 41 70 42 21 43 73 44 67 45 66 46
REMARK SMILES IDX 22 48 54 49 34 50 53 51 35 52 38 53 52 54 71 55 36 56 37 57
REMARK SMILES IDX 51 59 72 60 39 61 23 62 24 63 32 64 25 65 31 66 33 67 30 68
REMARK SMILES IDX 26 69 27 70 28 71 29 72 55 73 56 74 64 75 57 76 63 77 65 78
REMARK SMILES IDX 62 79 58 80 59 81 60 82 61 83 40 84 41 85 49 86 42 87 48 88
REMARK SMILES IDX 50 89 47 90 43 91 44 92 45 93 46 94
REMARK H PARENT 7 7 80 17 11 28 70 47 38 58
REMARK Flexibility Score: inf
ROOT
ATOM      1  C   UNL A   1      34.278  31.465  27.322  1.00  0.00     0.118 C 
ENDROOT
BRANCH   1   2
ATOM      2  C   UNL A   1      32.879  30.906  27.422  1.00  0.00     0.042 C 
BRANCH   2   3
ATOM      3  C   UNL A   1      32.471  30.033  26.265  1.00  0.00     0.118 C 
BRANCH   3   4
ATOM      4  N   UNL A   1      31.408  30.476  25.355  1.00  0.00    -0.352 N 
ATOM      5  C   UNL A   1      30.753  29.740  24.358  1.00  0.00     0.251 C 
ATOM      6  O   UNL A   1      29.879  30.255  23.665  1.00  0.00    -0.269 OA
ATOM      7  H   UNL A   1      31.117  31.411  25.460  1.00  0.00     0.163 HD
BRANCH   5   8
ATOM      8  C   UNL A   1      31.181  28.341  24.055  1.00  0.00     0.040 A 
ATOM      9  C   UNL A   1      30.030  24.734  24.282  1.00  0.00     0.046 C 
ATOM     10  C   UNL A   1      30.775  25.940  23.784  1.00  0.00    -0.027 A 
ATOM     11  C   UNL A   1      30.418  27.204  24.342  1.00  0.00     0.019 A 
ATOM     12  C   UNL A   1      31.768  25.907  22.781  1.00  0.00     0.045 A 
ATOM     13  C   UNL A   1      32.381  27.098  22.476  1.00  0.00     0.027 A 
ATOM     14  C   UNL A   1      32.336  28.152  23.347  1.00  0.00     0.016 A 
BRANCH  12  15
ATOM     15  N   UNL A   1      32.158  24.740  22.088  1.00  0.00    -0.308 N 
ATOM     16  C   UNL A   1      33.204  23.873  22.277  1.00  0.00     0.321 C 
ATOM     17  H   UNL A   1      31.573  24.507  21.331  1.00  0.00     0.171 HD
ATOM     18  O   UNL A   1      33.546  23.176  21.316  1.00  0.00    -0.248 OA
ATOM     19  N   UNL A   1      33.897  23.832  23.457  1.00  0.00    -0.324 N 
ATOM     20  C   UNL A   1      35.347  23.715  23.467  1.00  0.00     0.125 C 
ATOM     21  C   UNL A   1      33.352  23.574  24.797  1.00  0.00     0.125 C 
ATOM     22  C   UNL A   1      35.707  23.203  24.865  1.00  0.00     0.010 C 
ATOM     23  C   UNL A   1      34.558  23.746  25.733  1.00  0.00     0.010 C 
ATOM     24  C   UNL A   1      37.092  23.637  25.323  1.00  0.00     0.010 C 
ATOM     25  C   UNL A   1      34.389  23.023  27.063  1.00  0.00     0.010 C 
ENDBRANCH  12  15
ENDBRANCH   5   8
ENDBRANCH   3   4
ENDBRANCH   2   3
ENDBRANCH   1   2
BRANCH   1  26
ATOM     26  N   UNL A   1      34.820  32.000  28.584  1.00  0.00    -0.352 N 
ATOM     27  C   UNL A   1      35.631  31.401  29.547  1.00  0.00     0.251 C 
ATOM     28  H   UNL A   1      34.568  32.931  28.780  1.00  0.00     0.163 HD
ATOM     29  O   UNL A   1      36.063  32.028  30.510  1.00  0.00    -0.269 OA
BRANCH  27  30
ATOM     30  C   UNL A   1      36.115  30.012  29.326  1.00  0.00     0.039 A 
ATOM     31  C   UNL A   1      36.661  29.387  30.452  1.00  0.00     0.014 A 
ATOM     32  C   UNL A   1      36.548  29.676  28.057  1.00  0.00     0.014 A 
ATOM     33  C   UNL A   1      37.919  28.814  30.345  1.00  0.00     0.010 A 
ATOM     34  C   UNL A   1      37.863  29.274  27.969  1.00  0.00     0.010 A 
ATOM     35  C   UNL A   1      38.573  28.936  29.126  1.00  0.00    -0.014 A 
BRANCH  35  36
ATOM     36  C   UNL A   1      39.979  28.653  28.926  1.00  0.00     0.031 A 
ATOM     37  C   UNL A   1      40.304  27.252  28.637  1.00  0.00     0.074 A 
ATOM     38  C   UNL A   1      40.918  29.624  28.960  1.00  0.00     0.049 A 
ATOM     39  N   UNL A   1      41.412  26.682  28.933  1.00  0.00    -0.248 NA
ATOM     40  C   UNL A   1      39.319  26.337  28.066  1.00  0.00     0.031 C 
ATOM     41  C   UNL A   1      42.329  29.519  28.596  1.00  0.00     0.029 A 
ATOM     42  N   UNL A   1      40.810  30.883  29.546  1.00  0.00    -0.354 N 
ATOM     43  C   UNL A   1      41.406  25.444  28.332  1.00  0.00     0.074 A 
ATOM     44  C   UNL A   1      40.043  25.230  27.927  1.00  0.00     0.031 C 
ATOM     45  C   UNL A   1      43.006  30.521  29.184  1.00  0.00     0.029 A 
ATOM     46  C   UNL A   1      42.084  31.220  30.059  1.00  0.00     0.049 A 
ATOM     47  H   UNL A   1      39.997  31.435  29.594  1.00  0.00     0.167 HD
ATOM     48  C   UNL A   1      42.596  24.824  28.109  1.00  0.00     0.034 A 
ATOM     49  C   UNL A   1      42.241  31.384  31.408  1.00  0.00     0.034 A 
ATOM     50  C   UNL A   1      43.687  25.606  28.708  1.00  0.00     0.049 A 
ATOM     51  C   UNL A   1      43.036  30.251  32.046  1.00  0.00     0.074 A 
ATOM     52  C   UNL A   1      44.598  26.523  28.205  1.00  0.00     0.029 A 
ATOM     53  N   UNL A   1      43.692  25.790  30.083  1.00  0.00    -0.354 N 
ATOM     54  N   UNL A   1      43.531  29.227  31.401  1.00  0.00    -0.248 NA
ATOM     55  C   UNL A   1      43.261  30.154  33.486  1.00  0.00     0.031 C 
ATOM     56  C   UNL A   1      45.103  27.292  29.300  1.00  0.00     0.029 A 
ATOM     57  C   UNL A   1      44.542  26.811  30.470  1.00  0.00     0.049 A 
ATOM     58  H   UNL A   1      43.154  25.256  30.711  1.00  0.00     0.167 HD
ATOM     59  C   UNL A   1      44.076  28.329  32.285  1.00  0.00     0.074 A 
ATOM     60  C   UNL A   1      43.855  28.954  33.584  1.00  0.00     0.031 C 
ATOM     61  C   UNL A   1      44.636  27.139  31.890  1.00  0.00     0.034 A 
BRANCH  48  62
ATOM     62  C   UNL A   1      42.800  23.703  27.112  1.00  0.00     0.023 A 
ATOM     63  C   UNL A   1      42.194  22.460  27.379  1.00  0.00     0.031 A 
ATOM     64  C   UNL A   1      43.595  23.737  25.944  1.00  0.00     0.131 A 
ATOM     65  C   UNL A   1      42.451  21.328  26.583  1.00  0.00     0.055 A 
ATOM     66  C   UNL A   1      43.891  22.601  25.179  1.00  0.00     0.041 A 
ATOM     67  F   UNL A   1      44.082  24.872  25.437  1.00  0.00    -0.206 F 
ATOM     68  C   UNL A   1      43.323  21.383  25.501  1.00  0.00     0.022 A 
BRANCH  65  69
ATOM     69  S   UNL A   1      41.619  19.771  26.984  1.00  0.00     0.124 S 
ATOM     70  O   UNL A   1      40.961  19.443  25.723  1.00  0.00    -0.237 OA
ATOM     71  O   UNL A   1      42.735  18.918  27.375  1.00  0.00    -0.237 OA
ATOM     72  O   UNL A   1      40.717  20.141  28.073  1.00  0.00    -0.744 OA
ENDBRANCH  65  69
ENDBRANCH  48  62
BRANCH  49  73
ATOM     73  C   UNL A   1      41.044  32.075  32.000  1.00  0.00     0.023 A 
ATOM     74  C   UNL A   1      40.114  31.251  32.682  1.00  0.00     0.031 A 
ATOM     75  C   UNL A   1      41.132  33.419  32.383  1.00  0.00     0.131 A 
ATOM     76  C   UNL A   1      39.536  31.700  33.880  1.00  0.00     0.055 A 
ATOM     77  C   UNL A   1      40.488  33.878  33.536  1.00  0.00     0.041 A 
ATOM     78  F   UNL A   1      41.973  34.258  31.762  1.00  0.00    -0.206 F 
ATOM     79  C   UNL A   1      39.757  32.999  34.335  1.00  0.00     0.022 A 
BRANCH  76  80
ATOM     80  S   UNL A   1      38.750  30.492  34.990  1.00  0.00     0.124 S 
ATOM     81  O   UNL A   1      37.752  31.303  35.676  1.00  0.00    -0.237 OA
ATOM     82  O   UNL A   1      38.236  29.490  34.061  1.00  0.00    -0.237 OA
ATOM     83  O   UNL A   1      39.852  30.011  35.825  1.00  0.00    -0.744 OA
ENDBRANCH  76  80
ENDBRANCH  49  73
BRANCH  61  84
ATOM     84  C   UNL A   1      45.290  26.140  32.832  1.00  0.00     0.023 A 
ATOM     85  C   UNL A   1      44.562  25.443  33.804  1.00  0.00     0.031 A 
ATOM     86  C   UNL A   1      46.684  25.880  32.832  1.00  0.00     0.131 A 
ATOM     87  C   UNL A   1      45.153  24.432  34.579  1.00  0.00     0.055 A 
ATOM     88  C   UNL A   1      47.291  24.930  33.660  1.00  0.00     0.041 A 
ATOM     89  F   UNL A   1      47.539  26.522  32.025  1.00  0.00    -0.206 F 
ATOM     90  C   UNL A   1      46.517  24.170  34.518  1.00  0.00     0.022 A 
BRANCH  87  91
ATOM     91  S   UNL A   1      44.078  23.413  35.615  1.00  0.00     0.124 S 
ATOM     92  O   UNL A   1      42.827  23.401  34.853  1.00  0.00    -0.237 OA
ATOM     93  O   UNL A   1      44.808  22.144  35.636  1.00  0.00    -0.237 OA
ATOM     94  O   UNL A   1      44.032  24.127  36.878  1.00  0.00    -0.744 OA
ENDBRANCH  87  91
ENDBRANCH  61  84
ENDBRANCH  35  36
ENDBRANCH  27  30
ENDBRANCH   1  26
TORSDOF 14
ENDMDL
MODEL 2
REMARK VINA RESULT:     -13.2      2.088      2.436
REMARK SMILES Cc1cc(C(=O)NCCCNC(=O)c2ccc(-c3c4nc(c(-c5cc(S(=O)(=O)[O-])ccc5F)c5ccc([nH]5)c(-c5cc(S(=O)(=O)[O-])ccc5F)c5nc(c(-c6cc(S(=O)(=O)[O-])ccc6F)c6ccc3[nH]6)C=C5)C=C4)cc2)ccc1NC(=O)N1C[C@@H](C)[C@H](C)C1
REMARK SMILES IDX 10 1 9 2 8 3 7 4 5 5 6 6 4 8 1 9 2 10 3 11 79 12 78 13 77 14
REMARK SMILES IDX 80 15 81 16 82 18 83 19 84 20 89 21 85 22 87 23 86 24 88 25
REMARK SMILES IDX 11 26 12 27 13 29 14 30 15 31 76 32 16 33 75 34 17 35 18 36
REMARK SMILES IDX 19 37 69 38 20 39 74 40 68 41 70 42 21 43 73 44 67 45 66 46
REMARK SMILES IDX 22 48 54 49 34 50 53 51 35 52 38 53 52 54 71 55 36 56 37 57
REMARK SMILES IDX 51 59 72 60 39 61 23 62 24 63 32 64 25 65 31 66 33 67 30 68
REMARK SMILES IDX 26 69 27 70 28 71 29 72 55 73 56 74 64 75 57 76 63 77 65 78
REMARK SMILES IDX 62 79 58 80 59 81 60 82 61 83 40 84 41 85 49 86 42 87 48 88
REMARK SMILES IDX 50 89 47 90 43 91 44 92 45 93 46 94
REMARK H PARENT 7 7 80 17 11 28 70 47 38 58
REMARK Flexibility Score: inf
ROOT
ATOM      1  C   UNL A   1      34.717  31.194  28.773  1.00  0.00     0.118 C 
ENDROOT
BRANCH   1   2
ATOM      2  C   UNL A   1      34.478  30.850  27.321  1.00  0.00     0.042 C 
BRANCH   2   3
ATOM      3  C   UNL A   1      33.231  30.047  27.067  1.00  0.00     0.118 C 
BRANCH   3   4
ATOM      4  N   UNL A   1      32.148  30.615  26.255  1.00  0.00    -0.352 N 
ATOM      5  C   UNL A   1      31.401  29.994  25.245  1.00  0.00     0.251 C 
ATOM      6  O   UNL A   1      30.523  30.607  24.642  1.00  0.00    -0.269 OA
ATOM      7  H   UNL A   1      31.917  31.553  26.445  1.00  0.00     0.163 HD
BRANCH   5   8
ATOM      8  C   UNL A   1      31.731  28.602  24.814  1.00  0.00     0.040 A 
ATOM      9  C   UNL A   1      30.340  25.074  24.740  1.00  0.00     0.046 C 
ATOM     10  C   UNL A   1      31.161  26.266  24.340  1.00  0.00    -0.027 A 
ATOM     11  C   UNL A   1      30.894  27.498  25.011  1.00  0.00     0.019 A 
ATOM     12  C   UNL A   1      32.143  26.255  23.325  1.00  0.00     0.045 A 
ATOM     13  C   UNL A   1      32.833  27.425  23.117  1.00  0.00     0.027 A 
ATOM     14  C   UNL A   1      32.865  28.399  24.077  1.00  0.00     0.016 A 
BRANCH  12  15
ATOM     15  N   UNL A   1      32.448  25.131  22.527  1.00  0.00    -0.308 N 
ATOM     16  C   UNL A   1      33.417  24.167  22.641  1.00  0.00     0.321 C 
ATOM     17  H   UNL A   1      31.857  25.018  21.747  1.00  0.00     0.171 HD
ATOM     18  O   UNL A   1      33.716  23.537  21.621  1.00  0.00    -0.248 OA
ATOM     19  N   UNL A   1      34.086  23.960  23.817  1.00  0.00    -0.324 N 
ATOM     20  C   UNL A   1      35.522  23.723  23.826  1.00  0.00     0.125 C 
ATOM     21  C   UNL A   1      33.503  23.622  25.123  1.00  0.00     0.125 C 
ATOM     22  C   UNL A   1      35.819  23.055  25.172  1.00  0.00     0.010 C 
ATOM     23  C   UNL A   1      34.705  23.607  26.080  1.00  0.00     0.010 C 
ATOM     24  C   UNL A   1      37.227  23.330  25.680  1.00  0.00     0.010 C 
ATOM     25  C   UNL A   1      34.458  22.779  27.334  1.00  0.00     0.010 C 
ENDBRANCH  12  15
ENDBRANCH   5   8
ENDBRANCH   3   4
ENDBRANCH   2   3
ENDBRANCH   1   2
BRANCH   1  26
ATOM     26  N   UNL A   1      36.019  31.827  29.050  1.00  0.00    -0.352 N 
ATOM     27  C   UNL A   1      37.297  31.276  29.119  1.00  0.00     0.251 C 
ATOM     28  H   UNL A   1      35.979  32.797  29.214  1.00  0.00     0.163 HD
ATOM     29  O   UNL A   1      38.295  31.972  29.282  1.00  0.00    -0.269 OA
BRANCH  27  30
ATOM     30  C   UNL A   1      37.478  29.827  28.836  1.00  0.00     0.039 A 
ATOM     31  C   UNL A   1      37.666  29.020  29.964  1.00  0.00     0.014 A 
ATOM     32  C   UNL A   1      38.031  29.473  27.620  1.00  0.00     0.014 A 
ATOM     33  C   UNL A   1      38.758  28.166  29.989  1.00  0.00     0.010 A 
ATOM     34  C   UNL A   1      39.213  28.769  27.690  1.00  0.00     0.010 A 
ATOM     35  C   UNL A   1      39.619  28.199  28.901  1.00  0.00    -0.014 A 
BRANCH  35  36
ATOM     36  C   UNL A   1      40.936  27.595  28.887  1.00  0.00     0.031 A 
ATOM     37  C   UNL A   1      40.961  26.147  28.650  1.00  0.00     0.074 A 
ATOM     38  C   UNL A   1      42.062  28.325  29.038  1.00  0.00     0.049 A 
ATOM     39  N   UNL A   1      41.861  25.349  29.090  1.00  0.00    -0.248 NA
ATOM     40  C   UNL A   1      39.871  25.462  27.961  1.00  0.00     0.031 C 
ATOM     41  C   UNL A   1      43.444  27.888  28.861  1.00  0.00     0.029 A 
ATOM     42  N   UNL A   1      42.175  29.596  29.598  1.00  0.00    -0.354 N 
ATOM     43  C   UNL A   1      41.644  24.125  28.501  1.00  0.00     0.074 A 
ATOM     44  C   UNL A   1      40.330  24.215  27.923  1.00  0.00     0.031 C 
ATOM     45  C   UNL A   1      44.256  28.728  29.527  1.00  0.00     0.029 A 
ATOM     46  C   UNL A   1      43.418  29.651  30.271  1.00  0.00     0.049 A 
ATOM     47  H   UNL A   1      41.513  30.321  29.537  1.00  0.00     0.167 HD
ATOM     48  C   UNL A   1      42.677  23.243  28.437  1.00  0.00     0.034 A 
ATOM     49  C   UNL A   1      43.438  29.821  31.628  1.00  0.00     0.034 A 
ATOM     50  C   UNL A   1      43.835  23.775  29.169  1.00  0.00     0.049 A 
ATOM     51  C   UNL A   1      43.863  28.560  32.370  1.00  0.00     0.074 A 
ATOM     52  C   UNL A   1      44.989  24.440  28.784  1.00  0.00     0.029 A 
ATOM     53  N   UNL A   1      43.710  24.000  30.532  1.00  0.00    -0.354 N 
ATOM     54  N   UNL A   1      44.185  27.428  31.800  1.00  0.00    -0.248 NA
ATOM     55  C   UNL A   1      43.877  28.465  33.827  1.00  0.00     0.031 C 
ATOM     56  C   UNL A   1      45.517  25.111  29.931  1.00  0.00     0.029 A 
ATOM     57  C   UNL A   1      44.718  24.813  31.021  1.00  0.00     0.049 A 
ATOM     58  H   UNL A   1      42.989  23.626  31.087  1.00  0.00     0.167 HD
ATOM     59  C   UNL A   1      44.392  26.461  32.752  1.00  0.00     0.074 A 
ATOM     60  C   UNL A   1      44.161  27.164  34.008  1.00  0.00     0.031 C 
ATOM     61  C   UNL A   1      44.707  25.160  32.439  1.00  0.00     0.034 A 
BRANCH  48  62
ATOM     62  C   UNL A   1      42.739  22.070  27.481  1.00  0.00     0.023 A 
ATOM     63  C   UNL A   1      43.773  22.047  26.527  1.00  0.00     0.031 A 
ATOM     64  C   UNL A   1      41.824  20.997  27.391  1.00  0.00     0.131 A 
ATOM     65  C   UNL A   1      43.818  21.073  25.511  1.00  0.00     0.055 A 
ATOM     66  C   UNL A   1      41.839  20.056  26.353  1.00  0.00     0.041 A 
ATOM     67  F   UNL A   1      40.903  20.755  28.327  1.00  0.00    -0.206 F 
ATOM     68  C   UNL A   1      42.837  20.094  25.399  1.00  0.00     0.022 A 
BRANCH  65  69
ATOM     69  S   UNL A   1      45.192  21.103  24.332  1.00  0.00     0.124 S 
ATOM     70  O   UNL A   1      45.087  22.449  23.776  1.00  0.00    -0.237 OA
ATOM     71  O   UNL A   1      46.341  20.845  25.193  1.00  0.00    -0.237 OA
ATOM     72  O   UNL A   1      44.864  20.023  23.404  1.00  0.00    -0.744 OA
ENDBRANCH  65  69
ENDBRANCH  48  62
BRANCH  49  73
ATOM     73  C   UNL A   1      42.370  30.788  32.056  1.00  0.00     0.023 A 
ATOM     74  C   UNL A   1      41.366  30.277  32.916  1.00  0.00     0.031 A 
ATOM     75  C   UNL A   1      42.652  32.159  32.120  1.00  0.00     0.131 A 
ATOM     76  C   UNL A   1      40.901  31.061  33.985  1.00  0.00     0.055 A 
ATOM     77  C   UNL A   1      42.122  32.951  33.143  1.00  0.00     0.041 A 
ATOM     78  F   UNL A   1      43.572  32.710  31.316  1.00  0.00    -0.206 F 
ATOM     79  C   UNL A   1      41.312  32.386  34.127  1.00  0.00     0.022 A 
BRANCH  76  80
ATOM     80  S   UNL A   1      40.006  30.257  35.348  1.00  0.00     0.124 S 
ATOM     81  O   UNL A   1      40.152  31.223  36.430  1.00  0.00    -0.237 OA
ATOM     82  O   UNL A   1      38.661  30.103  34.802  1.00  0.00    -0.237 OA
ATOM     83  O   UNL A   1      40.713  28.989  35.536  1.00  0.00    -0.744 OA
ENDBRANCH  76  80
ENDBRANCH  49  73
BRANCH  61  84
ATOM     84  C   UNL A   1      44.988  24.072  33.464  1.00  0.00     0.023 A 
ATOM     85  C   UNL A   1      46.288  23.637  33.753  1.00  0.00     0.031 A 
ATOM     86  C   UNL A   1      43.961  23.385  34.159  1.00  0.00     0.131 A 
ATOM     87  C   UNL A   1      46.542  22.726  34.791  1.00  0.00     0.055 A 
ATOM     88  C   UNL A   1      44.209  22.416  35.137  1.00  0.00     0.041 A 
ATOM     89  F   UNL A   1      42.660  23.615  33.941  1.00  0.00    -0.206 F 
ATOM     90  C   UNL A   1      45.510  22.106  35.486  1.00  0.00     0.022 A 
BRANCH  87  91
ATOM     91  S   UNL A   1      48.262  22.428  35.261  1.00  0.00     0.124 S 
ATOM     92  O   UNL A   1      48.338  23.051  36.585  1.00  0.00    -0.237 OA
ATOM     93  O   UNL A   1      48.318  20.965  35.257  1.00  0.00    -0.237 OA
ATOM     94  O   UNL A   1      49.028  23.085  34.218  1.00  0.00    -0.744 OA
ENDBRANCH  87  91
ENDBRANCH  61  84
ENDBRANCH  35  36
ENDBRANCH  27  30
ENDBRANCH   1  26
TORSDOF 14
ENDMDL
MODEL 3
REMARK VINA RESULT:     -13.1      4.051      9.581
REMARK SMILES Cc1cc(C(=O)NCCCNC(=O)c2ccc(-c3c4nc(c(-c5cc(S(=O)(=O)[O-])ccc5F)c5ccc([nH]5)c(-c5cc(S(=O)(=O)[O-])ccc5F)c5nc(c(-c6cc(S(=O)(=O)[O-])ccc6F)c6ccc3[nH]6)C=C5)C=C4)cc2)ccc1NC(=O)N1C[C@@H](C)[C@H](C)C1
REMARK SMILES IDX 10 1 9 2 8 3 7 4 5 5 6 6 4 8 1 9 2 10 3 11 79 12 78 13 77 14
REMARK SMILES IDX 80 15 81 16 82 18 83 19 84 20 89 21 85 22 87 23 86 24 88 25
REMARK SMILES IDX 11 26 12 27 13 29 14 30 15 31 76 32 16 33 75 34 17 35 18 36
REMARK SMILES IDX 19 37 69 38 20 39 74 40 68 41 70 42 21 43 73 44 67 45 66 46
REMARK SMILES IDX 22 48 54 49 34 50 53 51 35 52 38 53 52 54 71 55 36 56 37 57
REMARK SMILES IDX 51 59 72 60 39 61 23 62 24 63 32 64 25 65 31 66 33 67 30 68
REMARK SMILES IDX 26 69 27 70 28 71 29 72 55 73 56 74 64 75 57 76 63 77 65 78
REMARK SMILES IDX 62 79 58 80 59 81 60 82 61 83 40 84 41 85 49 86 42 87 48 88
REMARK SMILES IDX 50 89 47 90 43 91 44 92 45 93 46 94
REMARK H PARENT 7 7 80 17 11 28 70 47 38 58
REMARK Flexibility Score: inf
ROOT
ATOM      1  C   UNL A   1      39.331  21.974  26.666  1.00  0.00     0.118 C 
ENDROOT
BRANCH   1   2
ATOM      2  C   UNL A   1      38.568  21.852  25.368  1.00  0.00     0.042 C 
BRANCH   2   3
ATOM      3  C   UNL A   1      37.074  21.753  25.529  1.00  0.00     0.118 C 
BRANCH   3   4
ATOM      4  N   UNL A   1      36.391  20.487  25.240  1.00  0.00    -0.352 N 
ATOM      5  C   UNL A   1      35.040  20.278  24.929  1.00  0.00     0.251 C 
ATOM      6  O   UNL A   1      34.608  19.148  24.716  1.00  0.00    -0.269 OA
ATOM      7  H   UNL A   1      36.954  19.680  25.267  1.00  0.00     0.163 HD
BRANCH   5   8
ATOM      8  C   UNL A   1      34.079  21.423  24.951  1.00  0.00     0.040 A 
ATOM      9  C   UNL A   1      31.749  23.430  22.731  1.00  0.00     0.046 C 
ATOM     10  C   UNL A   1      32.310  22.812  23.980  1.00  0.00    -0.027 A 
ATOM     11  C   UNL A   1      33.398  21.901  23.827  1.00  0.00     0.019 A 
ATOM     12  C   UNL A   1      31.808  23.044  25.279  1.00  0.00     0.045 A 
ATOM     13  C   UNL A   1      32.469  22.432  26.317  1.00  0.00     0.027 A 
ATOM     14  C   UNL A   1      33.747  21.971  26.160  1.00  0.00     0.016 A 
BRANCH  12  15
ATOM     15  N   UNL A   1      30.687  23.853  25.565  1.00  0.00    -0.308 N 
ATOM     16  C   UNL A   1      30.584  25.160  25.969  1.00  0.00     0.321 C 
ATOM     17  H   UNL A   1      29.821  23.396  25.455  1.00  0.00     0.171 HD
ATOM     18  O   UNL A   1      29.535  25.504  26.523  1.00  0.00    -0.248 OA
ATOM     19  N   UNL A   1      31.629  26.035  25.838  1.00  0.00    -0.324 N 
ATOM     20  C   UNL A   1      31.956  26.972  26.903  1.00  0.00     0.125 C 
ATOM     21  C   UNL A   1      32.328  26.403  24.599  1.00  0.00     0.125 C 
ATOM     22  C   UNL A   1      32.788  28.072  26.238  1.00  0.00     0.010 C 
ATOM     23  C   UNL A   1      33.458  27.333  25.066  1.00  0.00     0.010 C 
ATOM     24  C   UNL A   1      33.767  28.740  27.192  1.00  0.00     0.010 C 
ATOM     25  C   UNL A   1      33.968  28.251  23.963  1.00  0.00     0.010 C 
ENDBRANCH  12  15
ENDBRANCH   5   8
ENDBRANCH   3   4
ENDBRANCH   2   3
ENDBRANCH   1   2
BRANCH   1  26
ATOM     26  N   UNL A   1      40.712  22.470  26.525  1.00  0.00    -0.352 N 
ATOM     27  C   UNL A   1      41.200  23.771  26.420  1.00  0.00     0.251 C 
ATOM     28  H   UNL A   1      41.402  21.768  26.499  1.00  0.00     0.163 HD
ATOM     29  O   UNL A   1      42.403  24.012  26.391  1.00  0.00    -0.269 OA
BRANCH  27  30
ATOM     30  C   UNL A   1      40.248  24.912  26.499  1.00  0.00     0.039 A 
ATOM     31  C   UNL A   1      40.748  26.136  26.041  1.00  0.00     0.014 A 
ATOM     32  C   UNL A   1      39.278  24.873  27.484  1.00  0.00     0.014 A 
ATOM     33  C   UNL A   1      40.643  27.243  26.870  1.00  0.00     0.010 A 
ATOM     34  C   UNL A   1      39.318  25.908  28.393  1.00  0.00     0.010 A 
ATOM     35  C   UNL A   1      40.079  27.050  28.123  1.00  0.00    -0.014 A 
BRANCH  35  36
ATOM     36  C   UNL A   1      40.148  28.013  29.203  1.00  0.00     0.031 A 
ATOM     37  C   UNL A   1      39.193  29.123  29.119  1.00  0.00     0.074 A 
ATOM     38  C   UNL A   1      41.006  27.871  30.237  1.00  0.00     0.049 A 
ATOM     39  N   UNL A   1      39.387  30.294  29.600  1.00  0.00    -0.248 NA
ATOM     40  C   UNL A   1      37.948  29.009  28.363  1.00  0.00     0.031 C 
ATOM     41  C   UNL A   1      41.058  28.649  31.472  1.00  0.00     0.029 A 
ATOM     42  N   UNL A   1      42.163  27.096  30.273  1.00  0.00    -0.354 N 
ATOM     43  C   UNL A   1      38.199  30.981  29.491  1.00  0.00     0.074 A 
ATOM     44  C   UNL A   1      37.390  30.192  28.603  1.00  0.00     0.031 C 
ATOM     45  C   UNL A   1      42.282  28.525  32.015  1.00  0.00     0.029 A 
ATOM     46  C   UNL A   1      43.103  27.780  31.078  1.00  0.00     0.049 A 
ATOM     47  H   UNL A   1      42.301  26.233  29.823  1.00  0.00     0.167 HD
ATOM     48  C   UNL A   1      37.993  32.053  30.302  1.00  0.00     0.034 A 
ATOM     49  C   UNL A   1      44.267  28.228  30.516  1.00  0.00     0.034 A 
ATOM     50  C   UNL A   1      39.210  32.336  31.076  1.00  0.00     0.049 A 
ATOM     51  C   UNL A   1      44.303  29.745  30.375  1.00  0.00     0.074 A 
ATOM     52  C   UNL A   1      39.620  32.028  32.364  1.00  0.00     0.029 A 
ATOM     53  N   UNL A   1      40.364  32.690  30.390  1.00  0.00    -0.354 N 
ATOM     54  N   UNL A   1      43.346  30.555  30.747  1.00  0.00    -0.248 NA
ATOM     55  C   UNL A   1      45.401  30.454  29.723  1.00  0.00     0.031 C 
ATOM     56  C   UNL A   1      41.044  32.150  32.416  1.00  0.00     0.029 A 
ATOM     57  C   UNL A   1      41.494  32.582  31.181  1.00  0.00     0.049 A 
ATOM     58  H   UNL A   1      40.376  32.982  29.451  1.00  0.00     0.167 HD
ATOM     59  C   UNL A   1      43.638  31.840  30.363  1.00  0.00     0.074 A 
ATOM     60  C   UNL A   1      44.931  31.713  29.701  1.00  0.00     0.031 C 
ATOM     61  C   UNL A   1      42.791  32.898  30.589  1.00  0.00     0.034 A 
BRANCH  48  62
ATOM     62  C   UNL A   1      36.632  32.639  30.611  1.00  0.00     0.023 A 
ATOM     63  C   UNL A   1      35.968  33.349  29.592  1.00  0.00     0.031 A 
ATOM     64  C   UNL A   1      35.954  32.609  31.850  1.00  0.00     0.131 A 
ATOM     65  C   UNL A   1      34.771  34.046  29.838  1.00  0.00     0.055 A 
ATOM     66  C   UNL A   1      34.788  33.342  32.111  1.00  0.00     0.041 A 
ATOM     67  F   UNL A   1      36.338  31.826  32.862  1.00  0.00    -0.206 F 
ATOM     68  C   UNL A   1      34.192  34.074  31.102  1.00  0.00     0.022 A 
BRANCH  65  69
ATOM     69  S   UNL A   1      33.972  34.921  28.469  1.00  0.00     0.124 S 
ATOM     70  O   UNL A   1      32.648  34.307  28.446  1.00  0.00    -0.237 OA
ATOM     71  O   UNL A   1      34.036  36.310  28.913  1.00  0.00    -0.237 OA
ATOM     72  O   UNL A   1      34.821  34.602  27.323  1.00  0.00    -0.744 OA
ENDBRANCH  65  69
ENDBRANCH  48  62
BRANCH  49  73
ATOM     73  C   UNL A   1      44.794  27.229  29.524  1.00  0.00     0.023 A 
ATOM     74  C   UNL A   1      44.565  27.520  28.155  1.00  0.00     0.031 A 
ATOM     75  C   UNL A   1      45.904  26.440  29.849  1.00  0.00     0.131 A 
ATOM     76  C   UNL A   1      45.578  27.275  27.214  1.00  0.00     0.055 A 
ATOM     77  C   UNL A   1      46.870  26.133  28.886  1.00  0.00     0.041 A 
ATOM     78  F   UNL A   1      46.162  26.107  31.121  1.00  0.00    -0.206 F 
ATOM     79  C   UNL A   1      46.753  26.622  27.586  1.00  0.00     0.022 A 
BRANCH  76  80
ATOM     80  S   UNL A   1      45.486  28.081  25.586  1.00  0.00     0.124 S 
ATOM     81  O   UNL A   1      45.695  29.484  25.921  1.00  0.00    -0.237 OA
ATOM     82  O   UNL A   1      46.562  27.430  24.845  1.00  0.00    -0.237 OA
ATOM     83  O   UNL A   1      44.148  27.742  25.099  1.00  0.00    -0.744 OA
ENDBRANCH  76  80
ENDBRANCH  49  73
BRANCH  61  84
ATOM     84  C   UNL A   1      43.098  34.342  30.221  1.00  0.00     0.023 A 
ATOM     85  C   UNL A   1      43.111  34.787  28.894  1.00  0.00     0.031 A 
ATOM     86  C   UNL A   1      43.441  35.325  31.183  1.00  0.00     0.131 A 
ATOM     87  C   UNL A   1      43.268  36.146  28.578  1.00  0.00     0.055 A 
ATOM     88  C   UNL A   1      43.679  36.665  30.863  1.00  0.00     0.041 A 
ATOM     89  F   UNL A   1      43.559  35.050  32.489  1.00  0.00    -0.206 F 
ATOM     90  C   UNL A   1      43.557  37.093  29.553  1.00  0.00     0.022 A 
BRANCH  87  91
ATOM     91  S   UNL A   1      43.009  36.658  26.863  1.00  0.00     0.124 S 
ATOM     92  O   UNL A   1      42.602  35.407  26.220  1.00  0.00    -0.237 OA
ATOM     93  O   UNL A   1      41.948  37.657  27.013  1.00  0.00    -0.237 OA
ATOM     94  O   UNL A   1      44.301  37.177  26.455  1.00  0.00    -0.744 OA
ENDBRANCH  87  91
ENDBRANCH  61  84
ENDBRANCH  35  36
ENDBRANCH  27  30
ENDBRANCH   1  26
TORSDOF 14
ENDMDL
