MODEL 1
REMARK VINA RESULT:     -11.9      0.000      0.000
REMARK SMILES Cc1csc2nc(C(=O)NCCCNC(=O)c3ccc(-c4c5nc(c(-c6cc(S(=O)(=O)[O-])ccc6F)c6ccc([nH]6)c(-c6cc(S(=O)(=O)[O-])ccc6F)c6nc(c(-c7cc(S(=O)(=O)[O-])ccc7F)c7ccc4[nH]7)C=C6)C=C5)cc3)cn12
REMARK SMILES IDX 14 1 15 2 16 3 13 5 12 6 11 7 10 8 8 9 9 10 7 12 1 13 2 14
REMARK SMILES IDX 3 15 81 16 4 17 5 18 80 19 6 20 17 21 18 22 79 23 19 24
REMARK SMILES IDX 78 25 20 26 21 27 22 28 72 29 23 30 77 31 71 32 73 33 24 34
REMARK SMILES IDX 76 35 70 36 69 37 25 39 57 40 37 41 56 42 38 43 41 44 55 45
REMARK SMILES IDX 74 46 39 47 40 48 54 50 75 51 42 52 26 53 27 54 35 55 28 56
REMARK SMILES IDX 34 57 36 58 33 59 29 60 30 61 31 62 32 63 58 64 59 65 67 66
REMARK SMILES IDX 60 67 66 68 68 69 65 70 61 71 62 72 63 73 64 74 43 75 44 76
REMARK SMILES IDX 52 77 45 78 51 79 53 80 50 81 46 82 47 83 48 84 49 85
REMARK H PARENT 14 4 10 11 73 38 41 49
REMARK Flexibility Score: inf
ROOT
ATOM      1  N   UNL A   1      35.491  29.947  29.289  1.00  0.00    -0.352 N 
ATOM      2  C   UNL A   1      36.466  29.542  30.188  1.00  0.00     0.251 C 
ATOM      3  O   UNL A   1      36.291  29.660  31.388  1.00  0.00    -0.269 OA
ATOM      4  H   UNL A   1      34.818  30.572  29.644  1.00  0.00     0.163 HD
ENDROOT
BRANCH   1   5
ATOM      5  C   UNL A   1      35.326  29.571  27.878  1.00  0.00     0.118 C 
BRANCH   5   6
ATOM      6  C   UNL A   1      34.425  30.536  27.118  1.00  0.00     0.042 C 
BRANCH   6   7
ATOM      7  C   UNL A   1      33.714  31.507  28.065  1.00  0.00     0.118 C 
BRANCH   7   8
ATOM      8  N   UNL A   1      33.881  32.900  27.677  1.00  0.00    -0.351 N 
ATOM      9  C   UNL A   1      34.448  33.943  28.374  1.00  0.00     0.271 C 
ATOM     10  O   UNL A   1      34.599  35.020  27.798  1.00  0.00    -0.267 OA
ATOM     11  H   UNL A   1      33.538  33.131  26.784  1.00  0.00     0.163 HD
BRANCH   9  12
ATOM     12  C   UNL A   1      34.886  33.753  29.763  1.00  0.00     0.148 A 
ATOM     13  C   UNL A   1      38.393  32.499  32.288  1.00  0.00     0.066 C 
ATOM     14  C   UNL A   1      36.977  32.878  32.523  1.00  0.00     0.032 A 
ATOM     15  C   UNL A   1      36.335  32.896  33.709  1.00  0.00     0.090 A 
ATOM     16  N   UNL A   1      36.127  33.254  31.497  1.00  0.00    -0.294 N 
ATOM     17  S   UNL A   1      34.645  33.409  33.587  1.00  0.00    -0.105 S 
ATOM     18  C   UNL A   1      34.861  33.577  31.876  1.00  0.00     0.194 A 
ATOM     19  C   UNL A   1      36.178  33.382  30.143  1.00  0.00     0.128 A 
ATOM     20  N   UNL A   1      34.079  33.905  30.890  1.00  0.00    -0.214 NA
ENDBRANCH   9  12
ENDBRANCH   7   8
ENDBRANCH   6   7
ENDBRANCH   5   6
ENDBRANCH   1   5
BRANCH   2  21
ATOM     21  C   UNL A   1      37.716  28.966  29.655  1.00  0.00     0.039 A 
ATOM     22  C   UNL A   1      38.321  29.455  28.492  1.00  0.00     0.014 A 
ATOM     23  C   UNL A   1      38.302  27.933  30.379  1.00  0.00     0.014 A 
ATOM     24  C   UNL A   1      39.572  28.956  28.127  1.00  0.00     0.010 A 
ATOM     25  C   UNL A   1      39.597  27.577  30.124  1.00  0.00     0.010 A 
ATOM     26  C   UNL A   1      40.216  28.033  28.967  1.00  0.00    -0.014 A 
BRANCH  26  27
ATOM     27  C   UNL A   1      41.599  27.619  28.751  1.00  0.00     0.031 A 
ATOM     28  C   UNL A   1      41.745  26.370  27.958  1.00  0.00     0.074 A 
ATOM     29  C   UNL A   1      42.645  28.436  29.014  1.00  0.00     0.049 A 
ATOM     30  N   UNL A   1      42.194  25.235  28.373  1.00  0.00    -0.248 NA
ATOM     31  C   UNL A   1      41.180  26.313  26.600  1.00  0.00     0.031 C 
ATOM     32  C   UNL A   1      42.610  29.804  29.548  1.00  0.00     0.029 A 
ATOM     33  N   UNL A   1      43.966  28.271  28.732  1.00  0.00    -0.354 N 
ATOM     34  C   UNL A   1      42.214  24.396  27.265  1.00  0.00     0.074 A 
ATOM     35  C   UNL A   1      41.378  25.031  26.282  1.00  0.00     0.031 C 
ATOM     36  C   UNL A   1      43.791  30.415  29.315  1.00  0.00     0.029 A 
ATOM     37  C   UNL A   1      44.720  29.446  28.761  1.00  0.00     0.049 A 
ATOM     38  H   UNL A   1      44.359  27.392  28.524  1.00  0.00     0.167 HD
ATOM     39  C   UNL A   1      43.120  23.383  27.172  1.00  0.00     0.034 A 
ATOM     40  C   UNL A   1      46.005  29.623  28.340  1.00  0.00     0.034 A 
ATOM     41  C   UNL A   1      43.769  23.160  28.447  1.00  0.00     0.049 A 
ATOM     42  C   UNL A   1      46.636  28.278  28.356  1.00  0.00     0.074 A 
ATOM     43  C   UNL A   1      43.318  22.841  29.714  1.00  0.00     0.029 A 
ATOM     44  N   UNL A   1      45.033  23.683  28.624  1.00  0.00    -0.354 N 
ATOM     45  N   UNL A   1      46.830  27.603  29.457  1.00  0.00    -0.248 NA
ATOM     46  C   UNL A   1      46.553  27.465  27.149  1.00  0.00     0.031 C 
ATOM     47  C   UNL A   1      44.091  23.658  30.590  1.00  0.00     0.029 A 
ATOM     48  C   UNL A   1      45.045  24.341  29.830  1.00  0.00     0.049 A 
ATOM     49  H   UNL A   1      45.789  23.599  28.000  1.00  0.00     0.167 HD
ATOM     50  C   UNL A   1      46.420  26.310  29.162  1.00  0.00     0.074 A 
ATOM     51  C   UNL A   1      46.370  26.258  27.699  1.00  0.00     0.031 C 
ATOM     52  C   UNL A   1      45.867  25.505  30.119  1.00  0.00     0.034 A 
BRANCH  39  53
ATOM     53  C   UNL A   1      43.703  22.833  25.889  1.00  0.00     0.023 A 
ATOM     54  C   UNL A   1      43.797  21.431  25.778  1.00  0.00     0.031 A 
ATOM     55  C   UNL A   1      44.416  23.573  24.921  1.00  0.00     0.131 A 
ATOM     56  C   UNL A   1      44.646  20.834  24.832  1.00  0.00     0.055 A 
ATOM     57  C   UNL A   1      45.205  22.972  23.935  1.00  0.00     0.041 A 
ATOM     58  F   UNL A   1      44.475  24.909  24.929  1.00  0.00    -0.206 F 
ATOM     59  C   UNL A   1      45.352  21.596  23.907  1.00  0.00     0.022 A 
BRANCH  56  60
ATOM     60  S   UNL A   1      44.954  19.054  24.957  1.00  0.00     0.124 S 
ATOM     61  O   UNL A   1      44.964  18.658  23.553  1.00  0.00    -0.237 OA
ATOM     62  O   UNL A   1      46.240  19.020  25.647  1.00  0.00    -0.237 OA
ATOM     63  O   UNL A   1      43.817  18.567  25.735  1.00  0.00    -0.744 OA
ENDBRANCH  56  60
ENDBRANCH  39  53
BRANCH  40  64
ATOM     64  C   UNL A   1      46.602  30.827  27.684  1.00  0.00     0.023 A 
ATOM     65  C   UNL A   1      45.877  31.709  26.847  1.00  0.00     0.031 A 
ATOM     66  C   UNL A   1      47.889  31.261  28.079  1.00  0.00     0.131 A 
ATOM     67  C   UNL A   1      46.442  32.948  26.447  1.00  0.00     0.055 A 
ATOM     68  C   UNL A   1      48.442  32.480  27.681  1.00  0.00     0.041 A 
ATOM     69  F   UNL A   1      48.627  30.548  28.945  1.00  0.00    -0.206 F 
ATOM     70  C   UNL A   1      47.716  33.336  26.870  1.00  0.00     0.022 A 
BRANCH  67  71
ATOM     71  S   UNL A   1      45.493  34.138  25.437  1.00  0.00     0.124 S 
ATOM     72  O   UNL A   1      44.668  33.263  24.613  1.00  0.00    -0.237 OA
ATOM     73  O   UNL A   1      44.796  34.926  26.448  1.00  0.00    -0.237 OA
ATOM     74  O   UNL A   1      46.529  34.871  24.705  1.00  0.00    -0.744 OA
ENDBRANCH  67  71
ENDBRANCH  40  64
BRANCH  52  75
ATOM     75  C   UNL A   1      45.927  25.958  31.569  1.00  0.00     0.023 A 
ATOM     76  C   UNL A   1      44.838  26.493  32.297  1.00  0.00     0.031 A 
ATOM     77  C   UNL A   1      47.118  25.716  32.275  1.00  0.00     0.131 A 
ATOM     78  C   UNL A   1      44.975  26.781  33.671  1.00  0.00     0.055 A 
ATOM     79  C   UNL A   1      47.241  25.974  33.639  1.00  0.00     0.041 A 
ATOM     80  F   UNL A   1      48.182  25.183  31.652  1.00  0.00    -0.206 F 
ATOM     81  C   UNL A   1      46.172  26.516  34.342  1.00  0.00     0.022 A 
BRANCH  78  82
ATOM     82  S   UNL A   1      43.602  27.532  34.607  1.00  0.00     0.124 S 
ATOM     83  O   UNL A   1      43.396  28.813  33.942  1.00  0.00    -0.237 OA
ATOM     84  O   UNL A   1      42.533  26.549  34.449  1.00  0.00    -0.237 OA
ATOM     85  O   UNL A   1      44.135  27.634  35.968  1.00  0.00    -0.744 OA
ENDBRANCH  78  82
ENDBRANCH  52  75
ENDBRANCH  26  27
ENDBRANCH   2  21
TORSDOF 13
ENDMDL
MODEL 2
REMARK VINA RESULT:     -11.9      1.401      2.374
REMARK SMILES Cc1csc2nc(C(=O)NCCCNC(=O)c3ccc(-c4c5nc(c(-c6cc(S(=O)(=O)[O-])ccc6F)c6ccc([nH]6)c(-c6cc(S(=O)(=O)[O-])ccc6F)c6nc(c(-c7cc(S(=O)(=O)[O-])ccc7F)c7ccc4[nH]7)C=C6)C=C5)cc3)cn12
REMARK SMILES IDX 14 1 15 2 16 3 13 5 12 6 11 7 10 8 8 9 9 10 7 12 1 13 2 14
REMARK SMILES IDX 3 15 81 16 4 17 5 18 80 19 6 20 17 21 18 22 79 23 19 24
REMARK SMILES IDX 78 25 20 26 21 27 22 28 72 29 23 30 77 31 71 32 73 33 24 34
REMARK SMILES IDX 76 35 70 36 69 37 25 39 57 40 37 41 56 42 38 43 41 44 55 45
REMARK SMILES IDX 74 46 39 47 40 48 54 50 75 51 42 52 26 53 27 54 35 55 28 56
REMARK SMILES IDX 34 57 36 58 33 59 29 60 30 61 31 62 32 63 58 64 59 65 67 66
REMARK SMILES IDX 60 67 66 68 68 69 65 70 61 71 62 72 63 73 64 74 43 75 44 76
REMARK SMILES IDX 52 77 45 78 51 79 53 80 50 81 46 82 47 83 48 84 49 85
REMARK H PARENT 14 4 10 11 73 38 41 49
REMARK Flexibility Score: inf
ROOT
ATOM      1  N   UNL A   1      36.250  30.325  30.041  1.00  0.00    -0.352 N 
ATOM      2  C   UNL A   1      36.412  29.628  28.854  1.00  0.00     0.251 C 
ATOM      3  O   UNL A   1      35.483  29.500  28.077  1.00  0.00    -0.269 OA
ATOM      4  H   UNL A   1      35.319  30.445  30.341  1.00  0.00     0.163 HD
ENDROOT
BRANCH   1   5
ATOM      5  C   UNL A   1      37.277  30.908  30.915  1.00  0.00     0.118 C 
BRANCH   5   6
ATOM      6  C   UNL A   1      37.128  30.469  32.366  1.00  0.00     0.042 C 
BRANCH   6   7
ATOM      7  C   UNL A   1      36.661  31.623  33.259  1.00  0.00     0.118 C 
BRANCH   7   8
ATOM      8  N   UNL A   1      37.625  32.711  33.327  1.00  0.00    -0.351 N 
ATOM      9  C   UNL A   1      37.444  34.059  33.112  1.00  0.00     0.271 C 
ATOM     10  O   UNL A   1      38.379  34.822  33.351  1.00  0.00    -0.267 OA
ATOM     11  H   UNL A   1      38.543  32.444  33.562  1.00  0.00     0.163 HD
BRANCH   9  12
ATOM     12  C   UNL A   1      36.149  34.565  32.638  1.00  0.00     0.148 A 
ATOM     13  C   UNL A   1      33.366  34.573  29.102  1.00  0.00     0.066 C 
ATOM     14  C   UNL A   1      33.415  35.222  30.437  1.00  0.00     0.032 A 
ATOM     15  C   UNL A   1      32.526  36.107  30.934  1.00  0.00     0.090 A 
ATOM     16  N   UNL A   1      34.434  34.984  31.344  1.00  0.00    -0.294 N 
ATOM     17  S   UNL A   1      32.921  36.658  32.569  1.00  0.00    -0.105 S 
ATOM     18  C   UNL A   1      34.331  35.651  32.525  1.00  0.00     0.194 A 
ATOM     19  C   UNL A   1      35.583  34.258  31.398  1.00  0.00     0.128 A 
ATOM     20  N   UNL A   1      35.312  35.425  33.349  1.00  0.00    -0.214 NA
ENDBRANCH   9  12
ENDBRANCH   7   8
ENDBRANCH   6   7
ENDBRANCH   5   6
ENDBRANCH   1   5
BRANCH   2  21
ATOM     21  C   UNL A   1      37.737  29.047  28.557  1.00  0.00     0.039 A 
ATOM     22  C   UNL A   1      38.527  29.506  27.498  1.00  0.00     0.014 A 
ATOM     23  C   UNL A   1      38.197  28.044  29.402  1.00  0.00     0.014 A 
ATOM     24  C   UNL A   1      39.824  29.008  27.364  1.00  0.00     0.010 A 
ATOM     25  C   UNL A   1      39.518  27.693  29.380  1.00  0.00     0.010 A 
ATOM     26  C   UNL A   1      40.321  28.119  28.329  1.00  0.00    -0.014 A 
BRANCH  26  27
ATOM     27  C   UNL A   1      41.723  27.712  28.363  1.00  0.00     0.031 A 
ATOM     28  C   UNL A   1      42.018  26.478  27.587  1.00  0.00     0.074 A 
ATOM     29  C   UNL A   1      42.698  28.527  28.826  1.00  0.00     0.049 A 
ATOM     30  N   UNL A   1      42.390  25.336  28.058  1.00  0.00    -0.248 NA
ATOM     31  C   UNL A   1      41.710  26.445  26.148  1.00  0.00     0.031 C 
ATOM     32  C   UNL A   1      42.559  29.884  29.368  1.00  0.00     0.029 A 
ATOM     33  N   UNL A   1      44.050  28.369  28.787  1.00  0.00    -0.354 N 
ATOM     34  C   UNL A   1      42.617  24.518  26.957  1.00  0.00     0.074 A 
ATOM     35  C   UNL A   1      41.970  25.170  25.849  1.00  0.00     0.031 C 
ATOM     36  C   UNL A   1      43.760  30.502  29.366  1.00  0.00     0.029 A 
ATOM     37  C   UNL A   1      44.780  29.546  28.974  1.00  0.00     0.049 A 
ATOM     38  H   UNL A   1      44.479  27.496  28.639  1.00  0.00     0.167 HD
ATOM     39  C   UNL A   1      43.530  23.509  27.013  1.00  0.00     0.034 A 
ATOM     40  C   UNL A   1      46.118  29.733  28.798  1.00  0.00     0.034 A 
ATOM     41  C   UNL A   1      43.936  23.265  28.381  1.00  0.00     0.049 A 
ATOM     42  C   UNL A   1      46.743  28.389  28.905  1.00  0.00     0.074 A 
ATOM     43  C   UNL A   1      43.263  22.921  29.538  1.00  0.00     0.029 A 
ATOM     44  N   UNL A   1      45.144  23.787  28.795  1.00  0.00    -0.354 N 
ATOM     45  N   UNL A   1      46.737  27.695  30.011  1.00  0.00    -0.248 NA
ATOM     46  C   UNL A   1      46.887  27.598  27.689  1.00  0.00     0.031 C 
ATOM     47  C   UNL A   1      43.860  23.724  30.555  1.00  0.00     0.029 A 
ATOM     48  C   UNL A   1      44.932  24.423  29.994  1.00  0.00     0.049 A 
ATOM     49  H   UNL A   1      46.002  23.716  28.318  1.00  0.00     0.167 HD
ATOM     50  C   UNL A   1      46.396  26.407  29.623  1.00  0.00     0.074 A 
ATOM     51  C   UNL A   1      46.613  26.382  28.175  1.00  0.00     0.031 C 
ATOM     52  C   UNL A   1      45.681  25.583  30.449  1.00  0.00     0.034 A 
BRANCH  39  53
ATOM     53  C   UNL A   1      44.340  22.984  25.848  1.00  0.00     0.023 A 
ATOM     54  C   UNL A   1      44.379  21.586  25.674  1.00  0.00     0.031 A 
ATOM     55  C   UNL A   1      45.281  23.721  25.098  1.00  0.00     0.131 A 
ATOM     56  C   UNL A   1      45.375  20.980  24.892  1.00  0.00     0.055 A 
ATOM     57  C   UNL A   1      46.227  23.117  24.262  1.00  0.00     0.041 A 
ATOM     58  F   UNL A   1      45.410  25.049  25.199  1.00  0.00    -0.206 F 
ATOM     59  C   UNL A   1      46.301  21.737  24.182  1.00  0.00     0.022 A 
BRANCH  56  60
ATOM     60  S   UNL A   1      45.552  19.180  24.970  1.00  0.00     0.124 S 
ATOM     61  O   UNL A   1      44.315  18.792  25.640  1.00  0.00    -0.237 OA
ATOM     62  O   UNL A   1      45.659  18.827  23.558  1.00  0.00    -0.237 OA
ATOM     63  O   UNL A   1      46.772  18.993  25.753  1.00  0.00    -0.744 OA
ENDBRANCH  56  60
ENDBRANCH  39  53
BRANCH  40  64
ATOM     64  C   UNL A   1      46.819  30.950  28.283  1.00  0.00     0.023 A 
ATOM     65  C   UNL A   1      46.283  31.807  27.292  1.00  0.00     0.031 A 
ATOM     66  C   UNL A   1      47.968  31.422  28.959  1.00  0.00     0.131 A 
ATOM     67  C   UNL A   1      46.892  33.060  27.019  1.00  0.00     0.055 A 
ATOM     68  C   UNL A   1      48.565  32.655  28.685  1.00  0.00     0.041 A 
ATOM     69  F   UNL A   1      48.506  30.735  29.980  1.00  0.00    -0.206 F 
ATOM     70  C   UNL A   1      48.023  33.485  27.719  1.00  0.00     0.022 A 
BRANCH  67  71
ATOM     71  S   UNL A   1      46.169  34.218  25.805  1.00  0.00     0.124 S 
ATOM     72  O   UNL A   1      47.326  34.592  25.000  1.00  0.00    -0.237 OA
ATOM     73  O   UNL A   1      45.158  33.397  25.148  1.00  0.00    -0.237 OA
ATOM     74  O   UNL A   1      45.628  35.295  26.637  1.00  0.00    -0.744 OA
ENDBRANCH  67  71
ENDBRANCH  40  64
BRANCH  52  75
ATOM     75  C   UNL A   1      45.473  26.010  31.893  1.00  0.00     0.023 A 
ATOM     76  C   UNL A   1      44.324  26.673  32.386  1.00  0.00     0.031 A 
ATOM     77  C   UNL A   1      46.438  25.609  32.833  1.00  0.00     0.131 A 
ATOM     78  C   UNL A   1      44.186  26.926  33.766  1.00  0.00     0.055 A 
ATOM     79  C   UNL A   1      46.286  25.835  34.200  1.00  0.00     0.041 A 
ATOM     80  F   UNL A   1      47.540  24.949  32.438  1.00  0.00    -0.206 F 
ATOM     81  C   UNL A   1      45.163  26.503  34.672  1.00  0.00     0.022 A 
BRANCH  78  82
ATOM     82  S   UNL A   1      42.743  27.838  34.407  1.00  0.00     0.124 S 
ATOM     83  O   UNL A   1      42.296  27.022  35.529  1.00  0.00    -0.237 OA
ATOM     84  O   UNL A   1      43.314  29.138  34.749  1.00  0.00    -0.237 OA
ATOM     85  O   UNL A   1      41.822  27.861  33.268  1.00  0.00    -0.744 OA
ENDBRANCH  78  82
ENDBRANCH  52  75
ENDBRANCH  26  27
ENDBRANCH   2  21
TORSDOF 13
ENDMDL
MODEL 3
REMARK VINA RESULT:     -11.8      3.736     12.306
REMARK SMILES Cc1csc2nc(C(=O)NCCCNC(=O)c3ccc(-c4c5nc(c(-c6cc(S(=O)(=O)[O-])ccc6F)c6ccc([nH]6)c(-c6cc(S(=O)(=O)[O-])ccc6F)c6nc(c(-c7cc(S(=O)(=O)[O-])ccc7F)c7ccc4[nH]7)C=C6)C=C5)cc3)cn12
REMARK SMILES IDX 14 1 15 2 16 3 13 5 12 6 11 7 10 8 8 9 9 10 7 12 1 13 2 14
REMARK SMILES IDX 3 15 81 16 4 17 5 18 80 19 6 20 17 21 18 22 79 23 19 24
REMARK SMILES IDX 78 25 20 26 21 27 22 28 72 29 23 30 77 31 71 32 73 33 24 34
REMARK SMILES IDX 76 35 70 36 69 37 25 39 57 40 37 41 56 42 38 43 41 44 55 45
REMARK SMILES IDX 74 46 39 47 40 48 54 50 75 51 42 52 26 53 27 54 35 55 28 56
REMARK SMILES IDX 34 57 36 58 33 59 29 60 30 61 31 62 32 63 58 64 59 65 67 66
REMARK SMILES IDX 60 67 66 68 68 69 65 70 61 71 62 72 63 73 64 74 43 75 44 76
REMARK SMILES IDX 52 77 45 78 51 79 53 80 50 81 46 82 47 83 48 84 49 85
REMARK H PARENT 14 4 10 11 73 38 41 49
REMARK Flexibility Score: inf
ROOT
ATOM      1  N   UNL A   1      41.072  24.807  26.158  1.00  0.00    -0.352 N 
ATOM      2  C   UNL A   1      39.791  25.105  26.597  1.00  0.00     0.251 C 
ATOM      3  O   UNL A   1      38.834  24.467  26.197  1.00  0.00    -0.269 OA
ATOM      4  H   UNL A   1      41.126  24.280  25.328  1.00  0.00     0.163 HD
ENDROOT
BRANCH   1   5
ATOM      5  C   UNL A   1      42.361  25.172  26.763  1.00  0.00     0.118 C 
BRANCH   5   6
ATOM      6  C   UNL A   1      43.183  26.096  25.873  1.00  0.00     0.042 C 
BRANCH   6   7
ATOM      7  C   UNL A   1      44.313  25.340  25.168  1.00  0.00     0.118 C 
BRANCH   7   8
ATOM      8  N   UNL A   1      45.471  25.127  26.024  1.00  0.00    -0.351 N 
ATOM      9  C   UNL A   1      46.116  23.956  26.352  1.00  0.00     0.271 C 
ATOM     10  O   UNL A   1      47.162  24.024  26.997  1.00  0.00    -0.267 OA
ATOM     11  H   UNL A   1      45.849  25.941  26.428  1.00  0.00     0.163 HD
BRANCH   9  12
ATOM     12  C   UNL A   1      45.575  22.665  25.911  1.00  0.00     0.148 A 
ATOM     13  C   UNL A   1      41.943  20.017  26.143  1.00  0.00     0.066 C 
ATOM     14  C   UNL A   1      43.312  19.921  25.577  1.00  0.00     0.032 A 
ATOM     15  C   UNL A   1      43.852  18.854  24.952  1.00  0.00     0.090 A 
ATOM     16  N   UNL A   1      44.223  20.962  25.650  1.00  0.00    -0.294 N 
ATOM     17  S   UNL A   1      45.515  19.122  24.410  1.00  0.00    -0.105 S 
ATOM     18  C   UNL A   1      45.434  20.719  25.079  1.00  0.00     0.194 A 
ATOM     19  C   UNL A   1      44.277  22.217  26.173  1.00  0.00     0.128 A 
ATOM     20  N   UNL A   1      46.276  21.705  25.181  1.00  0.00    -0.214 NA
ENDBRANCH   9  12
ENDBRANCH   7   8
ENDBRANCH   6   7
ENDBRANCH   5   6
ENDBRANCH   1   5
BRANCH   2  21
ATOM     21  C   UNL A   1      39.618  26.212  27.560  1.00  0.00     0.039 A 
ATOM     22  C   UNL A   1      39.283  25.984  28.898  1.00  0.00     0.014 A 
ATOM     23  C   UNL A   1      39.844  27.502  27.094  1.00  0.00     0.014 A 
ATOM     24  C   UNL A   1      39.275  27.065  29.780  1.00  0.00     0.010 A 
ATOM     25  C   UNL A   1      40.012  28.524  27.986  1.00  0.00     0.010 A 
ATOM     26  C   UNL A   1      39.668  28.331  29.318  1.00  0.00    -0.014 A 
BRANCH  26  27
ATOM     27  C   UNL A   1      39.872  29.460  30.223  1.00  0.00     0.031 A 
ATOM     28  C   UNL A   1      38.643  30.251  30.495  1.00  0.00     0.074 A 
ATOM     29  C   UNL A   1      41.004  29.605  30.950  1.00  0.00     0.049 A 
ATOM     30  N   UNL A   1      38.409  31.468  30.138  1.00  0.00    -0.248 NA
ATOM     31  C   UNL A   1      37.473  29.579  31.083  1.00  0.00     0.031 C 
ATOM     32  C   UNL A   1      42.183  28.730  30.968  1.00  0.00     0.029 A 
ATOM     33  N   UNL A   1      41.290  30.496  31.938  1.00  0.00    -0.354 N 
ATOM     34  C   UNL A   1      37.173  31.800  30.680  1.00  0.00     0.074 A 
ATOM     35  C   UNL A   1      36.558  30.551  31.041  1.00  0.00     0.031 C 
ATOM     36  C   UNL A   1      42.922  28.983  32.070  1.00  0.00     0.029 A 
ATOM     37  C   UNL A   1      42.363  30.135  32.756  1.00  0.00     0.049 A 
ATOM     38  H   UNL A   1      40.782  31.329  32.065  1.00  0.00     0.167 HD
ATOM     39  C   UNL A   1      36.879  33.089  31.010  1.00  0.00     0.034 A 
ATOM     40  C   UNL A   1      42.754  30.719  33.924  1.00  0.00     0.034 A 
ATOM     41  C   UNL A   1      37.858  33.995  30.449  1.00  0.00     0.049 A 
ATOM     42  C   UNL A   1      42.207  32.101  33.901  1.00  0.00     0.074 A 
ATOM     43  C   UNL A   1      38.295  34.266  29.166  1.00  0.00     0.029 A 
ATOM     44  N   UNL A   1      38.846  34.471  31.286  1.00  0.00    -0.354 N 
ATOM     45  N   UNL A   1      42.596  32.999  33.036  1.00  0.00    -0.248 NA
ATOM     46  C   UNL A   1      40.878  32.323  34.455  1.00  0.00     0.031 C 
ATOM     47  C   UNL A   1      39.710  34.397  29.286  1.00  0.00     0.029 A 
ATOM     48  C   UNL A   1      40.049  34.315  30.639  1.00  0.00     0.049 A 
ATOM     49  H   UNL A   1      38.714  34.854  32.183  1.00  0.00     0.167 HD
ATOM     50  C   UNL A   1      41.425  33.596  32.590  1.00  0.00     0.074 A 
ATOM     51  C   UNL A   1      40.413  33.222  33.579  1.00  0.00     0.031 C 
ATOM     52  C   UNL A   1      41.314  34.073  31.312  1.00  0.00     0.034 A 
BRANCH  39  53
ATOM     53  C   UNL A   1      35.951  33.527  32.122  1.00  0.00     0.023 A 
ATOM     54  C   UNL A   1      34.771  34.199  31.743  1.00  0.00     0.031 A 
ATOM     55  C   UNL A   1      36.276  33.586  33.494  1.00  0.00     0.131 A 
ATOM     56  C   UNL A   1      34.047  34.969  32.667  1.00  0.00     0.055 A 
ATOM     57  C   UNL A   1      35.511  34.296  34.426  1.00  0.00     0.041 A 
ATOM     58  F   UNL A   1      37.394  33.051  33.998  1.00  0.00    -0.206 F 
ATOM     59  C   UNL A   1      34.409  35.022  34.010  1.00  0.00     0.022 A 
BRANCH  56  60
ATOM     60  S   UNL A   1      32.734  36.049  32.043  1.00  0.00     0.124 S 
ATOM     61  O   UNL A   1      33.008  36.045  30.610  1.00  0.00    -0.237 OA
ATOM     62  O   UNL A   1      31.533  35.340  32.472  1.00  0.00    -0.237 OA
ATOM     63  O   UNL A   1      32.987  37.317  32.724  1.00  0.00    -0.744 OA
ENDBRANCH  56  60
ENDBRANCH  39  53
BRANCH  40  64
ATOM     64  C   UNL A   1      43.328  30.060  35.137  1.00  0.00     0.023 A 
ATOM     65  C   UNL A   1      42.859  28.832  35.662  1.00  0.00     0.031 A 
ATOM     66  C   UNL A   1      44.543  30.543  35.676  1.00  0.00     0.131 A 
ATOM     67  C   UNL A   1      43.593  28.153  36.671  1.00  0.00     0.055 A 
ATOM     68  C   UNL A   1      45.260  29.873  36.670  1.00  0.00     0.041 A 
ATOM     69  F   UNL A   1      45.128  31.649  35.189  1.00  0.00    -0.206 F 
ATOM     70  C   UNL A   1      44.792  28.668  37.166  1.00  0.00     0.022 A 
BRANCH  67  71
ATOM     71  S   UNL A   1      43.050  26.527  37.302  1.00  0.00     0.124 S 
ATOM     72  O   UNL A   1      41.598  26.647  37.273  1.00  0.00    -0.237 OA
ATOM     73  O   UNL A   1      43.646  25.601  36.345  1.00  0.00    -0.237 OA
ATOM     74  O   UNL A   1      43.633  26.468  38.645  1.00  0.00    -0.744 OA
ENDBRANCH  67  71
ENDBRANCH  40  64
BRANCH  52  75
ATOM     75  C   UNL A   1      42.571  34.160  30.461  1.00  0.00     0.023 A 
ATOM     76  C   UNL A   1      42.961  33.204  29.493  1.00  0.00     0.031 A 
ATOM     77  C   UNL A   1      43.338  35.333  30.554  1.00  0.00     0.131 A 
ATOM     78  C   UNL A   1      44.090  33.436  28.680  1.00  0.00     0.055 A 
ATOM     79  C   UNL A   1      44.437  35.573  29.730  1.00  0.00     0.041 A 
ATOM     80  F   UNL A   1      43.007  36.295  31.432  1.00  0.00    -0.206 F 
ATOM     81  C   UNL A   1      44.823  34.621  28.794  1.00  0.00     0.022 A 
BRANCH  78  82
ATOM     82  S   UNL A   1      44.645  32.186  27.474  1.00  0.00     0.124 S 
ATOM     83  O   UNL A   1      44.354  32.802  26.186  1.00  0.00    -0.237 OA
ATOM     84  O   UNL A   1      46.059  32.030  27.804  1.00  0.00    -0.237 OA
ATOM     85  O   UNL A   1      43.817  31.019  27.790  1.00  0.00    -0.744 OA
ENDBRANCH  78  82
ENDBRANCH  52  75
ENDBRANCH  26  27
ENDBRANCH   2  21
TORSDOF 13
ENDMDL
