MODEL 1
REMARK VINA RESULT:     -14.4      0.000      0.000
REMARK SMILES O=C(NCCCNC(=O)c1ccc(N2C(=O)[C@@H]3N=NC(c4ccccc4)=C3[C@H]2c2cccc(Br)c2)cc1)c1ccc(-c2c3nc(c(-c4cc(S(=O)(=O)[O-])ccc4F)c4ccc([nH]4)c(-c4cc(S(=O)(=O)[O-])ccc4F)c4nc(c(-c5cc(S(=O)(=O)[O-])ccc5F)c5ccc2[nH]5)C=C4)C=C3)cc1
REMARK SMILES IDX 4 1 3 2 1 3 2 4 38 6 39 7 100 8 40 9 99 10 41 11 42 12 43 13
REMARK SMILES IDX 93 14 44 15 98 16 92 17 94 18 45 19 97 20 91 21 90 22 46 24
REMARK SMILES IDX 78 25 58 26 77 27 59 28 62 29 76 30 95 31 60 32 61 33 75 35
REMARK SMILES IDX 96 36 63 37 47 38 48 39 56 40 49 41 55 42 57 43 54 44 50 45
REMARK SMILES IDX 51 46 52 47 53 48 79 49 80 50 88 51 81 52 87 53 89 54 86 55
REMARK SMILES IDX 82 56 83 57 84 58 85 59 64 60 65 61 73 62 66 63 72 64 74 65
REMARK SMILES IDX 71 66 67 67 68 68 69 69 70 70 5 71 6 72 7 73 8 74 9 76 10 77
REMARK SMILES IDX 11 78 37 79 12 80 36 81 13 82 14 83 15 84 28 85 17 86 16 87
REMARK SMILES IDX 27 88 18 89 20 90 19 91 29 92 30 93 35 94 31 95 33 96 32 97
REMARK SMILES IDX 34 98 21 99 22 100 26 101 23 102 25 103 24 104
REMARK H PARENT 3 5 94 23 62 34 7 75
REMARK Flexibility Score: inf
ROOT
ATOM      1  C   UNL A   1      37.777  23.071  26.151  1.00  0.00     0.118 C 
ENDROOT
BRANCH   1   2
ATOM      2  N   UNL A   1      39.144  22.593  26.187  1.00  0.00    -0.352 N 
ATOM      3  O   UNL A   1      41.217  22.184  26.822  1.00  0.00    -0.269 OA
ATOM      4  C   UNL A   1      40.290  23.000  26.815  1.00  0.00     0.251 C 
ATOM      5  H   UNL A   1      39.281  21.792  25.632  1.00  0.00     0.163 HD
BRANCH   4   6
ATOM      6  C   UNL A   1      40.522  24.353  27.391  1.00  0.00     0.039 A 
ATOM      7  C   UNL A   1      41.609  24.744  28.175  1.00  0.00     0.014 A 
ATOM      8  C   UNL A   1      39.515  25.300  27.117  1.00  0.00     0.014 A 
ATOM      9  C   UNL A   1      41.637  26.020  28.748  1.00  0.00     0.010 A 
ATOM     10  C   UNL A   1      39.541  26.569  27.683  1.00  0.00     0.010 A 
ATOM     11  C   UNL A   1      40.588  26.921  28.531  1.00  0.00    -0.014 A 
BRANCH  11  12
ATOM     12  C   UNL A   1      40.697  28.297  29.026  1.00  0.00     0.031 A 
ATOM     13  C   UNL A   1      41.845  29.056  28.443  1.00  0.00     0.074 A 
ATOM     14  C   UNL A   1      39.761  28.913  29.781  1.00  0.00     0.049 A 
ATOM     15  N   UNL A   1      42.867  29.551  29.059  1.00  0.00    -0.248 NA
ATOM     16  C   UNL A   1      41.933  29.162  26.977  1.00  0.00     0.031 C 
ATOM     17  C   UNL A   1      38.458  28.388  30.196  1.00  0.00     0.029 A 
ATOM     18  N   UNL A   1      39.731  30.194  30.260  1.00  0.00    -0.354 N 
ATOM     19  C   UNL A   1      43.615  30.224  28.094  1.00  0.00     0.074 A 
ATOM     20  C   UNL A   1      43.096  29.796  26.823  1.00  0.00     0.031 C 
ATOM     21  C   UNL A   1      37.688  29.402  30.655  1.00  0.00     0.029 A 
ATOM     22  C   UNL A   1      38.472  30.626  30.686  1.00  0.00     0.049 A 
ATOM     23  H   UNL A   1      40.531  30.766  30.300  1.00  0.00     0.167 HD
ATOM     24  C   UNL A   1      44.452  31.246  28.426  1.00  0.00     0.034 A 
ATOM     25  C   UNL A   1      38.083  31.900  30.993  1.00  0.00     0.034 A 
ATOM     26  C   UNL A   1      44.742  31.239  29.840  1.00  0.00     0.049 A 
ATOM     27  C   UNL A   1      39.315  32.665  31.299  1.00  0.00     0.074 A 
ATOM     28  C   UNL A   1      45.318  30.333  30.709  1.00  0.00     0.029 A 
ATOM     29  N   UNL A   1      44.088  32.149  30.639  1.00  0.00    -0.354 N 
ATOM     30  N   UNL A   1      40.070  32.419  32.334  1.00  0.00    -0.248 NA
ATOM     31  C   UNL A   1      39.974  33.362  30.204  1.00  0.00     0.031 C 
ATOM     32  C   UNL A   1      44.551  30.441  31.907  1.00  0.00     0.029 A 
ATOM     33  C   UNL A   1      43.616  31.462  31.730  1.00  0.00     0.049 A 
ATOM     34  H   UNL A   1      43.978  33.110  30.461  1.00  0.00     0.167 HD
ATOM     35  C   UNL A   1      41.368  32.511  31.857  1.00  0.00     0.074 A 
ATOM     36  C   UNL A   1      41.249  33.182  30.564  1.00  0.00     0.031 C 
ATOM     37  C   UNL A   1      42.381  31.785  32.417  1.00  0.00     0.034 A 
BRANCH  24  38
ATOM     38  C   UNL A   1      44.723  32.466  27.570  1.00  0.00     0.023 A 
ATOM     39  C   UNL A   1      44.107  33.675  27.958  1.00  0.00     0.031 A 
ATOM     40  C   UNL A   1      45.270  32.449  26.267  1.00  0.00     0.131 A 
ATOM     41  C   UNL A   1      43.945  34.731  27.045  1.00  0.00     0.055 A 
ATOM     42  C   UNL A   1      45.168  33.531  25.387  1.00  0.00     0.041 A 
ATOM     43  F   UNL A   1      45.842  31.364  25.735  1.00  0.00    -0.206 F 
ATOM     44  C   UNL A   1      44.471  34.666  25.759  1.00  0.00     0.022 A 
BRANCH  41  45
ATOM     45  S   UNL A   1      42.862  36.107  27.509  1.00  0.00     0.124 S 
ATOM     46  O   UNL A   1      41.592  35.691  26.923  1.00  0.00    -0.237 OA
ATOM     47  O   UNL A   1      42.941  36.073  28.966  1.00  0.00    -0.237 OA
ATOM     48  O   UNL A   1      43.493  37.263  26.877  1.00  0.00    -0.744 OA
ENDBRANCH  41  45
ENDBRANCH  24  38
BRANCH  25  49
ATOM     49  C   UNL A   1      36.771  32.559  30.699  1.00  0.00     0.023 A 
ATOM     50  C   UNL A   1      35.875  33.015  31.699  1.00  0.00     0.031 A 
ATOM     51  C   UNL A   1      36.498  32.982  29.379  1.00  0.00     0.131 A 
ATOM     52  C   UNL A   1      34.774  33.845  31.354  1.00  0.00     0.055 A 
ATOM     53  C   UNL A   1      35.415  33.800  29.047  1.00  0.00     0.041 A 
ATOM     54  F   UNL A   1      37.331  32.686  28.369  1.00  0.00    -0.206 F 
ATOM     55  C   UNL A   1      34.553  34.242  30.034  1.00  0.00     0.022 A 
BRANCH  52  56
ATOM     56  S   UNL A   1      33.642  34.500  32.632  1.00  0.00     0.124 S 
ATOM     57  O   UNL A   1      34.544  35.262  33.487  1.00  0.00    -0.237 OA
ATOM     58  O   UNL A   1      32.687  35.270  31.845  1.00  0.00    -0.237 OA
ATOM     59  O   UNL A   1      33.089  33.294  33.251  1.00  0.00    -0.744 OA
ENDBRANCH  52  56
ENDBRANCH  25  49
BRANCH  37  60
ATOM     60  C   UNL A   1      42.139  31.100  33.747  1.00  0.00     0.023 A 
ATOM     61  C   UNL A   1      42.002  29.705  33.932  1.00  0.00     0.031 A 
ATOM     62  C   UNL A   1      42.175  31.910  34.896  1.00  0.00     0.131 A 
ATOM     63  C   UNL A   1      41.896  29.175  35.234  1.00  0.00     0.055 A 
ATOM     64  C   UNL A   1      42.095  31.380  36.181  1.00  0.00     0.041 A 
ATOM     65  F   UNL A   1      42.327  33.241  34.787  1.00  0.00    -0.206 F 
ATOM     66  C   UNL A   1      41.950  30.009  36.355  1.00  0.00     0.022 A 
BRANCH  63  67
ATOM     67  S   UNL A   1      41.669  27.385  35.498  1.00  0.00     0.124 S 
ATOM     68  O   UNL A   1      41.096  27.308  36.836  1.00  0.00    -0.237 OA
ATOM     69  O   UNL A   1      40.782  27.012  34.399  1.00  0.00    -0.237 OA
ATOM     70  O   UNL A   1      43.028  26.851  35.386  1.00  0.00    -0.744 OA
ENDBRANCH  63  67
ENDBRANCH  37  60
ENDBRANCH  11  12
ENDBRANCH   4   6
ENDBRANCH   1   2
BRANCH   1  71
ATOM     71  C   UNL A   1      37.002  22.800  24.863  1.00  0.00     0.042 C 
BRANCH  71  72
ATOM     72  C   UNL A   1      36.473  21.374  24.686  1.00  0.00     0.118 C 
BRANCH  72  73
ATOM     73  N   UNL A   1      35.579  20.950  25.755  1.00  0.00    -0.352 N 
ATOM     74  C   UNL A   1      34.378  21.464  26.172  1.00  0.00     0.251 C 
ATOM     75  H   UNL A   1      35.889  20.165  26.262  1.00  0.00     0.163 HD
ATOM     76  O   UNL A   1      33.849  21.001  27.182  1.00  0.00    -0.269 OA
BRANCH  74  77
ATOM     77  C   UNL A   1      33.707  22.583  25.462  1.00  0.00     0.039 A 
ATOM     78  C   UNL A   1      33.835  23.857  26.014  1.00  0.00     0.016 A 
ATOM     79  C   UNL A   1      32.903  22.405  24.326  1.00  0.00     0.016 A 
ATOM     80  C   UNL A   1      33.225  24.951  25.392  1.00  0.00     0.027 A 
ATOM     81  C   UNL A   1      32.275  23.510  23.709  1.00  0.00     0.027 A 
ATOM     82  C   UNL A   1      32.452  24.795  24.225  1.00  0.00     0.045 A 
BRANCH  82  83
ATOM     83  N   UNL A   1      31.940  25.957  23.557  1.00  0.00    -0.299 N 
ATOM     84  C   UNL A   1      32.721  26.428  22.445  1.00  0.00     0.259 C 
ATOM     85  C   UNL A   1      31.414  27.099  24.343  1.00  0.00     0.152 C 
ATOM     86  C   UNL A   1      32.720  27.923  22.481  1.00  0.00     0.248 C 
ATOM     87  O   UNL A   1      33.360  25.742  21.652  1.00  0.00    -0.271 OA
ATOM     88  C   UNL A   1      32.446  28.074  23.928  1.00  0.00     0.021 C 
ATOM     89  N   UNL A   1      34.029  28.582  22.352  1.00  0.00    -0.170 NA
ATOM     90  C   UNL A   1      33.375  28.891  24.409  1.00  0.00     0.097 C 
ATOM     91  N   UNL A   1      34.284  29.216  23.421  1.00  0.00    -0.154 NA
BRANCH  85  92
ATOM     92  C   UNL A   1      30.016  27.637  23.957  1.00  0.00    -0.020 A 
ATOM     93  C   UNL A   1      28.891  26.767  23.902  1.00  0.00     0.006 A 
ATOM     94  C   UNL A   1      29.803  28.962  23.551  1.00  0.00     0.022 A 
ATOM     95  C   UNL A   1      27.623  27.190  23.502  1.00  0.00     0.002 A 
ATOM     96  C   UNL A   1      28.528  29.376  23.116  1.00  0.00     0.018 A 
ATOM     97  C   UNL A   1      27.441  28.500  23.098  1.00  0.00     0.016 A 
ATOM     98  Br  UNL A   1      28.265  31.144  22.495  1.00  0.00    -0.051 Br
ENDBRANCH  85  92
BRANCH  90  99
ATOM     99  C   UNL A   1      33.647  29.317  25.778  1.00  0.00     0.002 A 
ATOM    100  C   UNL A   1      32.990  30.432  26.316  1.00  0.00     0.010 A 
ATOM    101  C   UNL A   1      34.737  28.767  26.459  1.00  0.00     0.010 A 
ATOM    102  C   UNL A   1      33.484  31.045  27.470  1.00  0.00     0.001 A 
ATOM    103  C   UNL A   1      35.229  29.380  27.613  1.00  0.00     0.001 A 
ATOM    104  C   UNL A   1      34.620  30.535  28.100  1.00  0.00     0.000 A 
ENDBRANCH  90  99
ENDBRANCH  82  83
ENDBRANCH  74  77
ENDBRANCH  72  73
ENDBRANCH  71  72
ENDBRANCH   1  71
TORSDOF 16
ENDMDL
MODEL 2
REMARK VINA RESULT:     -14.2      3.548      9.550
REMARK SMILES O=C(NCCCNC(=O)c1ccc(N2C(=O)[C@@H]3N=NC(c4ccccc4)=C3[C@H]2c2cccc(Br)c2)cc1)c1ccc(-c2c3nc(c(-c4cc(S(=O)(=O)[O-])ccc4F)c4ccc([nH]4)c(-c4cc(S(=O)(=O)[O-])ccc4F)c4nc(c(-c5cc(S(=O)(=O)[O-])ccc5F)c5ccc2[nH]5)C=C4)C=C3)cc1
REMARK SMILES IDX 4 1 3 2 1 3 2 4 38 6 39 7 100 8 40 9 99 10 41 11 42 12 43 13
REMARK SMILES IDX 93 14 44 15 98 16 92 17 94 18 45 19 97 20 91 21 90 22 46 24
REMARK SMILES IDX 78 25 58 26 77 27 59 28 62 29 76 30 95 31 60 32 61 33 75 35
REMARK SMILES IDX 96 36 63 37 47 38 48 39 56 40 49 41 55 42 57 43 54 44 50 45
REMARK SMILES IDX 51 46 52 47 53 48 79 49 80 50 88 51 81 52 87 53 89 54 86 55
REMARK SMILES IDX 82 56 83 57 84 58 85 59 64 60 65 61 73 62 66 63 72 64 74 65
REMARK SMILES IDX 71 66 67 67 68 68 69 69 70 70 5 71 6 72 7 73 8 74 9 76 10 77
REMARK SMILES IDX 11 78 37 79 12 80 36 81 13 82 14 83 15 84 28 85 17 86 16 87
REMARK SMILES IDX 27 88 18 89 20 90 19 91 29 92 30 93 35 94 31 95 33 96 32 97
REMARK SMILES IDX 34 98 21 99 22 100 26 101 23 102 25 103 24 104
REMARK H PARENT 3 5 94 23 62 34 7 75
REMARK Flexibility Score: inf
ROOT
ATOM      1  C   UNL A   1      33.623  30.025  27.498  1.00  0.00     0.118 C 
ENDROOT
BRANCH   1   2
ATOM      2  N   UNL A   1      34.175  31.268  27.998  1.00  0.00    -0.352 N 
ATOM      3  O   UNL A   1      35.552  32.931  28.447  1.00  0.00    -0.269 OA
ATOM      4  C   UNL A   1      35.434  31.712  28.293  1.00  0.00     0.251 C 
ATOM      5  H   UNL A   1      33.484  31.951  28.162  1.00  0.00     0.163 HD
BRANCH   4   6
ATOM      6  C   UNL A   1      36.620  30.843  28.531  1.00  0.00     0.039 A 
ATOM      7  C   UNL A   1      36.674  29.456  28.376  1.00  0.00     0.014 A 
ATOM      8  C   UNL A   1      37.775  31.515  28.976  1.00  0.00     0.014 A 
ATOM      9  C   UNL A   1      37.824  28.754  28.749  1.00  0.00     0.010 A 
ATOM     10  C   UNL A   1      38.921  30.820  29.346  1.00  0.00     0.010 A 
ATOM     11  C   UNL A   1      38.935  29.431  29.267  1.00  0.00    -0.014 A 
BRANCH  11  12
ATOM     12  C   UNL A   1      40.178  28.697  29.525  1.00  0.00     0.031 A 
ATOM     13  C   UNL A   1      40.525  28.593  30.974  1.00  0.00     0.074 A 
ATOM     14  C   UNL A   1      40.863  28.003  28.589  1.00  0.00     0.049 A 
ATOM     15  N   UNL A   1      41.563  29.067  31.581  1.00  0.00    -0.248 NA
ATOM     16  C   UNL A   1      39.529  28.003  31.885  1.00  0.00     0.031 C 
ATOM     17  C   UNL A   1      40.493  27.784  27.189  1.00  0.00     0.029 A 
ATOM     18  N   UNL A   1      41.998  27.249  28.718  1.00  0.00    -0.354 N 
ATOM     19  C   UNL A   1      41.465  28.646  32.907  1.00  0.00     0.074 A 
ATOM     20  C   UNL A   1      40.121  28.163  33.070  1.00  0.00     0.031 C 
ATOM     21  C   UNL A   1      41.249  26.786  26.673  1.00  0.00     0.029 A 
ATOM     22  C   UNL A   1      42.238  26.374  27.656  1.00  0.00     0.049 A 
ATOM     23  H   UNL A   1      42.597  27.318  29.497  1.00  0.00     0.167 HD
ATOM     24  C   UNL A   1      42.567  28.525  33.699  1.00  0.00     0.034 A 
ATOM     25  C   UNL A   1      43.144  25.351  27.601  1.00  0.00     0.034 A 
ATOM     26  C   UNL A   1      43.688  29.243  33.139  1.00  0.00     0.049 A 
ATOM     27  C   UNL A   1      44.175  25.635  28.628  1.00  0.00     0.074 A 
ATOM     28  C   UNL A   1      43.930  30.562  32.809  1.00  0.00     0.029 A 
ATOM     29  N   UNL A   1      44.662  28.518  32.492  1.00  0.00    -0.354 N 
ATOM     30  N   UNL A   1      44.995  26.647  28.557  1.00  0.00    -0.248 NA
ATOM     31  C   UNL A   1      43.972  25.094  29.964  1.00  0.00     0.031 C 
ATOM     32  C   UNL A   1      44.675  30.501  31.594  1.00  0.00     0.029 A 
ATOM     33  C   UNL A   1      44.919  29.157  31.305  1.00  0.00     0.049 A 
ATOM     34  H   UNL A   1      45.092  27.695  32.817  1.00  0.00     0.167 HD
ATOM     35  C   UNL A   1      45.049  27.150  29.847  1.00  0.00     0.074 A 
ATOM     36  C   UNL A   1      44.473  26.101  30.687  1.00  0.00     0.031 C 
ATOM     37  C   UNL A   1      45.291  28.474  30.082  1.00  0.00     0.034 A 
BRANCH  24  38
ATOM     38  C   UNL A   1      42.759  27.477  34.775  1.00  0.00     0.023 A 
ATOM     39  C   UNL A   1      43.551  26.356  34.449  1.00  0.00     0.031 A 
ATOM     40  C   UNL A   1      41.982  27.356  35.950  1.00  0.00     0.131 A 
ATOM     41  C   UNL A   1      43.456  25.163  35.186  1.00  0.00     0.055 A 
ATOM     42  C   UNL A   1      41.947  26.189  36.720  1.00  0.00     0.041 A 
ATOM     43  F   UNL A   1      41.143  28.311  36.365  1.00  0.00    -0.206 F 
ATOM     44  C   UNL A   1      42.657  25.071  36.321  1.00  0.00     0.022 A 
BRANCH  41  45
ATOM     45  S   UNL A   1      44.246  23.676  34.515  1.00  0.00     0.124 S 
ATOM     46  O   UNL A   1      45.567  24.181  34.160  1.00  0.00    -0.237 OA
ATOM     47  O   UNL A   1      44.187  22.765  35.654  1.00  0.00    -0.237 OA
ATOM     48  O   UNL A   1      43.390  23.318  33.387  1.00  0.00    -0.744 OA
ENDBRANCH  41  45
ENDBRANCH  24  38
BRANCH  25  49
ATOM     49  C   UNL A   1      42.977  24.004  26.969  1.00  0.00     0.023 A 
ATOM     50  C   UNL A   1      43.841  23.487  25.971  1.00  0.00     0.031 A 
ATOM     51  C   UNL A   1      42.074  23.084  27.547  1.00  0.00     0.131 A 
ATOM     52  C   UNL A   1      43.770  22.119  25.596  1.00  0.00     0.055 A 
ATOM     53  C   UNL A   1      42.011  21.739  27.176  1.00  0.00     0.041 A 
ATOM     54  F   UNL A   1      41.274  23.443  28.564  1.00  0.00    -0.206 F 
ATOM     55  C   UNL A   1      42.865  21.248  26.205  1.00  0.00     0.022 A 
BRANCH  52  56
ATOM     56  S   UNL A   1      44.918  21.413  24.359  1.00  0.00     0.124 S 
ATOM     57  O   UNL A   1      44.689  22.265  23.199  1.00  0.00    -0.237 OA
ATOM     58  O   UNL A   1      46.212  21.543  25.018  1.00  0.00    -0.237 OA
ATOM     59  O   UNL A   1      44.450  20.034  24.205  1.00  0.00    -0.744 OA
ENDBRANCH  52  56
ENDBRANCH  25  49
BRANCH  37  60
ATOM     60  C   UNL A   1      45.788  29.337  28.939  1.00  0.00     0.023 A 
ATOM     61  C   UNL A   1      45.051  30.373  28.320  1.00  0.00     0.031 A 
ATOM     62  C   UNL A   1      47.130  29.171  28.553  1.00  0.00     0.131 A 
ATOM     63  C   UNL A   1      45.662  31.186  27.344  1.00  0.00     0.055 A 
ATOM     64  C   UNL A   1      47.738  29.993  27.606  1.00  0.00     0.041 A 
ATOM     65  F   UNL A   1      47.890  28.220  29.121  1.00  0.00    -0.206 F 
ATOM     66  C   UNL A   1      47.004  31.001  26.995  1.00  0.00     0.022 A 
BRANCH  63  67
ATOM     67  S   UNL A   1      44.720  32.495  26.496  1.00  0.00     0.124 S 
ATOM     68  O   UNL A   1      45.739  33.214  25.740  1.00  0.00    -0.237 OA
ATOM     69  O   UNL A   1      43.756  31.733  25.707  1.00  0.00    -0.237 OA
ATOM     70  O   UNL A   1      44.131  33.259  27.598  1.00  0.00    -0.744 OA
ENDBRANCH  63  67
ENDBRANCH  37  60
ENDBRANCH  11  12
ENDBRANCH   4   6
ENDBRANCH   1   2
BRANCH   1  71
ATOM     71  C   UNL A   1      33.233  30.006  26.021  1.00  0.00     0.042 C 
BRANCH  71  72
ATOM     72  C   UNL A   1      31.734  29.908  25.724  1.00  0.00     0.118 C 
BRANCH  72  73
ATOM     73  N   UNL A   1      31.426  29.897  24.300  1.00  0.00    -0.352 N 
ATOM     74  C   UNL A   1      31.400  28.863  23.399  1.00  0.00     0.251 C 
ATOM     75  H   UNL A   1      31.197  30.777  23.923  1.00  0.00     0.163 HD
ATOM     76  O   UNL A   1      31.216  29.114  22.208  1.00  0.00    -0.269 OA
BRANCH  74  77
ATOM     77  C   UNL A   1      31.618  27.453  23.809  1.00  0.00     0.039 A 
ATOM     78  C   UNL A   1      30.489  26.702  24.139  1.00  0.00     0.016 A 
ATOM     79  C   UNL A   1      32.889  26.876  23.950  1.00  0.00     0.016 A 
ATOM     80  C   UNL A   1      30.630  25.368  24.533  1.00  0.00     0.027 A 
ATOM     81  C   UNL A   1      33.029  25.533  24.364  1.00  0.00     0.027 A 
ATOM     82  C   UNL A   1      31.897  24.762  24.635  1.00  0.00     0.045 A 
BRANCH  82  83
ATOM     83  N   UNL A   1      31.988  23.362  24.933  1.00  0.00    -0.299 N 
ATOM     84  C   UNL A   1      31.650  22.991  26.280  1.00  0.00     0.259 C 
ATOM     85  C   UNL A   1      33.147  22.570  24.452  1.00  0.00     0.152 C 
ATOM     86  C   UNL A   1      32.601  21.923  26.718  1.00  0.00     0.248 C 
ATOM     87  O   UNL A   1      30.797  23.512  26.995  1.00  0.00    -0.271 OA
ATOM     88  C   UNL A   1      33.702  22.261  25.788  1.00  0.00     0.021 C 
ATOM     89  N   UNL A   1      33.244  22.115  28.028  1.00  0.00    -0.170 NA
ATOM     90  C   UNL A   1      34.800  22.381  26.524  1.00  0.00     0.097 C 
ATOM     91  N   UNL A   1      34.496  22.239  27.864  1.00  0.00    -0.154 NA
BRANCH  85  92
ATOM     92  C   UNL A   1      32.838  21.249  23.708  1.00  0.00    -0.020 A 
ATOM     93  C   UNL A   1      32.141  21.259  22.467  1.00  0.00     0.006 A 
ATOM     94  C   UNL A   1      33.132  19.990  24.251  1.00  0.00     0.022 A 
ATOM     95  C   UNL A   1      31.786  20.093  21.787  1.00  0.00     0.002 A 
ATOM     96  C   UNL A   1      32.742  18.817  23.576  1.00  0.00     0.018 A 
ATOM     97  C   UNL A   1      32.080  18.864  22.348  1.00  0.00     0.016 A 
ATOM     98  Br  UNL A   1      33.072  17.122  24.352  1.00  0.00    -0.051 Br
ENDBRANCH  85  92
BRANCH  90  99
ATOM     99  C   UNL A   1      36.151  22.790  26.152  1.00  0.00     0.002 A 
ATOM    100  C   UNL A   1      37.088  21.836  25.732  1.00  0.00     0.010 A 
ATOM    101  C   UNL A   1      36.578  24.087  26.453  1.00  0.00     0.010 A 
ATOM    102  C   UNL A   1      38.448  22.155  25.711  1.00  0.00     0.001 A 
ATOM    103  C   UNL A   1      37.937  24.404  26.430  1.00  0.00     0.001 A 
ATOM    104  C   UNL A   1      38.873  23.430  26.087  1.00  0.00     0.000 A 
ENDBRANCH  90  99
ENDBRANCH  82  83
ENDBRANCH  74  77
ENDBRANCH  72  73
ENDBRANCH  71  72
ENDBRANCH   1  71
TORSDOF 16
ENDMDL
MODEL 3
REMARK VINA RESULT:     -13.4      5.175     12.324
REMARK SMILES O=C(NCCCNC(=O)c1ccc(N2C(=O)[C@@H]3N=NC(c4ccccc4)=C3[C@H]2c2cccc(Br)c2)cc1)c1ccc(-c2c3nc(c(-c4cc(S(=O)(=O)[O-])ccc4F)c4ccc([nH]4)c(-c4cc(S(=O)(=O)[O-])ccc4F)c4nc(c(-c5cc(S(=O)(=O)[O-])ccc5F)c5ccc2[nH]5)C=C4)C=C3)cc1
REMARK SMILES IDX 4 1 3 2 1 3 2 4 38 6 39 7 100 8 40 9 99 10 41 11 42 12 43 13
REMARK SMILES IDX 93 14 44 15 98 16 92 17 94 18 45 19 97 20 91 21 90 22 46 24
REMARK SMILES IDX 78 25 58 26 77 27 59 28 62 29 76 30 95 31 60 32 61 33 75 35
REMARK SMILES IDX 96 36 63 37 47 38 48 39 56 40 49 41 55 42 57 43 54 44 50 45
REMARK SMILES IDX 51 46 52 47 53 48 79 49 80 50 88 51 81 52 87 53 89 54 86 55
REMARK SMILES IDX 82 56 83 57 84 58 85 59 64 60 65 61 73 62 66 63 72 64 74 65
REMARK SMILES IDX 71 66 67 67 68 68 69 69 70 70 5 71 6 72 7 73 8 74 9 76 10 77
REMARK SMILES IDX 11 78 37 79 12 80 36 81 13 82 14 83 15 84 28 85 17 86 16 87
REMARK SMILES IDX 27 88 18 89 20 90 19 91 29 92 30 93 35 94 31 95 33 96 32 97
REMARK SMILES IDX 34 98 21 99 22 100 26 101 23 102 25 103 24 104
REMARK H PARENT 3 5 94 23 62 34 7 75
REMARK Flexibility Score: inf
ROOT
ATOM      1  C   UNL A   1      35.068  34.050  29.346  1.00  0.00     0.118 C 
ENDROOT
BRANCH   1   2
ATOM      2  N   UNL A   1      34.641  33.007  28.438  1.00  0.00    -0.352 N 
ATOM      3  O   UNL A   1      34.277  31.037  27.514  1.00  0.00    -0.269 OA
ATOM      4  C   UNL A   1      35.056  31.730  28.175  1.00  0.00     0.251 C 
ATOM      5  H   UNL A   1      33.876  33.278  27.881  1.00  0.00     0.163 HD
BRANCH   4   6
ATOM      6  C   UNL A   1      36.384  31.165  28.538  1.00  0.00     0.039 A 
ATOM      7  C   UNL A   1      37.435  31.847  29.154  1.00  0.00     0.014 A 
ATOM      8  C   UNL A   1      36.574  29.812  28.191  1.00  0.00     0.014 A 
ATOM      9  C   UNL A   1      38.672  31.220  29.330  1.00  0.00     0.010 A 
ATOM     10  C   UNL A   1      37.802  29.185  28.365  1.00  0.00     0.010 A 
ATOM     11  C   UNL A   1      38.867  29.900  28.905  1.00  0.00    -0.014 A 
BRANCH  11  12
ATOM     12  C   UNL A   1      40.125  29.215  29.218  1.00  0.00     0.031 A 
ATOM     13  C   UNL A   1      40.405  29.110  30.681  1.00  0.00     0.074 A 
ATOM     14  C   UNL A   1      40.882  28.558  28.311  1.00  0.00     0.049 A 
ATOM     15  N   UNL A   1      41.392  29.620  31.342  1.00  0.00    -0.248 NA
ATOM     16  C   UNL A   1      39.391  28.473  31.538  1.00  0.00     0.031 C 
ATOM     17  C   UNL A   1      40.590  28.337  26.893  1.00  0.00     0.029 A 
ATOM     18  N   UNL A   1      42.039  27.849  28.489  1.00  0.00    -0.354 N 
ATOM     19  C   UNL A   1      41.247  29.183  32.658  1.00  0.00     0.074 A 
ATOM     20  C   UNL A   1      39.917  28.644  32.751  1.00  0.00     0.031 C 
ATOM     21  C   UNL A   1      41.410  27.376  26.406  1.00  0.00     0.029 A 
ATOM     22  C   UNL A   1      42.366  26.994  27.434  1.00  0.00     0.049 A 
ATOM     23  H   UNL A   1      42.596  27.934  29.297  1.00  0.00     0.167 HD
ATOM     24  C   UNL A   1      42.314  29.098  33.502  1.00  0.00     0.034 A 
ATOM     25  C   UNL A   1      43.314  26.009  27.416  1.00  0.00     0.034 A 
ATOM     26  C   UNL A   1      43.430  29.866  33.003  1.00  0.00     0.049 A 
ATOM     27  C   UNL A   1      44.282  26.324  28.493  1.00  0.00     0.074 A 
ATOM     28  C   UNL A   1      43.634  31.197  32.695  1.00  0.00     0.029 A 
ATOM     29  N   UNL A   1      44.463  29.187  32.399  1.00  0.00    -0.354 N 
ATOM     30  N   UNL A   1      45.062  27.370  28.471  1.00  0.00    -0.248 NA
ATOM     31  C   UNL A   1      44.037  25.763  29.814  1.00  0.00     0.031 C 
ATOM     32  C   UNL A   1      44.438  31.178  31.518  1.00  0.00     0.029 A 
ATOM     33  C   UNL A   1      44.751  29.848  31.230  1.00  0.00     0.049 A 
ATOM     34  H   UNL A   1      44.910  28.379  32.739  1.00  0.00     0.167 HD
ATOM     35  C   UNL A   1      45.034  27.862  29.765  1.00  0.00     0.074 A 
ATOM     36  C   UNL A   1      44.461  26.782  30.569  1.00  0.00     0.031 C 
ATOM     37  C   UNL A   1      45.210  29.192  30.022  1.00  0.00     0.034 A 
BRANCH  24  38
ATOM     38  C   UNL A   1      42.495  28.048  34.578  1.00  0.00     0.023 A 
ATOM     39  C   UNL A   1      43.231  26.895  34.235  1.00  0.00     0.031 A 
ATOM     40  C   UNL A   1      41.750  27.964  35.776  1.00  0.00     0.131 A 
ATOM     41  C   UNL A   1      43.111  25.710  34.981  1.00  0.00     0.055 A 
ATOM     42  C   UNL A   1      41.691  26.803  36.554  1.00  0.00     0.041 A 
ATOM     43  F   UNL A   1      40.962  28.954  36.211  1.00  0.00    -0.206 F 
ATOM     44  C   UNL A   1      42.343  25.656  36.140  1.00  0.00     0.022 A 
BRANCH  41  45
ATOM     45  S   UNL A   1      43.819  24.190  34.296  1.00  0.00     0.124 S 
ATOM     46  O   UNL A   1      42.750  23.229  34.547  1.00  0.00    -0.237 OA
ATOM     47  O   UNL A   1      44.039  24.562  32.903  1.00  0.00    -0.237 OA
ATOM     48  O   UNL A   1      45.032  23.995  35.087  1.00  0.00    -0.744 OA
ENDBRANCH  41  45
ENDBRANCH  24  38
BRANCH  25  49
ATOM     49  C   UNL A   1      43.233  24.663  26.765  1.00  0.00     0.023 A 
ATOM     50  C   UNL A   1      44.205  24.161  25.863  1.00  0.00     0.031 A 
ATOM     51  C   UNL A   1      42.286  23.729  27.242  1.00  0.00     0.131 A 
ATOM     52  C   UNL A   1      44.192  22.793  25.479  1.00  0.00     0.055 A 
ATOM     53  C   UNL A   1      42.281  22.385  26.863  1.00  0.00     0.041 A 
ATOM     54  F   UNL A   1      41.378  24.073  28.169  1.00  0.00    -0.206 F 
ATOM     55  C   UNL A   1      43.239  21.908  25.987  1.00  0.00     0.022 A 
BRANCH  52  56
ATOM     56  S   UNL A   1      45.474  22.107  24.370  1.00  0.00     0.124 S 
ATOM     57  O   UNL A   1      46.327  21.372  25.295  1.00  0.00    -0.237 OA
ATOM     58  O   UNL A   1      44.689  21.310  23.434  1.00  0.00    -0.237 OA
ATOM     59  O   UNL A   1      46.093  23.298  23.784  1.00  0.00    -0.744 OA
ENDBRANCH  52  56
ENDBRANCH  25  49
BRANCH  37  60
ATOM     60  C   UNL A   1      45.726  30.086  28.912  1.00  0.00     0.023 A 
ATOM     61  C   UNL A   1      44.940  30.991  28.163  1.00  0.00     0.031 A 
ATOM     62  C   UNL A   1      47.116  30.097  28.699  1.00  0.00     0.131 A 
ATOM     63  C   UNL A   1      45.555  31.856  27.235  1.00  0.00     0.055 A 
ATOM     64  C   UNL A   1      47.722  30.971  27.799  1.00  0.00     0.041 A 
ATOM     65  F   UNL A   1      47.919  29.277  29.397  1.00  0.00    -0.206 F 
ATOM     66  C   UNL A   1      46.942  31.850  27.059  1.00  0.00     0.022 A 
BRANCH  63  67
ATOM     67  S   UNL A   1      44.559  32.998  26.221  1.00  0.00     0.124 S 
ATOM     68  O   UNL A   1      43.699  32.109  25.450  1.00  0.00    -0.237 OA
ATOM     69  O   UNL A   1      43.893  33.819  27.229  1.00  0.00    -0.237 OA
ATOM     70  O   UNL A   1      45.563  33.711  25.427  1.00  0.00    -0.744 OA
ENDBRANCH  63  67
ENDBRANCH  37  60
ENDBRANCH  11  12
ENDBRANCH   4   6
ENDBRANCH   1   2
BRANCH   1  71
ATOM     71  C   UNL A   1      34.008  35.077  29.740  1.00  0.00     0.042 C 
BRANCH  71  72
ATOM     72  C   UNL A   1      33.962  35.462  31.221  1.00  0.00     0.118 C 
BRANCH  72  73
ATOM     73  N   UNL A   1      33.217  34.517  32.043  1.00  0.00    -0.352 N 
ATOM     74  C   UNL A   1      33.645  33.641  33.007  1.00  0.00     0.251 C 
ATOM     75  H   UNL A   1      32.247  34.507  31.879  1.00  0.00     0.163 HD
ATOM     76  O   UNL A   1      32.837  32.852  33.497  1.00  0.00    -0.269 OA
BRANCH  74  77
ATOM     77  C   UNL A   1      35.059  33.590  33.458  1.00  0.00     0.039 A 
ATOM     78  C   UNL A   1      35.985  33.011  32.591  1.00  0.00     0.016 A 
ATOM     79  C   UNL A   1      35.482  34.019  34.725  1.00  0.00     0.016 A 
ATOM     80  C   UNL A   1      37.332  32.932  32.960  1.00  0.00     0.027 A 
ATOM     81  C   UNL A   1      36.840  33.924  35.101  1.00  0.00     0.027 A 
ATOM     82  C   UNL A   1      37.779  33.401  34.210  1.00  0.00     0.045 A 
BRANCH  82  83
ATOM     83  N   UNL A   1      39.184  33.405  34.502  1.00  0.00    -0.299 N 
ATOM     84  C   UNL A   1      39.699  32.197  35.086  1.00  0.00     0.259 C 
ATOM     85  C   UNL A   1      39.813  34.594  35.127  1.00  0.00     0.152 C 
ATOM     86  C   UNL A   1      40.701  32.579  36.128  1.00  0.00     0.248 C 
ATOM     87  O   UNL A   1      39.327  31.050  34.852  1.00  0.00    -0.271 OA
ATOM     88  C   UNL A   1      40.178  33.936  36.401  1.00  0.00     0.021 C 
ATOM     89  N   UNL A   1      40.558  31.931  37.442  1.00  0.00    -0.170 NA
ATOM     90  C   UNL A   1      40.012  34.024  37.715  1.00  0.00     0.097 C 
ATOM     91  N   UNL A   1      40.297  32.814  38.316  1.00  0.00    -0.154 NA
BRANCH  85  92
ATOM     92  C   UNL A   1      41.090  35.151  34.455  1.00  0.00    -0.020 A 
ATOM     93  C   UNL A   1      41.825  36.212  35.054  1.00  0.00     0.006 A 
ATOM     94  C   UNL A   1      41.529  34.719  33.195  1.00  0.00     0.022 A 
ATOM     95  C   UNL A   1      42.948  36.788  34.459  1.00  0.00     0.002 A 
ATOM     96  C   UNL A   1      42.643  35.327  32.583  1.00  0.00     0.018 A 
ATOM     97  C   UNL A   1      43.355  36.350  33.212  1.00  0.00     0.016 A 
ATOM     98  Br  UNL A   1      43.183  34.794  30.849  1.00  0.00    -0.051 Br
ENDBRANCH  85  92
BRANCH  90  99
ATOM     99  C   UNL A   1      39.442  35.094  38.529  1.00  0.00     0.002 A 
ATOM    100  C   UNL A   1      39.746  36.434  38.251  1.00  0.00     0.010 A 
ATOM    101  C   UNL A   1      38.801  34.769  39.729  1.00  0.00     0.010 A 
ATOM    102  C   UNL A   1      39.498  37.420  39.209  1.00  0.00     0.001 A 
ATOM    103  C   UNL A   1      38.553  35.756  40.684  1.00  0.00     0.001 A 
ATOM    104  C   UNL A   1      38.928  37.075  40.435  1.00  0.00     0.000 A 
ENDBRANCH  90  99
ENDBRANCH  82  83
ENDBRANCH  74  77
ENDBRANCH  72  73
ENDBRANCH  71  72
ENDBRANCH   1  71
TORSDOF 16
ENDMDL
