MODEL 1
REMARK VINA RESULT:     -11.4      0.000      0.000
REMARK SMILES CCOc1cc(N2CCOCC2)ccc1[C@H]([NH3+])C(=O)NCCCNC(=O)c1ccc(-c2c3nc(c(-c4cc(S(=O)(=O)[O-])ccc4F)c4ccc([nH]4)c(-c4cc(S(=O)(=O)[O-])ccc4F)c4nc(c(-c5cc(S(=O)(=O)[O-])ccc5F)c5ccc2[nH]5)C=C4)C=C3)cc1
REMARK SMILES IDX 22 1 21 2 20 3 18 4 19 5 16 7 15 8 4 9 5 10 6 11 14 12 13 13
REMARK SMILES IDX 3 14 2 15 1 16 7 17 8 18 12 19 9 20 11 21 10 22 17 23 23 27
REMARK SMILES IDX 24 28 25 29 26 31 27 32 28 33 89 34 29 35 88 36 30 37 31 38
REMARK SMILES IDX 32 39 82 40 33 41 87 42 81 43 83 44 34 45 86 46 80 47 79 48
REMARK SMILES IDX 35 50 67 51 47 52 66 53 48 54 51 55 65 56 84 57 49 58 50 59
REMARK SMILES IDX 64 61 85 62 52 63 36 64 37 65 45 66 38 67 44 68 46 69 43 70
REMARK SMILES IDX 39 71 40 72 41 73 42 74 68 75 69 76 77 77 70 78 76 79 78 80
REMARK SMILES IDX 75 81 71 82 72 83 73 84 74 85 53 86 54 87 62 88 55 89 61 90
REMARK SMILES IDX 63 91 60 92 56 93 57 94 58 95 59 96
REMARK H PARENT 20 6 17 24 17 25 17 26 24 30 83 49 51 60
REMARK Flexibility Score: inf
ROOT
ATOM      1  C   UNL A   1      31.734  31.304  26.655  1.00  0.00     0.042 C 
ENDROOT
BRANCH   1   2
ATOM      2  C   UNL A   1      32.086  30.086  25.804  1.00  0.00     0.118 C 
BRANCH   2   3
ATOM      3  N   UNL A   1      31.344  30.080  24.556  1.00  0.00    -0.351 N 
ATOM      4  C   UNL A   1      30.694  29.113  23.862  1.00  0.00     0.283 C 
ATOM      5  O   UNL A   1      30.325  29.451  22.726  1.00  0.00    -0.268 OA
ATOM      6  H   UNL A   1      31.302  30.964  24.124  1.00  0.00     0.163 HD
BRANCH   4   7
ATOM      7  C   UNL A   1      30.388  27.676  24.349  1.00  0.00     0.306 C 
BRANCH   7   8
ATOM      8  C   UNL A   1      31.527  26.705  24.568  1.00  0.00     0.061 A 
ATOM      9  C   UNL A   1      32.296  26.098  23.556  1.00  0.00     0.131 A 
ATOM     10  C   UNL A   1      33.141  25.015  23.864  1.00  0.00     0.072 A 
ATOM     11  C   UNL A   1      33.226  24.529  25.178  1.00  0.00     0.040 A 
ATOM     12  C   UNL A   1      31.769  26.327  25.900  1.00  0.00     0.016 A 
ATOM     13  C   UNL A   1      32.604  25.257  26.195  1.00  0.00     0.027 A 
BRANCH   9  14
ATOM     14  O   UNL A   1      32.062  26.389  22.233  1.00  0.00    -0.493 OA
BRANCH  14  15
ATOM     15  C   UNL A   1      33.110  25.998  21.333  1.00  0.00     0.226 C 
ATOM     16  C   UNL A   1      32.506  25.303  20.118  1.00  0.00     0.049 C 
ENDBRANCH  14  15
ENDBRANCH   9  14
BRANCH  11  17
ATOM     17  N   UNL A   1      33.725  23.280  25.469  1.00  0.00    -0.367 N 
ATOM     18  C   UNL A   1      33.351  22.159  24.599  1.00  0.00     0.145 C 
ATOM     19  C   UNL A   1      34.506  22.942  26.654  1.00  0.00     0.145 C 
ATOM     20  C   UNL A   1      32.692  21.058  25.437  1.00  0.00     0.181 C 
ATOM     21  C   UNL A   1      33.836  21.756  27.386  1.00  0.00     0.181 C 
ATOM     22  O   UNL A   1      33.557  20.644  26.509  1.00  0.00    -0.378 OA
ENDBRANCH  11  17
ENDBRANCH   7   8
BRANCH   7  23
ATOM     23  N   UNL A   1      29.206  27.108  23.666  1.00  0.00    -0.343 N 
ATOM     24  H   UNL A   1      29.351  27.137  22.656  1.00  0.00     0.345 HD
ATOM     25  H   UNL A   1      28.378  27.654  23.906  1.00  0.00     0.345 HD
ATOM     26  H   UNL A   1      29.074  26.142  23.962  1.00  0.00     0.345 HD
ENDBRANCH   7  23
ENDBRANCH   4   7
ENDBRANCH   2   3
ENDBRANCH   1   2
BRANCH   1  27
ATOM     27  C   UNL A   1      32.946  32.012  27.247  1.00  0.00     0.118 C 
BRANCH  27  28
ATOM     28  N   UNL A   1      32.683  33.415  27.523  1.00  0.00    -0.352 N 
ATOM     29  C   UNL A   1      33.241  34.254  28.456  1.00  0.00     0.251 C 
ATOM     30  H   UNL A   1      31.995  33.829  26.952  1.00  0.00     0.163 HD
ATOM     31  O   UNL A   1      32.720  35.354  28.653  1.00  0.00    -0.269 OA
BRANCH  29  32
ATOM     32  C   UNL A   1      34.426  33.843  29.244  1.00  0.00     0.039 A 
ATOM     33  C   UNL A   1      34.250  32.953  30.306  1.00  0.00     0.014 A 
ATOM     34  C   UNL A   1      35.704  34.334  28.960  1.00  0.00     0.014 A 
ATOM     35  C   UNL A   1      35.357  32.490  31.021  1.00  0.00     0.010 A 
ATOM     36  C   UNL A   1      36.817  33.812  29.622  1.00  0.00     0.010 A 
ATOM     37  C   UNL A   1      36.657  32.874  30.651  1.00  0.00    -0.014 A 
BRANCH  37  38
ATOM     38  C   UNL A   1      37.853  32.264  31.298  1.00  0.00     0.031 A 
ATOM     39  C   UNL A   1      38.602  31.144  30.625  1.00  0.00     0.074 A 
ATOM     40  C   UNL A   1      38.219  32.680  32.528  1.00  0.00     0.049 A 
ATOM     41  N   UNL A   1      39.615  30.446  31.072  1.00  0.00    -0.248 NA
ATOM     42  C   UNL A   1      38.142  30.742  29.287  1.00  0.00     0.031 C 
ATOM     43  C   UNL A   1      37.547  33.730  33.299  1.00  0.00     0.029 A 
ATOM     44  N   UNL A   1      39.233  32.266  33.359  1.00  0.00    -0.354 N 
ATOM     45  C   UNL A   1      39.904  29.513  30.080  1.00  0.00     0.074 A 
ATOM     46  C   UNL A   1      38.934  29.710  29.025  1.00  0.00     0.031 C 
ATOM     47  C   UNL A   1      38.174  33.887  34.475  1.00  0.00     0.029 A 
ATOM     48  C   UNL A   1      39.255  32.913  34.574  1.00  0.00     0.049 A 
ATOM     49  H   UNL A   1      39.884  31.571  33.107  1.00  0.00     0.167 HD
ATOM     50  C   UNL A   1      40.893  28.586  30.055  1.00  0.00     0.034 A 
ATOM     51  C   UNL A   1      40.034  32.724  35.660  1.00  0.00     0.034 A 
ATOM     52  C   UNL A   1      41.865  28.416  31.107  1.00  0.00     0.049 A 
ATOM     53  C   UNL A   1      41.105  31.662  35.609  1.00  0.00     0.074 A 
ATOM     54  C   UNL A   1      42.961  27.570  31.133  1.00  0.00     0.029 A 
ATOM     55  N   UNL A   1      41.851  29.082  32.325  1.00  0.00    -0.354 N 
ATOM     56  N   UNL A   1      41.417  30.851  34.625  1.00  0.00    -0.248 NA
ATOM     57  C   UNL A   1      41.934  31.494  36.811  1.00  0.00     0.031 C 
ATOM     58  C   UNL A   1      43.555  27.659  32.395  1.00  0.00     0.029 A 
ATOM     59  C   UNL A   1      42.886  28.625  33.127  1.00  0.00     0.049 A 
ATOM     60  H   UNL A   1      41.202  29.777  32.580  1.00  0.00     0.167 HD
ATOM     61  C   UNL A   1      42.492  30.094  35.083  1.00  0.00     0.074 A 
ATOM     62  C   UNL A   1      42.795  30.569  36.417  1.00  0.00     0.031 C 
ATOM     63  C   UNL A   1      43.168  29.096  34.462  1.00  0.00     0.034 A 
BRANCH  50  64
ATOM     64  C   UNL A   1      40.967  27.656  28.869  1.00  0.00     0.023 A 
ATOM     65  C   UNL A   1      41.950  27.793  27.873  1.00  0.00     0.031 A 
ATOM     66  C   UNL A   1      40.066  26.582  28.762  1.00  0.00     0.131 A 
ATOM     67  C   UNL A   1      41.984  26.892  26.797  1.00  0.00     0.055 A 
ATOM     68  C   UNL A   1      40.147  25.650  27.726  1.00  0.00     0.041 A 
ATOM     69  F   UNL A   1      39.093  26.415  29.673  1.00  0.00    -0.206 F 
ATOM     70  C   UNL A   1      41.107  25.806  26.731  1.00  0.00     0.022 A 
BRANCH  67  71
ATOM     71  S   UNL A   1      43.134  27.211  25.432  1.00  0.00     0.124 S 
ATOM     72  O   UNL A   1      43.364  25.863  24.919  1.00  0.00    -0.237 OA
ATOM     73  O   UNL A   1      42.362  28.099  24.570  1.00  0.00    -0.237 OA
ATOM     74  O   UNL A   1      44.286  27.824  26.089  1.00  0.00    -0.744 OA
ENDBRANCH  67  71
ENDBRANCH  50  64
BRANCH  51  75
ATOM     75  C   UNL A   1      39.811  33.513  36.909  1.00  0.00     0.023 A 
ATOM     76  C   UNL A   1      39.083  32.982  37.985  1.00  0.00     0.031 A 
ATOM     77  C   UNL A   1      40.248  34.847  37.010  1.00  0.00     0.131 A 
ATOM     78  C   UNL A   1      38.749  33.798  39.077  1.00  0.00     0.055 A 
ATOM     79  C   UNL A   1      39.976  35.633  38.131  1.00  0.00     0.041 A 
ATOM     80  F   UNL A   1      40.947  35.412  36.012  1.00  0.00    -0.206 F 
ATOM     81  C   UNL A   1      39.203  35.114  39.166  1.00  0.00     0.022 A 
BRANCH  78  82
ATOM     82  S   UNL A   1      37.589  33.154  40.316  1.00  0.00     0.124 S 
ATOM     83  O   UNL A   1      37.380  34.323  41.161  1.00  0.00    -0.237 OA
ATOM     84  O   UNL A   1      36.458  32.749  39.487  1.00  0.00    -0.237 OA
ATOM     85  O   UNL A   1      38.330  32.057  40.936  1.00  0.00    -0.744 OA
ENDBRANCH  78  82
ENDBRANCH  51  75
BRANCH  63  86
ATOM     86  C   UNL A   1      44.320  28.472  35.214  1.00  0.00     0.023 A 
ATOM     87  C   UNL A   1      44.118  27.434  36.140  1.00  0.00     0.031 A 
ATOM     88  C   UNL A   1      45.634  28.931  35.010  1.00  0.00     0.131 A 
ATOM     89  C   UNL A   1      45.205  26.927  36.869  1.00  0.00     0.055 A 
ATOM     90  C   UNL A   1      46.719  28.376  35.688  1.00  0.00     0.041 A 
ATOM     91  F   UNL A   1      45.884  29.923  34.140  1.00  0.00    -0.206 F 
ATOM     92  C   UNL A   1      46.506  27.378  36.634  1.00  0.00     0.022 A 
BRANCH  89  93
ATOM     93  S   UNL A   1      44.880  25.736  38.198  1.00  0.00     0.124 S 
ATOM     94  O   UNL A   1      46.220  25.498  38.725  1.00  0.00    -0.237 OA
ATOM     95  O   UNL A   1      43.975  26.478  39.069  1.00  0.00    -0.237 OA
ATOM     96  O   UNL A   1      44.277  24.602  37.501  1.00  0.00    -0.744 OA
ENDBRANCH  89  93
ENDBRANCH  63  86
ENDBRANCH  37  38
ENDBRANCH  29  32
ENDBRANCH  27  28
ENDBRANCH   1  27
TORSDOF 18
ENDMDL
MODEL 2
REMARK VINA RESULT:     -11.4      2.605      8.466
REMARK SMILES CCOc1cc(N2CCOCC2)ccc1[C@H]([NH3+])C(=O)NCCCNC(=O)c1ccc(-c2c3nc(c(-c4cc(S(=O)(=O)[O-])ccc4F)c4ccc([nH]4)c(-c4cc(S(=O)(=O)[O-])ccc4F)c4nc(c(-c5cc(S(=O)(=O)[O-])ccc5F)c5ccc2[nH]5)C=C4)C=C3)cc1
REMARK SMILES IDX 22 1 21 2 20 3 18 4 19 5 16 7 15 8 4 9 5 10 6 11 14 12 13 13
REMARK SMILES IDX 3 14 2 15 1 16 7 17 8 18 12 19 9 20 11 21 10 22 17 23 23 27
REMARK SMILES IDX 24 28 25 29 26 31 27 32 28 33 89 34 29 35 88 36 30 37 31 38
REMARK SMILES IDX 32 39 82 40 33 41 87 42 81 43 83 44 34 45 86 46 80 47 79 48
REMARK SMILES IDX 35 50 67 51 47 52 66 53 48 54 51 55 65 56 84 57 49 58 50 59
REMARK SMILES IDX 64 61 85 62 52 63 36 64 37 65 45 66 38 67 44 68 46 69 43 70
REMARK SMILES IDX 39 71 40 72 41 73 42 74 68 75 69 76 77 77 70 78 76 79 78 80
REMARK SMILES IDX 75 81 71 82 72 83 73 84 74 85 53 86 54 87 62 88 55 89 61 90
REMARK SMILES IDX 63 91 60 92 56 93 57 94 58 95 59 96
REMARK H PARENT 20 6 17 24 17 25 17 26 24 30 83 49 51 60
REMARK Flexibility Score: inf
ROOT
ATOM      1  C   UNL A   1      31.456  29.165  26.112  1.00  0.00     0.042 C 
ENDROOT
BRANCH   1   2
ATOM      2  C   UNL A   1      31.731  27.861  26.857  1.00  0.00     0.118 C 
BRANCH   2   3
ATOM      3  N   UNL A   1      32.710  27.048  26.156  1.00  0.00    -0.351 N 
ATOM      4  C   UNL A   1      32.609  26.012  25.286  1.00  0.00     0.283 C 
ATOM      5  O   UNL A   1      33.683  25.443  25.033  1.00  0.00    -0.268 OA
ATOM      6  H   UNL A   1      33.640  27.302  26.354  1.00  0.00     0.163 HD
BRANCH   4   7
ATOM      7  C   UNL A   1      31.316  25.500  24.608  1.00  0.00     0.306 C 
BRANCH   7   8
ATOM      8  C   UNL A   1      30.494  26.445  23.760  1.00  0.00     0.061 A 
ATOM      9  C   UNL A   1      31.000  27.329  22.787  1.00  0.00     0.131 A 
ATOM     10  C   UNL A   1      30.180  28.344  22.259  1.00  0.00     0.072 A 
ATOM     11  C   UNL A   1      28.854  28.487  22.694  1.00  0.00     0.040 A 
ATOM     12  C   UNL A   1      29.117  26.487  24.040  1.00  0.00     0.016 A 
ATOM     13  C   UNL A   1      28.316  27.493  23.515  1.00  0.00     0.027 A 
BRANCH   9  14
ATOM     14  O   UNL A   1      32.348  27.369  22.515  1.00  0.00    -0.493 OA
BRANCH  14  15
ATOM     15  C   UNL A   1      32.909  28.688  22.429  1.00  0.00     0.226 C 
ATOM     16  C   UNL A   1      34.347  28.664  22.936  1.00  0.00     0.049 C 
ENDBRANCH  14  15
ENDBRANCH   9  14
BRANCH  11  17
ATOM     17  N   UNL A   1      28.139  29.647  22.506  1.00  0.00    -0.367 N 
ATOM     18  C   UNL A   1      28.342  30.397  21.260  1.00  0.00     0.145 C 
ATOM     19  C   UNL A   1      27.276  30.274  23.500  1.00  0.00     0.145 C 
ATOM     20  C   UNL A   1      28.776  31.829  21.590  1.00  0.00     0.181 C 
ATOM     21  C   UNL A   1      27.709  31.745  23.698  1.00  0.00     0.181 C 
ATOM     22  O   UNL A   1      27.819  32.467  22.454  1.00  0.00    -0.378 OA
ENDBRANCH  11  17
ENDBRANCH   7   8
BRANCH   7  23
ATOM     23  N   UNL A   1      30.532  24.632  25.513  1.00  0.00    -0.343 N 
ATOM     24  H   UNL A   1      30.882  24.732  26.467  1.00  0.00     0.345 HD
ATOM     25  H   UNL A   1      30.624  23.660  25.217  1.00  0.00     0.345 HD
ATOM     26  H   UNL A   1      29.551  24.906  25.481  1.00  0.00     0.345 HD
ENDBRANCH   7  23
ENDBRANCH   4   7
ENDBRANCH   2   3
ENDBRANCH   1   2
BRANCH   1  27
ATOM     27  C   UNL A   1      32.707  29.989  25.833  1.00  0.00     0.118 C 
BRANCH  27  28
ATOM     28  N   UNL A   1      32.580  31.359  26.307  1.00  0.00    -0.352 N 
ATOM     29  C   UNL A   1      33.307  32.040  27.251  1.00  0.00     0.251 C 
ATOM     30  H   UNL A   1      31.858  31.879  25.884  1.00  0.00     0.163 HD
ATOM     31  O   UNL A   1      32.894  33.133  27.644  1.00  0.00    -0.269 OA
BRANCH  29  32
ATOM     32  C   UNL A   1      34.549  31.468  27.821  1.00  0.00     0.039 A 
ATOM     33  C   UNL A   1      35.622  32.324  28.086  1.00  0.00     0.014 A 
ATOM     34  C   UNL A   1      34.676  30.101  28.083  1.00  0.00     0.014 A 
ATOM     35  C   UNL A   1      36.779  31.826  28.691  1.00  0.00     0.010 A 
ATOM     36  C   UNL A   1      35.799  29.619  28.758  1.00  0.00     0.010 A 
ATOM     37  C   UNL A   1      36.858  30.480  29.082  1.00  0.00    -0.014 A 
BRANCH  37  38
ATOM     38  C   UNL A   1      38.016  29.974  29.871  1.00  0.00     0.031 A 
ATOM     39  C   UNL A   1      38.267  30.472  31.270  1.00  0.00     0.074 A 
ATOM     40  C   UNL A   1      38.881  29.114  29.294  1.00  0.00     0.049 A 
ATOM     41  N   UNL A   1      39.263  30.201  32.074  1.00  0.00    -0.248 NA
ATOM     42  C   UNL A   1      37.284  31.411  31.832  1.00  0.00     0.031 C 
ATOM     43  C   UNL A   1      38.765  28.591  27.929  1.00  0.00     0.029 A 
ATOM     44  N   UNL A   1      40.035  28.538  29.766  1.00  0.00    -0.354 N 
ATOM     45  C   UNL A   1      39.038  30.945  33.229  1.00  0.00     0.074 A 
ATOM     46  C   UNL A   1      37.830  31.708  33.004  1.00  0.00     0.031 C 
ATOM     47  C   UNL A   1      39.793  27.763  27.684  1.00  0.00     0.029 A 
ATOM     48  C   UNL A   1      40.675  27.738  28.845  1.00  0.00     0.049 A 
ATOM     49  H   UNL A   1      40.373  28.682  30.680  1.00  0.00     0.167 HD
ATOM     50  C   UNL A   1      39.770  30.978  34.369  1.00  0.00     0.034 A 
ATOM     51  C   UNL A   1      41.853  27.083  28.912  1.00  0.00     0.034 A 
ATOM     52  C   UNL A   1      40.962  30.195  34.585  1.00  0.00     0.049 A 
ATOM     53  C   UNL A   1      42.658  27.167  30.187  1.00  0.00     0.074 A 
ATOM     54  C   UNL A   1      41.720  30.087  35.738  1.00  0.00     0.029 A 
ATOM     55  N   UNL A   1      41.584  29.404  33.628  1.00  0.00    -0.354 N 
ATOM     56  N   UNL A   1      42.379  27.808  31.299  1.00  0.00    -0.248 NA
ATOM     57  C   UNL A   1      43.931  26.434  30.219  1.00  0.00     0.031 C 
ATOM     58  C   UNL A   1      42.844  29.307  35.454  1.00  0.00     0.029 A 
ATOM     59  C   UNL A   1      42.744  28.852  34.150  1.00  0.00     0.049 A 
ATOM     60  H   UNL A   1      41.250  29.257  32.714  1.00  0.00     0.167 HD
ATOM     61  C   UNL A   1      43.433  27.535  32.167  1.00  0.00     0.074 A 
ATOM     62  C   UNL A   1      44.332  26.647  31.463  1.00  0.00     0.031 C 
ATOM     63  C   UNL A   1      43.642  27.979  33.432  1.00  0.00     0.034 A 
BRANCH  50  64
ATOM     64  C   UNL A   1      39.331  31.911  35.471  1.00  0.00     0.023 A 
ATOM     65  C   UNL A   1      39.859  33.206  35.608  1.00  0.00     0.031 A 
ATOM     66  C   UNL A   1      38.328  31.510  36.372  1.00  0.00     0.131 A 
ATOM     67  C   UNL A   1      39.406  34.039  36.643  1.00  0.00     0.055 A 
ATOM     68  C   UNL A   1      37.834  32.366  37.356  1.00  0.00     0.041 A 
ATOM     69  F   UNL A   1      37.802  30.275  36.301  1.00  0.00    -0.206 F 
ATOM     70  C   UNL A   1      38.379  33.638  37.501  1.00  0.00     0.022 A 
BRANCH  67  71
ATOM     71  S   UNL A   1      40.244  35.625  36.914  1.00  0.00     0.124 S 
ATOM     72  O   UNL A   1      39.656  36.452  35.864  1.00  0.00    -0.237 OA
ATOM     73  O   UNL A   1      39.857  35.956  38.281  1.00  0.00    -0.237 OA
ATOM     74  O   UNL A   1      41.657  35.302  36.726  1.00  0.00    -0.744 OA
ENDBRANCH  67  71
ENDBRANCH  50  64
BRANCH  51  75
ATOM     75  C   UNL A   1      42.379  26.331  27.734  1.00  0.00     0.023 A 
ATOM     76  C   UNL A   1      41.983  25.008  27.481  1.00  0.00     0.031 A 
ATOM     77  C   UNL A   1      43.357  26.893  26.893  1.00  0.00     0.131 A 
ATOM     78  C   UNL A   1      42.613  24.270  26.467  1.00  0.00     0.055 A 
ATOM     79  C   UNL A   1      43.928  26.179  25.839  1.00  0.00     0.041 A 
ATOM     80  F   UNL A   1      43.777  28.154  27.087  1.00  0.00    -0.206 F 
ATOM     81  C   UNL A   1      43.571  24.849  25.634  1.00  0.00     0.022 A 
BRANCH  78  82
ATOM     82  S   UNL A   1      42.263  22.493  26.345  1.00  0.00     0.124 S 
ATOM     83  O   UNL A   1      42.801  22.175  25.028  1.00  0.00    -0.237 OA
ATOM     84  O   UNL A   1      43.001  21.962  27.486  1.00  0.00    -0.237 OA
ATOM     85  O   UNL A   1      40.807  22.426  26.459  1.00  0.00    -0.744 OA
ENDBRANCH  78  82
ENDBRANCH  51  75
BRANCH  63  86
ATOM     86  C   UNL A   1      44.880  27.484  34.140  1.00  0.00     0.023 A 
ATOM     87  C   UNL A   1      44.898  26.253  34.819  1.00  0.00     0.031 A 
ATOM     88  C   UNL A   1      46.054  28.258  34.143  1.00  0.00     0.131 A 
ATOM     89  C   UNL A   1      46.046  25.859  35.521  1.00  0.00     0.055 A 
ATOM     90  C   UNL A   1      47.215  27.829  34.787  1.00  0.00     0.041 A 
ATOM     91  F   UNL A   1      46.093  29.444  33.515  1.00  0.00    -0.206 F 
ATOM     92  C   UNL A   1      47.211  26.630  35.492  1.00  0.00     0.022 A 
BRANCH  89  93
ATOM     93  S   UNL A   1      45.967  24.369  36.552  1.00  0.00     0.124 S 
ATOM     94  O   UNL A   1      44.617  24.452  37.101  1.00  0.00    -0.237 OA
ATOM     95  O   UNL A   1      46.196  23.304  35.582  1.00  0.00    -0.237 OA
ATOM     96  O   UNL A   1      47.044  24.565  37.521  1.00  0.00    -0.744 OA
ENDBRANCH  89  93
ENDBRANCH  63  86
ENDBRANCH  37  38
ENDBRANCH  29  32
ENDBRANCH  27  28
ENDBRANCH   1  27
TORSDOF 18
ENDMDL
MODEL 3
REMARK VINA RESULT:     -11.3      5.481     10.680
REMARK SMILES CCOc1cc(N2CCOCC2)ccc1[C@H]([NH3+])C(=O)NCCCNC(=O)c1ccc(-c2c3nc(c(-c4cc(S(=O)(=O)[O-])ccc4F)c4ccc([nH]4)c(-c4cc(S(=O)(=O)[O-])ccc4F)c4nc(c(-c5cc(S(=O)(=O)[O-])ccc5F)c5ccc2[nH]5)C=C4)C=C3)cc1
REMARK SMILES IDX 22 1 21 2 20 3 18 4 19 5 16 7 15 8 4 9 5 10 6 11 14 12 13 13
REMARK SMILES IDX 3 14 2 15 1 16 7 17 8 18 12 19 9 20 11 21 10 22 17 23 23 27
REMARK SMILES IDX 24 28 25 29 26 31 27 32 28 33 89 34 29 35 88 36 30 37 31 38
REMARK SMILES IDX 32 39 82 40 33 41 87 42 81 43 83 44 34 45 86 46 80 47 79 48
REMARK SMILES IDX 35 50 67 51 47 52 66 53 48 54 51 55 65 56 84 57 49 58 50 59
REMARK SMILES IDX 64 61 85 62 52 63 36 64 37 65 45 66 38 67 44 68 46 69 43 70
REMARK SMILES IDX 39 71 40 72 41 73 42 74 68 75 69 76 77 77 70 78 76 79 78 80
REMARK SMILES IDX 75 81 71 82 72 83 73 84 74 85 53 86 54 87 62 88 55 89 61 90
REMARK SMILES IDX 63 91 60 92 56 93 57 94 58 95 59 96
REMARK H PARENT 20 6 17 24 17 25 17 26 24 30 83 49 51 60
REMARK Flexibility Score: inf
ROOT
ATOM      1  C   UNL A   1      34.615  21.532  25.378  1.00  0.00     0.042 C 
ENDROOT
BRANCH   1   2
ATOM      2  C   UNL A   1      33.533  22.606  25.284  1.00  0.00     0.118 C 
BRANCH   2   3
ATOM      3  N   UNL A   1      33.978  23.736  24.488  1.00  0.00    -0.351 N 
ATOM      4  C   UNL A   1      33.413  24.925  24.160  1.00  0.00     0.283 C 
ATOM      5  O   UNL A   1      34.030  25.570  23.298  1.00  0.00    -0.268 OA
ATOM      6  H   UNL A   1      34.878  23.614  24.108  1.00  0.00     0.163 HD
BRANCH   4   7
ATOM      7  C   UNL A   1      32.111  25.521  24.748  1.00  0.00     0.306 C 
BRANCH   7   8
ATOM      8  C   UNL A   1      31.601  26.849  24.233  1.00  0.00     0.061 A 
ATOM      9  C   UNL A   1      31.778  28.097  24.861  1.00  0.00     0.131 A 
ATOM     10  C   UNL A   1      31.035  29.214  24.435  1.00  0.00     0.072 A 
ATOM     11  C   UNL A   1      30.112  29.097  23.385  1.00  0.00     0.040 A 
ATOM     12  C   UNL A   1      30.816  26.798  23.069  1.00  0.00     0.016 A 
ATOM     13  C   UNL A   1      30.085  27.905  22.656  1.00  0.00     0.027 A 
BRANCH   9  14
ATOM     14  O   UNL A   1      32.490  28.194  26.034  1.00  0.00    -0.493 OA
BRANCH  14  15
ATOM     15  C   UNL A   1      33.721  28.926  25.935  1.00  0.00     0.226 C 
ATOM     16  C   UNL A   1      34.323  29.099  27.326  1.00  0.00     0.049 C 
ENDBRANCH  14  15
ENDBRANCH   9  14
BRANCH  11  17
ATOM     17  N   UNL A   1      29.115  30.022  23.175  1.00  0.00    -0.367 N 
ATOM     18  C   UNL A   1      28.114  29.746  22.138  1.00  0.00     0.145 C 
ATOM     19  C   UNL A   1      29.034  31.330  23.815  1.00  0.00     0.145 C 
ATOM     20  C   UNL A   1      28.098  30.893  21.122  1.00  0.00     0.181 C 
ATOM     21  C   UNL A   1      28.914  32.424  22.729  1.00  0.00     0.181 C 
ATOM     22  O   UNL A   1      27.865  32.153  21.776  1.00  0.00    -0.378 OA
ENDBRANCH  11  17
ENDBRANCH   7   8
BRANCH   7  23
ATOM     23  N   UNL A   1      32.050  25.356  26.217  1.00  0.00    -0.343 N 
ATOM     24  H   UNL A   1      32.370  26.213  26.669  1.00  0.00     0.345 HD
ATOM     25  H   UNL A   1      32.649  24.579  26.497  1.00  0.00     0.345 HD
ATOM     26  H   UNL A   1      31.089  25.163  26.497  1.00  0.00     0.345 HD
ENDBRANCH   7  23
ENDBRANCH   4   7
ENDBRANCH   2   3
ENDBRANCH   1   2
BRANCH   1  27
ATOM     27  C   UNL A   1      36.014  22.088  25.608  1.00  0.00     0.118 C 
BRANCH  27  28
ATOM     28  N   UNL A   1      37.037  21.057  25.521  1.00  0.00    -0.352 N 
ATOM     29  C   UNL A   1      38.392  21.134  25.727  1.00  0.00     0.251 C 
ATOM     30  H   UNL A   1      36.705  20.163  25.275  1.00  0.00     0.163 HD
ATOM     31  O   UNL A   1      39.098  20.179  25.397  1.00  0.00    -0.269 OA
BRANCH  29  32
ATOM     32  C   UNL A   1      39.011  22.351  26.302  1.00  0.00     0.039 A 
ATOM     33  C   UNL A   1      40.115  22.206  27.148  1.00  0.00     0.014 A 
ATOM     34  C   UNL A   1      38.512  23.628  26.032  1.00  0.00     0.014 A 
ATOM     35  C   UNL A   1      40.765  23.337  27.648  1.00  0.00     0.010 A 
ATOM     36  C   UNL A   1      39.208  24.758  26.467  1.00  0.00     0.010 A 
ATOM     37  C   UNL A   1      40.351  24.624  27.268  1.00  0.00    -0.014 A 
BRANCH  37  38
ATOM     38  C   UNL A   1      41.132  25.831  27.660  1.00  0.00     0.031 A 
ATOM     39  C   UNL A   1      40.464  26.981  28.368  1.00  0.00     0.074 A 
ATOM     40  C   UNL A   1      42.433  25.914  27.314  1.00  0.00     0.049 A 
ATOM     41  N   UNL A   1      40.967  28.137  28.717  1.00  0.00    -0.248 NA
ATOM     42  C   UNL A   1      39.042  26.820  28.710  1.00  0.00     0.031 C 
ATOM     43  C   UNL A   1      43.181  24.881  26.591  1.00  0.00     0.029 A 
ATOM     44  N   UNL A   1      43.358  26.913  27.504  1.00  0.00    -0.354 N 
ATOM     45  C   UNL A   1      39.925  28.848  29.304  1.00  0.00     0.074 A 
ATOM     46  C   UNL A   1      38.751  28.006  29.229  1.00  0.00     0.031 C 
ATOM     47  C   UNL A   1      44.447  25.292  26.415  1.00  0.00     0.029 A 
ATOM     48  C   UNL A   1      44.592  26.639  26.956  1.00  0.00     0.049 A 
ATOM     49  H   UNL A   1      43.157  27.746  27.988  1.00  0.00     0.167 HD
ATOM     50  C   UNL A   1      39.952  30.084  29.859  1.00  0.00     0.034 A 
ATOM     51  C   UNL A   1      45.706  27.396  26.867  1.00  0.00     0.034 A 
ATOM     52  C   UNL A   1      41.136  30.904  29.944  1.00  0.00     0.049 A 
ATOM     53  C   UNL A   1      45.692  28.781  27.469  1.00  0.00     0.074 A 
ATOM     54  C   UNL A   1      41.288  32.129  30.571  1.00  0.00     0.029 A 
ATOM     55  N   UNL A   1      42.363  30.599  29.372  1.00  0.00    -0.354 N 
ATOM     56  N   UNL A   1      44.718  29.398  28.098  1.00  0.00    -0.248 NA
ATOM     57  C   UNL A   1      46.927  29.568  27.356  1.00  0.00     0.031 C 
ATOM     58  C   UNL A   1      42.574  32.604  30.302  1.00  0.00     0.029 A 
ATOM     59  C   UNL A   1      43.258  31.637  29.584  1.00  0.00     0.049 A 
ATOM     60  H   UNL A   1      42.568  29.766  28.886  1.00  0.00     0.167 HD
ATOM     61  C   UNL A   1      45.234  30.635  28.474  1.00  0.00     0.074 A 
ATOM     62  C   UNL A   1      46.611  30.662  28.031  1.00  0.00     0.031 C 
ATOM     63  C   UNL A   1      44.625  31.659  29.124  1.00  0.00     0.034 A 
BRANCH  50  64
ATOM     64  C   UNL A   1      38.661  30.653  30.396  1.00  0.00     0.023 A 
ATOM     65  C   UNL A   1      37.742  31.326  29.573  1.00  0.00     0.031 A 
ATOM     66  C   UNL A   1      38.325  30.474  31.750  1.00  0.00     0.131 A 
ATOM     67  C   UNL A   1      36.549  31.824  30.120  1.00  0.00     0.055 A 
ATOM     68  C   UNL A   1      37.108  30.913  32.273  1.00  0.00     0.041 A 
ATOM     69  F   UNL A   1      39.175  29.857  32.588  1.00  0.00    -0.206 F 
ATOM     70  C   UNL A   1      36.214  31.598  31.458  1.00  0.00     0.022 A 
BRANCH  67  71
ATOM     71  S   UNL A   1      35.479  32.855  29.081  1.00  0.00     0.124 S 
ATOM     72  O   UNL A   1      36.086  34.173  29.247  1.00  0.00    -0.237 OA
ATOM     73  O   UNL A   1      35.632  32.243  27.765  1.00  0.00    -0.237 OA
ATOM     74  O   UNL A   1      34.159  32.703  29.690  1.00  0.00    -0.744 OA
ENDBRANCH  67  71
ENDBRANCH  50  64
BRANCH  51  75
ATOM     75  C   UNL A   1      46.915  26.898  26.146  1.00  0.00     0.023 A 
ATOM     76  C   UNL A   1      47.947  26.235  26.828  1.00  0.00     0.031 A 
ATOM     77  C   UNL A   1      47.099  27.159  24.775  1.00  0.00     0.131 A 
ATOM     78  C   UNL A   1      49.142  25.923  26.161  1.00  0.00     0.055 A 
ATOM     79  C   UNL A   1      48.259  26.781  24.098  1.00  0.00     0.041 A 
ATOM     80  F   UNL A   1      46.147  27.792  24.069  1.00  0.00    -0.206 F 
ATOM     81  C   UNL A   1      49.300  26.176  24.797  1.00  0.00     0.022 A 
BRANCH  78  82
ATOM     82  S   UNL A   1      50.544  25.309  27.136  1.00  0.00     0.124 S 
ATOM     83  O   UNL A   1      49.928  24.221  27.886  1.00  0.00    -0.237 OA
ATOM     84  O   UNL A   1      51.488  24.919  26.094  1.00  0.00    -0.237 OA
ATOM     85  O   UNL A   1      50.938  26.471  27.931  1.00  0.00    -0.744 OA
ENDBRANCH  78  82
ENDBRANCH  51  75
BRANCH  63  86
ATOM     86  C   UNL A   1      45.461  32.882  29.417  1.00  0.00     0.023 A 
ATOM     87  C   UNL A   1      45.514  33.968  28.526  1.00  0.00     0.031 A 
ATOM     88  C   UNL A   1      46.223  32.956  30.596  1.00  0.00     0.131 A 
ATOM     89  C   UNL A   1      46.355  35.057  28.800  1.00  0.00     0.055 A 
ATOM     90  C   UNL A   1      47.005  34.072  30.896  1.00  0.00     0.041 A 
ATOM     91  F   UNL A   1      46.215  31.946  31.481  1.00  0.00    -0.206 F 
ATOM     92  C   UNL A   1      47.085  35.124  29.989  1.00  0.00     0.022 A 
BRANCH  89  93
ATOM     93  S   UNL A   1      46.554  36.341  27.536  1.00  0.00     0.124 S 
ATOM     94  O   UNL A   1      47.443  37.288  28.203  1.00  0.00    -0.237 OA
ATOM     95  O   UNL A   1      47.136  35.598  26.423  1.00  0.00    -0.237 OA
ATOM     96  O   UNL A   1      45.191  36.819  27.315  1.00  0.00    -0.744 OA
ENDBRANCH  89  93
ENDBRANCH  63  86
ENDBRANCH  37  38
ENDBRANCH  29  32
ENDBRANCH  27  28
ENDBRANCH   1  27
TORSDOF 18
ENDMDL
