MODEL 1
REMARK VINA RESULT:     -10.6      0.000      0.000
REMARK SMILES CN(CC(C)(C)C)C(=O)N1CCO[C@@H](CC(=O)NCCCNC(=O)c2ccc(-c3c4nc(c(-c5cc(S(=O)(=O)[O-])ccc5F)c5ccc([nH]5)c(-c5cc(S(=O)(=O)[O-])ccc5F)c5nc(c(-c6cc(S(=O)(=O)[O-])ccc6F)c6ccc3[nH]6)C=C5)C=C4)cc2)C1
REMARK SMILES IDX 19 1 18 2 16 3 17 4 15 6 14 7 10 8 11 9 88 10 12 11 13 12
REMARK SMILES IDX 8 13 9 14 2 15 1 16 3 17 4 18 5 19 6 20 7 21 20 22 21 23
REMARK SMILES IDX 22 24 23 25 24 27 25 28 26 29 87 30 27 31 86 32 28 33 29 34
REMARK SMILES IDX 30 35 80 36 31 37 85 38 79 39 81 40 32 41 84 42 78 43 77 44
REMARK SMILES IDX 33 46 65 47 45 48 64 49 46 50 49 51 63 52 82 53 47 54 48 55
REMARK SMILES IDX 62 57 83 58 50 59 34 60 35 61 43 62 36 63 42 64 44 65 41 66
REMARK SMILES IDX 37 67 38 68 39 69 40 70 66 71 67 72 75 73 68 74 74 75 76 76
REMARK SMILES IDX 73 77 69 78 70 79 71 80 72 81 51 82 52 83 60 84 53 85 59 86
REMARK SMILES IDX 61 87 58 88 54 89 55 90 56 91 57 92
REMARK H PARENT 18 5 22 26 81 45 49 56
REMARK Flexibility Score: inf
ROOT
ATOM      1  C   UNL A   1      35.709  20.791  24.986  1.00  0.00     0.117 C 
ENDROOT
BRANCH   1   2
ATOM      2  N   UNL A   1      34.451  20.075  25.205  1.00  0.00    -0.356 N 
ATOM      3  C   UNL A   1      33.175  20.342  24.792  1.00  0.00     0.222 C 
ATOM      4  O   UNL A   1      32.259  19.644  25.228  1.00  0.00    -0.275 OA
ATOM      5  H   UNL A   1      34.538  19.257  25.746  1.00  0.00     0.163 HD
BRANCH   3   6
ATOM      6  C   UNL A   1      32.888  21.462  23.815  1.00  0.00     0.133 C 
BRANCH   6   7
ATOM      7  C   UNL A   1      32.649  22.851  24.438  1.00  0.00     0.147 C 
ATOM      8  N   UNL A   1      32.715  25.263  23.622  1.00  0.00    -0.320 N 
ATOM      9  C   UNL A   1      31.281  25.138  23.430  1.00  0.00     0.150 C 
ATOM     10  C   UNL A   1      33.337  23.953  23.610  1.00  0.00     0.154 C 
ATOM     11  C   UNL A   1      30.734  24.316  24.587  1.00  0.00     0.182 C 
ATOM     12  O   UNL A   1      31.205  22.968  24.484  1.00  0.00    -0.374 OA
BRANCH   8  13
ATOM     13  C   UNL A   1      33.382  26.207  22.850  1.00  0.00     0.319 C 
ATOM     14  O   UNL A   1      33.831  25.913  21.743  1.00  0.00    -0.248 OA
BRANCH  13  15
ATOM     15  N   UNL A   1      33.599  27.431  23.459  1.00  0.00    -0.327 N 
ATOM     16  C   UNL A   1      33.939  28.547  22.587  1.00  0.00     0.148 C 
BRANCH  15  17
ATOM     17  C   UNL A   1      33.529  27.681  24.902  1.00  0.00     0.127 C 
BRANCH  17  18
ATOM     18  C   UNL A   1      32.245  28.422  25.389  1.00  0.00    -0.020 C 
ATOM     19  C   UNL A   1      31.227  28.616  24.261  1.00  0.00     0.012 C 
ATOM     20  C   UNL A   1      31.577  27.557  26.474  1.00  0.00     0.012 C 
ATOM     21  C   UNL A   1      32.559  29.805  25.984  1.00  0.00     0.012 C 
ENDBRANCH  17  18
ENDBRANCH  15  17
ENDBRANCH  13  15
ENDBRANCH   8  13
ENDBRANCH   6   7
ENDBRANCH   3   6
ENDBRANCH   1   2
BRANCH   1  22
ATOM     22  C   UNL A   1      35.928  21.891  26.028  1.00  0.00     0.042 C 
BRANCH  22  23
ATOM     23  C   UNL A   1      37.199  22.701  25.858  1.00  0.00     0.118 C 
BRANCH  23  24
ATOM     24  N   UNL A   1      38.394  21.892  26.001  1.00  0.00    -0.352 N 
ATOM     25  C   UNL A   1      39.677  22.264  26.328  1.00  0.00     0.251 C 
ATOM     26  H   UNL A   1      38.267  20.930  25.839  1.00  0.00     0.163 HD
ATOM     27  O   UNL A   1      40.576  21.440  26.170  1.00  0.00    -0.269 OA
BRANCH  25  28
ATOM     28  C   UNL A   1      40.001  23.622  26.848  1.00  0.00     0.039 A 
ATOM     29  C   UNL A   1      39.997  24.696  25.951  1.00  0.00     0.014 A 
ATOM     30  C   UNL A   1      40.379  23.850  28.175  1.00  0.00     0.014 A 
ATOM     31  C   UNL A   1      40.339  25.983  26.385  1.00  0.00     0.010 A 
ATOM     32  C   UNL A   1      40.625  25.148  28.629  1.00  0.00     0.010 A 
ATOM     33  C   UNL A   1      40.638  26.227  27.733  1.00  0.00    -0.014 A 
BRANCH  33  34
ATOM     34  C   UNL A   1      41.031  27.585  28.207  1.00  0.00     0.031 A 
ATOM     35  C   UNL A   1      42.482  27.999  28.187  1.00  0.00     0.074 A 
ATOM     36  C   UNL A   1      40.100  28.433  28.686  1.00  0.00     0.049 A 
ATOM     37  N   UNL A   1      43.038  29.107  28.609  1.00  0.00    -0.248 NA
ATOM     38  C   UNL A   1      43.439  27.022  27.645  1.00  0.00     0.031 C 
ATOM     39  C   UNL A   1      38.668  28.145  28.792  1.00  0.00     0.029 A 
ATOM     40  N   UNL A   1      40.216  29.711  29.177  1.00  0.00    -0.354 N 
ATOM     41  C   UNL A   1      44.406  28.951  28.403  1.00  0.00     0.074 A 
ATOM     42  C   UNL A   1      44.599  27.616  27.878  1.00  0.00     0.031 C 
ATOM     43  C   UNL A   1      38.038  29.223  29.285  1.00  0.00     0.029 A 
ATOM     44  C   UNL A   1      39.020  30.263  29.576  1.00  0.00     0.049 A 
ATOM     45  H   UNL A   1      41.075  30.188  29.238  1.00  0.00     0.167 HD
ATOM     46  C   UNL A   1      45.407  29.844  28.608  1.00  0.00     0.034 A 
ATOM     47  C   UNL A   1      38.746  31.466  30.122  1.00  0.00     0.034 A 
ATOM     48  C   UNL A   1      45.200  31.181  29.109  1.00  0.00     0.049 A 
ATOM     49  C   UNL A   1      39.875  32.439  30.352  1.00  0.00     0.074 A 
ATOM     50  C   UNL A   1      46.133  32.185  29.302  1.00  0.00     0.029 A 
ATOM     51  N   UNL A   1      43.973  31.703  29.499  1.00  0.00    -0.354 N 
ATOM     52  N   UNL A   1      41.158  32.289  30.114  1.00  0.00    -0.248 NA
ATOM     53  C   UNL A   1      39.518  33.749  30.913  1.00  0.00     0.031 C 
ATOM     54  C   UNL A   1      45.484  33.288  29.867  1.00  0.00     0.029 A 
ATOM     55  C   UNL A   1      44.131  33.002  29.957  1.00  0.00     0.049 A 
ATOM     56  H   UNL A   1      43.116  31.221  29.454  1.00  0.00     0.167 HD
ATOM     57  C   UNL A   1      41.754  33.497  30.467  1.00  0.00     0.074 A 
ATOM     58  C   UNL A   1      40.688  34.368  30.922  1.00  0.00     0.031 C 
ATOM     59  C   UNL A   1      43.061  33.857  30.417  1.00  0.00     0.034 A 
BRANCH  46  60
ATOM     60  C   UNL A   1      46.818  29.388  28.313  1.00  0.00     0.023 A 
ATOM     61  C   UNL A   1      47.561  28.633  29.238  1.00  0.00     0.031 A 
ATOM     62  C   UNL A   1      47.442  29.736  27.101  1.00  0.00     0.131 A 
ATOM     63  C   UNL A   1      48.905  28.324  28.975  1.00  0.00     0.055 A 
ATOM     64  C   UNL A   1      48.752  29.351  26.808  1.00  0.00     0.041 A 
ATOM     65  F   UNL A   1      46.791  30.470  26.184  1.00  0.00    -0.206 F 
ATOM     66  C   UNL A   1      49.498  28.655  27.754  1.00  0.00     0.022 A 
BRANCH  63  67
ATOM     67  S   UNL A   1      49.908  27.615  30.310  1.00  0.00     0.124 S 
ATOM     68  O   UNL A   1      50.336  26.352  29.715  1.00  0.00    -0.237 OA
ATOM     69  O   UNL A   1      50.946  28.620  30.493  1.00  0.00    -0.237 OA
ATOM     70  O   UNL A   1      48.962  27.483  31.417  1.00  0.00    -0.744 OA
ENDBRANCH  63  67
ENDBRANCH  46  60
BRANCH  47  71
ATOM     71  C   UNL A   1      37.348  31.822  30.500  1.00  0.00     0.023 A 
ATOM     72  C   UNL A   1      36.485  32.444  29.584  1.00  0.00     0.031 A 
ATOM     73  C   UNL A   1      36.867  31.582  31.799  1.00  0.00     0.131 A 
ATOM     74  C   UNL A   1      35.203  32.847  29.991  1.00  0.00     0.055 A 
ATOM     75  C   UNL A   1      35.572  31.937  32.185  1.00  0.00     0.041 A 
ATOM     76  F   UNL A   1      37.648  30.987  32.715  1.00  0.00    -0.206 F 
ATOM     77  C   UNL A   1      34.737  32.586  31.281  1.00  0.00     0.022 A 
BRANCH  74  78
ATOM     78  S   UNL A   1      34.181  33.798  28.833  1.00  0.00     0.124 S 
ATOM     79  O   UNL A   1      33.220  34.426  29.732  1.00  0.00    -0.237 OA
ATOM     80  O   UNL A   1      35.163  34.688  28.222  1.00  0.00    -0.237 OA
ATOM     81  O   UNL A   1      33.633  32.776  27.945  1.00  0.00    -0.744 OA
ENDBRANCH  74  78
ENDBRANCH  47  71
BRANCH  59  82
ATOM     82  C   UNL A   1      43.401  35.272  30.821  1.00  0.00     0.023 A 
ATOM     83  C   UNL A   1      43.416  36.324  29.890  1.00  0.00     0.031 A 
ATOM     84  C   UNL A   1      43.725  35.564  32.158  1.00  0.00     0.131 A 
ATOM     85  C   UNL A   1      43.800  37.611  30.297  1.00  0.00     0.055 A 
ATOM     86  C   UNL A   1      44.049  36.858  32.568  1.00  0.00     0.041 A 
ATOM     87  F   UNL A   1      43.728  34.597  33.089  1.00  0.00    -0.206 F 
ATOM     88  C   UNL A   1      44.101  37.888  31.633  1.00  0.00     0.022 A 
BRANCH  85  89
ATOM     89  S   UNL A   1      43.987  38.904  29.038  1.00  0.00     0.124 S 
ATOM     90  O   UNL A   1      43.857  40.122  29.832  1.00  0.00    -0.237 OA
ATOM     91  O   UNL A   1      45.317  38.630  28.504  1.00  0.00    -0.237 OA
ATOM     92  O   UNL A   1      42.884  38.646  28.114  1.00  0.00    -0.744 OA
ENDBRANCH  85  89
ENDBRANCH  59  82
ENDBRANCH  33  34
ENDBRANCH  25  28
ENDBRANCH  23  24
ENDBRANCH  22  23
ENDBRANCH   1  22
TORSDOF 18
ENDMDL
MODEL 2
REMARK VINA RESULT:     -10.4      1.676      2.207
REMARK SMILES CN(CC(C)(C)C)C(=O)N1CCO[C@@H](CC(=O)NCCCNC(=O)c2ccc(-c3c4nc(c(-c5cc(S(=O)(=O)[O-])ccc5F)c5ccc([nH]5)c(-c5cc(S(=O)(=O)[O-])ccc5F)c5nc(c(-c6cc(S(=O)(=O)[O-])ccc6F)c6ccc3[nH]6)C=C5)C=C4)cc2)C1
REMARK SMILES IDX 19 1 18 2 16 3 17 4 15 6 14 7 10 8 11 9 88 10 12 11 13 12
REMARK SMILES IDX 8 13 9 14 2 15 1 16 3 17 4 18 5 19 6 20 7 21 20 22 21 23
REMARK SMILES IDX 22 24 23 25 24 27 25 28 26 29 87 30 27 31 86 32 28 33 29 34
REMARK SMILES IDX 30 35 80 36 31 37 85 38 79 39 81 40 32 41 84 42 78 43 77 44
REMARK SMILES IDX 33 46 65 47 45 48 64 49 46 50 49 51 63 52 82 53 47 54 48 55
REMARK SMILES IDX 62 57 83 58 50 59 34 60 35 61 43 62 36 63 42 64 44 65 41 66
REMARK SMILES IDX 37 67 38 68 39 69 40 70 66 71 67 72 75 73 68 74 74 75 76 76
REMARK SMILES IDX 73 77 69 78 70 79 71 80 72 81 51 82 52 83 60 84 53 85 59 86
REMARK SMILES IDX 61 87 58 88 54 89 55 90 56 91 57 92
REMARK H PARENT 18 5 22 26 81 45 49 56
REMARK Flexibility Score: inf
ROOT
ATOM      1  C   UNL A   1      35.846  20.711  25.113  1.00  0.00     0.117 C 
ENDROOT
BRANCH   1   2
ATOM      2  N   UNL A   1      35.088  21.002  26.332  1.00  0.00    -0.356 N 
ATOM      3  C   UNL A   1      33.834  21.514  26.515  1.00  0.00     0.222 C 
ATOM      4  O   UNL A   1      33.474  21.789  27.660  1.00  0.00    -0.275 OA
ATOM      5  H   UNL A   1      35.565  20.792  27.166  1.00  0.00     0.163 HD
BRANCH   3   6
ATOM      6  C   UNL A   1      32.900  21.734  25.344  1.00  0.00     0.133 C 
BRANCH   6   7
ATOM      7  C   UNL A   1      32.936  23.138  24.711  1.00  0.00     0.147 C 
ATOM      8  N   UNL A   1      31.611  25.299  24.961  1.00  0.00    -0.320 N 
ATOM      9  C   UNL A   1      32.655  25.721  25.879  1.00  0.00     0.150 C 
ATOM     10  C   UNL A   1      31.581  23.853  24.872  1.00  0.00     0.154 C 
ATOM     11  C   UNL A   1      33.982  25.228  25.323  1.00  0.00     0.182 C 
ATOM     12  O   UNL A   1      34.032  23.800  25.393  1.00  0.00    -0.374 OA
BRANCH   8  13
ATOM     13  C   UNL A   1      30.357  25.878  25.113  1.00  0.00     0.319 C 
ATOM     14  O   UNL A   1      29.703  25.707  26.141  1.00  0.00    -0.248 OA
BRANCH  13  15
ATOM     15  N   UNL A   1      29.867  26.540  24.000  1.00  0.00    -0.327 N 
ATOM     16  C   UNL A   1      28.420  26.686  23.908  1.00  0.00     0.148 C 
BRANCH  15  17
ATOM     17  C   UNL A   1      30.685  27.084  22.913  1.00  0.00     0.127 C 
BRANCH  17  18
ATOM     18  C   UNL A   1      31.147  28.563  23.101  1.00  0.00    -0.020 C 
ATOM     19  C   UNL A   1      32.596  28.777  22.652  1.00  0.00     0.012 C 
ATOM     20  C   UNL A   1      30.252  29.458  22.223  1.00  0.00     0.012 C 
ATOM     21  C   UNL A   1      31.031  29.031  24.561  1.00  0.00     0.012 C 
ENDBRANCH  17  18
ENDBRANCH  15  17
ENDBRANCH  13  15
ENDBRANCH   8  13
ENDBRANCH   6   7
ENDBRANCH   3   6
ENDBRANCH   1   2
BRANCH   1  22
ATOM     22  C   UNL A   1      36.519  21.965  24.548  1.00  0.00     0.042 C 
BRANCH  22  23
ATOM     23  C   UNL A   1      37.489  22.659  25.486  1.00  0.00     0.118 C 
BRANCH  23  24
ATOM     24  N   UNL A   1      38.473  21.748  26.037  1.00  0.00    -0.352 N 
ATOM     25  C   UNL A   1      39.697  22.010  26.607  1.00  0.00     0.251 C 
ATOM     26  H   UNL A   1      38.228  20.796  25.995  1.00  0.00     0.163 HD
ATOM     27  O   UNL A   1      40.461  21.065  26.799  1.00  0.00    -0.269 OA
BRANCH  25  28
ATOM     28  C   UNL A   1      40.119  23.389  26.979  1.00  0.00     0.039 A 
ATOM     29  C   UNL A   1      40.754  23.581  28.212  1.00  0.00     0.014 A 
ATOM     30  C   UNL A   1      39.839  24.503  26.182  1.00  0.00     0.014 A 
ATOM     31  C   UNL A   1      41.128  24.866  28.625  1.00  0.00     0.010 A 
ATOM     32  C   UNL A   1      40.299  25.771  26.549  1.00  0.00     0.010 A 
ATOM     33  C   UNL A   1      40.922  25.973  27.789  1.00  0.00    -0.014 A 
BRANCH  33  34
ATOM     34  C   UNL A   1      41.288  27.351  28.224  1.00  0.00     0.031 A 
ATOM     35  C   UNL A   1      42.734  27.783  28.223  1.00  0.00     0.074 A 
ATOM     36  C   UNL A   1      40.335  28.204  28.652  1.00  0.00     0.049 A 
ATOM     37  N   UNL A   1      43.266  28.911  28.619  1.00  0.00    -0.248 NA
ATOM     38  C   UNL A   1      43.714  26.800  27.738  1.00  0.00     0.031 C 
ATOM     39  C   UNL A   1      38.905  27.901  28.734  1.00  0.00     0.029 A 
ATOM     40  N   UNL A   1      40.425  29.499  29.101  1.00  0.00    -0.354 N 
ATOM     41  C   UNL A   1      44.640  28.766  28.451  1.00  0.00     0.074 A 
ATOM     42  C   UNL A   1      44.861  27.416  27.978  1.00  0.00     0.031 C 
ATOM     43  C   UNL A   1      38.251  28.987  29.175  1.00  0.00     0.029 A 
ATOM     44  C   UNL A   1      39.213  30.050  29.452  1.00  0.00     0.049 A 
ATOM     45  H   UNL A   1      41.277  29.989  29.165  1.00  0.00     0.167 HD
ATOM     46  C   UNL A   1      45.626  29.677  28.648  1.00  0.00     0.034 A 
ATOM     47  C   UNL A   1      38.912  31.266  29.950  1.00  0.00     0.034 A 
ATOM     48  C   UNL A   1      45.391  31.028  29.097  1.00  0.00     0.049 A 
ATOM     49  C   UNL A   1      40.024  32.261  30.172  1.00  0.00     0.074 A 
ATOM     50  C   UNL A   1      46.308  32.050  29.278  1.00  0.00     0.029 A 
ATOM     51  N   UNL A   1      44.149  31.548  29.440  1.00  0.00    -0.354 N 
ATOM     52  N   UNL A   1      41.314  32.120  29.969  1.00  0.00    -0.248 NA
ATOM     53  C   UNL A   1      39.638  33.585  30.679  1.00  0.00     0.031 C 
ATOM     54  C   UNL A   1      45.632  33.164  29.789  1.00  0.00     0.029 A 
ATOM     55  C   UNL A   1      44.281  32.864  29.857  1.00  0.00     0.049 A 
ATOM     56  H   UNL A   1      43.299  31.054  29.393  1.00  0.00     0.167 HD
ATOM     57  C   UNL A   1      41.887  33.347  30.294  1.00  0.00     0.074 A 
ATOM     58  C   UNL A   1      40.801  34.219  30.693  1.00  0.00     0.031 C 
ATOM     59  C   UNL A   1      43.191  33.721  30.262  1.00  0.00     0.034 A 
BRANCH  46  60
ATOM     60  C   UNL A   1      47.049  29.229  28.402  1.00  0.00     0.023 A 
ATOM     61  C   UNL A   1      47.534  28.983  27.105  1.00  0.00     0.031 A 
ATOM     62  C   UNL A   1      47.926  29.016  29.481  1.00  0.00     0.131 A 
ATOM     63  C   UNL A   1      48.824  28.462  26.925  1.00  0.00     0.055 A 
ATOM     64  C   UNL A   1      49.239  28.580  29.289  1.00  0.00     0.041 A 
ATOM     65  F   UNL A   1      47.517  29.216  30.744  1.00  0.00    -0.206 F 
ATOM     66  C   UNL A   1      49.690  28.284  28.006  1.00  0.00     0.022 A 
BRANCH  63  67
ATOM     67  S   UNL A   1      49.302  27.883  25.273  1.00  0.00     0.124 S 
ATOM     68  O   UNL A   1      48.119  28.224  24.489  1.00  0.00    -0.237 OA
ATOM     69  O   UNL A   1      50.500  28.664  24.998  1.00  0.00    -0.237 OA
ATOM     70  O   UNL A   1      49.520  26.449  25.464  1.00  0.00    -0.744 OA
ENDBRANCH  63  67
ENDBRANCH  46  60
BRANCH  47  71
ATOM     71  C   UNL A   1      37.502  31.618  30.283  1.00  0.00     0.023 A 
ATOM     72  C   UNL A   1      36.619  32.088  29.296  1.00  0.00     0.031 A 
ATOM     73  C   UNL A   1      37.026  31.527  31.603  1.00  0.00     0.131 A 
ATOM     74  C   UNL A   1      35.323  32.494  29.653  1.00  0.00     0.055 A 
ATOM     75  C   UNL A   1      35.719  31.882  31.943  1.00  0.00     0.041 A 
ATOM     76  F   UNL A   1      37.826  31.081  32.585  1.00  0.00    -0.206 F 
ATOM     77  C   UNL A   1      34.863  32.381  30.966  1.00  0.00     0.022 A 
BRANCH  74  78
ATOM     78  S   UNL A   1      34.271  33.254  28.385  1.00  0.00     0.124 S 
ATOM     79  O   UNL A   1      33.516  34.225  29.169  1.00  0.00    -0.237 OA
ATOM     80  O   UNL A   1      35.258  33.803  27.462  1.00  0.00    -0.237 OA
ATOM     81  O   UNL A   1      33.495  32.130  27.869  1.00  0.00    -0.744 OA
ENDBRANCH  74  78
ENDBRANCH  47  71
BRANCH  59  82
ATOM     82  C   UNL A   1      43.504  35.152  30.624  1.00  0.00     0.023 A 
ATOM     83  C   UNL A   1      43.468  36.183  29.669  1.00  0.00     0.031 A 
ATOM     84  C   UNL A   1      43.855  35.485  31.945  1.00  0.00     0.131 A 
ATOM     85  C   UNL A   1      43.829  37.489  30.037  1.00  0.00     0.055 A 
ATOM     86  C   UNL A   1      44.155  36.796  32.317  1.00  0.00     0.041 A 
ATOM     87  F   UNL A   1      43.906  34.540  32.898  1.00  0.00    -0.206 F 
ATOM     88  C   UNL A   1      44.157  37.804  31.358  1.00  0.00     0.022 A 
BRANCH  85  89
ATOM     89  S   UNL A   1      43.950  38.756  28.744  1.00  0.00     0.124 S 
ATOM     90  O   UNL A   1      45.237  39.375  29.046  1.00  0.00    -0.237 OA
ATOM     91  O   UNL A   1      43.895  37.962  27.522  1.00  0.00    -0.237 OA
ATOM     92  O   UNL A   1      42.784  39.604  28.985  1.00  0.00    -0.744 OA
ENDBRANCH  85  89
ENDBRANCH  59  82
ENDBRANCH  33  34
ENDBRANCH  25  28
ENDBRANCH  23  24
ENDBRANCH  22  23
ENDBRANCH   1  22
TORSDOF 18
ENDMDL
MODEL 3
REMARK VINA RESULT:     -10.4      2.544      3.029
REMARK SMILES CN(CC(C)(C)C)C(=O)N1CCO[C@@H](CC(=O)NCCCNC(=O)c2ccc(-c3c4nc(c(-c5cc(S(=O)(=O)[O-])ccc5F)c5ccc([nH]5)c(-c5cc(S(=O)(=O)[O-])ccc5F)c5nc(c(-c6cc(S(=O)(=O)[O-])ccc6F)c6ccc3[nH]6)C=C5)C=C4)cc2)C1
REMARK SMILES IDX 19 1 18 2 16 3 17 4 15 6 14 7 10 8 11 9 88 10 12 11 13 12
REMARK SMILES IDX 8 13 9 14 2 15 1 16 3 17 4 18 5 19 6 20 7 21 20 22 21 23
REMARK SMILES IDX 22 24 23 25 24 27 25 28 26 29 87 30 27 31 86 32 28 33 29 34
REMARK SMILES IDX 30 35 80 36 31 37 85 38 79 39 81 40 32 41 84 42 78 43 77 44
REMARK SMILES IDX 33 46 65 47 45 48 64 49 46 50 49 51 63 52 82 53 47 54 48 55
REMARK SMILES IDX 62 57 83 58 50 59 34 60 35 61 43 62 36 63 42 64 44 65 41 66
REMARK SMILES IDX 37 67 38 68 39 69 40 70 66 71 67 72 75 73 68 74 74 75 76 76
REMARK SMILES IDX 73 77 69 78 70 79 71 80 72 81 51 82 52 83 60 84 53 85 59 86
REMARK SMILES IDX 61 87 58 88 54 89 55 90 56 91 57 92
REMARK H PARENT 18 5 22 26 81 45 49 56
REMARK Flexibility Score: inf
ROOT
ATOM      1  C   UNL A   1      34.513  20.754  24.966  1.00  0.00     0.117 C 
ENDROOT
BRANCH   1   2
ATOM      2  N   UNL A   1      34.230  21.063  26.369  1.00  0.00    -0.356 N 
ATOM      3  C   UNL A   1      33.270  21.846  26.946  1.00  0.00     0.222 C 
ATOM      4  O   UNL A   1      33.330  22.049  28.159  1.00  0.00    -0.275 OA
ATOM      5  H   UNL A   1      34.840  20.632  27.010  1.00  0.00     0.163 HD
BRANCH   3   6
ATOM      6  C   UNL A   1      32.151  22.445  26.123  1.00  0.00     0.133 C 
BRANCH   6   7
ATOM      7  C   UNL A   1      31.917  23.957  26.307  1.00  0.00     0.147 C 
ATOM      8  N   UNL A   1      32.219  26.048  24.884  1.00  0.00    -0.320 N 
ATOM      9  C   UNL A   1      30.814  25.904  24.543  1.00  0.00     0.150 C 
ATOM     10  C   UNL A   1      32.762  24.773  25.311  1.00  0.00     0.154 C 
ATOM     11  C   UNL A   1      30.083  25.445  25.796  1.00  0.00     0.182 C 
ATOM     12  O   UNL A   1      30.486  24.112  26.127  1.00  0.00    -0.374 OA
BRANCH   8  13
ATOM     13  C   UNL A   1      33.027  26.728  23.981  1.00  0.00     0.319 C 
ATOM     14  O   UNL A   1      33.439  26.175  22.963  1.00  0.00    -0.248 OA
BRANCH  13  15
ATOM     15  N   UNL A   1      33.419  27.998  24.369  1.00  0.00    -0.327 N 
ATOM     16  C   UNL A   1      33.732  28.942  23.305  1.00  0.00     0.148 C 
BRANCH  15  17
ATOM     17  C   UNL A   1      33.557  28.452  25.756  1.00  0.00     0.127 C 
BRANCH  17  18
ATOM     18  C   UNL A   1      32.333  29.235  26.326  1.00  0.00    -0.020 C 
ATOM     19  C   UNL A   1      32.736  30.594  26.907  1.00  0.00     0.012 C 
ATOM     20  C   UNL A   1      31.353  29.497  25.167  1.00  0.00     0.012 C 
ATOM     21  C   UNL A   1      31.598  28.451  27.426  1.00  0.00     0.012 C 
ENDBRANCH  17  18
ENDBRANCH  15  17
ENDBRANCH  13  15
ENDBRANCH   8  13
ENDBRANCH   6   7
ENDBRANCH   3   6
ENDBRANCH   1   2
BRANCH   1  22
ATOM     22  C   UNL A   1      35.790  21.442  24.477  1.00  0.00     0.042 C 
BRANCH  22  23
ATOM     23  C   UNL A   1      36.769  21.841  25.565  1.00  0.00     0.118 C 
BRANCH  23  24
ATOM     24  N   UNL A   1      37.789  20.835  25.787  1.00  0.00    -0.352 N 
ATOM     25  C   UNL A   1      39.117  20.983  26.114  1.00  0.00     0.251 C 
ATOM     26  H   UNL A   1      37.485  19.905  25.688  1.00  0.00     0.163 HD
ATOM     27  O   UNL A   1      39.847  19.995  26.031  1.00  0.00    -0.269 OA
BRANCH  25  28
ATOM     28  C   UNL A   1      39.687  22.288  26.547  1.00  0.00     0.039 A 
ATOM     29  C   UNL A   1      39.052  23.463  26.128  1.00  0.00     0.014 A 
ATOM     30  C   UNL A   1      40.867  22.386  27.291  1.00  0.00     0.014 A 
ATOM     31  C   UNL A   1      39.578  24.715  26.473  1.00  0.00     0.010 A 
ATOM     32  C   UNL A   1      41.336  23.631  27.717  1.00  0.00     0.010 A 
ATOM     33  C   UNL A   1      40.715  24.813  27.288  1.00  0.00    -0.014 A 
BRANCH  33  34
ATOM     34  C   UNL A   1      41.304  26.136  27.642  1.00  0.00     0.031 A 
ATOM     35  C   UNL A   1      42.700  26.485  27.189  1.00  0.00     0.074 A 
ATOM     36  C   UNL A   1      40.606  27.010  28.395  1.00  0.00     0.049 A 
ATOM     37  N   UNL A   1      43.414  27.553  27.441  1.00  0.00    -0.248 NA
ATOM     38  C   UNL A   1      43.396  25.483  26.367  1.00  0.00     0.031 C 
ATOM     39  C   UNL A   1      39.260  26.783  28.925  1.00  0.00     0.029 A 
ATOM     40  N   UNL A   1      40.932  28.265  28.848  1.00  0.00    -0.354 N 
ATOM     41  C   UNL A   1      44.646  27.342  26.827  1.00  0.00     0.074 A 
ATOM     42  C   UNL A   1      44.601  26.017  26.247  1.00  0.00     0.031 C 
ATOM     43  C   UNL A   1      38.866  27.872  29.604  1.00  0.00     0.029 A 
ATOM     44  C   UNL A   1      39.943  28.858  29.600  1.00  0.00     0.049 A 
ATOM     45  H   UNL A   1      41.793  28.701  28.653  1.00  0.00     0.167 HD
ATOM     46  C   UNL A   1      45.708  28.182  26.733  1.00  0.00     0.034 A 
ATOM     47  C   UNL A   1      39.910  30.054  30.223  1.00  0.00     0.034 A 
ATOM     48  C   UNL A   1      45.732  29.511  27.294  1.00  0.00     0.049 A 
ATOM     49  C   UNL A   1      41.105  30.968  30.114  1.00  0.00     0.074 A 
ATOM     50  C   UNL A   1      46.732  30.465  27.212  1.00  0.00     0.029 A 
ATOM     51  N   UNL A   1      44.709  30.075  28.047  1.00  0.00    -0.354 N 
ATOM     52  N   UNL A   1      42.247  30.768  29.496  1.00  0.00    -0.248 NA
ATOM     53  C   UNL A   1      41.003  32.274  30.779  1.00  0.00     0.031 C 
ATOM     54  C   UNL A   1      46.342  31.578  27.965  1.00  0.00     0.029 A 
ATOM     55  C   UNL A   1      45.066  31.351  28.456  1.00  0.00     0.049 A 
ATOM     56  H   UNL A   1      43.855  29.634  28.257  1.00  0.00     0.167 HD
ATOM     57  C   UNL A   1      42.984  31.936  29.672  1.00  0.00     0.074 A 
ATOM     58  C   UNL A   1      42.153  32.839  30.442  1.00  0.00     0.031 C 
ATOM     59  C   UNL A   1      44.232  32.238  29.233  1.00  0.00     0.034 A 
BRANCH  46  60
ATOM     60  C   UNL A   1      46.938  27.672  26.016  1.00  0.00     0.023 A 
ATOM     61  C   UNL A   1      47.200  27.997  24.673  1.00  0.00     0.031 A 
ATOM     62  C   UNL A   1      47.848  26.825  26.675  1.00  0.00     0.131 A 
ATOM     63  C   UNL A   1      48.292  27.416  24.010  1.00  0.00     0.055 A 
ATOM     64  C   UNL A   1      48.981  26.318  26.034  1.00  0.00     0.041 A 
ATOM     65  F   UNL A   1      47.643  26.464  27.952  1.00  0.00    -0.206 F 
ATOM     66  C   UNL A   1      49.199  26.599  24.689  1.00  0.00     0.022 A 
BRANCH  63  67
ATOM     67  S   UNL A   1      48.425  27.623  22.213  1.00  0.00     0.124 S 
ATOM     68  O   UNL A   1      47.109  28.164  21.882  1.00  0.00    -0.237 OA
ATOM     69  O   UNL A   1      49.547  28.543  22.083  1.00  0.00    -0.237 OA
ATOM     70  O   UNL A   1      48.670  26.265  21.729  1.00  0.00    -0.744 OA
ENDBRANCH  63  67
ENDBRANCH  46  60
BRANCH  47  71
ATOM     71  C   UNL A   1      38.713  30.461  31.013  1.00  0.00     0.023 A 
ATOM     72  C   UNL A   1      37.641  31.138  30.408  1.00  0.00     0.031 A 
ATOM     73  C   UNL A   1      38.640  30.213  32.395  1.00  0.00     0.131 A 
ATOM     74  C   UNL A   1      36.565  31.586  31.191  1.00  0.00     0.055 A 
ATOM     75  C   UNL A   1      37.543  30.615  33.161  1.00  0.00     0.041 A 
ATOM     76  F   UNL A   1      39.635  29.567  33.023  1.00  0.00    -0.206 F 
ATOM     77  C   UNL A   1      36.503  31.317  32.560  1.00  0.00     0.022 A 
BRANCH  74  78
ATOM     78  S   UNL A   1      35.284  32.604  30.408  1.00  0.00     0.124 S 
ATOM     79  O   UNL A   1      34.925  31.791  29.252  1.00  0.00    -0.237 OA
ATOM     80  O   UNL A   1      34.282  32.695  31.464  1.00  0.00    -0.237 OA
ATOM     81  O   UNL A   1      35.980  33.851  30.104  1.00  0.00    -0.744 OA
ENDBRANCH  74  78
ENDBRANCH  47  71
BRANCH  59  82
ATOM     82  C   UNL A   1      44.752  33.623  29.537  1.00  0.00     0.023 A 
ATOM     83  C   UNL A   1      44.390  34.737  28.761  1.00  0.00     0.031 A 
ATOM     84  C   UNL A   1      45.631  33.824  30.616  1.00  0.00     0.131 A 
ATOM     85  C   UNL A   1      44.947  35.994  29.041  1.00  0.00     0.055 A 
ATOM     86  C   UNL A   1      46.136  35.088  30.926  1.00  0.00     0.041 A 
ATOM     87  F   UNL A   1      46.011  32.795  31.391  1.00  0.00    -0.206 F 
ATOM     88  C   UNL A   1      45.805  36.179  30.129  1.00  0.00     0.022 A 
BRANCH  85  89
ATOM     89  S   UNL A   1      44.605  37.371  27.910  1.00  0.00     0.124 S 
ATOM     90  O   UNL A   1      43.955  36.693  26.794  1.00  0.00    -0.237 OA
ATOM     91  O   UNL A   1      43.750  38.234  28.718  1.00  0.00    -0.237 OA
ATOM     92  O   UNL A   1      45.932  37.912  27.618  1.00  0.00    -0.744 OA
ENDBRANCH  85  89
ENDBRANCH  59  82
ENDBRANCH  33  34
ENDBRANCH  25  28
ENDBRANCH  23  24
ENDBRANCH  22  23
ENDBRANCH   1  22
TORSDOF 18
ENDMDL
