MODEL 1
REMARK VINA RESULT:     -13.8      0.000      0.000
REMARK SMILES CC(=O)Nc1ccc(/C=C2/CCc3oc(C(=O)NCCCNC(=O)c4ccc(-c5c6nc(c(-c7cc(S(=O)(=O)[O-])ccc7F)c7ccc([nH]7)c(-c7cc(S(=O)(=O)[O-])ccc7F)c7nc(c(-c8cc(S(=O)(=O)[O-])ccc8F)c8ccc5[nH]8)C=C7)C=C6)cc4)c(C)c3C2=O)cc1
REMARK SMILES IDX 20 1 19 2 18 3 16 4 17 5 15 7 9 8 10 9 11 10 91 11 12 12
REMARK SMILES IDX 90 13 92 14 13 15 88 16 14 17 89 18 8 19 5 20 6 21 94 22
REMARK SMILES IDX 7 23 93 24 4 25 1 26 2 27 3 28 21 30 22 31 23 32 24 34 25 35
REMARK SMILES IDX 26 36 87 37 27 38 86 39 28 40 29 41 30 42 80 43 31 44 85 45
REMARK SMILES IDX 79 46 81 47 32 48 84 49 78 50 77 51 33 53 65 54 45 55 64 56
REMARK SMILES IDX 46 57 49 58 63 59 82 60 47 61 48 62 62 64 83 65 50 66 34 67
REMARK SMILES IDX 35 68 43 69 36 70 42 71 44 72 41 73 37 74 38 75 39 76 40 77
REMARK SMILES IDX 66 78 67 79 75 80 68 81 74 82 76 83 73 84 69 85 70 86 71 87
REMARK SMILES IDX 72 88 51 89 52 90 60 91 53 92 59 93 61 94 58 95 54 96 55 97
REMARK SMILES IDX 56 98 57 99
REMARK H PARENT 18 6 4 29 22 33 81 52 49 63
REMARK Flexibility Score: inf
ROOT
ATOM      1  C   UNL A   1      31.456  31.817  26.505  1.00  0.00     0.042 C 
ENDROOT
BRANCH   1   2
ATOM      2  C   UNL A   1      31.633  30.311  26.276  1.00  0.00     0.118 C 
BRANCH   2   3
ATOM      3  N   UNL A   1      32.852  29.781  26.876  1.00  0.00    -0.349 N 
ATOM      4  C   UNL A   1      33.631  28.694  26.543  1.00  0.00     0.287 C 
ATOM      5  O   UNL A   1      34.676  28.556  27.181  1.00  0.00    -0.266 OA
ATOM      6  H   UNL A   1      33.174  30.288  27.655  1.00  0.00     0.163 HD
BRANCH   4   7
ATOM      7  C   UNL A   1      33.230  27.778  25.485  1.00  0.00     0.195 A 
ATOM      8  C   UNL A   1      32.932  23.384  21.989  1.00  0.00     0.016 C 
ATOM      9  C   UNL A   1      32.495  24.631  22.257  1.00  0.00     0.001 C 
ATOM     10  C   UNL A   1      32.799  25.815  21.346  1.00  0.00     0.048 C 
ATOM     11  C   UNL A   1      31.765  25.020  23.515  1.00  0.00     0.192 C 
ATOM     12  C   UNL A   1      33.697  26.847  22.052  1.00  0.00     0.081 C 
ATOM     13  C   UNL A   1      32.401  26.150  24.156  1.00  0.00     0.067 A 
ATOM     14  O   UNL A   1      30.756  24.456  23.928  1.00  0.00    -0.289 OA
ATOM     15  C   UNL A   1      33.246  26.972  23.453  1.00  0.00     0.116 A 
ATOM     16  C   UNL A   1      32.401  26.649  25.495  1.00  0.00     0.012 A 
ATOM     17  O   UNL A   1      33.712  27.969  24.216  1.00  0.00    -0.455 OA
ATOM     18  C   UNL A   1      31.698  26.025  26.650  1.00  0.00     0.049 C 
BRANCH   8  19
ATOM     19  C   UNL A   1      32.884  22.140  22.787  1.00  0.00    -0.025 A 
ATOM     20  C   UNL A   1      32.798  19.651  24.141  1.00  0.00     0.041 A 
ATOM     21  C   UNL A   1      33.524  20.715  24.662  1.00  0.00     0.027 A 
ATOM     22  C   UNL A   1      32.085  19.833  22.958  1.00  0.00     0.027 A 
ATOM     23  C   UNL A   1      33.608  21.922  23.963  1.00  0.00     0.010 A 
ATOM     24  C   UNL A   1      32.119  21.070  22.296  1.00  0.00     0.010 A 
BRANCH  20  25
ATOM     25  N   UNL A   1      32.804  18.458  24.874  1.00  0.00    -0.326 N 
ATOM     26  C   UNL A   1      33.976  17.021  23.230  1.00  0.00     0.114 C 
ATOM     27  C   UNL A   1      33.191  17.203  24.502  1.00  0.00     0.221 C 
ATOM     28  O   UNL A   1      32.971  16.251  25.253  1.00  0.00    -0.275 OA
ATOM     29  H   UNL A   1      32.476  18.536  25.799  1.00  0.00     0.169 HD
ENDBRANCH  20  25
ENDBRANCH   8  19
ENDBRANCH   4   7
ENDBRANCH   2   3
ENDBRANCH   1   2
BRANCH   1  30
ATOM     30  C   UNL A   1      32.701  32.428  27.129  1.00  0.00     0.118 C 
BRANCH  30  31
ATOM     31  N   UNL A   1      32.484  33.800  27.611  1.00  0.00    -0.352 N 
ATOM     32  C   UNL A   1      33.120  34.484  28.635  1.00  0.00     0.251 C 
ATOM     33  H   UNL A   1      31.784  34.307  27.138  1.00  0.00     0.163 HD
ATOM     34  O   UNL A   1      32.603  35.489  29.113  1.00  0.00    -0.269 OA
BRANCH  32  35
ATOM     35  C   UNL A   1      34.414  33.985  29.139  1.00  0.00     0.039 A 
ATOM     36  C   UNL A   1      34.516  33.136  30.245  1.00  0.00     0.014 A 
ATOM     37  C   UNL A   1      35.556  34.368  28.449  1.00  0.00     0.014 A 
ATOM     38  C   UNL A   1      35.772  32.629  30.586  1.00  0.00     0.010 A 
ATOM     39  C   UNL A   1      36.725  33.686  28.626  1.00  0.00     0.010 A 
ATOM     40  C   UNL A   1      36.873  32.898  29.754  1.00  0.00    -0.014 A 
BRANCH  40  41
ATOM     41  C   UNL A   1      38.172  32.251  29.927  1.00  0.00     0.031 A 
ATOM     42  C   UNL A   1      38.144  30.833  29.493  1.00  0.00     0.074 A 
ATOM     43  C   UNL A   1      39.315  32.943  30.163  1.00  0.00     0.049 A 
ATOM     44  N   UNL A   1      38.083  29.779  30.238  1.00  0.00    -0.248 NA
ATOM     45  C   UNL A   1      37.898  30.551  28.064  1.00  0.00     0.031 C 
ATOM     46  C   UNL A   1      39.463  34.405  30.243  1.00  0.00     0.029 A 
ATOM     47  N   UNL A   1      40.608  32.519  30.269  1.00  0.00    -0.354 N 
ATOM     48  C   UNL A   1      38.165  28.713  29.348  1.00  0.00     0.074 A 
ATOM     49  C   UNL A   1      37.719  29.228  28.087  1.00  0.00     0.031 C 
ATOM     50  C   UNL A   1      40.767  34.747  30.141  1.00  0.00     0.029 A 
ATOM     51  C   UNL A   1      41.567  33.536  30.179  1.00  0.00     0.049 A 
ATOM     52  H   UNL A   1      40.849  31.573  30.397  1.00  0.00     0.167 HD
ATOM     53  C   UNL A   1      38.985  27.660  29.629  1.00  0.00     0.034 A 
ATOM     54  C   UNL A   1      42.923  33.409  30.154  1.00  0.00     0.034 A 
ATOM     55  C   UNL A   1      39.418  27.733  31.007  1.00  0.00     0.049 A 
ATOM     56  C   UNL A   1      43.230  32.091  30.757  1.00  0.00     0.074 A 
ATOM     57  C   UNL A   1      38.858  27.532  32.249  1.00  0.00     0.029 A 
ATOM     58  N   UNL A   1      40.548  28.494  31.186  1.00  0.00    -0.354 N 
ATOM     59  N   UNL A   1      42.957  31.804  32.002  1.00  0.00    -0.248 NA
ATOM     60  C   UNL A   1      43.446  30.941  29.887  1.00  0.00     0.031 C 
ATOM     61  C   UNL A   1      39.607  28.341  33.157  1.00  0.00     0.029 A 
ATOM     62  C   UNL A   1      40.649  28.961  32.469  1.00  0.00     0.049 A 
ATOM     63  H   UNL A   1      41.206  28.679  30.478  1.00  0.00     0.167 HD
ATOM     64  C   UNL A   1      42.543  30.488  31.969  1.00  0.00     0.074 A 
ATOM     65  C   UNL A   1      43.026  29.963  30.696  1.00  0.00     0.031 C 
ATOM     66  C   UNL A   1      41.561  30.041  32.806  1.00  0.00     0.034 A 
BRANCH  53  67
ATOM     67  C   UNL A   1      39.825  26.889  28.615  1.00  0.00     0.023 A 
ATOM     68  C   UNL A   1      40.889  27.592  28.007  1.00  0.00     0.031 A 
ATOM     69  C   UNL A   1      39.493  25.656  28.007  1.00  0.00     0.131 A 
ATOM     70  C   UNL A   1      41.489  27.128  26.822  1.00  0.00     0.055 A 
ATOM     71  C   UNL A   1      40.122  25.178  26.853  1.00  0.00     0.041 A 
ATOM     72  F   UNL A   1      38.497  24.873  28.431  1.00  0.00    -0.206 F 
ATOM     73  C   UNL A   1      41.106  25.926  26.236  1.00  0.00     0.022 A 
BRANCH  70  74
ATOM     74  S   UNL A   1      42.684  28.192  25.975  1.00  0.00     0.124 S 
ATOM     75  O   UNL A   1      42.371  27.938  24.574  1.00  0.00    -0.237 OA
ATOM     76  O   UNL A   1      42.328  29.511  26.490  1.00  0.00    -0.237 OA
ATOM     77  O   UNL A   1      43.975  27.677  26.429  1.00  0.00    -0.744 OA
ENDBRANCH  70  74
ENDBRANCH  53  67
BRANCH  54  78
ATOM     78  C   UNL A   1      43.924  34.212  29.387  1.00  0.00     0.023 A 
ATOM     79  C   UNL A   1      44.435  33.842  28.119  1.00  0.00     0.031 A 
ATOM     80  C   UNL A   1      44.195  35.531  29.813  1.00  0.00     0.131 A 
ATOM     81  C   UNL A   1      45.166  34.778  27.339  1.00  0.00     0.055 A 
ATOM     82  C   UNL A   1      44.908  36.450  29.037  1.00  0.00     0.041 A 
ATOM     83  F   UNL A   1      43.697  35.997  30.969  1.00  0.00    -0.206 F 
ATOM     84  C   UNL A   1      45.387  36.081  27.791  1.00  0.00     0.022 A 
BRANCH  81  85
ATOM     85  S   UNL A   1      45.797  34.341  25.679  1.00  0.00     0.124 S 
ATOM     86  O   UNL A   1      46.290  32.983  25.878  1.00  0.00    -0.237 OA
ATOM     87  O   UNL A   1      44.610  34.487  24.845  1.00  0.00    -0.237 OA
ATOM     88  O   UNL A   1      46.840  35.338  25.434  1.00  0.00    -0.744 OA
ENDBRANCH  81  85
ENDBRANCH  54  78
BRANCH  66  89
ATOM     89  C   UNL A   1      41.371  30.755  34.120  1.00  0.00     0.023 A 
ATOM     90  C   UNL A   1      40.444  31.786  34.384  1.00  0.00     0.031 A 
ATOM     91  C   UNL A   1      42.164  30.294  35.187  1.00  0.00     0.131 A 
ATOM     92  C   UNL A   1      40.339  32.309  35.691  1.00  0.00     0.055 A 
ATOM     93  C   UNL A   1      42.041  30.796  36.478  1.00  0.00     0.041 A 
ATOM     94  F   UNL A   1      43.060  29.313  34.992  1.00  0.00    -0.206 F 
ATOM     95  C   UNL A   1      41.128  31.810  36.734  1.00  0.00     0.022 A 
BRANCH  92  96
ATOM     96  S   UNL A   1      39.188  33.672  36.065  1.00  0.00     0.124 S 
ATOM     97  O   UNL A   1      39.174  34.454  34.835  1.00  0.00    -0.237 OA
ATOM     98  O   UNL A   1      37.952  32.964  36.387  1.00  0.00    -0.237 OA
ATOM     99  O   UNL A   1      39.815  34.345  37.205  1.00  0.00    -0.744 OA
ENDBRANCH  92  96
ENDBRANCH  66  89
ENDBRANCH  40  41
ENDBRANCH  32  35
ENDBRANCH  30  31
ENDBRANCH   1  30
TORSDOF 15
ENDMDL
MODEL 2
REMARK VINA RESULT:     -13.7      4.447      5.858
REMARK SMILES CC(=O)Nc1ccc(/C=C2/CCc3oc(C(=O)NCCCNC(=O)c4ccc(-c5c6nc(c(-c7cc(S(=O)(=O)[O-])ccc7F)c7ccc([nH]7)c(-c7cc(S(=O)(=O)[O-])ccc7F)c7nc(c(-c8cc(S(=O)(=O)[O-])ccc8F)c8ccc5[nH]8)C=C7)C=C6)cc4)c(C)c3C2=O)cc1
REMARK SMILES IDX 20 1 19 2 18 3 16 4 17 5 15 7 9 8 10 9 11 10 91 11 12 12
REMARK SMILES IDX 90 13 92 14 13 15 88 16 14 17 89 18 8 19 5 20 6 21 94 22
REMARK SMILES IDX 7 23 93 24 4 25 1 26 2 27 3 28 21 30 22 31 23 32 24 34 25 35
REMARK SMILES IDX 26 36 87 37 27 38 86 39 28 40 29 41 30 42 80 43 31 44 85 45
REMARK SMILES IDX 79 46 81 47 32 48 84 49 78 50 77 51 33 53 65 54 45 55 64 56
REMARK SMILES IDX 46 57 49 58 63 59 82 60 47 61 48 62 62 64 83 65 50 66 34 67
REMARK SMILES IDX 35 68 43 69 36 70 42 71 44 72 41 73 37 74 38 75 39 76 40 77
REMARK SMILES IDX 66 78 67 79 75 80 68 81 74 82 76 83 73 84 69 85 70 86 71 87
REMARK SMILES IDX 72 88 51 89 52 90 60 91 53 92 59 93 61 94 58 95 54 96 55 97
REMARK SMILES IDX 56 98 57 99
REMARK H PARENT 18 6 4 29 22 33 81 52 49 63
REMARK Flexibility Score: inf
ROOT
ATOM      1  C   UNL A   1      33.789  29.358  26.973  1.00  0.00     0.042 C 
ENDROOT
BRANCH   1   2
ATOM      2  C   UNL A   1      33.685  29.501  25.450  1.00  0.00     0.118 C 
BRANCH   2   3
ATOM      3  N   UNL A   1      32.310  29.617  24.978  1.00  0.00    -0.349 N 
ATOM      4  C   UNL A   1      31.469  28.697  24.391  1.00  0.00     0.287 C 
ATOM      5  O   UNL A   1      30.309  29.065  24.195  1.00  0.00    -0.266 OA
ATOM      6  H   UNL A   1      31.913  30.509  25.102  1.00  0.00     0.163 HD
BRANCH   4   7
ATOM      7  C   UNL A   1      31.940  27.366  24.040  1.00  0.00     0.195 A 
ATOM      8  C   UNL A   1      35.212  22.953  22.839  1.00  0.00     0.016 C 
ATOM      9  C   UNL A   1      33.956  23.444  22.850  1.00  0.00     0.001 C 
ATOM     10  C   UNL A   1      33.164  23.682  21.569  1.00  0.00     0.048 C 
ATOM     11  C   UNL A   1      33.239  23.910  24.088  1.00  0.00     0.192 C 
ATOM     12  C   UNL A   1      32.885  25.181  21.356  1.00  0.00     0.081 C 
ATOM     13  C   UNL A   1      32.725  25.251  23.917  1.00  0.00     0.067 A 
ATOM     14  O   UNL A   1      33.102  23.230  25.101  1.00  0.00    -0.289 OA
ATOM     15  C   UNL A   1      32.550  25.780  22.663  1.00  0.00     0.116 A 
ATOM     16  C   UNL A   1      32.355  26.286  24.830  1.00  0.00     0.012 A 
ATOM     17  O   UNL A   1      32.043  27.019  22.717  1.00  0.00    -0.455 OA
ATOM     18  C   UNL A   1      32.467  26.212  26.313  1.00  0.00     0.049 C 
BRANCH   8  19
ATOM     19  C   UNL A   1      36.202  22.782  23.924  1.00  0.00    -0.025 A 
ATOM     20  C   UNL A   1      38.194  22.316  25.886  1.00  0.00     0.041 A 
ATOM     21  C   UNL A   1      37.701  23.596  25.669  1.00  0.00     0.027 A 
ATOM     22  C   UNL A   1      37.672  21.256  25.148  1.00  0.00     0.027 A 
ATOM     23  C   UNL A   1      36.759  23.830  24.663  1.00  0.00     0.010 A 
ATOM     24  C   UNL A   1      36.677  21.487  24.186  1.00  0.00     0.010 A 
BRANCH  20  25
ATOM     25  N   UNL A   1      39.173  22.171  26.876  1.00  0.00    -0.326 N 
ATOM     26  C   UNL A   1      40.404  20.255  25.900  1.00  0.00     0.114 C 
ATOM     27  C   UNL A   1      40.122  21.203  27.035  1.00  0.00     0.221 C 
ATOM     28  O   UNL A   1      40.795  21.174  28.067  1.00  0.00    -0.275 OA
ATOM     29  H   UNL A   1      39.176  22.874  27.566  1.00  0.00     0.169 HD
ENDBRANCH  20  25
ENDBRANCH   8  19
ENDBRANCH   4   7
ENDBRANCH   2   3
ENDBRANCH   1   2
BRANCH   1  30
ATOM     30  C   UNL A   1      35.241  29.366  27.428  1.00  0.00     0.118 C 
BRANCH  30  31
ATOM     31  N   UNL A   1      35.413  29.918  28.780  1.00  0.00    -0.352 N 
ATOM     32  C   UNL A   1      36.432  29.703  29.694  1.00  0.00     0.251 C 
ATOM     33  H   UNL A   1      34.700  30.527  29.080  1.00  0.00     0.163 HD
ATOM     34  O   UNL A   1      36.260  29.977  30.878  1.00  0.00    -0.269 OA
BRANCH  32  35
ATOM     35  C   UNL A   1      37.714  29.142  29.226  1.00  0.00     0.039 A 
ATOM     36  C   UNL A   1      38.377  29.620  28.092  1.00  0.00     0.014 A 
ATOM     37  C   UNL A   1      38.273  28.118  29.978  1.00  0.00     0.014 A 
ATOM     38  C   UNL A   1      39.637  29.100  27.783  1.00  0.00     0.010 A 
ATOM     39  C   UNL A   1      39.590  27.793  29.822  1.00  0.00     0.010 A 
ATOM     40  C   UNL A   1      40.244  28.195  28.671  1.00  0.00    -0.014 A 
BRANCH  40  41
ATOM     41  C   UNL A   1      41.631  27.756  28.526  1.00  0.00     0.031 A 
ATOM     42  C   UNL A   1      41.725  26.458  27.813  1.00  0.00     0.074 A 
ATOM     43  C   UNL A   1      42.691  28.574  28.742  1.00  0.00     0.049 A 
ATOM     44  N   UNL A   1      41.936  25.290  28.322  1.00  0.00    -0.248 NA
ATOM     45  C   UNL A   1      41.284  26.409  26.404  1.00  0.00     0.031 C 
ATOM     46  C   UNL A   1      42.648  30.000  29.104  1.00  0.00     0.029 A 
ATOM     47  N   UNL A   1      44.030  28.362  28.578  1.00  0.00    -0.354 N 
ATOM     48  C   UNL A   1      42.013  24.436  27.226  1.00  0.00     0.074 A 
ATOM     49  C   UNL A   1      41.295  25.093  26.174  1.00  0.00     0.031 C 
ATOM     50  C   UNL A   1      43.856  30.570  28.898  1.00  0.00     0.029 A 
ATOM     51  C   UNL A   1      44.810  29.525  28.573  1.00  0.00     0.049 A 
ATOM     52  H   UNL A   1      44.416  27.463  28.471  1.00  0.00     0.167 HD
ATOM     53  C   UNL A   1      43.005  23.502  27.165  1.00  0.00     0.034 A 
ATOM     54  C   UNL A   1      46.148  29.634  28.336  1.00  0.00     0.034 A 
ATOM     55  C   UNL A   1      43.649  23.391  28.456  1.00  0.00     0.049 A 
ATOM     56  C   UNL A   1      46.729  28.299  28.602  1.00  0.00     0.074 A 
ATOM     57  C   UNL A   1      43.339  22.873  29.693  1.00  0.00     0.029 A 
ATOM     58  N   UNL A   1      44.678  24.284  28.633  1.00  0.00    -0.354 N 
ATOM     59  N   UNL A   1      46.711  27.744  29.785  1.00  0.00    -0.248 NA
ATOM     60  C   UNL A   1      46.952  27.382  27.490  1.00  0.00     0.031 C 
ATOM     61  C   UNL A   1      44.111  23.613  30.639  1.00  0.00     0.029 A 
ATOM     62  C   UNL A   1      44.927  24.516  29.959  1.00  0.00     0.049 A 
ATOM     63  H   UNL A   1      45.176  24.706  27.896  1.00  0.00     0.167 HD
ATOM     64  C   UNL A   1      46.483  26.406  29.534  1.00  0.00     0.074 A 
ATOM     65  C   UNL A   1      46.812  26.215  28.126  1.00  0.00     0.031 C 
ATOM     66  C   UNL A   1      45.726  25.653  30.386  1.00  0.00     0.034 A 
BRANCH  53  67
ATOM     67  C   UNL A   1      43.761  23.086  25.907  1.00  0.00     0.023 A 
ATOM     68  C   UNL A   1      43.780  21.706  25.606  1.00  0.00     0.031 A 
ATOM     69  C   UNL A   1      44.676  23.875  25.173  1.00  0.00     0.131 A 
ATOM     70  C   UNL A   1      44.722  21.166  24.711  1.00  0.00     0.055 A 
ATOM     71  C   UNL A   1      45.582  23.338  24.252  1.00  0.00     0.041 A 
ATOM     72  F   UNL A   1      44.816  25.192  25.347  1.00  0.00    -0.206 F 
ATOM     73  C   UNL A   1      45.630  21.974  24.036  1.00  0.00     0.022 A 
BRANCH  70  74
ATOM     74  S   UNL A   1      44.838  19.366  24.548  1.00  0.00     0.124 S 
ATOM     75  O   UNL A   1      44.528  19.173  23.136  1.00  0.00    -0.237 OA
ATOM     76  O   UNL A   1      46.219  19.118  24.948  1.00  0.00    -0.237 OA
ATOM     77  O   UNL A   1      43.825  18.877  25.481  1.00  0.00    -0.744 OA
ENDBRANCH  70  74
ENDBRANCH  53  67
BRANCH  54  78
ATOM     78  C   UNL A   1      46.885  30.722  27.624  1.00  0.00     0.023 A 
ATOM     79  C   UNL A   1      46.259  31.812  26.971  1.00  0.00     0.031 A 
ATOM     80  C   UNL A   1      48.281  30.823  27.815  1.00  0.00     0.131 A 
ATOM     81  C   UNL A   1      47.022  32.935  26.556  1.00  0.00     0.055 A 
ATOM     82  C   UNL A   1      49.026  31.937  27.412  1.00  0.00     0.041 A 
ATOM     83  F   UNL A   1      48.955  29.874  28.482  1.00  0.00    -0.206 F 
ATOM     84  C   UNL A   1      48.397  33.003  26.790  1.00  0.00     0.022 A 
BRANCH  81  85
ATOM     85  S   UNL A   1      46.231  34.375  25.753  1.00  0.00     0.124 S 
ATOM     86  O   UNL A   1      47.334  34.963  25.002  1.00  0.00    -0.237 OA
ATOM     87  O   UNL A   1      45.170  33.751  24.969  1.00  0.00    -0.237 OA
ATOM     88  O   UNL A   1      45.761  35.182  26.879  1.00  0.00    -0.744 OA
ENDBRANCH  81  85
ENDBRANCH  54  78
BRANCH  66  89
ATOM     89  C   UNL A   1      45.663  26.068  31.834  1.00  0.00     0.023 A 
ATOM     90  C   UNL A   1      44.562  26.666  32.484  1.00  0.00     0.031 A 
ATOM     91  C   UNL A   1      46.802  25.771  32.606  1.00  0.00     0.131 A 
ATOM     92  C   UNL A   1      44.634  26.936  33.867  1.00  0.00     0.055 A 
ATOM     93  C   UNL A   1      46.859  26.018  33.973  1.00  0.00     0.041 A 
ATOM     94  F   UNL A   1      47.876  25.200  32.038  1.00  0.00    -0.206 F 
ATOM     95  C   UNL A   1      45.774  26.604  34.610  1.00  0.00     0.022 A 
BRANCH  92  96
ATOM     96  S   UNL A   1      43.253  27.748  34.738  1.00  0.00     0.124 S 
ATOM     97  O   UNL A   1      42.759  28.714  33.765  1.00  0.00    -0.237 OA
ATOM     98  O   UNL A   1      42.364  26.628  35.034  1.00  0.00    -0.237 OA
ATOM     99  O   UNL A   1      43.892  28.342  35.914  1.00  0.00    -0.744 OA
ENDBRANCH  92  96
ENDBRANCH  66  89
ENDBRANCH  40  41
ENDBRANCH  32  35
ENDBRANCH  30  31
ENDBRANCH   1  30
TORSDOF 15
ENDMDL
MODEL 3
REMARK VINA RESULT:     -13.4      4.127      5.418
REMARK SMILES CC(=O)Nc1ccc(/C=C2/CCc3oc(C(=O)NCCCNC(=O)c4ccc(-c5c6nc(c(-c7cc(S(=O)(=O)[O-])ccc7F)c7ccc([nH]7)c(-c7cc(S(=O)(=O)[O-])ccc7F)c7nc(c(-c8cc(S(=O)(=O)[O-])ccc8F)c8ccc5[nH]8)C=C7)C=C6)cc4)c(C)c3C2=O)cc1
REMARK SMILES IDX 20 1 19 2 18 3 16 4 17 5 15 7 9 8 10 9 11 10 91 11 12 12
REMARK SMILES IDX 90 13 92 14 13 15 88 16 14 17 89 18 8 19 5 20 6 21 94 22
REMARK SMILES IDX 7 23 93 24 4 25 1 26 2 27 3 28 21 30 22 31 23 32 24 34 25 35
REMARK SMILES IDX 26 36 87 37 27 38 86 39 28 40 29 41 30 42 80 43 31 44 85 45
REMARK SMILES IDX 79 46 81 47 32 48 84 49 78 50 77 51 33 53 65 54 45 55 64 56
REMARK SMILES IDX 46 57 49 58 63 59 82 60 47 61 48 62 62 64 83 65 50 66 34 67
REMARK SMILES IDX 35 68 43 69 36 70 42 71 44 72 41 73 37 74 38 75 39 76 40 77
REMARK SMILES IDX 66 78 67 79 75 80 68 81 74 82 76 83 73 84 69 85 70 86 71 87
REMARK SMILES IDX 72 88 51 89 52 90 60 91 53 92 59 93 61 94 58 95 54 96 55 97
REMARK SMILES IDX 56 98 57 99
REMARK H PARENT 18 6 4 29 22 33 81 52 49 63
REMARK Flexibility Score: inf
ROOT
ATOM      1  C   UNL A   1      34.775  28.497  26.951  1.00  0.00     0.042 C 
ENDROOT
BRANCH   1   2
ATOM      2  C   UNL A   1      33.322  28.412  27.431  1.00  0.00     0.118 C 
BRANCH   2   3
ATOM      3  N   UNL A   1      32.470  29.450  26.862  1.00  0.00    -0.349 N 
ATOM      4  C   UNL A   1      31.739  29.488  25.694  1.00  0.00     0.287 C 
ATOM      5  O   UNL A   1      31.021  30.477  25.532  1.00  0.00    -0.266 OA
ATOM      6  H   UNL A   1      32.406  30.267  27.408  1.00  0.00     0.163 HD
BRANCH   4   7
ATOM      7  C   UNL A   1      31.816  28.405  24.726  1.00  0.00     0.195 A 
ATOM      8  C   UNL A   1      33.276  23.707  22.003  1.00  0.00     0.016 C 
ATOM      9  C   UNL A   1      32.573  24.856  21.951  1.00  0.00     0.001 C 
ATOM     10  C   UNL A   1      32.912  25.976  20.974  1.00  0.00     0.048 C 
ATOM     11  C   UNL A   1      31.463  25.213  22.903  1.00  0.00     0.192 C 
ATOM     12  C   UNL A   1      33.384  27.241  21.716  1.00  0.00     0.081 C 
ATOM     13  C   UNL A   1      31.688  26.511  23.501  1.00  0.00     0.067 A 
ATOM     14  O   UNL A   1      30.491  24.497  23.127  1.00  0.00    -0.289 OA
ATOM     15  C   UNL A   1      32.542  27.413  22.918  1.00  0.00     0.116 A 
ATOM     16  C   UNL A   1      31.225  27.135  24.700  1.00  0.00     0.012 A 
ATOM     17  O   UNL A   1      32.595  28.560  23.609  1.00  0.00    -0.455 OA
ATOM     18  C   UNL A   1      30.345  26.501  25.720  1.00  0.00     0.049 C 
BRANCH   8  19
ATOM     19  C   UNL A   1      33.221  22.570  22.946  1.00  0.00    -0.025 A 
ATOM     20  C   UNL A   1      33.079  20.268  24.594  1.00  0.00     0.041 A 
ATOM     21  C   UNL A   1      34.001  21.272  24.860  1.00  0.00     0.027 A 
ATOM     22  C   UNL A   1      32.200  20.422  23.524  1.00  0.00     0.027 A 
ATOM     23  C   UNL A   1      34.104  22.379  24.013  1.00  0.00     0.010 A 
ATOM     24  C   UNL A   1      32.264  21.568  22.717  1.00  0.00     0.010 A 
BRANCH  20  25
ATOM     25  N   UNL A   1      33.071  19.167  25.459  1.00  0.00    -0.326 N 
ATOM     26  C   UNL A   1      33.958  17.463  23.895  1.00  0.00     0.114 C 
ATOM     27  C   UNL A   1      33.324  17.850  25.204  1.00  0.00     0.221 C 
ATOM     28  O   UNL A   1      33.112  17.010  26.080  1.00  0.00    -0.275 OA
ATOM     29  H   UNL A   1      32.846  19.374  26.395  1.00  0.00     0.169 HD
ENDBRANCH  20  25
ENDBRANCH   8  19
ENDBRANCH   4   7
ENDBRANCH   2   3
ENDBRANCH   1   2
BRANCH   1  30
ATOM     30  C   UNL A   1      35.394  29.842  27.305  1.00  0.00     0.118 C 
BRANCH  30  31
ATOM     31  N   UNL A   1      35.453  30.079  28.755  1.00  0.00    -0.352 N 
ATOM     32  C   UNL A   1      36.363  29.606  29.687  1.00  0.00     0.251 C 
ATOM     33  H   UNL A   1      34.743  30.657  29.116  1.00  0.00     0.163 HD
ATOM     34  O   UNL A   1      36.084  29.631  30.881  1.00  0.00    -0.269 OA
BRANCH  32  35
ATOM     35  C   UNL A   1      37.658  29.072  29.223  1.00  0.00     0.039 A 
ATOM     36  C   UNL A   1      38.343  29.602  28.125  1.00  0.00     0.014 A 
ATOM     37  C   UNL A   1      38.207  28.019  29.941  1.00  0.00     0.014 A 
ATOM     38  C   UNL A   1      39.612  29.103  27.822  1.00  0.00     0.010 A 
ATOM     39  C   UNL A   1      39.529  27.708  29.801  1.00  0.00     0.010 A 
ATOM     40  C   UNL A   1      40.206  28.164  28.683  1.00  0.00    -0.014 A 
BRANCH  40  41
ATOM     41  C   UNL A   1      41.598  27.738  28.549  1.00  0.00     0.031 A 
ATOM     42  C   UNL A   1      41.713  26.452  27.818  1.00  0.00     0.074 A 
ATOM     43  C   UNL A   1      42.648  28.562  28.791  1.00  0.00     0.049 A 
ATOM     44  N   UNL A   1      41.927  25.279  28.313  1.00  0.00    -0.248 NA
ATOM     45  C   UNL A   1      41.290  26.421  26.403  1.00  0.00     0.031 C 
ATOM     46  C   UNL A   1      42.587  29.982  29.175  1.00  0.00     0.029 A 
ATOM     47  N   UNL A   1      43.990  28.364  28.642  1.00  0.00    -0.354 N 
ATOM     48  C   UNL A   1      42.026  24.442  27.205  1.00  0.00     0.074 A 
ATOM     49  C   UNL A   1      41.316  25.109  26.153  1.00  0.00     0.031 C 
ATOM     50  C   UNL A   1      43.794  30.565  28.993  1.00  0.00     0.029 A 
ATOM     51  C   UNL A   1      44.761  29.533  28.665  1.00  0.00     0.049 A 
ATOM     52  H   UNL A   1      44.386  27.470  28.527  1.00  0.00     0.167 HD
ATOM     53  C   UNL A   1      43.027  23.518  27.143  1.00  0.00     0.034 A 
ATOM     54  C   UNL A   1      46.100  29.658  28.447  1.00  0.00     0.034 A 
ATOM     55  C   UNL A   1      43.655  23.392  28.440  1.00  0.00     0.049 A 
ATOM     56  C   UNL A   1      46.690  28.323  28.700  1.00  0.00     0.074 A 
ATOM     57  C   UNL A   1      43.334  22.853  29.665  1.00  0.00     0.029 A 
ATOM     58  N   UNL A   1      44.673  24.292  28.644  1.00  0.00    -0.354 N 
ATOM     59  N   UNL A   1      46.662  27.751  29.875  1.00  0.00    -0.248 NA
ATOM     60  C   UNL A   1      46.935  27.426  27.577  1.00  0.00     0.031 C 
ATOM     61  C   UNL A   1      44.087  23.585  30.632  1.00  0.00     0.029 A 
ATOM     62  C   UNL A   1      44.904  24.506  29.977  1.00  0.00     0.049 A 
ATOM     63  H   UNL A   1      45.177  24.729  27.920  1.00  0.00     0.167 HD
ATOM     64  C   UNL A   1      46.448  26.414  29.601  1.00  0.00     0.074 A 
ATOM     65  C   UNL A   1      46.797  26.248  28.194  1.00  0.00     0.031 C 
ATOM     66  C   UNL A   1      45.687  25.642  30.431  1.00  0.00     0.034 A 
BRANCH  53  67
ATOM     67  C   UNL A   1      43.803  23.127  25.889  1.00  0.00     0.023 A 
ATOM     68  C   UNL A   1      43.855  21.750  25.578  1.00  0.00     0.031 A 
ATOM     69  C   UNL A   1      44.706  23.941  25.168  1.00  0.00     0.131 A 
ATOM     70  C   UNL A   1      44.816  21.237  24.688  1.00  0.00     0.055 A 
ATOM     71  C   UNL A   1      45.632  23.431  24.251  1.00  0.00     0.041 A 
ATOM     72  F   UNL A   1      44.815  25.260  25.352  1.00  0.00    -0.206 F 
ATOM     73  C   UNL A   1      45.711  22.070  24.026  1.00  0.00     0.022 A 
BRANCH  70  74
ATOM     74  S   UNL A   1      44.973  19.441  24.514  1.00  0.00     0.124 S 
ATOM     75  O   UNL A   1      44.635  19.246  23.109  1.00  0.00    -0.237 OA
ATOM     76  O   UNL A   1      46.370  19.227  24.880  1.00  0.00    -0.237 OA
ATOM     77  O   UNL A   1      43.995  18.923  25.469  1.00  0.00    -0.744 OA
ENDBRANCH  70  74
ENDBRANCH  53  67
BRANCH  54  78
ATOM     78  C   UNL A   1      46.837  30.762  27.761  1.00  0.00     0.023 A 
ATOM     79  C   UNL A   1      46.211  31.813  27.047  1.00  0.00     0.031 A 
ATOM     80  C   UNL A   1      48.212  30.926  28.038  1.00  0.00     0.131 A 
ATOM     81  C   UNL A   1      46.953  32.960  26.659  1.00  0.00     0.055 A 
ATOM     82  C   UNL A   1      48.936  32.062  27.661  1.00  0.00     0.041 A 
ATOM     83  F   UNL A   1      48.881  30.017  28.767  1.00  0.00    -0.206 F 
ATOM     84  C   UNL A   1      48.306  33.089  26.979  1.00  0.00     0.022 A 
BRANCH  81  85
ATOM     85  S   UNL A   1      46.157  34.351  25.777  1.00  0.00     0.124 S 
ATOM     86  O   UNL A   1      45.130  33.678  24.991  1.00  0.00    -0.237 OA
ATOM     87  O   UNL A   1      45.691  35.191  26.874  1.00  0.00    -0.237 OA
ATOM     88  O   UNL A   1      47.248  34.927  24.989  1.00  0.00    -0.744 OA
ENDBRANCH  81  85
ENDBRANCH  54  78
BRANCH  66  89
ATOM     89  C   UNL A   1      45.602  26.035  31.884  1.00  0.00     0.023 A 
ATOM     90  C   UNL A   1      44.490  26.622  32.526  1.00  0.00     0.031 A 
ATOM     91  C   UNL A   1      46.729  25.727  32.669  1.00  0.00     0.131 A 
ATOM     92  C   UNL A   1      44.541  26.870  33.915  1.00  0.00     0.055 A 
ATOM     93  C   UNL A   1      46.765  25.952  34.040  1.00  0.00     0.041 A 
ATOM     94  F   UNL A   1      47.812  25.165  32.108  1.00  0.00    -0.206 F 
ATOM     95  C   UNL A   1      45.670  26.528  34.669  1.00  0.00     0.022 A 
BRANCH  92  96
ATOM     96  S   UNL A   1      43.146  27.668  34.777  1.00  0.00     0.124 S 
ATOM     97  O   UNL A   1      43.098  26.976  36.059  1.00  0.00    -0.237 OA
ATOM     98  O   UNL A   1      43.559  29.068  34.820  1.00  0.00    -0.237 OA
ATOM     99  O   UNL A   1      42.005  27.400  33.899  1.00  0.00    -0.744 OA
ENDBRANCH  92  96
ENDBRANCH  66  89
ENDBRANCH  40  41
ENDBRANCH  32  35
ENDBRANCH  30  31
ENDBRANCH   1  30
TORSDOF 15
ENDMDL
