MODEL 1
REMARK VINA RESULT:     -13.0      0.000      0.000
REMARK SMILES CC(=O)Nc1ccc(/C=N/c2ccccc2C(=O)NCCCNC(=O)c2ccc(-c3c4nc(c(-c5cc(S(=O)(=O)[O-])ccc5F)c5ccc([nH]5)c(-c5cc(S(=O)(=O)[O-])ccc5F)c5nc(c(-c6cc(S(=O)(=O)[O-])ccc6F)c6ccc3[nH]6)C=C5)C=C4)cc2)cc1
REMARK SMILES IDX 21 1 20 2 19 3 17 4 18 5 16 7 11 8 12 9 13 10 15 11 14 12
REMARK SMILES IDX 10 13 9 14 8 15 5 16 6 17 90 18 7 19 89 20 4 21 1 22 2 23
REMARK SMILES IDX 3 24 22 26 23 27 24 28 25 30 26 31 27 32 88 33 28 34 87 35
REMARK SMILES IDX 29 36 30 37 31 38 81 39 32 40 86 41 80 42 82 43 33 44 85 45
REMARK SMILES IDX 79 46 78 47 34 49 66 50 46 51 65 52 47 53 50 54 64 55 83 56
REMARK SMILES IDX 48 57 49 58 63 60 84 61 51 62 35 63 36 64 44 65 37 66 43 67
REMARK SMILES IDX 45 68 42 69 38 70 39 71 40 72 41 73 67 74 68 75 76 76 69 77
REMARK SMILES IDX 75 78 77 79 74 80 70 81 71 82 72 83 73 84 52 85 53 86 61 87
REMARK SMILES IDX 54 88 60 89 62 90 59 91 55 92 56 93 57 94 58 95
REMARK H PARENT 19 6 4 25 23 29 82 48 50 59
REMARK Flexibility Score: inf
ROOT
ATOM      1  C   UNL A   1      31.449  27.725  26.269  1.00  0.00     0.042 C 
ENDROOT
BRANCH   1   2
ATOM      2  C   UNL A   1      31.952  26.297  26.335  1.00  0.00     0.118 C 
BRANCH   2   3
ATOM      3  N   UNL A   1      31.048  25.323  26.906  1.00  0.00    -0.352 N 
ATOM      4  C   UNL A   1      30.817  24.022  26.533  1.00  0.00     0.253 C 
ATOM      5  O   UNL A   1      30.144  23.327  27.299  1.00  0.00    -0.269 OA
ATOM      6  H   UNL A   1      30.520  25.641  27.674  1.00  0.00     0.163 HD
BRANCH   4   7
ATOM      7  C   UNL A   1      31.235  23.429  25.231  1.00  0.00     0.065 A 
ATOM      8  C   UNL A   1      31.123  24.003  23.948  1.00  0.00     0.076 A 
ATOM      9  C   UNL A   1      31.556  23.257  22.838  1.00  0.00     0.029 A 
ATOM     10  C   UNL A   1      32.133  21.994  22.979  1.00  0.00     0.002 A 
ATOM     11  C   UNL A   1      31.848  22.162  25.360  1.00  0.00     0.016 A 
ATOM     12  C   UNL A   1      32.290  21.449  24.245  1.00  0.00     0.001 A 
BRANCH   8  13
ATOM     13  N   UNL A   1      30.500  25.222  23.641  1.00  0.00    -0.255 NA
ATOM     14  C   UNL A   1      31.111  26.089  22.903  1.00  0.00     0.119 C 
BRANCH  14  15
ATOM     15  C   UNL A   1      30.535  27.445  22.745  1.00  0.00    -0.007 A 
ATOM     16  C   UNL A   1      29.611  30.105  22.793  1.00  0.00     0.041 A 
ATOM     17  C   UNL A   1      28.793  29.054  23.231  1.00  0.00     0.027 A 
ATOM     18  C   UNL A   1      30.899  29.801  22.347  1.00  0.00     0.027 A 
ATOM     19  C   UNL A   1      29.248  27.732  23.207  1.00  0.00     0.012 A 
ATOM     20  C   UNL A   1      31.361  28.478  22.311  1.00  0.00     0.012 A 
BRANCH  16  21
ATOM     21  N   UNL A   1      29.064  31.397  22.895  1.00  0.00    -0.326 N 
ATOM     22  C   UNL A   1      28.079  31.807  20.630  1.00  0.00     0.114 C 
ATOM     23  C   UNL A   1      28.452  32.238  22.015  1.00  0.00     0.221 C 
ATOM     24  O   UNL A   1      28.166  33.373  22.409  1.00  0.00    -0.275 OA
ATOM     25  H   UNL A   1      29.140  31.776  23.799  1.00  0.00     0.169 HD
ENDBRANCH  16  21
ENDBRANCH  14  15
ENDBRANCH   8  13
ENDBRANCH   4   7
ENDBRANCH   2   3
ENDBRANCH   1   2
BRANCH   1  26
ATOM     26  C   UNL A   1      32.484  28.762  25.855  1.00  0.00     0.118 C 
BRANCH  26  27
ATOM     27  N   UNL A   1      32.091  30.151  26.060  1.00  0.00    -0.352 N 
ATOM     28  C   UNL A   1      32.660  31.190  26.759  1.00  0.00     0.251 C 
ATOM     29  H   UNL A   1      31.251  30.394  25.609  1.00  0.00     0.163 HD
ATOM     30  O   UNL A   1      32.095  32.289  26.739  1.00  0.00    -0.269 OA
BRANCH  28  31
ATOM     31  C   UNL A   1      33.891  31.021  27.562  1.00  0.00     0.039 A 
ATOM     32  C   UNL A   1      34.575  32.158  28.010  1.00  0.00     0.014 A 
ATOM     33  C   UNL A   1      34.423  29.763  27.831  1.00  0.00     0.014 A 
ATOM     34  C   UNL A   1      35.739  32.031  28.776  1.00  0.00     0.010 A 
ATOM     35  C   UNL A   1      35.509  29.628  28.688  1.00  0.00     0.010 A 
ATOM     36  C   UNL A   1      36.201  30.762  29.139  1.00  0.00    -0.014 A 
BRANCH  36  37
ATOM     37  C   UNL A   1      37.485  30.562  29.859  1.00  0.00     0.031 A 
ATOM     38  C   UNL A   1      38.567  29.760  29.184  1.00  0.00     0.074 A 
ATOM     39  C   UNL A   1      37.643  31.011  31.118  1.00  0.00     0.049 A 
ATOM     40  N   UNL A   1      39.667  29.256  29.677  1.00  0.00    -0.248 NA
ATOM     41  C   UNL A   1      38.335  29.427  27.770  1.00  0.00     0.031 C 
ATOM     42  C   UNL A   1      36.651  31.775  31.876  1.00  0.00     0.029 A 
ATOM     43  N   UNL A   1      38.691  30.872  31.991  1.00  0.00    -0.354 N 
ATOM     44  C   UNL A   1      40.221  28.492  28.652  1.00  0.00     0.074 A 
ATOM     45  C   UNL A   1      39.300  28.553  27.539  1.00  0.00     0.031 C 
ATOM     46  C   UNL A   1      37.144  32.049  33.095  1.00  0.00     0.029 A 
ATOM     47  C   UNL A   1      38.463  31.437  33.224  1.00  0.00     0.049 A 
ATOM     48  H   UNL A   1      39.529  30.412  31.756  1.00  0.00     0.167 HD
ATOM     49  C   UNL A   1      41.398  27.818  28.641  1.00  0.00     0.034 A 
ATOM     50  C   UNL A   1      39.225  31.439  34.335  1.00  0.00     0.034 A 
ATOM     51  C   UNL A   1      42.319  27.834  29.752  1.00  0.00     0.049 A 
ATOM     52  C   UNL A   1      40.563  30.743  34.282  1.00  0.00     0.074 A 
ATOM     53  C   UNL A   1      43.570  27.254  29.852  1.00  0.00     0.029 A 
ATOM     54  N   UNL A   1      42.084  28.481  30.962  1.00  0.00    -0.354 N 
ATOM     55  N   UNL A   1      41.088  30.036  33.306  1.00  0.00    -0.248 NA
ATOM     56  C   UNL A   1      41.414  30.858  35.471  1.00  0.00     0.031 C 
ATOM     57  C   UNL A   1      44.067  27.504  31.136  1.00  0.00     0.029 A 
ATOM     58  C   UNL A   1      43.160  28.302  31.817  1.00  0.00     0.049 A 
ATOM     59  H   UNL A   1      41.272  28.993  31.179  1.00  0.00     0.167 HD
ATOM     60  C   UNL A   1      42.342  29.637  33.758  1.00  0.00     0.074 A 
ATOM     61  C   UNL A   1      42.500  30.206  35.083  1.00  0.00     0.031 C 
ATOM     62  C   UNL A   1      43.280  28.871  33.141  1.00  0.00     0.034 A 
BRANCH  49  63
ATOM     63  C   UNL A   1      41.715  26.991  27.413  1.00  0.00     0.023 A 
ATOM     64  C   UNL A   1      41.416  25.617  27.338  1.00  0.00     0.031 A 
ATOM     65  C   UNL A   1      42.407  27.564  26.330  1.00  0.00     0.131 A 
ATOM     66  C   UNL A   1      41.907  24.847  26.272  1.00  0.00     0.055 A 
ATOM     67  C   UNL A   1      42.803  26.811  25.222  1.00  0.00     0.041 A 
ATOM     68  F   UNL A   1      42.742  28.864  26.344  1.00  0.00    -0.206 F 
ATOM     69  C   UNL A   1      42.576  25.438  25.199  1.00  0.00     0.022 A 
BRANCH  66  70
ATOM     70  S   UNL A   1      41.835  23.038  26.405  1.00  0.00     0.124 S 
ATOM     71  O   UNL A   1      40.393  22.807  26.481  1.00  0.00    -0.237 OA
ATOM     72  O   UNL A   1      42.487  22.605  25.174  1.00  0.00    -0.237 OA
ATOM     73  O   UNL A   1      42.569  22.754  27.635  1.00  0.00    -0.744 OA
ENDBRANCH  66  70
ENDBRANCH  49  63
BRANCH  50  74
ATOM     74  C   UNL A   1      38.743  32.107  35.579  1.00  0.00     0.023 A 
ATOM     75  C   UNL A   1      38.155  31.372  36.621  1.00  0.00     0.031 A 
ATOM     76  C   UNL A   1      38.867  33.498  35.743  1.00  0.00     0.131 A 
ATOM     77  C   UNL A   1      37.686  32.034  37.768  1.00  0.00     0.055 A 
ATOM     78  C   UNL A   1      38.442  34.146  36.905  1.00  0.00     0.041 A 
ATOM     79  F   UNL A   1      39.431  34.248  34.783  1.00  0.00    -0.206 F 
ATOM     80  C   UNL A   1      37.838  33.414  37.922  1.00  0.00     0.022 A 
BRANCH  77  81
ATOM     81  S   UNL A   1      36.824  31.072  39.042  1.00  0.00     0.124 S 
ATOM     82  O   UNL A   1      35.576  31.812  39.183  1.00  0.00    -0.237 OA
ATOM     83  O   UNL A   1      36.724  29.758  38.412  1.00  0.00    -0.237 OA
ATOM     84  O   UNL A   1      37.725  31.140  40.190  1.00  0.00    -0.744 OA
ENDBRANCH  77  81
ENDBRANCH  50  74
BRANCH  62  85
ATOM     85  C   UNL A   1      44.569  28.646  33.891  1.00  0.00     0.023 A 
ATOM     86  C   UNL A   1      44.698  27.620  34.842  1.00  0.00     0.031 A 
ATOM     87  C   UNL A   1      45.675  29.484  33.665  1.00  0.00     0.131 A 
ATOM     88  C   UNL A   1      45.882  27.501  35.584  1.00  0.00     0.055 A 
ATOM     89  C   UNL A   1      46.874  29.319  34.359  1.00  0.00     0.041 A 
ATOM     90  F   UNL A   1      45.606  30.480  32.768  1.00  0.00    -0.206 F 
ATOM     91  C   UNL A   1      46.977  28.333  35.336  1.00  0.00     0.022 A 
BRANCH  88  92
ATOM     92  S   UNL A   1      45.931  26.316  36.955  1.00  0.00     0.124 S 
ATOM     93  O   UNL A   1      47.080  26.788  37.722  1.00  0.00    -0.237 OA
ATOM     94  O   UNL A   1      44.626  26.507  37.579  1.00  0.00    -0.237 OA
ATOM     95  O   UNL A   1      46.118  25.028  36.290  1.00  0.00    -0.744 OA
ENDBRANCH  88  92
ENDBRANCH  62  85
ENDBRANCH  36  37
ENDBRANCH  28  31
ENDBRANCH  26  27
ENDBRANCH   1  26
TORSDOF 16
ENDMDL
MODEL 2
REMARK VINA RESULT:     -12.9      2.572      7.929
REMARK SMILES CC(=O)Nc1ccc(/C=N/c2ccccc2C(=O)NCCCNC(=O)c2ccc(-c3c4nc(c(-c5cc(S(=O)(=O)[O-])ccc5F)c5ccc([nH]5)c(-c5cc(S(=O)(=O)[O-])ccc5F)c5nc(c(-c6cc(S(=O)(=O)[O-])ccc6F)c6ccc3[nH]6)C=C5)C=C4)cc2)cc1
REMARK SMILES IDX 21 1 20 2 19 3 17 4 18 5 16 7 11 8 12 9 13 10 15 11 14 12
REMARK SMILES IDX 10 13 9 14 8 15 5 16 6 17 90 18 7 19 89 20 4 21 1 22 2 23
REMARK SMILES IDX 3 24 22 26 23 27 24 28 25 30 26 31 27 32 88 33 28 34 87 35
REMARK SMILES IDX 29 36 30 37 31 38 81 39 32 40 86 41 80 42 82 43 33 44 85 45
REMARK SMILES IDX 79 46 78 47 34 49 66 50 46 51 65 52 47 53 50 54 64 55 83 56
REMARK SMILES IDX 48 57 49 58 63 60 84 61 51 62 35 63 36 64 44 65 37 66 43 67
REMARK SMILES IDX 45 68 42 69 38 70 39 71 40 72 41 73 67 74 68 75 76 76 69 77
REMARK SMILES IDX 75 78 77 79 74 80 70 81 71 82 72 83 73 84 52 85 53 86 61 87
REMARK SMILES IDX 54 88 60 89 62 90 59 91 55 92 56 93 57 94 58 95
REMARK H PARENT 19 6 4 25 23 29 82 48 50 59
REMARK Flexibility Score: inf
ROOT
ATOM      1  C   UNL A   1      32.654  28.292  26.728  1.00  0.00     0.042 C 
ENDROOT
BRANCH   1   2
ATOM      2  C   UNL A   1      32.871  26.825  26.420  1.00  0.00     0.118 C 
BRANCH   2   3
ATOM      3  N   UNL A   1      31.849  25.913  26.885  1.00  0.00    -0.352 N 
ATOM      4  C   UNL A   1      31.480  24.688  26.388  1.00  0.00     0.253 C 
ATOM      5  O   UNL A   1      30.716  24.006  27.077  1.00  0.00    -0.269 OA
ATOM      6  H   UNL A   1      31.343  26.217  27.674  1.00  0.00     0.163 HD
BRANCH   4   7
ATOM      7  C   UNL A   1      31.858  24.173  25.041  1.00  0.00     0.065 A 
ATOM      8  C   UNL A   1      31.833  24.870  23.816  1.00  0.00     0.076 A 
ATOM      9  C   UNL A   1      32.205  24.185  22.645  1.00  0.00     0.029 A 
ATOM     10  C   UNL A   1      32.640  22.859  22.675  1.00  0.00     0.002 A 
ATOM     11  C   UNL A   1      32.328  22.840  25.058  1.00  0.00     0.016 A 
ATOM     12  C   UNL A   1      32.712  22.188  23.886  1.00  0.00     0.001 A 
BRANCH   8  13
ATOM     13  N   UNL A   1      31.351  26.172  23.617  1.00  0.00    -0.255 NA
ATOM     14  C   UNL A   1      30.080  26.379  23.509  1.00  0.00     0.119 C 
BRANCH  14  15
ATOM     15  C   UNL A   1      29.593  27.719  23.105  1.00  0.00    -0.007 A 
ATOM     16  C   UNL A   1      28.547  30.091  22.004  1.00  0.00     0.041 A 
ATOM     17  C   UNL A   1      29.912  29.790  21.894  1.00  0.00     0.027 A 
ATOM     18  C   UNL A   1      27.718  29.178  22.660  1.00  0.00     0.027 A 
ATOM     19  C   UNL A   1      30.435  28.615  22.441  1.00  0.00     0.012 A 
ATOM     20  C   UNL A   1      28.234  28.000  23.219  1.00  0.00     0.012 A 
BRANCH  16  21
ATOM     21  N   UNL A   1      28.125  31.282  21.387  1.00  0.00    -0.326 N 
ATOM     22  C   UNL A   1      28.898  33.073  22.957  1.00  0.00     0.114 C 
ATOM     23  C   UNL A   1      28.164  32.597  21.740  1.00  0.00     0.221 C 
ATOM     24  O   UNL A   1      27.606  33.409  20.996  1.00  0.00    -0.275 OA
ATOM     25  H   UNL A   1      27.711  31.133  20.507  1.00  0.00     0.169 HD
ENDBRANCH  16  21
ENDBRANCH  14  15
ENDBRANCH   8  13
ENDBRANCH   4   7
ENDBRANCH   2   3
ENDBRANCH   1   2
BRANCH   1  26
ATOM     26  C   UNL A   1      33.773  29.224  26.283  1.00  0.00     0.118 C 
BRANCH  26  27
ATOM     27  N   UNL A   1      33.716  30.574  26.832  1.00  0.00    -0.352 N 
ATOM     28  C   UNL A   1      34.551  31.282  27.664  1.00  0.00     0.251 C 
ATOM     29  H   UNL A   1      32.920  31.080  26.550  1.00  0.00     0.163 HD
ATOM     30  O   UNL A   1      34.245  32.443  27.952  1.00  0.00    -0.269 OA
BRANCH  28  31
ATOM     31  C   UNL A   1      35.769  30.683  28.254  1.00  0.00     0.039 A 
ATOM     32  C   UNL A   1      37.023  31.053  27.752  1.00  0.00     0.014 A 
ATOM     33  C   UNL A   1      35.700  29.716  29.253  1.00  0.00     0.014 A 
ATOM     34  C   UNL A   1      38.193  30.509  28.292  1.00  0.00     0.010 A 
ATOM     35  C   UNL A   1      36.858  29.262  29.872  1.00  0.00     0.010 A 
ATOM     36  C   UNL A   1      38.118  29.625  29.374  1.00  0.00    -0.014 A 
BRANCH  36  37
ATOM     37  C   UNL A   1      39.316  28.937  29.919  1.00  0.00     0.031 A 
ATOM     38  C   UNL A   1      39.967  29.505  31.153  1.00  0.00     0.074 A 
ATOM     39  C   UNL A   1      39.857  27.886  29.275  1.00  0.00     0.049 A 
ATOM     40  N   UNL A   1      41.130  29.236  31.686  1.00  0.00    -0.248 NA
ATOM     41  C   UNL A   1      39.224  30.572  31.841  1.00  0.00     0.031 C 
ATOM     42  C   UNL A   1      39.324  27.273  28.057  1.00  0.00     0.029 A 
ATOM     43  N   UNL A   1      40.989  27.160  29.543  1.00  0.00    -0.354 N 
ATOM     44  C   UNL A   1      41.285  30.148  32.727  1.00  0.00     0.074 A 
ATOM     45  C   UNL A   1      40.124  31.011  32.705  1.00  0.00     0.031 C 
ATOM     46  C   UNL A   1      40.121  26.255  27.692  1.00  0.00     0.029 A 
ATOM     47  C   UNL A   1      41.247  26.175  28.618  1.00  0.00     0.049 A 
ATOM     48  H   UNL A   1      41.562  27.328  30.326  1.00  0.00     0.167 HD
ATOM     49  C   UNL A   1      42.296  30.241  33.627  1.00  0.00     0.034 A 
ATOM     50  C   UNL A   1      42.286  25.324  28.521  1.00  0.00     0.034 A 
ATOM     51  C   UNL A   1      43.406  29.321  33.653  1.00  0.00     0.049 A 
ATOM     52  C   UNL A   1      43.367  25.396  29.570  1.00  0.00     0.074 A 
ATOM     53  C   UNL A   1      44.461  29.257  34.545  1.00  0.00     0.029 A 
ATOM     54  N   UNL A   1      43.595  28.287  32.741  1.00  0.00    -0.354 N 
ATOM     55  N   UNL A   1      43.500  26.250  30.561  1.00  0.00    -0.248 NA
ATOM     56  C   UNL A   1      44.427  24.385  29.498  1.00  0.00     0.031 C 
ATOM     57  C   UNL A   1      45.313  28.222  34.142  1.00  0.00     0.029 A 
ATOM     58  C   UNL A   1      44.755  27.590  33.040  1.00  0.00     0.049 A 
ATOM     59  H   UNL A   1      42.993  28.079  31.991  1.00  0.00     0.167 HD
ATOM     60  C   UNL A   1      44.650  25.865  31.243  1.00  0.00     0.074 A 
ATOM     61  C   UNL A   1      45.155  24.687  30.563  1.00  0.00     0.031 C 
ATOM     62  C   UNL A   1      45.240  26.428  32.331  1.00  0.00     0.034 A 
BRANCH  49  63
ATOM     63  C   UNL A   1      42.250  31.394  34.608  1.00  0.00     0.023 A 
ATOM     64  C   UNL A   1      41.326  31.438  35.669  1.00  0.00     0.031 A 
ATOM     65  C   UNL A   1      43.087  32.511  34.429  1.00  0.00     0.131 A 
ATOM     66  C   UNL A   1      41.180  32.611  36.428  1.00  0.00     0.055 A 
ATOM     67  C   UNL A   1      43.007  33.635  35.255  1.00  0.00     0.041 A 
ATOM     68  F   UNL A   1      43.978  32.545  33.426  1.00  0.00    -0.206 F 
ATOM     69  C   UNL A   1      42.033  33.701  36.246  1.00  0.00     0.022 A 
BRANCH  66  70
ATOM     70  S   UNL A   1      39.735  32.764  37.515  1.00  0.00     0.124 S 
ATOM     71  O   UNL A   1      40.365  32.840  38.832  1.00  0.00    -0.237 OA
ATOM     72  O   UNL A   1      39.109  33.993  37.036  1.00  0.00    -0.237 OA
ATOM     73  O   UNL A   1      38.982  31.539  37.262  1.00  0.00    -0.744 OA
ENDBRANCH  66  70
ENDBRANCH  49  63
BRANCH  50  74
ATOM     74  C   UNL A   1      42.358  24.349  27.394  1.00  0.00     0.023 A 
ATOM     75  C   UNL A   1      41.649  23.137  27.430  1.00  0.00     0.031 A 
ATOM     76  C   UNL A   1      43.141  24.619  26.257  1.00  0.00     0.131 A 
ATOM     77  C   UNL A   1      41.760  22.228  26.364  1.00  0.00     0.055 A 
ATOM     78  C   UNL A   1      43.211  23.733  25.180  1.00  0.00     0.041 A 
ATOM     79  F   UNL A   1      43.831  25.767  26.165  1.00  0.00    -0.206 F 
ATOM     80  C   UNL A   1      42.526  22.525  25.234  1.00  0.00     0.022 A 
BRANCH  77  81
ATOM     81  S   UNL A   1      40.928  20.621  26.497  1.00  0.00     0.124 S 
ATOM     82  O   UNL A   1      41.784  19.772  25.677  1.00  0.00    -0.237 OA
ATOM     83  O   UNL A   1      40.969  20.377  27.936  1.00  0.00    -0.237 OA
ATOM     84  O   UNL A   1      39.597  20.880  25.952  1.00  0.00    -0.744 OA
ENDBRANCH  77  81
ENDBRANCH  50  74
BRANCH  62  85
ATOM     85  C   UNL A   1      46.475  25.743  32.860  1.00  0.00     0.023 A 
ATOM     86  C   UNL A   1      47.723  25.880  32.228  1.00  0.00     0.031 A 
ATOM     87  C   UNL A   1      46.396  24.923  33.999  1.00  0.00     0.131 A 
ATOM     88  C   UNL A   1      48.827  25.154  32.698  1.00  0.00     0.055 A 
ATOM     89  C   UNL A   1      47.513  24.255  34.503  1.00  0.00     0.041 A 
ATOM     90  F   UNL A   1      45.229  24.755  34.642  1.00  0.00    -0.206 F 
ATOM     91  C   UNL A   1      48.733  24.356  33.841  1.00  0.00     0.022 A 
BRANCH  88  92
ATOM     92  S   UNL A   1      50.357  25.178  31.727  1.00  0.00     0.124 S 
ATOM     93  O   UNL A   1      51.100  26.265  32.359  1.00  0.00    -0.237 OA
ATOM     94  O   UNL A   1      50.885  23.835  31.943  1.00  0.00    -0.237 OA
ATOM     95  O   UNL A   1      49.896  25.452  30.367  1.00  0.00    -0.744 OA
ENDBRANCH  88  92
ENDBRANCH  62  85
ENDBRANCH  36  37
ENDBRANCH  28  31
ENDBRANCH  26  27
ENDBRANCH   1  26
TORSDOF 16
ENDMDL
MODEL 3
REMARK VINA RESULT:     -12.8      1.655      1.948
REMARK SMILES CC(=O)Nc1ccc(/C=N/c2ccccc2C(=O)NCCCNC(=O)c2ccc(-c3c4nc(c(-c5cc(S(=O)(=O)[O-])ccc5F)c5ccc([nH]5)c(-c5cc(S(=O)(=O)[O-])ccc5F)c5nc(c(-c6cc(S(=O)(=O)[O-])ccc6F)c6ccc3[nH]6)C=C5)C=C4)cc2)cc1
REMARK SMILES IDX 21 1 20 2 19 3 17 4 18 5 16 7 11 8 12 9 13 10 15 11 14 12
REMARK SMILES IDX 10 13 9 14 8 15 5 16 6 17 90 18 7 19 89 20 4 21 1 22 2 23
REMARK SMILES IDX 3 24 22 26 23 27 24 28 25 30 26 31 27 32 88 33 28 34 87 35
REMARK SMILES IDX 29 36 30 37 31 38 81 39 32 40 86 41 80 42 82 43 33 44 85 45
REMARK SMILES IDX 79 46 78 47 34 49 66 50 46 51 65 52 47 53 50 54 64 55 83 56
REMARK SMILES IDX 48 57 49 58 63 60 84 61 51 62 35 63 36 64 44 65 37 66 43 67
REMARK SMILES IDX 45 68 42 69 38 70 39 71 40 72 41 73 67 74 68 75 76 76 69 77
REMARK SMILES IDX 75 78 77 79 74 80 70 81 71 82 72 83 73 84 52 85 53 86 61 87
REMARK SMILES IDX 54 88 60 89 62 90 59 91 55 92 56 93 57 94 58 95
REMARK H PARENT 19 6 4 25 23 29 82 48 50 59
REMARK Flexibility Score: inf
ROOT
ATOM      1  C   UNL A   1      31.825  28.326  26.591  1.00  0.00     0.042 C 
ENDROOT
BRANCH   1   2
ATOM      2  C   UNL A   1      32.282  26.895  26.396  1.00  0.00     0.118 C 
BRANCH   2   3
ATOM      3  N   UNL A   1      31.394  25.864  26.887  1.00  0.00    -0.352 N 
ATOM      4  C   UNL A   1      31.198  24.587  26.423  1.00  0.00     0.253 C 
ATOM      5  O   UNL A   1      30.533  23.826  27.131  1.00  0.00    -0.269 OA
ATOM      6  H   UNL A   1      30.850  26.117  27.667  1.00  0.00     0.163 HD
BRANCH   4   7
ATOM      7  C   UNL A   1      31.646  24.093  25.090  1.00  0.00     0.065 A 
ATOM      8  C   UNL A   1      31.705  24.815  23.880  1.00  0.00     0.076 A 
ATOM      9  C   UNL A   1      32.134  24.148  22.719  1.00  0.00     0.029 A 
ATOM     10  C   UNL A   1      32.545  22.814  22.747  1.00  0.00     0.002 A 
ATOM     11  C   UNL A   1      32.093  22.752  25.106  1.00  0.00     0.016 A 
ATOM     12  C   UNL A   1      32.535  22.117  23.945  1.00  0.00     0.001 A 
BRANCH   8  13
ATOM     13  N   UNL A   1      31.257  26.129  23.681  1.00  0.00    -0.255 NA
ATOM     14  C   UNL A   1      29.991  26.370  23.586  1.00  0.00     0.119 C 
BRANCH  14  15
ATOM     15  C   UNL A   1      29.536  27.721  23.183  1.00  0.00    -0.007 A 
ATOM     16  C   UNL A   1      28.553  30.119  22.078  1.00  0.00     0.041 A 
ATOM     17  C   UNL A   1      29.914  29.793  21.989  1.00  0.00     0.027 A 
ATOM     18  C   UNL A   1      27.696  29.218  22.714  1.00  0.00     0.027 A 
ATOM     19  C   UNL A   1      30.405  28.604  22.538  1.00  0.00     0.012 A 
ATOM     20  C   UNL A   1      28.181  28.028  23.275  1.00  0.00     0.012 A 
BRANCH  16  21
ATOM     21  N   UNL A   1      28.165  31.321  21.461  1.00  0.00    -0.326 N 
ATOM     22  C   UNL A   1      28.802  33.079  23.126  1.00  0.00     0.114 C 
ATOM     23  C   UNL A   1      28.164  32.627  21.848  1.00  0.00     0.221 C 
ATOM     24  O   UNL A   1      27.653  33.453  21.084  1.00  0.00    -0.275 OA
ATOM     25  H   UNL A   1      27.817  31.190  20.550  1.00  0.00     0.169 HD
ENDBRANCH  16  21
ENDBRANCH  14  15
ENDBRANCH   8  13
ENDBRANCH   4   7
ENDBRANCH   2   3
ENDBRANCH   1   2
BRANCH   1  26
ATOM     26  C   UNL A   1      32.707  29.385  25.945  1.00  0.00     0.118 C 
BRANCH  26  27
ATOM     27  N   UNL A   1      32.420  30.760  26.338  1.00  0.00    -0.352 N 
ATOM     28  C   UNL A   1      33.105  31.678  27.099  1.00  0.00     0.251 C 
ATOM     29  H   UNL A   1      31.565  31.100  25.989  1.00  0.00     0.163 HD
ATOM     30  O   UNL A   1      32.611  32.799  27.251  1.00  0.00    -0.269 OA
BRANCH  28  31
ATOM     31  C   UNL A   1      34.381  31.349  27.773  1.00  0.00     0.039 A 
ATOM     32  C   UNL A   1      34.587  30.046  28.245  1.00  0.00     0.014 A 
ATOM     33  C   UNL A   1      35.358  32.314  28.004  1.00  0.00     0.014 A 
ATOM     34  C   UNL A   1      35.784  29.703  28.881  1.00  0.00     0.010 A 
ATOM     35  C   UNL A   1      36.593  31.951  28.527  1.00  0.00     0.010 A 
ATOM     36  C   UNL A   1      36.807  30.650  29.006  1.00  0.00    -0.014 A 
BRANCH  36  37
ATOM     37  C   UNL A   1      38.055  30.374  29.762  1.00  0.00     0.031 A 
ATOM     38  C   UNL A   1      39.060  29.426  29.161  1.00  0.00     0.074 A 
ATOM     39  C   UNL A   1      38.241  30.888  30.991  1.00  0.00     0.049 A 
ATOM     40  N   UNL A   1      40.098  28.850  29.707  1.00  0.00    -0.248 NA
ATOM     41  C   UNL A   1      38.814  29.023  27.768  1.00  0.00     0.031 C 
ATOM     42  C   UNL A   1      37.320  31.795  31.679  1.00  0.00     0.029 A 
ATOM     43  N   UNL A   1      39.259  30.705  31.891  1.00  0.00    -0.354 N 
ATOM     44  C   UNL A   1      40.586  27.968  28.745  1.00  0.00     0.074 A 
ATOM     45  C   UNL A   1      39.691  28.045  27.613  1.00  0.00     0.031 C 
ATOM     46  C   UNL A   1      37.822  32.100  32.886  1.00  0.00     0.029 A 
ATOM     47  C   UNL A   1      39.073  31.372  33.081  1.00  0.00     0.049 A 
ATOM     48  H   UNL A   1      40.050  30.150  31.703  1.00  0.00     0.167 HD
ATOM     49  C   UNL A   1      41.691  27.183  28.801  1.00  0.00     0.034 A 
ATOM     50  C   UNL A   1      39.817  31.373  34.203  1.00  0.00     0.034 A 
ATOM     51  C   UNL A   1      42.594  27.182  29.926  1.00  0.00     0.049 A 
ATOM     52  C   UNL A   1      41.080  30.547  34.221  1.00  0.00     0.074 A 
ATOM     53  C   UNL A   1      43.781  26.490  30.087  1.00  0.00     0.029 A 
ATOM     54  N   UNL A   1      42.410  27.929  31.086  1.00  0.00    -0.354 N 
ATOM     55  N   UNL A   1      41.544  29.728  33.304  1.00  0.00    -0.248 NA
ATOM     56  C   UNL A   1      41.923  30.657  35.417  1.00  0.00     0.031 C 
ATOM     57  C   UNL A   1      44.284  26.775  31.362  1.00  0.00     0.029 A 
ATOM     58  C   UNL A   1      43.451  27.703  31.972  1.00  0.00     0.049 A 
ATOM     59  H   UNL A   1      41.650  28.531  31.253  1.00  0.00     0.167 HD
ATOM     60  C   UNL A   1      42.746  29.239  33.805  1.00  0.00     0.074 A 
ATOM     61  C   UNL A   1      42.944  29.877  35.093  1.00  0.00     0.031 C 
ATOM     62  C   UNL A   1      43.611  28.344  33.257  1.00  0.00     0.034 A 
BRANCH  49  63
ATOM     63  C   UNL A   1      41.939  26.248  27.635  1.00  0.00     0.023 A 
ATOM     64  C   UNL A   1      41.503  24.909  27.643  1.00  0.00     0.031 A 
ATOM     65  C   UNL A   1      42.702  26.675  26.533  1.00  0.00     0.131 A 
ATOM     66  C   UNL A   1      41.929  24.024  26.640  1.00  0.00     0.055 A 
ATOM     67  C   UNL A   1      43.035  25.814  25.485  1.00  0.00     0.041 A 
ATOM     68  F   UNL A   1      43.167  27.933  26.469  1.00  0.00    -0.206 F 
ATOM     69  C   UNL A   1      42.669  24.472  25.546  1.00  0.00     0.022 A 
BRANCH  66  70
ATOM     70  S   UNL A   1      41.671  22.245  26.889  1.00  0.00     0.124 S 
ATOM     71  O   UNL A   1      40.444  22.016  26.128  1.00  0.00    -0.237 OA
ATOM     72  O   UNL A   1      42.888  21.668  26.326  1.00  0.00    -0.237 OA
ATOM     73  O   UNL A   1      41.529  22.116  28.337  1.00  0.00    -0.744 OA
ENDBRANCH  66  70
ENDBRANCH  49  63
BRANCH  50  74
ATOM     74  C   UNL A   1      39.388  32.167  35.391  1.00  0.00     0.023 A 
ATOM     75  C   UNL A   1      39.786  33.502  35.561  1.00  0.00     0.031 A 
ATOM     76  C   UNL A   1      38.565  31.595  36.378  1.00  0.00     0.131 A 
ATOM     77  C   UNL A   1      39.387  34.213  36.705  1.00  0.00     0.055 A 
ATOM     78  C   UNL A   1      38.132  32.320  37.490  1.00  0.00     0.041 A 
ATOM     79  F   UNL A   1      38.145  30.325  36.261  1.00  0.00    -0.206 F 
ATOM     80  C   UNL A   1      38.552  33.635  37.664  1.00  0.00     0.022 A 
BRANCH  77  81
ATOM     81  S   UNL A   1      40.019  35.896  36.953  1.00  0.00     0.124 S 
ATOM     82  O   UNL A   1      39.279  36.323  38.134  1.00  0.00    -0.237 OA
ATOM     83  O   UNL A   1      41.447  35.658  37.139  1.00  0.00    -0.237 OA
ATOM     84  O   UNL A   1      39.663  36.580  35.711  1.00  0.00    -0.744 OA
ENDBRANCH  77  81
ENDBRANCH  50  74
BRANCH  62  85
ATOM     85  C   UNL A   1      44.862  28.044  34.045  1.00  0.00     0.023 A 
ATOM     86  C   UNL A   1      44.913  26.988  34.971  1.00  0.00     0.031 A 
ATOM     87  C   UNL A   1      46.009  28.840  33.883  1.00  0.00     0.131 A 
ATOM     88  C   UNL A   1      46.064  26.799  35.749  1.00  0.00     0.055 A 
ATOM     89  C   UNL A   1      47.175  28.606  34.612  1.00  0.00     0.041 A 
ATOM     90  F   UNL A   1      46.014  29.863  33.012  1.00  0.00    -0.206 F 
ATOM     91  C   UNL A   1      47.201  27.590  35.563  1.00  0.00     0.022 A 
BRANCH  88  92
ATOM     92  S   UNL A   1      46.015  25.577  37.087  1.00  0.00     0.124 S 
ATOM     93  O   UNL A   1      46.772  26.248  38.139  1.00  0.00    -0.237 OA
ATOM     94  O   UNL A   1      44.582  25.432  37.326  1.00  0.00    -0.237 OA
ATOM     95  O   UNL A   1      46.668  24.405  36.506  1.00  0.00    -0.744 OA
ENDBRANCH  88  92
ENDBRANCH  62  85
ENDBRANCH  36  37
ENDBRANCH  28  31
ENDBRANCH  26  27
ENDBRANCH   1  26
TORSDOF 16
ENDMDL
