MODEL 1
REMARK VINA RESULT:     -11.5      0.000      0.000
REMARK SMILES CC1(C)OC(=O)C(/C=N/[C@@H](CCC(N)=O)C(=O)NCCCNC(=O)c2ccc(-c3c4nc(c(-c5cc(S(=O)(=O)[O-])ccc5F)c5ccc([nH]5)c(-c5cc(S(=O)(=O)[O-])ccc5F)c5nc(c(-c6cc(S(=O)(=O)[O-])ccc6F)c6ccc3[nH]6)C=C5)C=C4)cc2)C(=O)O1
REMARK SMILES IDX 20 1 19 2 18 3 16 4 17 5 10 7 9 8 8 9 7 10 1 11 2 12 3 13
REMARK SMILES IDX 4 14 90 15 5 16 88 17 6 18 89 19 11 20 12 21 13 22 14 23
REMARK SMILES IDX 15 24 21 27 22 28 23 29 24 31 25 32 26 33 87 34 27 35 86 36
REMARK SMILES IDX 28 37 29 38 30 39 80 40 31 41 85 42 79 43 81 44 32 45 84 46
REMARK SMILES IDX 78 47 77 48 33 50 65 51 45 52 64 53 46 54 49 55 63 56 82 57
REMARK SMILES IDX 47 58 48 59 62 61 83 62 50 63 34 64 35 65 43 66 36 67 42 68
REMARK SMILES IDX 44 69 41 70 37 71 38 72 39 73 40 74 66 75 67 76 75 77 68 78
REMARK SMILES IDX 74 79 76 80 73 81 69 82 70 83 71 84 72 85 51 86 52 87 60 88
REMARK SMILES IDX 53 89 59 90 61 91 58 92 54 93 55 94 56 95 57 96
REMARK H PARENT 18 6 14 25 14 26 22 30 81 49 49 60
REMARK Flexibility Score: inf
ROOT
ATOM      1  C   UNL A   1      33.263  27.873  26.670  1.00  0.00     0.042 C 
ENDROOT
BRANCH   1   2
ATOM      2  C   UNL A   1      31.791  28.185  26.803  1.00  0.00     0.117 C 
BRANCH   2   3
ATOM      3  N   UNL A   1      30.970  27.033  27.041  1.00  0.00    -0.354 N 
ATOM      4  C   UNL A   1      30.745  25.955  26.242  1.00  0.00     0.244 C 
ATOM      5  O   UNL A   1      30.140  25.003  26.746  1.00  0.00    -0.273 OA
ATOM      6  H   UNL A   1      30.504  27.020  27.908  1.00  0.00     0.163 HD
BRANCH   4   7
ATOM      7  C   UNL A   1      31.191  25.912  24.766  1.00  0.00     0.194 C 
BRANCH   7   8
ATOM      8  N   UNL A   1      32.323  24.981  24.557  1.00  0.00    -0.283 NA
ATOM      9  C   UNL A   1      33.432  25.263  23.996  1.00  0.00     0.105 C 
BRANCH   9  10
ATOM     10  C   UNL A   1      34.505  24.209  23.826  1.00  0.00     0.250 C 
ATOM     11  C   UNL A   1      32.743  21.103  25.536  1.00  0.00     0.106 C 
ATOM     12  C   UNL A   1      34.018  21.622  24.873  1.00  0.00     0.252 C 
ATOM     13  C   UNL A   1      35.079  20.525  24.844  1.00  0.00     0.106 C 
ATOM     14  O   UNL A   1      34.496  22.686  25.688  1.00  0.00    -0.422 OA
ATOM     15  O   UNL A   1      33.683  21.947  23.522  1.00  0.00    -0.422 OA
ATOM     16  C   UNL A   1      35.061  23.765  25.127  1.00  0.00     0.329 C 
ATOM     17  C   UNL A   1      34.004  23.118  22.958  1.00  0.00     0.329 C 
ATOM     18  O   UNL A   1      35.891  24.421  25.748  1.00  0.00    -0.251 OA
ATOM     19  O   UNL A   1      33.769  23.311  21.767  1.00  0.00    -0.251 OA
ENDBRANCH   9  10
ENDBRANCH   7   8
BRANCH   7  20
ATOM     20  C   UNL A   1      30.161  26.086  23.637  1.00  0.00     0.047 C 
BRANCH  20  21
ATOM     21  C   UNL A   1      29.550  27.437  23.261  1.00  0.00     0.102 C 
BRANCH  21  22
ATOM     22  C   UNL A   1      30.480  28.388  22.534  1.00  0.00     0.217 C 
ATOM     23  N   UNL A   1      31.539  27.784  21.920  1.00  0.00    -0.370 N 
ATOM     24  O   UNL A   1      30.333  29.601  22.485  1.00  0.00    -0.275 OA
ATOM     25  H   UNL A   1      31.644  26.806  21.968  1.00  0.00     0.159 HD
ATOM     26  H   UNL A   1      32.198  28.325  21.428  1.00  0.00     0.159 HD
ENDBRANCH  21  22
ENDBRANCH  20  21
ENDBRANCH   7  20
ENDBRANCH   4   7
ENDBRANCH   2   3
ENDBRANCH   1   2
BRANCH   1  27
ATOM     27  C   UNL A   1      34.028  28.935  25.910  1.00  0.00     0.118 C 
BRANCH  27  28
ATOM     28  N   UNL A   1      33.799  30.278  26.438  1.00  0.00    -0.352 N 
ATOM     29  C   UNL A   1      34.463  30.989  27.410  1.00  0.00     0.251 C 
ATOM     30  H   UNL A   1      33.041  30.754  26.027  1.00  0.00     0.163 HD
ATOM     31  O   UNL A   1      33.991  32.050  27.790  1.00  0.00    -0.269 OA
BRANCH  29  32
ATOM     32  C   UNL A   1      35.704  30.451  28.016  1.00  0.00     0.039 A 
ATOM     33  C   UNL A   1      35.608  29.636  29.148  1.00  0.00     0.014 A 
ATOM     34  C   UNL A   1      36.957  30.741  27.478  1.00  0.00     0.014 A 
ATOM     35  C   UNL A   1      36.763  29.071  29.694  1.00  0.00     0.010 A 
ATOM     36  C   UNL A   1      38.082  30.068  27.930  1.00  0.00     0.010 A 
ATOM     37  C   UNL A   1      38.005  29.255  29.067  1.00  0.00    -0.014 A 
BRANCH  37  38
ATOM     38  C   UNL A   1      39.258  28.679  29.617  1.00  0.00     0.031 A 
ATOM     39  C   UNL A   1      39.847  29.262  30.876  1.00  0.00     0.074 A 
ATOM     40  C   UNL A   1      39.896  27.697  28.950  1.00  0.00     0.049 A 
ATOM     41  N   UNL A   1      40.986  28.997  31.462  1.00  0.00    -0.248 NA
ATOM     42  C   UNL A   1      39.073  30.329  31.534  1.00  0.00     0.031 C 
ATOM     43  C   UNL A   1      39.452  27.100  27.688  1.00  0.00     0.029 A 
ATOM     44  N   UNL A   1      41.058  27.032  29.239  1.00  0.00    -0.354 N 
ATOM     45  C   UNL A   1      41.078  29.888  32.528  1.00  0.00     0.074 A 
ATOM     46  C   UNL A   1      39.924  30.755  32.453  1.00  0.00     0.031 C 
ATOM     47  C   UNL A   1      40.311  26.130  27.335  1.00  0.00     0.029 A 
ATOM     48  C   UNL A   1      41.387  26.066  28.317  1.00  0.00     0.049 A 
ATOM     49  H   UNL A   1      41.608  27.227  30.032  1.00  0.00     0.167 HD
ATOM     50  C   UNL A   1      42.019  29.953  33.502  1.00  0.00     0.034 A 
ATOM     51  C   UNL A   1      42.437  25.223  28.276  1.00  0.00     0.034 A 
ATOM     52  C   UNL A   1      43.135  29.045  33.582  1.00  0.00     0.049 A 
ATOM     53  C   UNL A   1      43.446  25.279  29.396  1.00  0.00     0.074 A 
ATOM     54  C   UNL A   1      44.123  28.972  34.547  1.00  0.00     0.029 A 
ATOM     55  N   UNL A   1      43.402  28.040  32.661  1.00  0.00    -0.354 N 
ATOM     56  N   UNL A   1      43.498  26.096  30.423  1.00  0.00    -0.248 NA
ATOM     57  C   UNL A   1      44.524  24.283  29.363  1.00  0.00     0.031 C 
ATOM     58  C   UNL A   1      45.014  27.955  34.184  1.00  0.00     0.029 A 
ATOM     59  C   UNL A   1      44.542  27.345  33.032  1.00  0.00     0.049 A 
ATOM     60  H   UNL A   1      42.859  27.847  31.862  1.00  0.00     0.167 HD
ATOM     61  C   UNL A   1      44.593  25.687  31.179  1.00  0.00     0.074 A 
ATOM     62  C   UNL A   1      45.160  24.542  30.495  1.00  0.00     0.031 C 
ATOM     63  C   UNL A   1      45.084  26.203  32.334  1.00  0.00     0.034 A 
BRANCH  50  64
ATOM     64  C   UNL A   1      41.872  31.045  34.537  1.00  0.00     0.023 A 
ATOM     65  C   UNL A   1      40.806  31.053  35.455  1.00  0.00     0.031 A 
ATOM     66  C   UNL A   1      42.774  32.123  34.573  1.00  0.00     0.131 A 
ATOM     67  C   UNL A   1      40.611  32.157  36.298  1.00  0.00     0.055 A 
ATOM     68  C   UNL A   1      42.628  33.175  35.482  1.00  0.00     0.041 A 
ATOM     69  F   UNL A   1      43.800  32.186  33.711  1.00  0.00    -0.206 F 
ATOM     70  C   UNL A   1      41.531  33.207  36.338  1.00  0.00     0.022 A 
BRANCH  67  71
ATOM     71  S   UNL A   1      39.052  32.278  37.217  1.00  0.00     0.124 S 
ATOM     72  O   UNL A   1      38.455  30.970  36.953  1.00  0.00    -0.237 OA
ATOM     73  O   UNL A   1      39.507  32.508  38.583  1.00  0.00    -0.237 OA
ATOM     74  O   UNL A   1      38.368  33.405  36.586  1.00  0.00    -0.744 OA
ENDBRANCH  67  71
ENDBRANCH  50  64
BRANCH  51  75
ATOM     75  C   UNL A   1      42.579  24.241  27.163  1.00  0.00     0.023 A 
ATOM     76  C   UNL A   1      41.969  22.978  27.237  1.00  0.00     0.031 A 
ATOM     77  C   UNL A   1      43.349  24.536  26.026  1.00  0.00     0.131 A 
ATOM     78  C   UNL A   1      42.184  22.037  26.218  1.00  0.00     0.055 A 
ATOM     79  C   UNL A   1      43.519  23.614  24.991  1.00  0.00     0.041 A 
ATOM     80  F   UNL A   1      43.939  25.736  25.897  1.00  0.00    -0.206 F 
ATOM     81  C   UNL A   1      42.946  22.350  25.091  1.00  0.00     0.022 A 
BRANCH  78  82
ATOM     82  S   UNL A   1      41.514  20.365  26.428  1.00  0.00     0.124 S 
ATOM     83  O   UNL A   1      42.225  19.627  25.391  1.00  0.00    -0.237 OA
ATOM     84  O   UNL A   1      41.892  20.062  27.806  1.00  0.00    -0.237 OA
ATOM     85  O   UNL A   1      40.082  20.542  26.202  1.00  0.00    -0.744 OA
ENDBRANCH  78  82
ENDBRANCH  51  75
BRANCH  63  86
ATOM     86  C   UNL A   1      46.254  25.486  32.958  1.00  0.00     0.023 A 
ATOM     87  C   UNL A   1      46.077  24.406  33.840  1.00  0.00     0.031 A 
ATOM     88  C   UNL A   1      47.567  25.904  32.675  1.00  0.00     0.131 A 
ATOM     89  C   UNL A   1      47.192  23.824  34.461  1.00  0.00     0.055 A 
ATOM     90  C   UNL A   1      48.675  25.278  33.245  1.00  0.00     0.041 A 
ATOM     91  F   UNL A   1      47.792  26.930  31.838  1.00  0.00    -0.206 F 
ATOM     92  C   UNL A   1      48.490  24.242  34.156  1.00  0.00     0.022 A 
BRANCH  89  93
ATOM     93  S   UNL A   1      46.916  22.583  35.753  1.00  0.00     0.124 S 
ATOM     94  O   UNL A   1      47.031  21.335  35.005  1.00  0.00    -0.237 OA
ATOM     95  O   UNL A   1      47.996  22.865  36.692  1.00  0.00    -0.237 OA
ATOM     96  O   UNL A   1      45.573  22.891  36.243  1.00  0.00    -0.744 OA
ENDBRANCH  89  93
ENDBRANCH  63  86
ENDBRANCH  37  38
ENDBRANCH  29  32
ENDBRANCH  27  28
ENDBRANCH   1  27
TORSDOF 18
ENDMDL
MODEL 2
REMARK VINA RESULT:     -11.4      1.373      1.969
REMARK SMILES CC1(C)OC(=O)C(/C=N/[C@@H](CCC(N)=O)C(=O)NCCCNC(=O)c2ccc(-c3c4nc(c(-c5cc(S(=O)(=O)[O-])ccc5F)c5ccc([nH]5)c(-c5cc(S(=O)(=O)[O-])ccc5F)c5nc(c(-c6cc(S(=O)(=O)[O-])ccc6F)c6ccc3[nH]6)C=C5)C=C4)cc2)C(=O)O1
REMARK SMILES IDX 20 1 19 2 18 3 16 4 17 5 10 7 9 8 8 9 7 10 1 11 2 12 3 13
REMARK SMILES IDX 4 14 90 15 5 16 88 17 6 18 89 19 11 20 12 21 13 22 14 23
REMARK SMILES IDX 15 24 21 27 22 28 23 29 24 31 25 32 26 33 87 34 27 35 86 36
REMARK SMILES IDX 28 37 29 38 30 39 80 40 31 41 85 42 79 43 81 44 32 45 84 46
REMARK SMILES IDX 78 47 77 48 33 50 65 51 45 52 64 53 46 54 49 55 63 56 82 57
REMARK SMILES IDX 47 58 48 59 62 61 83 62 50 63 34 64 35 65 43 66 36 67 42 68
REMARK SMILES IDX 44 69 41 70 37 71 38 72 39 73 40 74 66 75 67 76 75 77 68 78
REMARK SMILES IDX 74 79 76 80 73 81 69 82 70 83 71 84 72 85 51 86 52 87 60 88
REMARK SMILES IDX 53 89 59 90 61 91 58 92 54 93 55 94 56 95 57 96
REMARK H PARENT 18 6 14 25 14 26 22 30 81 49 49 60
REMARK Flexibility Score: inf
ROOT
ATOM      1  C   UNL A   1      32.037  29.208  27.068  1.00  0.00     0.042 C 
ENDROOT
BRANCH   1   2
ATOM      2  C   UNL A   1      32.221  27.716  26.921  1.00  0.00     0.117 C 
BRANCH   2   3
ATOM      3  N   UNL A   1      30.995  26.992  26.746  1.00  0.00    -0.354 N 
ATOM      4  C   UNL A   1      30.618  26.170  25.730  1.00  0.00     0.244 C 
ATOM      5  O   UNL A   1      29.581  25.517  25.895  1.00  0.00    -0.273 OA
ATOM      6  H   UNL A   1      30.332  27.106  27.464  1.00  0.00     0.163 HD
BRANCH   4   7
ATOM      7  C   UNL A   1      31.415  26.060  24.415  1.00  0.00     0.194 C 
BRANCH   7   8
ATOM      8  N   UNL A   1      32.137  24.772  24.310  1.00  0.00    -0.283 NA
ATOM      9  C   UNL A   1      33.328  24.546  24.702  1.00  0.00     0.105 C 
BRANCH   9  10
ATOM     10  C   UNL A   1      33.959  23.182  24.518  1.00  0.00     0.250 C 
ATOM     11  C   UNL A   1      37.614  23.889  25.866  1.00  0.00     0.106 C 
ATOM     12  C   UNL A   1      36.684  22.861  25.223  1.00  0.00     0.252 C 
ATOM     13  C   UNL A   1      37.435  21.556  24.975  1.00  0.00     0.106 C 
ATOM     14  O   UNL A   1      36.291  23.398  23.965  1.00  0.00    -0.422 OA
ATOM     15  O   UNL A   1      35.641  22.597  26.165  1.00  0.00    -0.422 OA
ATOM     16  C   UNL A   1      35.045  23.203  23.508  1.00  0.00     0.329 C 
ATOM     17  C   UNL A   1      34.344  22.623  25.835  1.00  0.00     0.329 C 
ATOM     18  O   UNL A   1      34.825  23.196  22.301  1.00  0.00    -0.251 OA
ATOM     19  O   UNL A   1      33.493  22.303  26.662  1.00  0.00    -0.251 OA
ENDBRANCH   9  10
ENDBRANCH   7   8
BRANCH   7  20
ATOM     20  C   UNL A   1      30.886  26.715  23.127  1.00  0.00     0.047 C 
BRANCH  20  21
ATOM     21  C   UNL A   1      31.359  28.081  22.626  1.00  0.00     0.102 C 
BRANCH  21  22
ATOM     22  C   UNL A   1      30.281  29.142  22.526  1.00  0.00     0.217 C 
ATOM     23  N   UNL A   1      30.552  30.141  21.635  1.00  0.00    -0.370 N 
ATOM     24  O   UNL A   1      29.246  29.143  23.177  1.00  0.00    -0.275 OA
ATOM     25  H   UNL A   1      31.390  30.126  21.119  1.00  0.00     0.159 HD
ATOM     26  H   UNL A   1      29.909  30.876  21.509  1.00  0.00     0.159 HD
ENDBRANCH  21  22
ENDBRANCH  20  21
ENDBRANCH   7  20
ENDBRANCH   4   7
ENDBRANCH   2   3
ENDBRANCH   1   2
BRANCH   1  27
ATOM     27  C   UNL A   1      33.170  30.009  26.462  1.00  0.00     0.118 C 
BRANCH  27  28
ATOM     28  N   UNL A   1      33.133  31.416  26.850  1.00  0.00    -0.352 N 
ATOM     29  C   UNL A   1      33.963  32.146  27.668  1.00  0.00     0.251 C 
ATOM     30  H   UNL A   1      32.388  31.929  26.460  1.00  0.00     0.163 HD
ATOM     31  O   UNL A   1      33.643  33.288  27.965  1.00  0.00    -0.269 OA
BRANCH  29  32
ATOM     32  C   UNL A   1      35.200  31.540  28.214  1.00  0.00     0.039 A 
ATOM     33  C   UNL A   1      36.379  32.292  28.220  1.00  0.00     0.014 A 
ATOM     34  C   UNL A   1      35.208  30.241  28.720  1.00  0.00     0.014 A 
ATOM     35  C   UNL A   1      37.538  31.757  28.788  1.00  0.00     0.010 A 
ATOM     36  C   UNL A   1      36.313  29.768  29.409  1.00  0.00     0.010 A 
ATOM     37  C   UNL A   1      37.504  30.504  29.419  1.00  0.00    -0.014 A 
BRANCH  37  38
ATOM     38  C   UNL A   1      38.713  29.896  30.028  1.00  0.00     0.031 A 
ATOM     39  C   UNL A   1      39.143  30.332  31.406  1.00  0.00     0.074 A 
ATOM     40  C   UNL A   1      39.456  29.023  29.320  1.00  0.00     0.049 A 
ATOM     41  N   UNL A   1      40.224  30.025  32.076  1.00  0.00    -0.248 NA
ATOM     42  C   UNL A   1      38.263  31.287  32.100  1.00  0.00     0.031 C 
ATOM     43  C   UNL A   1      39.172  28.578  27.953  1.00  0.00     0.029 A 
ATOM     44  N   UNL A   1      40.607  28.358  29.650  1.00  0.00    -0.354 N 
ATOM     45  C   UNL A   1      40.168  30.777  33.246  1.00  0.00     0.074 A 
ATOM     46  C   UNL A   1      38.995  31.616  33.152  1.00  0.00     0.031 C 
ATOM     47  C   UNL A   1      40.100  27.683  27.580  1.00  0.00     0.029 A 
ATOM     48  C   UNL A   1      41.069  27.524  28.659  1.00  0.00     0.049 A 
ATOM     49  H   UNL A   1      41.062  28.466  30.517  1.00  0.00     0.167 HD
ATOM     50  C   UNL A   1      40.998  30.744  34.318  1.00  0.00     0.034 A 
ATOM     51  C   UNL A   1      42.150  26.721  28.631  1.00  0.00     0.034 A 
ATOM     52  C   UNL A   1      42.135  29.863  34.408  1.00  0.00     0.049 A 
ATOM     53  C   UNL A   1      43.033  26.662  29.852  1.00  0.00     0.074 A 
ATOM     54  C   UNL A   1      43.018  29.695  35.458  1.00  0.00     0.029 A 
ATOM     55  N   UNL A   1      42.536  28.988  33.406  1.00  0.00    -0.354 N 
ATOM     56  N   UNL A   1      42.944  27.345  30.971  1.00  0.00    -0.248 NA
ATOM     57  C   UNL A   1      44.147  25.707  29.816  1.00  0.00     0.031 C 
ATOM     58  C   UNL A   1      43.981  28.755  35.073  1.00  0.00     0.029 A 
ATOM     59  C   UNL A   1      43.658  28.283  33.811  1.00  0.00     0.049 A 
ATOM     60  H   UNL A   1      42.089  28.884  32.535  1.00  0.00     0.167 HD
ATOM     61  C   UNL A   1      43.969  26.873  31.786  1.00  0.00     0.074 A 
ATOM     62  C   UNL A   1      44.650  25.838  31.034  1.00  0.00     0.031 C 
ATOM     63  C   UNL A   1      44.315  27.253  33.043  1.00  0.00     0.034 A 
BRANCH  50  64
ATOM     64  C   UNL A   1      40.699  31.693  35.456  1.00  0.00     0.023 A 
ATOM     65  C   UNL A   1      39.586  31.511  36.297  1.00  0.00     0.031 A 
ATOM     66  C   UNL A   1      41.503  32.826  35.672  1.00  0.00     0.131 A 
ATOM     67  C   UNL A   1      39.251  32.490  37.243  1.00  0.00     0.055 A 
ATOM     68  C   UNL A   1      41.217  33.751  36.681  1.00  0.00     0.041 A 
ATOM     69  F   UNL A   1      42.567  33.070  34.892  1.00  0.00    -0.206 F 
ATOM     70  C   UNL A   1      40.074  33.597  37.461  1.00  0.00     0.022 A 
BRANCH  67  71
ATOM     71  S   UNL A   1      37.637  32.380  38.065  1.00  0.00     0.124 S 
ATOM     72  O   UNL A   1      37.393  30.940  38.040  1.00  0.00    -0.237 OA
ATOM     73  O   UNL A   1      37.909  32.960  39.375  1.00  0.00    -0.237 OA
ATOM     74  O   UNL A   1      36.759  33.168  37.201  1.00  0.00    -0.744 OA
ENDBRANCH  67  71
ENDBRANCH  50  64
BRANCH  51  75
ATOM     75  C   UNL A   1      42.447  25.891  27.428  1.00  0.00     0.023 A 
ATOM     76  C   UNL A   1      42.067  24.540  27.376  1.00  0.00     0.031 A 
ATOM     77  C   UNL A   1      43.140  26.424  26.329  1.00  0.00     0.131 A 
ATOM     78  C   UNL A   1      42.430  23.753  26.271  1.00  0.00     0.055 A 
ATOM     79  C   UNL A   1      43.455  25.650  25.210  1.00  0.00     0.041 A 
ATOM     80  F   UNL A   1      43.510  27.715  26.319  1.00  0.00    -0.206 F 
ATOM     81  C   UNL A   1      43.112  24.302  25.183  1.00  0.00     0.022 A 
BRANCH  78  82
ATOM     82  S   UNL A   1      42.064  21.978  26.315  1.00  0.00     0.124 S 
ATOM     83  O   UNL A   1      42.902  21.475  25.233  1.00  0.00    -0.237 OA
ATOM     84  O   UNL A   1      42.477  21.620  27.669  1.00  0.00    -0.237 OA
ATOM     85  O   UNL A   1      40.625  21.922  26.070  1.00  0.00    -0.744 OA
ENDBRANCH  78  82
ENDBRANCH  51  75
BRANCH  63  86
ATOM     86  C   UNL A   1      45.441  26.494  33.698  1.00  0.00     0.023 A 
ATOM     87  C   UNL A   1      45.208  25.338  34.463  1.00  0.00     0.031 A 
ATOM     88  C   UNL A   1      46.765  26.947  33.566  1.00  0.00     0.131 A 
ATOM     89  C   UNL A   1      46.277  24.713  35.123  1.00  0.00     0.055 A 
ATOM     90  C   UNL A   1      47.832  26.283  34.171  1.00  0.00     0.041 A 
ATOM     91  F   UNL A   1      47.042  28.045  32.845  1.00  0.00    -0.206 F 
ATOM     92  C   UNL A   1      47.589  25.168  34.968  1.00  0.00     0.022 A 
BRANCH  89  93
ATOM     93  S   UNL A   1      45.914  23.359  36.273  1.00  0.00     0.124 S 
ATOM     94  O   UNL A   1      45.359  24.074  37.418  1.00  0.00    -0.237 OA
ATOM     95  O   UNL A   1      44.971  22.547  35.510  1.00  0.00    -0.237 OA
ATOM     96  O   UNL A   1      47.220  22.743  36.500  1.00  0.00    -0.744 OA
ENDBRANCH  89  93
ENDBRANCH  63  86
ENDBRANCH  37  38
ENDBRANCH  29  32
ENDBRANCH  27  28
ENDBRANCH   1  27
TORSDOF 18
ENDMDL
MODEL 3
REMARK VINA RESULT:     -11.4      4.750      7.215
REMARK SMILES CC1(C)OC(=O)C(/C=N/[C@@H](CCC(N)=O)C(=O)NCCCNC(=O)c2ccc(-c3c4nc(c(-c5cc(S(=O)(=O)[O-])ccc5F)c5ccc([nH]5)c(-c5cc(S(=O)(=O)[O-])ccc5F)c5nc(c(-c6cc(S(=O)(=O)[O-])ccc6F)c6ccc3[nH]6)C=C5)C=C4)cc2)C(=O)O1
REMARK SMILES IDX 20 1 19 2 18 3 16 4 17 5 10 7 9 8 8 9 7 10 1 11 2 12 3 13
REMARK SMILES IDX 4 14 90 15 5 16 88 17 6 18 89 19 11 20 12 21 13 22 14 23
REMARK SMILES IDX 15 24 21 27 22 28 23 29 24 31 25 32 26 33 87 34 27 35 86 36
REMARK SMILES IDX 28 37 29 38 30 39 80 40 31 41 85 42 79 43 81 44 32 45 84 46
REMARK SMILES IDX 78 47 77 48 33 50 65 51 45 52 64 53 46 54 49 55 63 56 82 57
REMARK SMILES IDX 47 58 48 59 62 61 83 62 50 63 34 64 35 65 43 66 36 67 42 68
REMARK SMILES IDX 44 69 41 70 37 71 38 72 39 73 40 74 66 75 67 76 75 77 68 78
REMARK SMILES IDX 74 79 76 80 73 81 69 82 70 83 71 84 72 85 51 86 52 87 60 88
REMARK SMILES IDX 53 89 59 90 61 91 58 92 54 93 55 94 56 95 57 96
REMARK H PARENT 18 6 14 25 14 26 22 30 81 49 49 60
REMARK Flexibility Score: inf
ROOT
ATOM      1  C   UNL A   1      34.457  22.204  26.759  1.00  0.00     0.042 C 
ENDROOT
BRANCH   1   2
ATOM      2  C   UNL A   1      33.411  23.290  26.845  1.00  0.00     0.117 C 
BRANCH   2   3
ATOM      3  N   UNL A   1      32.062  22.802  26.844  1.00  0.00    -0.354 N 
ATOM      4  C   UNL A   1      31.302  22.373  25.801  1.00  0.00     0.244 C 
ATOM      5  O   UNL A   1      30.228  21.827  26.079  1.00  0.00    -0.273 OA
ATOM      6  H   UNL A   1      31.624  22.771  27.725  1.00  0.00     0.163 HD
BRANCH   4   7
ATOM      7  C   UNL A   1      31.727  22.571  24.331  1.00  0.00     0.194 C 
BRANCH   7   8
ATOM      8  N   UNL A   1      31.918  24.001  23.999  1.00  0.00    -0.283 NA
ATOM      9  C   UNL A   1      31.501  24.588  22.947  1.00  0.00     0.105 C 
BRANCH   9  10
ATOM     10  C   UNL A   1      31.783  26.058  22.717  1.00  0.00     0.250 C 
ATOM     11  C   UNL A   1      33.258  27.072  26.247  1.00  0.00     0.106 C 
ATOM     12  C   UNL A   1      32.840  27.571  24.865  1.00  0.00     0.252 C 
ATOM     13  C   UNL A   1      33.057  29.078  24.763  1.00  0.00     0.106 C 
ATOM     14  O   UNL A   1      31.446  27.310  24.743  1.00  0.00    -0.422 OA
ATOM     15  O   UNL A   1      33.700  26.936  23.916  1.00  0.00    -0.422 OA
ATOM     16  C   UNL A   1      30.932  26.927  23.565  1.00  0.00     0.329 C 
ATOM     17  C   UNL A   1      33.238  26.313  22.824  1.00  0.00     0.329 C 
ATOM     18  O   UNL A   1      29.761  27.172  23.294  1.00  0.00    -0.251 OA
ATOM     19  O   UNL A   1      34.025  25.860  21.996  1.00  0.00    -0.251 OA
ENDBRANCH   9  10
ENDBRANCH   7   8
BRANCH   7  20
ATOM     20  C   UNL A   1      32.610  21.526  23.629  1.00  0.00     0.047 C 
BRANCH  20  21
ATOM     21  C   UNL A   1      32.479  20.021  23.868  1.00  0.00     0.102 C 
BRANCH  21  22
ATOM     22  C   UNL A   1      33.464  19.436  24.862  1.00  0.00     0.217 C 
ATOM     23  N   UNL A   1      32.898  18.988  26.021  1.00  0.00    -0.370 N 
ATOM     24  O   UNL A   1      34.670  19.360  24.681  1.00  0.00    -0.275 OA
ATOM     25  H   UNL A   1      31.924  19.056  26.152  1.00  0.00     0.159 HD
ATOM     26  H   UNL A   1      33.463  18.597  26.726  1.00  0.00     0.159 HD
ENDBRANCH  21  22
ENDBRANCH  20  21
ENDBRANCH   7  20
ENDBRANCH   4   7
ENDBRANCH   2   3
ENDBRANCH   1   2
BRANCH   1  27
ATOM     27  C   UNL A   1      35.706  22.640  26.024  1.00  0.00     0.118 C 
BRANCH  27  28
ATOM     28  N   UNL A   1      36.631  21.535  25.783  1.00  0.00    -0.352 N 
ATOM     29  C   UNL A   1      38.005  21.490  25.810  1.00  0.00     0.251 C 
ATOM     30  H   UNL A   1      36.196  20.679  25.567  1.00  0.00     0.163 HD
ATOM     31  O   UNL A   1      38.568  20.475  25.424  1.00  0.00    -0.269 OA
BRANCH  29  32
ATOM     32  C   UNL A   1      38.786  22.668  26.254  1.00  0.00     0.039 A 
ATOM     33  C   UNL A   1      39.901  22.472  27.073  1.00  0.00     0.014 A 
ATOM     34  C   UNL A   1      38.430  23.959  25.869  1.00  0.00     0.014 A 
ATOM     35  C   UNL A   1      40.684  23.567  27.449  1.00  0.00     0.010 A 
ATOM     36  C   UNL A   1      39.283  25.022  26.122  1.00  0.00     0.010 A 
ATOM     37  C   UNL A   1      40.400  24.846  26.946  1.00  0.00    -0.014 A 
BRANCH  37  38
ATOM     38  C   UNL A   1      41.201  26.037  27.326  1.00  0.00     0.031 A 
ATOM     39  C   UNL A   1      40.576  27.100  28.193  1.00  0.00     0.074 A 
ATOM     40  C   UNL A   1      42.445  26.195  26.833  1.00  0.00     0.049 A 
ATOM     41  N   UNL A   1      41.047  28.269  28.544  1.00  0.00    -0.248 NA
ATOM     42  C   UNL A   1      39.214  26.834  28.685  1.00  0.00     0.031 C 
ATOM     43  C   UNL A   1      43.128  25.261  25.933  1.00  0.00     0.029 A 
ATOM     44  N   UNL A   1      43.356  27.202  27.016  1.00  0.00    -0.354 N 
ATOM     45  C   UNL A   1      40.025  28.886  29.262  1.00  0.00     0.074 A 
ATOM     46  C   UNL A   1      38.886  27.999  29.218  1.00  0.00     0.031 C 
ATOM     47  C   UNL A   1      44.363  25.721  25.677  1.00  0.00     0.029 A 
ATOM     48  C   UNL A   1      44.545  27.000  26.355  1.00  0.00     0.049 A 
ATOM     49  H   UNL A   1      43.177  27.997  27.569  1.00  0.00     0.167 HD
ATOM     50  C   UNL A   1      40.048  30.067  29.927  1.00  0.00     0.034 A 
ATOM     51  C   UNL A   1      45.655  27.762  26.308  1.00  0.00     0.034 A 
ATOM     52  C   UNL A   1      41.213  30.912  29.995  1.00  0.00     0.049 A 
ATOM     53  C   UNL A   1      45.677  29.048  27.095  1.00  0.00     0.074 A 
ATOM     54  C   UNL A   1      41.381  32.101  30.680  1.00  0.00     0.029 A 
ATOM     55  N   UNL A   1      42.420  30.644  29.361  1.00  0.00    -0.354 N 
ATOM     56  N   UNL A   1      44.720  29.599  27.807  1.00  0.00    -0.248 NA
ATOM     57  C   UNL A   1      46.936  29.802  27.092  1.00  0.00     0.031 C 
ATOM     58  C   UNL A   1      42.672  32.577  30.420  1.00  0.00     0.029 A 
ATOM     59  C   UNL A   1      43.334  31.648  29.633  1.00  0.00     0.049 A 
ATOM     60  H   UNL A   1      42.600  29.854  28.800  1.00  0.00     0.167 HD
ATOM     61  C   UNL A   1      45.276  30.745  28.367  1.00  0.00     0.074 A 
ATOM     62  C   UNL A   1      46.654  30.795  27.921  1.00  0.00     0.031 C 
ATOM     63  C   UNL A   1      44.705  31.671  29.179  1.00  0.00     0.034 A 
BRANCH  50  64
ATOM     64  C   UNL A   1      38.773  30.500  30.615  1.00  0.00     0.023 A 
ATOM     65  C   UNL A   1      37.818  31.302  29.963  1.00  0.00     0.031 A 
ATOM     66  C   UNL A   1      38.532  30.157  31.957  1.00  0.00     0.131 A 
ATOM     67  C   UNL A   1      36.724  31.813  30.677  1.00  0.00     0.055 A 
ATOM     68  C   UNL A   1      37.390  30.592  32.635  1.00  0.00     0.041 A 
ATOM     69  F   UNL A   1      39.414  29.412  32.642  1.00  0.00    -0.206 F 
ATOM     70  C   UNL A   1      36.487  31.441  32.001  1.00  0.00     0.022 A 
BRANCH  67  71
ATOM     71  S   UNL A   1      35.711  33.101  29.897  1.00  0.00     0.124 S 
ATOM     72  O   UNL A   1      35.550  34.051  30.996  1.00  0.00    -0.237 OA
ATOM     73  O   UNL A   1      36.555  33.540  28.792  1.00  0.00    -0.237 OA
ATOM     74  O   UNL A   1      34.492  32.392  29.512  1.00  0.00    -0.744 OA
ENDBRANCH  67  71
ENDBRANCH  50  64
BRANCH  51  75
ATOM     75  C   UNL A   1      46.841  27.325  25.517  1.00  0.00     0.023 A 
ATOM     76  C   UNL A   1      47.056  27.807  24.216  1.00  0.00     0.031 A 
ATOM     77  C   UNL A   1      47.760  26.397  26.036  1.00  0.00     0.131 A 
ATOM     78  C   UNL A   1      48.131  27.319  23.457  1.00  0.00     0.055 A 
ATOM     79  C   UNL A   1      48.857  25.952  25.295  1.00  0.00     0.041 A 
ATOM     80  F   UNL A   1      47.612  25.918  27.282  1.00  0.00    -0.206 F 
ATOM     81  C   UNL A   1      49.039  26.403  23.991  1.00  0.00     0.022 A 
BRANCH  78  82
ATOM     82  S   UNL A   1      48.278  27.843  21.727  1.00  0.00     0.124 S 
ATOM     83  O   UNL A   1      49.535  28.581  21.746  1.00  0.00    -0.237 OA
ATOM     84  O   UNL A   1      48.295  26.562  21.027  1.00  0.00    -0.237 OA
ATOM     85  O   UNL A   1      47.079  28.650  21.513  1.00  0.00    -0.744 OA
ENDBRANCH  78  82
ENDBRANCH  51  75
BRANCH  63  86
ATOM     86  C   UNL A   1      45.597  32.775  29.686  1.00  0.00     0.023 A 
ATOM     87  C   UNL A   1      46.304  32.661  30.896  1.00  0.00     0.031 A 
ATOM     88  C   UNL A   1      45.727  33.968  28.952  1.00  0.00     0.131 A 
ATOM     89  C   UNL A   1      47.055  33.747  31.369  1.00  0.00     0.055 A 
ATOM     90  C   UNL A   1      46.529  35.019  29.396  1.00  0.00     0.041 A 
ATOM     91  F   UNL A   1      45.074  34.128  27.790  1.00  0.00    -0.206 F 
ATOM     92  C   UNL A   1      47.186  34.918  30.618  1.00  0.00     0.022 A 
BRANCH  89  93
ATOM     93  S   UNL A   1      47.775  33.646  33.029  1.00  0.00     0.124 S 
ATOM     94  O   UNL A   1      47.095  34.736  33.722  1.00  0.00    -0.237 OA
ATOM     95  O   UNL A   1      47.406  32.297  33.448  1.00  0.00    -0.237 OA
ATOM     96  O   UNL A   1      49.203  33.853  32.798  1.00  0.00    -0.744 OA
ENDBRANCH  89  93
ENDBRANCH  63  86
ENDBRANCH  37  38
ENDBRANCH  29  32
ENDBRANCH  27  28
ENDBRANCH   1  27
TORSDOF 18
ENDMDL
