MODEL 1
REMARK VINA RESULT:     -12.5      0.000      0.000
REMARK SMILES O=C(NCCCNC(=O)c1cccc(Oc2ncc([N+](=O)[O-])cc2Br)c1)c1ccc(-c2c3nc(c(-c4cc(S(=O)(=O)[O-])ccc4F)c4ccc([nH]4)c(-c4cc(S(=O)(=O)[O-])ccc4F)c4nc(c(-c5cc(S(=O)(=O)[O-])ccc5F)c5ccc2[nH]5)C=C4)C=C3)cc1
REMARK SMILES IDX 5 1 4 2 3 3 1 4 2 5 27 7 28 8 89 9 29 10 88 11 30 12 31 13
REMARK SMILES IDX 32 14 82 15 33 16 87 17 81 18 83 19 34 20 86 21 80 22 79 23
REMARK SMILES IDX 35 25 67 26 47 27 66 28 48 29 51 30 65 31 84 32 49 33 50 34
REMARK SMILES IDX 64 36 85 37 52 38 36 39 37 40 45 41 38 42 44 43 46 44 43 45
REMARK SMILES IDX 39 46 40 47 41 48 42 49 68 50 69 51 77 52 70 53 76 54 78 55
REMARK SMILES IDX 75 56 71 57 72 58 73 59 74 60 53 61 54 62 62 63 55 64 61 65
REMARK SMILES IDX 63 66 60 67 56 68 57 69 58 70 59 71 6 72 7 73 8 74 9 76
REMARK SMILES IDX 10 77 11 78 26 79 12 80 14 81 13 82 15 83 16 84 17 85 24 86
REMARK SMILES IDX 18 87 23 88 25 89 19 90 20 91 21 92 22 93
REMARK H PARENT 3 6 83 24 51 35 7 75
REMARK Flexibility Score: inf
ROOT
ATOM      1  C   UNL A   1      31.422  30.184  25.349  1.00  0.00     0.042 C 
ENDROOT
BRANCH   1   2
ATOM      2  C   UNL A   1      32.119  30.618  26.630  1.00  0.00     0.118 C 
BRANCH   2   3
ATOM      3  N   UNL A   1      32.074  32.059  26.852  1.00  0.00    -0.352 N 
ATOM      4  O   UNL A   1      32.652  34.060  27.710  1.00  0.00    -0.269 OA
ATOM      5  C   UNL A   1      32.957  32.885  27.512  1.00  0.00     0.251 C 
ATOM      6  H   UNL A   1      31.289  32.513  26.470  1.00  0.00     0.163 HD
BRANCH   5   7
ATOM      7  C   UNL A   1      34.247  32.358  28.009  1.00  0.00     0.039 A 
ATOM      8  C   UNL A   1      34.375  31.019  28.379  1.00  0.00     0.014 A 
ATOM      9  C   UNL A   1      35.345  33.215  28.119  1.00  0.00     0.014 A 
ATOM     10  C   UNL A   1      35.511  30.598  29.057  1.00  0.00     0.010 A 
ATOM     11  C   UNL A   1      36.536  32.752  28.693  1.00  0.00     0.010 A 
ATOM     12  C   UNL A   1      36.611  31.455  29.221  1.00  0.00    -0.014 A 
BRANCH  12  13
ATOM     13  C   UNL A   1      37.816  30.954  29.939  1.00  0.00     0.031 A 
ATOM     14  C   UNL A   1      38.074  31.323  31.377  1.00  0.00     0.074 A 
ATOM     15  C   UNL A   1      38.650  30.109  29.301  1.00  0.00     0.049 A 
ATOM     16  N   UNL A   1      39.047  30.942  32.167  1.00  0.00    -0.248 NA
ATOM     17  C   UNL A   1      37.124  32.252  32.007  1.00  0.00     0.031 C 
ATOM     18  C   UNL A   1      38.508  29.681  27.906  1.00  0.00     0.029 A 
ATOM     19  N   UNL A   1      39.757  29.430  29.741  1.00  0.00    -0.354 N 
ATOM     20  C   UNL A   1      38.847  31.605  33.374  1.00  0.00     0.074 A 
ATOM     21  C   UNL A   1      37.676  32.438  33.199  1.00  0.00     0.031 C 
ATOM     22  C   UNL A   1      39.444  28.762  27.628  1.00  0.00     0.029 A 
ATOM     23  C   UNL A   1      40.299  28.589  28.796  1.00  0.00     0.049 A 
ATOM     24  H   UNL A   1      40.128  29.534  30.648  1.00  0.00     0.167 HD
ATOM     25  C   UNL A   1      39.568  31.521  34.520  1.00  0.00     0.034 A 
ATOM     26  C   UNL A   1      41.371  27.776  28.855  1.00  0.00     0.034 A 
ATOM     27  C   UNL A   1      40.722  30.667  34.685  1.00  0.00     0.049 A 
ATOM     28  C   UNL A   1      42.158  27.707  30.135  1.00  0.00     0.074 A 
ATOM     29  C   UNL A   1      41.505  30.480  35.813  1.00  0.00     0.029 A 
ATOM     30  N   UNL A   1      41.264  29.859  33.692  1.00  0.00    -0.354 N 
ATOM     31  N   UNL A   1      41.947  28.336  31.268  1.00  0.00    -0.248 NA
ATOM     32  C   UNL A   1      43.324  26.818  30.142  1.00  0.00     0.031 C 
ATOM     33  C   UNL A   1      42.552  29.611  35.484  1.00  0.00     0.029 A 
ATOM     34  C   UNL A   1      42.384  29.195  34.174  1.00  0.00     0.049 A 
ATOM     35  H   UNL A   1      40.906  29.772  32.780  1.00  0.00     0.167 HD
ATOM     36  C   UNL A   1      42.944  27.896  32.134  1.00  0.00     0.074 A 
ATOM     37  C   UNL A   1      43.740  26.936  31.395  1.00  0.00     0.031 C 
ATOM     38  C   UNL A   1      43.178  28.249  33.423  1.00  0.00     0.034 A 
BRANCH  25  39
ATOM     39  C   UNL A   1      39.157  32.414  35.669  1.00  0.00     0.023 A 
ATOM     40  C   UNL A   1      39.613  33.739  35.786  1.00  0.00     0.031 A 
ATOM     41  C   UNL A   1      38.316  31.920  36.684  1.00  0.00     0.131 A 
ATOM     42  C   UNL A   1      39.291  34.495  36.924  1.00  0.00     0.055 A 
ATOM     43  C   UNL A   1      37.933  32.703  37.774  1.00  0.00     0.041 A 
ATOM     44  F   UNL A   1      37.863  30.657  36.640  1.00  0.00    -0.206 F 
ATOM     45  C   UNL A   1      38.435  33.995  37.908  1.00  0.00     0.022 A 
BRANCH  42  46
ATOM     46  S   UNL A   1      40.128  36.085  37.176  1.00  0.00     0.124 S 
ATOM     47  O   UNL A   1      39.317  36.683  38.235  1.00  0.00    -0.237 OA
ATOM     48  O   UNL A   1      41.474  35.675  37.559  1.00  0.00    -0.237 OA
ATOM     49  O   UNL A   1      40.021  36.741  35.875  1.00  0.00    -0.744 OA
ENDBRANCH  42  46
ENDBRANCH  25  39
BRANCH  26  50
ATOM     50  C   UNL A   1      41.772  26.977  27.663  1.00  0.00     0.023 A 
ATOM     51  C   UNL A   1      41.514  25.599  27.595  1.00  0.00     0.031 A 
ATOM     52  C   UNL A   1      42.441  27.579  26.582  1.00  0.00     0.131 A 
ATOM     53  C   UNL A   1      41.954  24.861  26.486  1.00  0.00     0.055 A 
ATOM     54  C   UNL A   1      42.831  26.850  25.458  1.00  0.00     0.041 A 
ATOM     55  F   UNL A   1      42.707  28.895  26.596  1.00  0.00    -0.206 F 
ATOM     56  C   UNL A   1      42.598  25.479  25.412  1.00  0.00     0.022 A 
BRANCH  53  57
ATOM     57  S   UNL A   1      41.738  23.061  26.501  1.00  0.00     0.124 S 
ATOM     58  O   UNL A   1      42.176  22.718  27.849  1.00  0.00    -0.237 OA
ATOM     59  O   UNL A   1      40.309  22.926  26.237  1.00  0.00    -0.237 OA
ATOM     60  O   UNL A   1      42.614  22.605  25.424  1.00  0.00    -0.744 OA
ENDBRANCH  53  57
ENDBRANCH  26  50
BRANCH  38  61
ATOM     61  C   UNL A   1      44.318  27.550  34.121  1.00  0.00     0.023 A 
ATOM     62  C   UNL A   1      44.133  26.339  34.811  1.00  0.00     0.031 A 
ATOM     63  C   UNL A   1      45.599  28.129  34.130  1.00  0.00     0.131 A 
ATOM     64  C   UNL A   1      45.196  25.780  35.537  1.00  0.00     0.055 A 
ATOM     65  C   UNL A   1      46.668  27.536  34.803  1.00  0.00     0.041 A 
ATOM     66  F   UNL A   1      45.831  29.287  33.490  1.00  0.00    -0.206 F 
ATOM     67  C   UNL A   1      46.465  26.363  35.525  1.00  0.00     0.022 A 
BRANCH  64  68
ATOM     68  S   UNL A   1      44.868  24.338  36.588  1.00  0.00     0.124 S 
ATOM     69  O   UNL A   1      44.057  24.917  37.654  1.00  0.00    -0.237 OA
ATOM     70  O   UNL A   1      44.173  23.438  35.675  1.00  0.00    -0.237 OA
ATOM     71  O   UNL A   1      46.202  23.900  36.993  1.00  0.00    -0.744 OA
ENDBRANCH  64  68
ENDBRANCH  38  61
ENDBRANCH  12  13
ENDBRANCH   5   7
ENDBRANCH   2   3
ENDBRANCH   1   2
BRANCH   1  72
ATOM     72  C   UNL A   1      32.276  29.326  24.433  1.00  0.00     0.118 C 
BRANCH  72  73
ATOM     73  N   UNL A   1      31.540  28.848  23.268  1.00  0.00    -0.352 N 
ATOM     74  C   UNL A   1      31.146  27.577  22.932  1.00  0.00     0.251 C 
ATOM     75  H   UNL A   1      31.285  29.547  22.621  1.00  0.00     0.163 HD
ATOM     76  O   UNL A   1      30.701  27.348  21.811  1.00  0.00    -0.269 OA
BRANCH  74  77
ATOM     77  C   UNL A   1      31.220  26.486  23.925  1.00  0.00     0.043 A 
ATOM     78  C   UNL A   1      30.203  26.337  24.869  1.00  0.00     0.014 A 
ATOM     79  C   UNL A   1      32.345  25.660  23.969  1.00  0.00     0.061 A 
ATOM     80  C   UNL A   1      30.291  25.319  25.819  1.00  0.00     0.005 A 
ATOM     81  C   UNL A   1      32.426  24.621  24.897  1.00  0.00     0.130 A 
ATOM     82  C   UNL A   1      31.396  24.458  25.825  1.00  0.00     0.047 A 
BRANCH  81  83
ATOM     83  O   UNL A   1      33.495  23.754  25.002  1.00  0.00    -0.438 OA
BRANCH  83  84
ATOM     84  C   UNL A   1      33.216  22.408  24.863  1.00  0.00     0.234 A 
ATOM     85  N   UNL A   1      32.760  22.021  23.644  1.00  0.00    -0.214 NA
ATOM     86  C   UNL A   1      33.409  21.526  25.927  1.00  0.00     0.087 A 
ATOM     87  C   UNL A   1      32.513  20.699  23.464  1.00  0.00     0.200 A 
ATOM     88  C   UNL A   1      33.187  20.167  25.711  1.00  0.00     0.108 A 
ATOM     89  Br  UNL A   1      34.015  22.094  27.627  1.00  0.00    -0.045 Br
ATOM     90  C   UNL A   1      32.728  19.754  24.456  1.00  0.00     0.288 A 
BRANCH  90  91
ATOM     91  N   UNL A   1      32.471  18.347  24.189  1.00  0.00     0.064 N 
ATOM     92  O   UNL A   1      32.569  17.956  23.021  1.00  0.00    -0.258 OA
ATOM     93  O   UNL A   1      32.152  17.636  25.153  1.00  0.00    -0.258 OA
ENDBRANCH  90  91
ENDBRANCH  83  84
ENDBRANCH  81  83
ENDBRANCH  74  77
ENDBRANCH  72  73
ENDBRANCH   1  72
TORSDOF 16
ENDMDL
MODEL 2
REMARK VINA RESULT:     -12.4      1.831      2.254
REMARK SMILES O=C(NCCCNC(=O)c1cccc(Oc2ncc([N+](=O)[O-])cc2Br)c1)c1ccc(-c2c3nc(c(-c4cc(S(=O)(=O)[O-])ccc4F)c4ccc([nH]4)c(-c4cc(S(=O)(=O)[O-])ccc4F)c4nc(c(-c5cc(S(=O)(=O)[O-])ccc5F)c5ccc2[nH]5)C=C4)C=C3)cc1
REMARK SMILES IDX 5 1 4 2 3 3 1 4 2 5 27 7 28 8 89 9 29 10 88 11 30 12 31 13
REMARK SMILES IDX 32 14 82 15 33 16 87 17 81 18 83 19 34 20 86 21 80 22 79 23
REMARK SMILES IDX 35 25 67 26 47 27 66 28 48 29 51 30 65 31 84 32 49 33 50 34
REMARK SMILES IDX 64 36 85 37 52 38 36 39 37 40 45 41 38 42 44 43 46 44 43 45
REMARK SMILES IDX 39 46 40 47 41 48 42 49 68 50 69 51 77 52 70 53 76 54 78 55
REMARK SMILES IDX 75 56 71 57 72 58 73 59 74 60 53 61 54 62 62 63 55 64 61 65
REMARK SMILES IDX 63 66 60 67 56 68 57 69 58 70 59 71 6 72 7 73 8 74 9 76
REMARK SMILES IDX 10 77 11 78 26 79 12 80 14 81 13 82 15 83 16 84 17 85 24 86
REMARK SMILES IDX 18 87 23 88 25 89 19 90 20 91 21 92 22 93
REMARK H PARENT 3 6 83 24 51 35 7 75
REMARK Flexibility Score: inf
ROOT
ATOM      1  C   UNL A   1      31.888  29.040  27.254  1.00  0.00     0.042 C 
ENDROOT
BRANCH   1   2
ATOM      2  C   UNL A   1      32.917  29.900  26.536  1.00  0.00     0.118 C 
BRANCH   2   3
ATOM      3  N   UNL A   1      32.842  31.312  26.895  1.00  0.00    -0.352 N 
ATOM      4  O   UNL A   1      33.384  33.234  27.936  1.00  0.00    -0.269 OA
ATOM      5  C   UNL A   1      33.713  32.091  27.625  1.00  0.00     0.251 C 
ATOM      6  H   UNL A   1      32.044  31.783  26.564  1.00  0.00     0.163 HD
BRANCH   5   7
ATOM      7  C   UNL A   1      35.019  31.548  28.060  1.00  0.00     0.039 A 
ATOM      8  C   UNL A   1      35.128  30.236  28.520  1.00  0.00     0.014 A 
ATOM      9  C   UNL A   1      36.153  32.364  28.020  1.00  0.00     0.014 A 
ATOM     10  C   UNL A   1      36.298  29.818  29.139  1.00  0.00     0.010 A 
ATOM     11  C   UNL A   1      37.368  31.896  28.533  1.00  0.00     0.010 A 
ATOM     12  C   UNL A   1      37.438  30.638  29.152  1.00  0.00    -0.014 A 
BRANCH  12  13
ATOM     13  C   UNL A   1      38.678  30.142  29.811  1.00  0.00     0.031 A 
ATOM     14  C   UNL A   1      39.041  30.571  31.209  1.00  0.00     0.074 A 
ATOM     15  C   UNL A   1      39.448  29.246  29.160  1.00  0.00     0.049 A 
ATOM     16  N   UNL A   1      40.057  30.203  31.950  1.00  0.00    -0.248 NA
ATOM     17  C   UNL A   1      38.157  31.552  31.856  1.00  0.00     0.031 C 
ATOM     18  C   UNL A   1      39.202  28.757  27.801  1.00  0.00     0.029 A 
ATOM     19  N   UNL A   1      40.567  28.562  29.559  1.00  0.00    -0.354 N 
ATOM     20  C   UNL A   1      39.954  30.928  33.134  1.00  0.00     0.074 A 
ATOM     21  C   UNL A   1      38.793  31.780  32.997  1.00  0.00     0.031 C 
ATOM     22  C   UNL A   1      40.096  27.803  27.507  1.00  0.00     0.029 A 
ATOM     23  C   UNL A   1      41.024  27.664  28.622  1.00  0.00     0.049 A 
ATOM     24  H   UNL A   1      41.001  28.699  30.432  1.00  0.00     0.167 HD
ATOM     25  C   UNL A   1      40.750  30.879  34.232  1.00  0.00     0.034 A 
ATOM     26  C   UNL A   1      42.080  26.827  28.648  1.00  0.00     0.034 A 
ATOM     27  C   UNL A   1      41.893  30.006  34.361  1.00  0.00     0.049 A 
ATOM     28  C   UNL A   1      42.950  26.799  29.874  1.00  0.00     0.074 A 
ATOM     29  C   UNL A   1      42.747  29.852  35.441  1.00  0.00     0.029 A 
ATOM     30  N   UNL A   1      42.349  29.138  33.374  1.00  0.00    -0.354 N 
ATOM     31  N   UNL A   1      42.831  27.485  30.987  1.00  0.00    -0.248 NA
ATOM     32  C   UNL A   1      44.094  25.882  29.847  1.00  0.00     0.031 C 
ATOM     33  C   UNL A   1      43.750  28.942  35.086  1.00  0.00     0.029 A 
ATOM     34  C   UNL A   1      43.484  28.469  33.812  1.00  0.00     0.049 A 
ATOM     35  H   UNL A   1      41.928  29.017  32.493  1.00  0.00     0.167 HD
ATOM     36  C   UNL A   1      43.874  27.061  31.804  1.00  0.00     0.074 A 
ATOM     37  C   UNL A   1      44.597  26.048  31.061  1.00  0.00     0.031 C 
ATOM     38  C   UNL A   1      44.203  27.470  33.056  1.00  0.00     0.034 A 
BRANCH  25  39
ATOM     39  C   UNL A   1      40.437  31.836  35.361  1.00  0.00     0.023 A 
ATOM     40  C   UNL A   1      39.377  31.614  36.257  1.00  0.00     0.031 A 
ATOM     41  C   UNL A   1      41.197  33.010  35.523  1.00  0.00     0.131 A 
ATOM     42  C   UNL A   1      39.059  32.583  37.222  1.00  0.00     0.055 A 
ATOM     43  C   UNL A   1      40.925  33.933  36.536  1.00  0.00     0.041 A 
ATOM     44  F   UNL A   1      42.210  33.289  34.687  1.00  0.00    -0.206 F 
ATOM     45  C   UNL A   1      39.839  33.730  37.383  1.00  0.00     0.022 A 
BRANCH  42  46
ATOM     46  S   UNL A   1      37.518  32.398  38.162  1.00  0.00     0.124 S 
ATOM     47  O   UNL A   1      37.883  32.987  39.449  1.00  0.00    -0.237 OA
ATOM     48  O   UNL A   1      36.566  33.157  37.361  1.00  0.00    -0.237 OA
ATOM     49  O   UNL A   1      37.301  30.952  38.187  1.00  0.00    -0.744 OA
ENDBRANCH  42  46
ENDBRANCH  25  39
BRANCH  26  50
ATOM     50  C   UNL A   1      42.381  25.963  27.472  1.00  0.00     0.023 A 
ATOM     51  C   UNL A   1      41.945  24.630  27.423  1.00  0.00     0.031 A 
ATOM     52  C   UNL A   1      43.130  26.454  26.388  1.00  0.00     0.131 A 
ATOM     53  C   UNL A   1      42.293  23.822  26.330  1.00  0.00     0.055 A 
ATOM     54  C   UNL A   1      43.429  25.662  25.279  1.00  0.00     0.041 A 
ATOM     55  F   UNL A   1      43.566  27.724  26.383  1.00  0.00    -0.206 F 
ATOM     56  C   UNL A   1      43.020  24.333  25.252  1.00  0.00     0.022 A 
BRANCH  53  57
ATOM     57  S   UNL A   1      41.843  22.066  26.371  1.00  0.00     0.124 S 
ATOM     58  O   UNL A   1      40.410  22.119  26.100  1.00  0.00    -0.237 OA
ATOM     59  O   UNL A   1      42.677  21.515  25.309  1.00  0.00    -0.237 OA
ATOM     60  O   UNL A   1      42.208  21.654  27.725  1.00  0.00    -0.744 OA
ENDBRANCH  53  57
ENDBRANCH  26  50
BRANCH  38  61
ATOM     61  C   UNL A   1      45.373  26.776  33.710  1.00  0.00     0.023 A 
ATOM     62  C   UNL A   1      45.214  25.582  34.436  1.00  0.00     0.031 A 
ATOM     63  C   UNL A   1      46.658  27.342  33.639  1.00  0.00     0.131 A 
ATOM     64  C   UNL A   1      46.309  25.029  35.117  1.00  0.00     0.055 A 
ATOM     65  C   UNL A   1      47.755  26.755  34.268  1.00  0.00     0.041 A 
ATOM     66  F   UNL A   1      46.865  28.484  32.961  1.00  0.00    -0.206 F 
ATOM     67  C   UNL A   1      47.580  25.600  35.027  1.00  0.00     0.022 A 
BRANCH  64  68
ATOM     68  S   UNL A   1      46.025  23.614  36.216  1.00  0.00     0.124 S 
ATOM     69  O   UNL A   1      46.096  24.234  37.535  1.00  0.00    -0.237 OA
ATOM     70  O   UNL A   1      44.706  23.154  35.797  1.00  0.00    -0.237 OA
ATOM     71  O   UNL A   1      47.127  22.707  35.899  1.00  0.00    -0.744 OA
ENDBRANCH  64  68
ENDBRANCH  38  61
ENDBRANCH  12  13
ENDBRANCH   5   7
ENDBRANCH   2   3
ENDBRANCH   1   2
BRANCH   1  72
ATOM     72  C   UNL A   1      32.190  27.552  27.227  1.00  0.00     0.118 C 
BRANCH  72  73
ATOM     73  N   UNL A   1      31.036  26.755  26.825  1.00  0.00    -0.352 N 
ATOM     74  C   UNL A   1      30.650  26.327  25.579  1.00  0.00     0.251 C 
ATOM     75  H   UNL A   1      30.442  26.482  27.561  1.00  0.00     0.163 HD
ATOM     76  O   UNL A   1      29.541  25.826  25.418  1.00  0.00    -0.269 OA
BRANCH  74  77
ATOM     77  C   UNL A   1      31.578  26.429  24.434  1.00  0.00     0.043 A 
ATOM     78  C   UNL A   1      31.562  27.567  23.628  1.00  0.00     0.014 A 
ATOM     79  C   UNL A   1      32.409  25.353  24.114  1.00  0.00     0.061 A 
ATOM     80  C   UNL A   1      32.425  27.646  22.534  1.00  0.00     0.005 A 
ATOM     81  C   UNL A   1      33.294  25.437  23.040  1.00  0.00     0.130 A 
ATOM     82  C   UNL A   1      33.295  26.587  22.248  1.00  0.00     0.047 A 
BRANCH  81  83
ATOM     83  O   UNL A   1      34.155  24.426  22.660  1.00  0.00    -0.438 OA
BRANCH  83  84
ATOM     84  C   UNL A   1      33.927  23.180  23.210  1.00  0.00     0.234 A 
ATOM     85  N   UNL A   1      32.868  22.495  22.706  1.00  0.00    -0.214 NA
ATOM     86  C   UNL A   1      34.755  22.681  24.216  1.00  0.00     0.087 A 
ATOM     87  C   UNL A   1      32.640  21.251  23.198  1.00  0.00     0.200 A 
ATOM     88  C   UNL A   1      34.528  21.387  24.682  1.00  0.00     0.108 A 
ATOM     89  Br  UNL A   1      36.206  23.667  24.927  1.00  0.00    -0.045 Br
ATOM     90  C   UNL A   1      33.448  20.666  24.162  1.00  0.00     0.288 A 
BRANCH  90  91
ATOM     91  N   UNL A   1      33.167  19.317  24.628  1.00  0.00     0.064 N 
ATOM     92  O   UNL A   1      32.097  19.124  25.216  1.00  0.00    -0.258 OA
ATOM     93  O   UNL A   1      34.029  18.452  24.419  1.00  0.00    -0.258 OA
ENDBRANCH  90  91
ENDBRANCH  83  84
ENDBRANCH  81  83
ENDBRANCH  74  77
ENDBRANCH  72  73
ENDBRANCH   1  72
TORSDOF 16
ENDMDL
MODEL 3
REMARK VINA RESULT:     -12.4      5.008     10.487
REMARK SMILES O=C(NCCCNC(=O)c1cccc(Oc2ncc([N+](=O)[O-])cc2Br)c1)c1ccc(-c2c3nc(c(-c4cc(S(=O)(=O)[O-])ccc4F)c4ccc([nH]4)c(-c4cc(S(=O)(=O)[O-])ccc4F)c4nc(c(-c5cc(S(=O)(=O)[O-])ccc5F)c5ccc2[nH]5)C=C4)C=C3)cc1
REMARK SMILES IDX 5 1 4 2 3 3 1 4 2 5 27 7 28 8 89 9 29 10 88 11 30 12 31 13
REMARK SMILES IDX 32 14 82 15 33 16 87 17 81 18 83 19 34 20 86 21 80 22 79 23
REMARK SMILES IDX 35 25 67 26 47 27 66 28 48 29 51 30 65 31 84 32 49 33 50 34
REMARK SMILES IDX 64 36 85 37 52 38 36 39 37 40 45 41 38 42 44 43 46 44 43 45
REMARK SMILES IDX 39 46 40 47 41 48 42 49 68 50 69 51 77 52 70 53 76 54 78 55
REMARK SMILES IDX 75 56 71 57 72 58 73 59 74 60 53 61 54 62 62 63 55 64 61 65
REMARK SMILES IDX 63 66 60 67 56 68 57 69 58 70 59 71 6 72 7 73 8 74 9 76
REMARK SMILES IDX 10 77 11 78 26 79 12 80 14 81 13 82 15 83 16 84 17 85 24 86
REMARK SMILES IDX 18 87 23 88 25 89 19 90 20 91 21 92 22 93
REMARK H PARENT 3 6 83 24 51 35 7 75
REMARK Flexibility Score: inf
ROOT
ATOM      1  C   UNL A   1      36.328  21.066  25.003  1.00  0.00     0.042 C 
ENDROOT
BRANCH   1   2
ATOM      2  C   UNL A   1      37.700  21.669  25.267  1.00  0.00     0.118 C 
BRANCH   2   3
ATOM      3  N   UNL A   1      38.683  20.692  25.723  1.00  0.00    -0.352 N 
ATOM      4  O   UNL A   1      40.617  19.916  26.577  1.00  0.00    -0.269 OA
ATOM      5  C   UNL A   1      39.858  20.870  26.418  1.00  0.00     0.251 C 
ATOM      6  H   UNL A   1      38.473  19.757  25.498  1.00  0.00     0.163 HD
BRANCH   5   7
ATOM      7  C   UNL A   1      40.222  22.206  26.943  1.00  0.00     0.039 A 
ATOM      8  C   UNL A   1      39.676  23.362  26.388  1.00  0.00     0.014 A 
ATOM      9  C   UNL A   1      41.131  22.306  27.999  1.00  0.00     0.014 A 
ATOM     10  C   UNL A   1      40.199  24.603  26.729  1.00  0.00     0.010 A 
ATOM     11  C   UNL A   1      41.566  23.567  28.427  1.00  0.00     0.010 A 
ATOM     12  C   UNL A   1      41.148  24.726  27.756  1.00  0.00    -0.014 A 
BRANCH  12  13
ATOM     13  C   UNL A   1      41.668  26.078  28.101  1.00  0.00     0.031 A 
ATOM     14  C   UNL A   1      43.052  26.508  27.688  1.00  0.00     0.074 A 
ATOM     15  C   UNL A   1      40.857  26.944  28.740  1.00  0.00     0.049 A 
ATOM     16  N   UNL A   1      43.647  27.662  27.865  1.00  0.00    -0.248 NA
ATOM     17  C   UNL A   1      43.882  25.510  26.997  1.00  0.00     0.031 C 
ATOM     18  C   UNL A   1      39.497  26.642  29.196  1.00  0.00     0.029 A 
ATOM     19  N   UNL A   1      41.035  28.259  29.087  1.00  0.00    -0.354 N 
ATOM     20  C   UNL A   1      44.928  27.521  27.339  1.00  0.00     0.074 A 
ATOM     21  C   UNL A   1      45.032  26.157  26.865  1.00  0.00     0.031 C 
ATOM     22  C   UNL A   1      38.941  27.755  29.695  1.00  0.00     0.029 A 
ATOM     23  C   UNL A   1      39.925  28.830  29.666  1.00  0.00     0.049 A 
ATOM     24  H   UNL A   1      41.876  28.748  28.935  1.00  0.00     0.167 HD
ATOM     25  C   UNL A   1      45.919  28.444  27.255  1.00  0.00     0.034 A 
ATOM     26  C   UNL A   1      39.721  30.077  30.133  1.00  0.00     0.034 A 
ATOM     27  C   UNL A   1      45.791  29.808  27.713  1.00  0.00     0.049 A 
ATOM     28  C   UNL A   1      40.839  31.078  30.035  1.00  0.00     0.074 A 
ATOM     29  C   UNL A   1      46.719  30.834  27.645  1.00  0.00     0.029 A 
ATOM     30  N   UNL A   1      44.664  30.339  28.331  1.00  0.00    -0.354 N 
ATOM     31  N   UNL A   1      42.039  30.928  29.526  1.00  0.00    -0.248 NA
ATOM     32  C   UNL A   1      40.571  32.417  30.571  1.00  0.00     0.031 C 
ATOM     33  C   UNL A   1      46.178  31.961  28.274  1.00  0.00     0.029 A 
ATOM     34  C   UNL A   1      44.885  31.666  28.671  1.00  0.00     0.049 A 
ATOM     35  H   UNL A   1      43.831  29.844  28.502  1.00  0.00     0.167 HD
ATOM     36  C   UNL A   1      42.663  32.165  29.659  1.00  0.00     0.074 A 
ATOM     37  C   UNL A   1      41.696  33.051  30.278  1.00  0.00     0.031 C 
ATOM     38  C   UNL A   1      43.917  32.536  29.300  1.00  0.00     0.034 A 
BRANCH  25  39
ATOM     39  C   UNL A   1      47.246  27.991  26.688  1.00  0.00     0.023 A 
ATOM     40  C   UNL A   1      47.493  27.950  25.305  1.00  0.00     0.031 A 
ATOM     41  C   UNL A   1      48.273  27.561  27.550  1.00  0.00     0.131 A 
ATOM     42  C   UNL A   1      48.701  27.421  24.823  1.00  0.00     0.055 A 
ATOM     43  C   UNL A   1      49.503  27.110  27.067  1.00  0.00     0.041 A 
ATOM     44  F   UNL A   1      48.091  27.557  28.880  1.00  0.00    -0.206 F 
ATOM     45  C   UNL A   1      49.717  27.022  25.694  1.00  0.00     0.022 A 
BRANCH  42  46
ATOM     46  S   UNL A   1      48.867  27.117  23.041  1.00  0.00     0.124 S 
ATOM     47  O   UNL A   1      48.116  28.237  22.479  1.00  0.00    -0.237 OA
ATOM     48  O   UNL A   1      50.312  27.157  22.848  1.00  0.00    -0.237 OA
ATOM     49  O   UNL A   1      48.247  25.806  22.856  1.00  0.00    -0.744 OA
ENDBRANCH  42  46
ENDBRANCH  25  39
BRANCH  26  50
ATOM     50  C   UNL A   1      38.415  30.441  30.751  1.00  0.00     0.023 A 
ATOM     51  C   UNL A   1      37.444  31.149  30.026  1.00  0.00     0.031 A 
ATOM     52  C   UNL A   1      38.129  30.106  32.087  1.00  0.00     0.131 A 
ATOM     53  C   UNL A   1      36.247  31.529  30.652  1.00  0.00     0.055 A 
ATOM     54  C   UNL A   1      36.916  30.442  32.688  1.00  0.00     0.041 A 
ATOM     55  F   UNL A   1      39.023  29.425  32.822  1.00  0.00    -0.206 F 
ATOM     56  C   UNL A   1      35.971  31.169  31.972  1.00  0.00     0.022 A 
BRANCH  53  57
ATOM     57  S   UNL A   1      35.081  32.571  29.732  1.00  0.00     0.124 S 
ATOM     58  O   UNL A   1      35.966  33.585  29.171  1.00  0.00    -0.237 OA
ATOM     59  O   UNL A   1      34.510  31.621  28.784  1.00  0.00    -0.237 OA
ATOM     60  O   UNL A   1      34.163  33.046  30.766  1.00  0.00    -0.744 OA
ENDBRANCH  53  57
ENDBRANCH  26  50
BRANCH  38  61
ATOM     61  C   UNL A   1      44.289  33.981  29.529  1.00  0.00     0.023 A 
ATOM     62  C   UNL A   1      44.077  34.964  28.546  1.00  0.00     0.031 A 
ATOM     63  C   UNL A   1      44.902  34.368  30.733  1.00  0.00     0.131 A 
ATOM     64  C   UNL A   1      44.535  36.273  28.760  1.00  0.00     0.055 A 
ATOM     65  C   UNL A   1      45.301  35.684  30.964  1.00  0.00     0.041 A 
ATOM     66  F   UNL A   1      45.132  33.467  31.703  1.00  0.00    -0.206 F 
ATOM     67  C   UNL A   1      45.133  36.642  29.967  1.00  0.00     0.022 A 
BRANCH  64  68
ATOM     68  S   UNL A   1      44.440  37.462  27.393  1.00  0.00     0.124 S 
ATOM     69  O   UNL A   1      43.177  37.098  26.760  1.00  0.00    -0.237 OA
ATOM     70  O   UNL A   1      44.459  38.742  28.091  1.00  0.00    -0.237 OA
ATOM     71  O   UNL A   1      45.635  37.170  26.602  1.00  0.00    -0.744 OA
ENDBRANCH  64  68
ENDBRANCH  38  61
ENDBRANCH  12  13
ENDBRANCH   5   7
ENDBRANCH   2   3
ENDBRANCH   1   2
BRANCH   1  72
ATOM     72  C   UNL A   1      35.283  21.412  26.049  1.00  0.00     0.118 C 
BRANCH  72  73
ATOM     73  N   UNL A   1      34.001  20.763  25.794  1.00  0.00    -0.352 N 
ATOM     74  C   UNL A   1      32.862  21.257  25.210  1.00  0.00     0.251 C 
ATOM     75  H   UNL A   1      33.945  19.824  26.087  1.00  0.00     0.163 HD
ATOM     76  O   UNL A   1      31.818  20.613  25.258  1.00  0.00    -0.269 OA
BRANCH  74  77
ATOM     77  C   UNL A   1      32.892  22.545  24.488  1.00  0.00     0.043 A 
ATOM     78  C   UNL A   1      33.377  22.598  23.181  1.00  0.00     0.014 A 
ATOM     79  C   UNL A   1      32.513  23.719  25.143  1.00  0.00     0.061 A 
ATOM     80  C   UNL A   1      33.425  23.823  22.514  1.00  0.00     0.005 A 
ATOM     81  C   UNL A   1      32.530  24.942  24.473  1.00  0.00     0.130 A 
ATOM     82  C   UNL A   1      32.992  24.989  23.156  1.00  0.00     0.047 A 
BRANCH  81  83
ATOM     83  O   UNL A   1      32.163  26.146  25.041  1.00  0.00    -0.438 OA
BRANCH  83  84
ATOM     84  C   UNL A   1      31.202  26.878  24.373  1.00  0.00     0.234 A 
ATOM     85  N   UNL A   1      29.946  26.360  24.385  1.00  0.00    -0.214 NA
ATOM     86  C   UNL A   1      31.531  28.077  23.739  1.00  0.00     0.087 A 
ATOM     87  C   UNL A   1      28.972  27.075  23.770  1.00  0.00     0.200 A 
ATOM     88  C   UNL A   1      30.509  28.817  23.145  1.00  0.00     0.108 A 
ATOM     89  Br  UNL A   1      33.294  28.765  23.707  1.00  0.00    -0.045 Br
ATOM     90  C   UNL A   1      29.210  28.299  23.162  1.00  0.00     0.288 A 
BRANCH  90  91
ATOM     91  N   UNL A   1      28.114  29.031  22.544  1.00  0.00     0.064 N 
ATOM     92  O   UNL A   1      27.005  28.971  23.086  1.00  0.00    -0.258 OA
ATOM     93  O   UNL A   1      28.364  29.653  21.502  1.00  0.00    -0.258 OA
ENDBRANCH  90  91
ENDBRANCH  83  84
ENDBRANCH  81  83
ENDBRANCH  74  77
ENDBRANCH  72  73
ENDBRANCH   1  72
TORSDOF 16
ENDMDL
