MODEL 1
REMARK VINA RESULT:     -12.9      0.000      0.000
REMARK SMILES Cc1cc(C[N@H+]2CC[C@](C)(C(=O)NCCCNC(=O)c3ccc(-c4c5nc(c(-c6cc(S(=O)(=O)[O-])ccc6F)c6ccc([nH]6)c(-c6cc(S(=O)(=O)[O-])ccc6F)c6nc(c(-c7cc(S(=O)(=O)[O-])ccc7F)c7ccc4[nH]7)C=C6)C=C5)cc3)C2)c2ccccc2n1
REMARK SMILES IDX 15 1 14 2 13 3 11 4 12 5 9 7 6 8 7 9 83 10 8 12 10 13 5 14
REMARK SMILES IDX 4 15 1 16 2 17 3 18 90 19 89 20 84 21 88 22 85 23 87 24
REMARK SMILES IDX 86 25 16 26 17 27 18 28 19 30 20 31 21 32 82 33 22 34 81 35
REMARK SMILES IDX 23 36 24 37 25 38 75 39 26 40 80 41 74 42 76 43 27 44 79 45
REMARK SMILES IDX 73 46 72 47 28 49 60 50 40 51 59 52 41 53 44 54 58 55 77 56
REMARK SMILES IDX 42 57 43 58 57 60 78 61 45 62 29 63 30 64 38 65 31 66 37 67
REMARK SMILES IDX 39 68 36 69 32 70 33 71 34 72 35 73 61 74 62 75 70 76 63 77
REMARK SMILES IDX 69 78 71 79 68 80 64 81 65 82 66 83 67 84 46 85 47 86 55 87
REMARK SMILES IDX 48 88 54 89 56 90 53 91 49 92 50 93 51 94 52 95
REMARK H PARENT 13 6 6 11 17 29 76 48 44 59
REMARK Flexibility Score: inf
ROOT
ATOM      1  C   UNL A   1      35.959  21.717  25.419  1.00  0.00     0.042 C 
ENDROOT
BRANCH   1   2
ATOM      2  C   UNL A   1      34.829  21.636  24.402  1.00  0.00     0.117 C 
BRANCH   2   3
ATOM      3  N   UNL A   1      33.567  21.168  24.963  1.00  0.00    -0.355 N 
ATOM      4  C   UNL A   1      32.347  21.776  25.092  1.00  0.00     0.231 C 
ATOM      5  O   UNL A   1      31.414  21.084  25.506  1.00  0.00    -0.274 OA
ATOM      6  H   UNL A   1      33.598  20.249  25.313  1.00  0.00     0.163 HD
BRANCH   4   7
ATOM      7  C   UNL A   1      32.149  23.246  24.714  1.00  0.00     0.100 C 
ATOM      8  N   UNL A   1      30.256  24.641  24.145  1.00  0.00    -0.330 N 
ATOM      9  C   UNL A   1      31.249  24.784  23.092  1.00  0.00     0.263 C 
ATOM     10  C   UNL A   1      30.750  23.698  25.142  1.00  0.00     0.279 C 
ATOM     11  H   UNL A   1      29.432  24.237  23.700  1.00  0.00     0.348 HD
ATOM     12  C   UNL A   1      32.053  23.485  23.195  1.00  0.00     0.084 C 
ATOM     13  C   UNL A   1      33.315  24.100  25.251  1.00  0.00     0.028 C 
BRANCH   8  14
ATOM     14  C   UNL A   1      29.545  25.825  24.626  1.00  0.00     0.299 C 
BRANCH  14  15
ATOM     15  C   UNL A   1      30.177  27.167  24.303  1.00  0.00     0.017 A 
ATOM     16  C   UNL A   1      29.680  29.933  21.758  1.00  0.00     0.067 C 
ATOM     17  C   UNL A   1      30.279  29.060  22.819  1.00  0.00     0.038 A 
ATOM     18  C   UNL A   1      29.642  27.901  23.234  1.00  0.00     0.033 A 
ATOM     19  N   UNL A   1      31.456  29.465  23.339  1.00  0.00    -0.253 NA
ATOM     20  C   UNL A   1      31.962  28.796  24.388  1.00  0.00     0.071 A 
ATOM     21  C   UNL A   1      31.313  27.691  24.978  1.00  0.00     0.009 A 
ATOM     22  C   UNL A   1      33.180  29.216  24.907  1.00  0.00     0.029 A 
ATOM     23  C   UNL A   1      31.840  27.183  26.191  1.00  0.00     0.011 A 
ATOM     24  C   UNL A   1      33.746  28.627  26.040  1.00  0.00     0.002 A 
ATOM     25  C   UNL A   1      33.054  27.631  26.707  1.00  0.00     0.001 A 
ENDBRANCH  14  15
ENDBRANCH   8  14
ENDBRANCH   4   7
ENDBRANCH   2   3
ENDBRANCH   1   2
BRANCH   1  26
ATOM     26  C   UNL A   1      37.353  21.719  24.805  1.00  0.00     0.118 C 
BRANCH  26  27
ATOM     27  N   UNL A   1      38.189  20.632  25.304  1.00  0.00    -0.352 N 
ATOM     28  C   UNL A   1      39.362  20.663  26.024  1.00  0.00     0.251 C 
ATOM     29  H   UNL A   1      37.859  19.729  25.092  1.00  0.00     0.163 HD
ATOM     30  O   UNL A   1      39.993  19.626  26.183  1.00  0.00    -0.269 OA
BRANCH  28  31
ATOM     31  C   UNL A   1      39.875  21.940  26.571  1.00  0.00     0.039 A 
ATOM     32  C   UNL A   1      40.846  21.909  27.578  1.00  0.00     0.014 A 
ATOM     33  C   UNL A   1      39.403  23.166  26.100  1.00  0.00     0.014 A 
ATOM     34  C   UNL A   1      41.410  23.103  28.039  1.00  0.00     0.010 A 
ATOM     35  C   UNL A   1      40.025  24.346  26.496  1.00  0.00     0.010 A 
ATOM     36  C   UNL A   1      41.042  24.328  27.463  1.00  0.00    -0.014 A 
BRANCH  36  37
ATOM     37  C   UNL A   1      41.701  25.609  27.834  1.00  0.00     0.031 A 
ATOM     38  C   UNL A   1      40.923  26.663  28.573  1.00  0.00     0.074 A 
ATOM     39  C   UNL A   1      42.952  25.869  27.405  1.00  0.00     0.049 A 
ATOM     40  N   UNL A   1      41.236  27.909  28.817  1.00  0.00    -0.248 NA
ATOM     41  C   UNL A   1      39.594  26.270  29.064  1.00  0.00     0.031 C 
ATOM     42  C   UNL A   1      43.798  24.942  26.649  1.00  0.00     0.029 A 
ATOM     43  N   UNL A   1      43.721  27.001  27.516  1.00  0.00    -0.354 N 
ATOM     44  C   UNL A   1      40.132  28.459  29.460  1.00  0.00     0.074 A 
ATOM     45  C   UNL A   1      39.124  27.420  29.519  1.00  0.00     0.031 C 
ATOM     46  C   UNL A   1      44.968  25.540  26.371  1.00  0.00     0.029 A 
ATOM     47  C   UNL A   1      44.937  26.908  26.877  1.00  0.00     0.049 A 
ATOM     48  H   UNL A   1      43.431  27.803  28.006  1.00  0.00     0.167 HD
ATOM     49  C   UNL A   1      39.980  29.708  29.967  1.00  0.00     0.034 A 
ATOM     50  C   UNL A   1      45.905  27.827  26.693  1.00  0.00     0.034 A 
ATOM     51  C   UNL A   1      41.006  30.722  29.919  1.00  0.00     0.049 A 
ATOM     52  C   UNL A   1      45.715  29.212  27.256  1.00  0.00     0.074 A 
ATOM     53  C   UNL A   1      40.985  31.997  30.458  1.00  0.00     0.029 A 
ATOM     54  N   UNL A   1      42.238  30.577  29.294  1.00  0.00    -0.354 N 
ATOM     55  N   UNL A   1      44.679  29.707  27.894  1.00  0.00    -0.248 NA
ATOM     56  C   UNL A   1      46.825  30.158  27.085  1.00  0.00     0.031 C 
ATOM     57  C   UNL A   1      42.174  32.643  30.103  1.00  0.00     0.029 A 
ATOM     58  C   UNL A   1      42.972  31.748  29.410  1.00  0.00     0.049 A 
ATOM     59  H   UNL A   1      42.546  29.762  28.834  1.00  0.00     0.167 HD
ATOM     60  C   UNL A   1      45.029  31.012  28.230  1.00  0.00     0.074 A 
ATOM     61  C   UNL A   1      46.371  31.225  27.727  1.00  0.00     0.031 C 
ATOM     62  C   UNL A   1      44.309  31.947  28.900  1.00  0.00     0.034 A 
BRANCH  49  63
ATOM     63  C   UNL A   1      38.643  30.050  30.584  1.00  0.00     0.023 A 
ATOM     64  C   UNL A   1      37.628  30.682  29.846  1.00  0.00     0.031 A 
ATOM     65  C   UNL A   1      38.393  29.774  31.940  1.00  0.00     0.131 A 
ATOM     66  C   UNL A   1      36.449  31.096  30.486  1.00  0.00     0.055 A 
ATOM     67  C   UNL A   1      37.183  30.108  32.549  1.00  0.00     0.041 A 
ATOM     68  F   UNL A   1      39.331  29.189  32.702  1.00  0.00    -0.206 F 
ATOM     69  C   UNL A   1      36.208  30.790  31.827  1.00  0.00     0.022 A 
BRANCH  66  70
ATOM     70  S   UNL A   1      35.310  32.180  29.581  1.00  0.00     0.124 S 
ATOM     71  O   UNL A   1      34.793  31.274  28.558  1.00  0.00    -0.237 OA
ATOM     72  O   UNL A   1      34.367  32.580  30.617  1.00  0.00    -0.237 OA
ATOM     73  O   UNL A   1      36.177  33.244  29.079  1.00  0.00    -0.744 OA
ENDBRANCH  66  70
ENDBRANCH  49  63
BRANCH  50  74
ATOM     74  C   UNL A   1      47.133  27.480  25.923  1.00  0.00     0.023 A 
ATOM     75  C   UNL A   1      47.239  27.783  24.556  1.00  0.00     0.031 A 
ATOM     76  C   UNL A   1      48.211  26.818  26.537  1.00  0.00     0.131 A 
ATOM     77  C   UNL A   1      48.379  27.389  23.839  1.00  0.00     0.055 A 
ATOM     78  C   UNL A   1      49.364  26.471  25.830  1.00  0.00     0.041 A 
ATOM     79  F   UNL A   1      48.165  26.513  27.844  1.00  0.00    -0.206 F 
ATOM     80  C   UNL A   1      49.448  26.746  24.468  1.00  0.00     0.022 A 
BRANCH  77  81
ATOM     81  S   UNL A   1      48.416  27.667  22.046  1.00  0.00     0.124 S 
ATOM     82  O   UNL A   1      47.100  28.250  21.810  1.00  0.00    -0.237 OA
ATOM     83  O   UNL A   1      49.553  28.570  21.904  1.00  0.00    -0.237 OA
ATOM     84  O   UNL A   1      48.615  26.327  21.499  1.00  0.00    -0.744 OA
ENDBRANCH  77  81
ENDBRANCH  50  74
BRANCH  62  85
ATOM     85  C   UNL A   1      44.987  33.264  29.185  1.00  0.00     0.023 A 
ATOM     86  C   UNL A   1      44.778  34.398  28.382  1.00  0.00     0.031 A 
ATOM     87  C   UNL A   1      45.849  33.382  30.290  1.00  0.00     0.131 A 
ATOM     88  C   UNL A   1      45.457  35.591  28.672  1.00  0.00     0.055 A 
ATOM     89  C   UNL A   1      46.481  34.585  30.604  1.00  0.00     0.041 A 
ATOM     90  F   UNL A   1      46.085  32.328  31.088  1.00  0.00    -0.206 F 
ATOM     91  C   UNL A   1      46.295  35.697  29.786  1.00  0.00     0.022 A 
BRANCH  88  92
ATOM     92  S   UNL A   1      45.290  36.991  27.529  1.00  0.00     0.124 S 
ATOM     93  O   UNL A   1      44.006  36.712  26.894  1.00  0.00    -0.237 OA
ATOM     94  O   UNL A   1      45.319  38.137  28.432  1.00  0.00    -0.237 OA
ATOM     95  O   UNL A   1      46.454  36.863  26.655  1.00  0.00    -0.744 OA
ENDBRANCH  88  92
ENDBRANCH  62  85
ENDBRANCH  36  37
ENDBRANCH  28  31
ENDBRANCH  26  27
ENDBRANCH   1  26
TORSDOF 15
ENDMDL
MODEL 2
REMARK VINA RESULT:     -12.8      5.028     10.268
REMARK SMILES Cc1cc(C[N@H+]2CC[C@](C)(C(=O)NCCCNC(=O)c3ccc(-c4c5nc(c(-c6cc(S(=O)(=O)[O-])ccc6F)c6ccc([nH]6)c(-c6cc(S(=O)(=O)[O-])ccc6F)c6nc(c(-c7cc(S(=O)(=O)[O-])ccc7F)c7ccc4[nH]7)C=C6)C=C5)cc3)C2)c2ccccc2n1
REMARK SMILES IDX 15 1 14 2 13 3 11 4 12 5 9 7 6 8 7 9 83 10 8 12 10 13 5 14
REMARK SMILES IDX 4 15 1 16 2 17 3 18 90 19 89 20 84 21 88 22 85 23 87 24
REMARK SMILES IDX 86 25 16 26 17 27 18 28 19 30 20 31 21 32 82 33 22 34 81 35
REMARK SMILES IDX 23 36 24 37 25 38 75 39 26 40 80 41 74 42 76 43 27 44 79 45
REMARK SMILES IDX 73 46 72 47 28 49 60 50 40 51 59 52 41 53 44 54 58 55 77 56
REMARK SMILES IDX 42 57 43 58 57 60 78 61 45 62 29 63 30 64 38 65 31 66 37 67
REMARK SMILES IDX 39 68 36 69 32 70 33 71 34 72 35 73 61 74 62 75 70 76 63 77
REMARK SMILES IDX 69 78 71 79 68 80 64 81 65 82 66 83 67 84 46 85 47 86 55 87
REMARK SMILES IDX 48 88 54 89 56 90 53 91 49 92 50 93 51 94 52 95
REMARK H PARENT 13 6 6 11 17 29 76 48 44 59
REMARK Flexibility Score: inf
ROOT
ATOM      1  C   UNL A   1      31.811  29.130  27.151  1.00  0.00     0.042 C 
ENDROOT
BRANCH   1   2
ATOM      2  C   UNL A   1      31.405  27.872  26.396  1.00  0.00     0.117 C 
BRANCH   2   3
ATOM      3  N   UNL A   1      31.431  28.023  24.947  1.00  0.00    -0.355 N 
ATOM      4  C   UNL A   1      31.598  27.111  23.938  1.00  0.00     0.231 C 
ATOM      5  O   UNL A   1      31.453  27.517  22.783  1.00  0.00    -0.274 OA
ATOM      6  H   UNL A   1      31.307  28.949  24.636  1.00  0.00     0.163 HD
BRANCH   4   7
ATOM      7  C   UNL A   1      31.925  25.646  24.239  1.00  0.00     0.100 C 
ATOM      8  N   UNL A   1      31.456  23.522  23.182  1.00  0.00    -0.330 N 
ATOM      9  C   UNL A   1      31.035  23.432  24.571  1.00  0.00     0.263 C 
ATOM     10  C   UNL A   1      31.983  24.858  22.928  1.00  0.00     0.279 C 
ATOM     11  H   UNL A   1      30.611  23.397  22.625  1.00  0.00     0.348 HD
ATOM     12  C   UNL A   1      30.786  24.894  24.954  1.00  0.00     0.084 C 
ATOM     13  C   UNL A   1      33.182  25.550  25.128  1.00  0.00     0.028 C 
BRANCH   8  14
ATOM     14  C   UNL A   1      32.152  22.392  22.569  1.00  0.00     0.299 C 
BRANCH  14  15
ATOM     15  C   UNL A   1      32.972  21.519  23.503  1.00  0.00     0.017 A 
ATOM     16  C   UNL A   1      32.540  18.219  25.318  1.00  0.00     0.067 C 
ATOM     17  C   UNL A   1      33.056  19.563  24.904  1.00  0.00     0.038 A 
ATOM     18  C   UNL A   1      32.401  20.316  23.943  1.00  0.00     0.033 A 
ATOM     19  N   UNL A   1      34.183  19.990  25.513  1.00  0.00    -0.253 NA
ATOM     20  C   UNL A   1      34.762  21.120  25.078  1.00  0.00     0.071 A 
ATOM     21  C   UNL A   1      34.252  21.880  24.004  1.00  0.00     0.009 A 
ATOM     22  C   UNL A   1      35.915  21.555  25.720  1.00  0.00     0.029 A 
ATOM     23  C   UNL A   1      35.046  22.944  23.509  1.00  0.00     0.011 A 
ATOM     24  C   UNL A   1      36.626  22.677  25.290  1.00  0.00     0.002 A 
ATOM     25  C   UNL A   1      36.210  23.352  24.155  1.00  0.00     0.001 A 
ENDBRANCH  14  15
ENDBRANCH   8  14
ENDBRANCH   4   7
ENDBRANCH   2   3
ENDBRANCH   1   2
BRANCH   1  26
ATOM     26  C   UNL A   1      32.773  30.033  26.388  1.00  0.00     0.118 C 
BRANCH  26  27
ATOM     27  N   UNL A   1      32.615  31.442  26.733  1.00  0.00    -0.352 N 
ATOM     28  C   UNL A   1      33.397  32.267  27.510  1.00  0.00     0.251 C 
ATOM     29  H   UNL A   1      31.820  31.873  26.344  1.00  0.00     0.163 HD
ATOM     30  O   UNL A   1      32.977  33.376  27.812  1.00  0.00    -0.269 OA
BRANCH  28  31
ATOM     31  C   UNL A   1      34.715  31.807  28.003  1.00  0.00     0.039 A 
ATOM     32  C   UNL A   1      35.793  32.698  27.996  1.00  0.00     0.014 A 
ATOM     33  C   UNL A   1      34.895  30.503  28.468  1.00  0.00     0.014 A 
ATOM     34  C   UNL A   1      37.020  32.311  28.545  1.00  0.00     0.010 A 
ATOM     35  C   UNL A   1      36.087  30.149  29.092  1.00  0.00     0.010 A 
ATOM     36  C   UNL A   1      37.161  31.052  29.146  1.00  0.00    -0.014 A 
BRANCH  36  37
ATOM     37  C   UNL A   1      38.406  30.643  29.850  1.00  0.00     0.031 A 
ATOM     38  C   UNL A   1      39.315  29.619  29.227  1.00  0.00     0.074 A 
ATOM     39  C   UNL A   1      38.655  31.101  31.093  1.00  0.00     0.049 A 
ATOM     40  N   UNL A   1      40.332  28.983  29.749  1.00  0.00    -0.248 NA
ATOM     41  C   UNL A   1      39.007  29.228  27.844  1.00  0.00     0.031 C 
ATOM     42  C   UNL A   1      37.831  32.070  31.820  1.00  0.00     0.029 A 
ATOM     43  N   UNL A   1      39.657  30.789  31.979  1.00  0.00    -0.354 N 
ATOM     44  C   UNL A   1      40.765  28.093  28.771  1.00  0.00     0.074 A 
ATOM     45  C   UNL A   1      39.864  28.240  27.646  1.00  0.00     0.031 C 
ATOM     46  C   UNL A   1      38.364  32.278  33.035  1.00  0.00     0.029 A 
ATOM     47  C   UNL A   1      39.532  31.418  33.198  1.00  0.00     0.049 A 
ATOM     48  H   UNL A   1      40.395  30.175  31.764  1.00  0.00     0.167 HD
ATOM     49  C   UNL A   1      41.823  27.246  28.805  1.00  0.00     0.034 A 
ATOM     50  C   UNL A   1      40.257  31.296  34.328  1.00  0.00     0.034 A 
ATOM     51  C   UNL A   1      42.723  27.132  29.927  1.00  0.00     0.049 A 
ATOM     52  C   UNL A   1      41.424  30.344  34.348  1.00  0.00     0.074 A 
ATOM     53  C   UNL A   1      43.864  26.356  30.043  1.00  0.00     0.029 A 
ATOM     54  N   UNL A   1      42.583  27.813  31.131  1.00  0.00    -0.354 N 
ATOM     55  N   UNL A   1      41.844  29.535  33.402  1.00  0.00    -0.248 NA
ATOM     56  C   UNL A   1      42.220  30.294  35.580  1.00  0.00     0.031 C 
ATOM     57  C   UNL A   1      44.374  26.518  31.336  1.00  0.00     0.029 A 
ATOM     58  C   UNL A   1      43.600  27.453  32.002  1.00  0.00     0.049 A 
ATOM     59  H   UNL A   1      41.866  28.456  31.335  1.00  0.00     0.167 HD
ATOM     60  C   UNL A   1      42.976  28.906  33.916  1.00  0.00     0.074 A 
ATOM     61  C   UNL A   1      43.172  29.432  35.252  1.00  0.00     0.031 C 
ATOM     62  C   UNL A   1      43.782  27.984  33.333  1.00  0.00     0.034 A 
BRANCH  49  63
ATOM     63  C   UNL A   1      42.039  26.355  27.603  1.00  0.00     0.023 A 
ATOM     64  C   UNL A   1      41.573  25.029  27.572  1.00  0.00     0.031 A 
ATOM     65  C   UNL A   1      42.752  26.826  26.486  1.00  0.00     0.131 A 
ATOM     66  C   UNL A   1      41.901  24.196  26.491  1.00  0.00     0.055 A 
ATOM     67  C   UNL A   1      42.998  26.018  25.374  1.00  0.00     0.041 A 
ATOM     68  F   UNL A   1      43.238  28.077  26.463  1.00  0.00    -0.206 F 
ATOM     69  C   UNL A   1      42.588  24.688  25.380  1.00  0.00     0.022 A 
BRANCH  66  70
ATOM     70  S   UNL A   1      41.556  22.420  26.635  1.00  0.00     0.124 S 
ATOM     71  O   UNL A   1      42.107  21.911  25.381  1.00  0.00    -0.237 OA
ATOM     72  O   UNL A   1      42.282  22.056  27.846  1.00  0.00    -0.237 OA
ATOM     73  O   UNL A   1      40.100  22.361  26.737  1.00  0.00    -0.744 OA
ENDBRANCH  66  70
ENDBRANCH  49  63
BRANCH  50  74
ATOM     74  C   UNL A   1      39.890  32.078  35.543  1.00  0.00     0.023 A 
ATOM     75  C   UNL A   1      38.958  31.580  36.468  1.00  0.00     0.031 A 
ATOM     76  C   UNL A   1      40.448  33.345  35.786  1.00  0.00     0.131 A 
ATOM     77  C   UNL A   1      38.581  32.362  37.570  1.00  0.00     0.055 A 
ATOM     78  C   UNL A   1      40.107  34.099  36.910  1.00  0.00     0.041 A 
ATOM     79  F   UNL A   1      41.351  33.863  34.938  1.00  0.00    -0.206 F 
ATOM     80  C   UNL A   1      39.158  33.613  37.805  1.00  0.00     0.022 A 
BRANCH  77  81
ATOM     81  S   UNL A   1      37.268  31.749  38.661  1.00  0.00     0.124 S 
ATOM     82  O   UNL A   1      37.904  31.839  39.971  1.00  0.00    -0.237 OA
ATOM     83  O   UNL A   1      36.192  32.700  38.403  1.00  0.00    -0.237 OA
ATOM     84  O   UNL A   1      37.028  30.393  38.175  1.00  0.00    -0.744 OA
ENDBRANCH  77  81
ENDBRANCH  50  74
BRANCH  62  85
ATOM     85  C   UNL A   1      44.991  27.534  34.115  1.00  0.00     0.023 A 
ATOM     86  C   UNL A   1      44.963  26.398  34.941  1.00  0.00     0.031 A 
ATOM     87  C   UNL A   1      46.195  28.257  34.019  1.00  0.00     0.131 A 
ATOM     88  C   UNL A   1      46.107  26.041  35.673  1.00  0.00     0.055 A 
ATOM     89  C   UNL A   1      47.343  27.866  34.708  1.00  0.00     0.041 A 
ATOM     90  F   UNL A   1      46.274  29.352  33.246  1.00  0.00    -0.206 F 
ATOM     91  C   UNL A   1      47.301  26.758  35.549  1.00  0.00     0.022 A 
BRANCH  88  92
ATOM     92  S   UNL A   1      45.995  24.663  36.849  1.00  0.00     0.124 S 
ATOM     93  O   UNL A   1      46.008  23.505  35.961  1.00  0.00    -0.237 OA
ATOM     94  O   UNL A   1      47.189  24.853  37.667  1.00  0.00    -0.237 OA
ATOM     95  O   UNL A   1      44.729  24.902  37.538  1.00  0.00    -0.744 OA
ENDBRANCH  88  92
ENDBRANCH  62  85
ENDBRANCH  36  37
ENDBRANCH  28  31
ENDBRANCH  26  27
ENDBRANCH   1  26
TORSDOF 15
ENDMDL
MODEL 3
REMARK VINA RESULT:     -12.8      5.634     10.869
REMARK SMILES Cc1cc(C[N@H+]2CC[C@](C)(C(=O)NCCCNC(=O)c3ccc(-c4c5nc(c(-c6cc(S(=O)(=O)[O-])ccc6F)c6ccc([nH]6)c(-c6cc(S(=O)(=O)[O-])ccc6F)c6nc(c(-c7cc(S(=O)(=O)[O-])ccc7F)c7ccc4[nH]7)C=C6)C=C5)cc3)C2)c2ccccc2n1
REMARK SMILES IDX 15 1 14 2 13 3 11 4 12 5 9 7 6 8 7 9 83 10 8 12 10 13 5 14
REMARK SMILES IDX 4 15 1 16 2 17 3 18 90 19 89 20 84 21 88 22 85 23 87 24
REMARK SMILES IDX 86 25 16 26 17 27 18 28 19 30 20 31 21 32 82 33 22 34 81 35
REMARK SMILES IDX 23 36 24 37 25 38 75 39 26 40 80 41 74 42 76 43 27 44 79 45
REMARK SMILES IDX 73 46 72 47 28 49 60 50 40 51 59 52 41 53 44 54 58 55 77 56
REMARK SMILES IDX 42 57 43 58 57 60 78 61 45 62 29 63 30 64 38 65 31 66 37 67
REMARK SMILES IDX 39 68 36 69 32 70 33 71 34 72 35 73 61 74 62 75 70 76 63 77
REMARK SMILES IDX 69 78 71 79 68 80 64 81 65 82 66 83 67 84 46 85 47 86 55 87
REMARK SMILES IDX 48 88 54 89 56 90 53 91 49 92 50 93 51 94 52 95
REMARK H PARENT 13 6 6 11 17 29 76 48 44 59
REMARK Flexibility Score: inf
ROOT
ATOM      1  C   UNL A   1      31.906  31.169  26.514  1.00  0.00     0.042 C 
ENDROOT
BRANCH   1   2
ATOM      2  C   UNL A   1      32.305  29.813  25.948  1.00  0.00     0.117 C 
BRANCH   2   3
ATOM      3  N   UNL A   1      31.736  28.684  26.673  1.00  0.00    -0.355 N 
ATOM      4  C   UNL A   1      31.563  27.371  26.324  1.00  0.00     0.231 C 
ATOM      5  O   UNL A   1      31.156  26.604  27.201  1.00  0.00    -0.274 OA
ATOM      6  H   UNL A   1      31.420  28.905  27.579  1.00  0.00     0.163 HD
BRANCH   4   7
ATOM      7  C   UNL A   1      31.885  26.876  24.912  1.00  0.00     0.100 C 
ATOM      8  N   UNL A   1      33.114  25.016  23.975  1.00  0.00    -0.330 N 
ATOM      9  C   UNL A   1      33.623  26.237  23.372  1.00  0.00     0.263 C 
ATOM     10  C   UNL A   1      32.071  25.356  24.935  1.00  0.00     0.279 C 
ATOM     11  H   UNL A   1      33.898  24.606  24.483  1.00  0.00     0.348 HD
ATOM     12  C   UNL A   1      33.276  27.308  24.409  1.00  0.00     0.084 C 
ATOM     13  C   UNL A   1      30.838  27.402  23.909  1.00  0.00     0.028 C 
BRANCH   8  14
ATOM     14  C   UNL A   1      32.904  23.835  23.138  1.00  0.00     0.299 C 
BRANCH  14  15
ATOM     15  C   UNL A   1      33.535  22.542  23.627  1.00  0.00     0.017 A 
ATOM     16  C   UNL A   1      32.417  18.980  24.285  1.00  0.00     0.067 C 
ATOM     17  C   UNL A   1      33.216  20.248  24.280  1.00  0.00     0.038 A 
ATOM     18  C   UNL A   1      32.716  21.406  23.707  1.00  0.00     0.033 A 
ATOM     19  N   UNL A   1      34.435  20.194  24.859  1.00  0.00    -0.253 NA
ATOM     20  C   UNL A   1      35.244  21.261  24.757  1.00  0.00     0.071 A 
ATOM     21  C   UNL A   1      34.882  22.435  24.063  1.00  0.00     0.009 A 
ATOM     22  C   UNL A   1      36.491  21.197  25.366  1.00  0.00     0.029 A 
ATOM     23  C   UNL A   1      35.882  23.418  23.859  1.00  0.00     0.011 A 
ATOM     24  C   UNL A   1      37.426  22.227  25.251  1.00  0.00     0.002 A 
ATOM     25  C   UNL A   1      37.134  23.326  24.462  1.00  0.00     0.001 A 
ENDBRANCH  14  15
ENDBRANCH   8  14
ENDBRANCH   4   7
ENDBRANCH   2   3
ENDBRANCH   1   2
BRANCH   1  26
ATOM     26  C   UNL A   1      33.019  31.884  27.268  1.00  0.00     0.118 C 
BRANCH  26  27
ATOM     27  N   UNL A   1      32.707  33.283  27.540  1.00  0.00    -0.352 N 
ATOM     28  C   UNL A   1      33.230  34.153  28.471  1.00  0.00     0.251 C 
ATOM     29  H   UNL A   1      32.009  33.668  26.962  1.00  0.00     0.163 HD
ATOM     30  O   UNL A   1      32.690  35.238  28.643  1.00  0.00    -0.269 OA
BRANCH  28  31
ATOM     31  C   UNL A   1      34.410  33.769  29.278  1.00  0.00     0.039 A 
ATOM     32  C   UNL A   1      34.240  32.905  30.365  1.00  0.00     0.014 A 
ATOM     33  C   UNL A   1      35.682  34.257  28.972  1.00  0.00     0.014 A 
ATOM     34  C   UNL A   1      35.356  32.457  31.080  1.00  0.00     0.010 A 
ATOM     35  C   UNL A   1      36.796  33.744  29.627  1.00  0.00     0.010 A 
ATOM     36  C   UNL A   1      36.648  32.831  30.683  1.00  0.00    -0.014 A 
BRANCH  36  37
ATOM     37  C   UNL A   1      37.868  32.284  31.334  1.00  0.00     0.031 A 
ATOM     38  C   UNL A   1      38.624  31.159  30.682  1.00  0.00     0.074 A 
ATOM     39  C   UNL A   1      38.224  32.717  32.560  1.00  0.00     0.049 A 
ATOM     40  N   UNL A   1      39.583  30.413  31.165  1.00  0.00    -0.248 NA
ATOM     41  C   UNL A   1      38.211  30.800  29.318  1.00  0.00     0.031 C 
ATOM     42  C   UNL A   1      37.552  33.778  33.313  1.00  0.00     0.029 A 
ATOM     43  N   UNL A   1      39.223  32.296  33.404  1.00  0.00    -0.354 N 
ATOM     44  C   UNL A   1      39.866  29.474  30.178  1.00  0.00     0.074 A 
ATOM     45  C   UNL A   1      38.939  29.718  29.092  1.00  0.00     0.031 C 
ATOM     46  C   UNL A   1      38.159  33.929  34.501  1.00  0.00     0.029 A 
ATOM     47  C   UNL A   1      39.227  32.941  34.621  1.00  0.00     0.049 A 
ATOM     48  H   UNL A   1      39.875  31.600  33.162  1.00  0.00     0.167 HD
ATOM     49  C   UNL A   1      40.821  28.510  30.173  1.00  0.00     0.034 A 
ATOM     50  C   UNL A   1      39.983  32.742  35.718  1.00  0.00     0.034 A 
ATOM     51  C   UNL A   1      41.751  28.299  31.255  1.00  0.00     0.049 A 
ATOM     52  C   UNL A   1      41.033  31.661  35.696  1.00  0.00     0.074 A 
ATOM     53  C   UNL A   1      42.799  27.397  31.328  1.00  0.00     0.029 A 
ATOM     54  N   UNL A   1      41.745  28.997  32.457  1.00  0.00    -0.354 N 
ATOM     55  N   UNL A   1      41.314  30.805  34.741  1.00  0.00    -0.248 NA
ATOM     56  C   UNL A   1      41.873  31.526  36.892  1.00  0.00     0.031 C 
ATOM     57  C   UNL A   1      43.383  27.505  32.595  1.00  0.00     0.029 A 
ATOM     58  C   UNL A   1      42.753  28.527  33.286  1.00  0.00     0.049 A 
ATOM     59  H   UNL A   1      41.118  29.720  32.686  1.00  0.00     0.167 HD
ATOM     60  C   UNL A   1      42.387  30.052  35.211  1.00  0.00     0.074 A 
ATOM     61  C   UNL A   1      42.704  30.559  36.530  1.00  0.00     0.031 C 
ATOM     62  C   UNL A   1      43.055  29.040  34.602  1.00  0.00     0.034 A 
BRANCH  49  63
ATOM     63  C   UNL A   1      40.877  27.595  28.971  1.00  0.00     0.023 A 
ATOM     64  C   UNL A   1      41.842  27.759  27.962  1.00  0.00     0.031 A 
ATOM     65  C   UNL A   1      39.931  26.567  28.813  1.00  0.00     0.131 A 
ATOM     66  C   UNL A   1      41.785  26.970  26.802  1.00  0.00     0.055 A 
ATOM     67  C   UNL A   1      39.934  25.727  27.698  1.00  0.00     0.041 A 
ATOM     68  F   UNL A   1      38.973  26.372  29.733  1.00  0.00    -0.206 F 
ATOM     69  C   UNL A   1      40.854  25.938  26.675  1.00  0.00     0.022 A 
BRANCH  66  70
ATOM     70  S   UNL A   1      42.841  27.422  25.398  1.00  0.00     0.124 S 
ATOM     71  O   UNL A   1      42.877  26.172  24.643  1.00  0.00    -0.237 OA
ATOM     72  O   UNL A   1      42.099  28.518  24.787  1.00  0.00    -0.237 OA
ATOM     73  O   UNL A   1      44.105  27.797  26.027  1.00  0.00    -0.744 OA
ENDBRANCH  66  70
ENDBRANCH  49  63
BRANCH  50  74
ATOM     74  C   UNL A   1      39.764  33.567  36.940  1.00  0.00     0.023 A 
ATOM     75  C   UNL A   1      39.065  33.052  38.044  1.00  0.00     0.031 A 
ATOM     76  C   UNL A   1      40.231  34.892  37.015  1.00  0.00     0.131 A 
ATOM     77  C   UNL A   1      38.816  33.869  39.157  1.00  0.00     0.055 A 
ATOM     78  C   UNL A   1      40.023  35.685  38.144  1.00  0.00     0.041 A 
ATOM     79  F   UNL A   1      40.913  35.429  35.991  1.00  0.00    -0.206 F 
ATOM     80  C   UNL A   1      39.301  35.178  39.221  1.00  0.00     0.022 A 
BRANCH  77  81
ATOM     81  S   UNL A   1      37.785  33.217  40.499  1.00  0.00     0.124 S 
ATOM     82  O   UNL A   1      36.529  32.950  39.806  1.00  0.00    -0.237 OA
ATOM     83  O   UNL A   1      38.545  32.047  40.924  1.00  0.00    -0.237 OA
ATOM     84  O   UNL A   1      37.746  34.315  41.462  1.00  0.00    -0.744 OA
ENDBRANCH  77  81
ENDBRANCH  50  74
BRANCH  62  85
ATOM     85  C   UNL A   1      44.239  28.458  35.334  1.00  0.00     0.023 A 
ATOM     86  C   UNL A   1      44.092  27.452  36.304  1.00  0.00     0.031 A 
ATOM     87  C   UNL A   1      45.537  28.915  35.042  1.00  0.00     0.131 A 
ATOM     88  C   UNL A   1      45.223  26.967  36.980  1.00  0.00     0.055 A 
ATOM     89  C   UNL A   1      46.661  28.392  35.679  1.00  0.00     0.041 A 
ATOM     90  F   UNL A   1      45.731  29.876  34.124  1.00  0.00    -0.206 F 
ATOM     91  C   UNL A   1      46.507  27.418  36.662  1.00  0.00     0.022 A 
BRANCH  88  92
ATOM     92  S   UNL A   1      44.989  25.784  38.336  1.00  0.00     0.124 S 
ATOM     93  O   UNL A   1      44.126  26.530  39.245  1.00  0.00    -0.237 OA
ATOM     94  O   UNL A   1      44.372  24.649  37.657  1.00  0.00    -0.237 OA
ATOM     95  O   UNL A   1      46.347  25.548  38.824  1.00  0.00    -0.744 OA
ENDBRANCH  88  92
ENDBRANCH  62  85
ENDBRANCH  36  37
ENDBRANCH  28  31
ENDBRANCH  26  27
ENDBRANCH   1  26
TORSDOF 15
ENDMDL
