MODEL 1
REMARK VINA RESULT:     -12.5      0.000      0.000
REMARK SMILES COc1ccc(OC)c(NC(=O)[C@@H]2[C@@H](C(=O)NCCCNC(=O)c3ccc(-c4c5nc(c(-c6cc(S(=O)(=O)[O-])ccc6F)c6ccc([nH]6)c(-c6cc(S(=O)(=O)[O-])ccc6F)c6nc(c(-c7cc(S(=O)(=O)[O-])ccc7F)c7ccc4[nH]7)C=C6)C=C5)cc3)[C@H]3C=C[C@@H]2C3)c1
REMARK SMILES IDX 19 1 18 2 17 3 15 4 16 5 14 7 13 8 90 9 87 10 89 11 91 12
REMARK SMILES IDX 88 13 11 14 10 15 12 17 9 18 3 19 4 20 92 21 5 22 6 23 2 24
REMARK SMILES IDX 1 25 7 26 8 27 20 28 21 29 22 30 23 32 24 33 25 34 86 35
REMARK SMILES IDX 26 36 85 37 27 38 28 39 29 40 79 41 30 42 84 43 78 44 80 45
REMARK SMILES IDX 31 46 83 47 77 48 76 49 32 51 64 52 44 53 63 54 45 55 48 56
REMARK SMILES IDX 62 57 81 58 46 59 47 60 61 62 82 63 49 64 33 65 34 66 42 67
REMARK SMILES IDX 35 68 41 69 43 70 40 71 36 72 37 73 38 74 39 75 65 76 66 77
REMARK SMILES IDX 74 78 67 79 73 80 75 81 72 82 68 83 69 84 70 85 71 86 50 87
REMARK SMILES IDX 51 88 59 89 52 90 58 91 60 92 57 93 53 94 54 95 55 96 56 97
REMARK H PARENT 17 6 10 16 21 31 80 50 48 61
REMARK Flexibility Score: inf
ROOT
ATOM      1  C   UNL A   1      31.501  32.192  26.531  1.00  0.00     0.042 C 
ENDROOT
BRANCH   1   2
ATOM      2  C   UNL A   1      31.454  30.666  26.521  1.00  0.00     0.117 C 
BRANCH   2   3
ATOM      3  N   UNL A   1      31.940  30.116  25.277  1.00  0.00    -0.356 N 
ATOM      4  C   UNL A   1      31.319  29.715  24.149  1.00  0.00     0.224 C 
ATOM      5  O   UNL A   1      32.079  29.377  23.230  1.00  0.00    -0.275 OA
ATOM      6  H   UNL A   1      32.919  30.015  25.246  1.00  0.00     0.163 HD
BRANCH   4   7
ATOM      7  C   UNL A   1      29.819  29.699  23.889  1.00  0.00     0.098 C 
ATOM      8  C   UNL A   1      29.319  28.670  22.819  1.00  0.00     0.099 C 
ATOM      9  C   UNL A   1      28.066  29.417  22.275  1.00  0.00     0.025 C 
ATOM     10  C   UNL A   1      28.995  30.981  23.584  1.00  0.00     0.025 C 
ATOM     11  C   UNL A   1      28.547  30.512  21.362  1.00  0.00    -0.027 C 
ATOM     12  C   UNL A   1      27.620  30.312  23.447  1.00  0.00     0.017 C 
ATOM     13  C   UNL A   1      29.068  31.460  22.150  1.00  0.00    -0.027 C 
BRANCH   8  14
ATOM     14  C   UNL A   1      28.874  27.345  23.427  1.00  0.00     0.229 C 
ATOM     15  N   UNL A   1      29.730  26.325  23.728  1.00  0.00    -0.323 N 
ATOM     16  H   UNL A   1      29.288  25.596  24.220  1.00  0.00     0.170 HD
ATOM     17  O   UNL A   1      27.683  27.135  23.688  1.00  0.00    -0.274 OA
BRANCH  15  18
ATOM     18  C   UNL A   1      31.097  26.068  23.500  1.00  0.00     0.087 A 
ATOM     19  C   UNL A   1      32.868  25.839  21.860  1.00  0.00     0.121 A 
ATOM     20  C   UNL A   1      33.779  25.450  22.836  1.00  0.00     0.050 A 
ATOM     21  C   UNL A   1      31.523  26.065  22.167  1.00  0.00     0.076 A 
ATOM     22  C   UNL A   1      33.388  25.513  24.164  1.00  0.00     0.052 A 
ATOM     23  C   UNL A   1      32.091  25.941  24.476  1.00  0.00     0.142 A 
BRANCH  19  24
ATOM     24  O   UNL A   1      33.325  26.074  20.591  1.00  0.00    -0.497 OA
ATOM     25  C   UNL A   1      32.493  25.352  19.670  1.00  0.00     0.278 C 
ENDBRANCH  19  24
BRANCH  23  26
ATOM     26  O   UNL A   1      31.955  26.493  25.725  1.00  0.00    -0.495 OA
ATOM     27  C   UNL A   1      33.261  26.894  26.182  1.00  0.00     0.278 C 
ENDBRANCH  23  26
ENDBRANCH  15  18
ENDBRANCH   8  14
ENDBRANCH   4   7
ENDBRANCH   2   3
ENDBRANCH   1   2
BRANCH   1  28
ATOM     28  C   UNL A   1      32.814  32.761  27.053  1.00  0.00     0.118 C 
BRANCH  28  29
ATOM     29  N   UNL A   1      32.630  34.085  27.637  1.00  0.00    -0.352 N 
ATOM     30  C   UNL A   1      33.230  34.660  28.732  1.00  0.00     0.251 C 
ATOM     31  H   UNL A   1      31.973  34.656  27.175  1.00  0.00     0.163 HD
ATOM     32  O   UNL A   1      32.770  35.702  29.187  1.00  0.00    -0.269 OA
BRANCH  30  33
ATOM     33  C   UNL A   1      34.403  34.019  29.371  1.00  0.00     0.039 A 
ATOM     34  C   UNL A   1      35.688  34.425  28.993  1.00  0.00     0.014 A 
ATOM     35  C   UNL A   1      34.245  33.008  30.321  1.00  0.00     0.014 A 
ATOM     36  C   UNL A   1      36.806  33.863  29.615  1.00  0.00     0.010 A 
ATOM     37  C   UNL A   1      35.354  32.513  31.000  1.00  0.00     0.010 A 
ATOM     38  C   UNL A   1      36.648  32.929  30.650  1.00  0.00    -0.014 A 
BRANCH  38  39
ATOM     39  C   UNL A   1      37.815  32.351  31.368  1.00  0.00     0.031 A 
ATOM     40  C   UNL A   1      38.612  31.243  30.731  1.00  0.00     0.074 A 
ATOM     41  C   UNL A   1      38.103  32.762  32.620  1.00  0.00     0.049 A 
ATOM     42  N   UNL A   1      39.575  30.515  31.235  1.00  0.00    -0.248 NA
ATOM     43  C   UNL A   1      38.242  30.879  29.354  1.00  0.00     0.031 C 
ATOM     44  C   UNL A   1      37.373  33.794  33.360  1.00  0.00     0.029 A 
ATOM     45  N   UNL A   1      39.074  32.352  33.497  1.00  0.00    -0.354 N 
ATOM     46  C   UNL A   1      39.903  29.587  30.251  1.00  0.00     0.074 A 
ATOM     47  C   UNL A   1      38.993  29.808  29.148  1.00  0.00     0.031 C 
ATOM     48  C   UNL A   1      37.938  33.952  34.568  1.00  0.00     0.029 A 
ATOM     49  C   UNL A   1      39.037  33.003  34.708  1.00  0.00     0.049 A 
ATOM     50  H   UNL A   1      39.737  31.657  33.281  1.00  0.00     0.167 HD
ATOM     51  C   UNL A   1      40.888  28.655  30.259  1.00  0.00     0.034 A 
ATOM     52  C   UNL A   1      39.796  32.846  35.811  1.00  0.00     0.034 A 
ATOM     53  C   UNL A   1      41.806  28.474  31.357  1.00  0.00     0.049 A 
ATOM     54  C   UNL A   1      40.896  31.815  35.793  1.00  0.00     0.074 A 
ATOM     55  C   UNL A   1      42.879  27.605  31.453  1.00  0.00     0.029 A 
ATOM     56  N   UNL A   1      41.760  29.180  32.553  1.00  0.00    -0.354 N 
ATOM     57  N   UNL A   1      41.222  30.974  34.838  1.00  0.00    -0.248 NA
ATOM     58  C   UNL A   1      41.738  31.722  36.991  1.00  0.00     0.031 C 
ATOM     59  C   UNL A   1      43.447  27.747  32.723  1.00  0.00     0.029 A 
ATOM     60  C   UNL A   1      42.773  28.753  33.397  1.00  0.00     0.049 A 
ATOM     61  H   UNL A   1      41.103  29.881  32.769  1.00  0.00     0.167 HD
ATOM     62  C   UNL A   1      42.328  30.275  35.311  1.00  0.00     0.074 A 
ATOM     63  C   UNL A   1      42.619  30.801  36.630  1.00  0.00     0.031 C 
ATOM     64  C   UNL A   1      43.045  29.291  34.709  1.00  0.00     0.034 A 
BRANCH  51  65
ATOM     65  C   UNL A   1      41.000  27.754  29.050  1.00  0.00     0.023 A 
ATOM     66  C   UNL A   1      42.021  27.920  28.098  1.00  0.00     0.031 A 
ATOM     67  C   UNL A   1      40.052  26.741  28.824  1.00  0.00     0.131 A 
ATOM     68  C   UNL A   1      42.019  27.153  26.924  1.00  0.00     0.055 A 
ATOM     69  C   UNL A   1      40.106  25.919  27.695  1.00  0.00     0.041 A 
ATOM     70  F   UNL A   1      39.042  26.543  29.686  1.00  0.00    -0.206 F 
ATOM     71  C   UNL A   1      41.083  26.135  26.727  1.00  0.00     0.022 A 
BRANCH  68  72
ATOM     72  S   UNL A   1      43.159  27.609  25.590  1.00  0.00     0.124 S 
ATOM     73  O   UNL A   1      42.236  28.101  24.570  1.00  0.00    -0.237 OA
ATOM     74  O   UNL A   1      44.003  28.614  26.226  1.00  0.00    -0.237 OA
ATOM     75  O   UNL A   1      43.827  26.351  25.263  1.00  0.00    -0.744 OA
ENDBRANCH  68  72
ENDBRANCH  51  65
BRANCH  52  76
ATOM     76  C   UNL A   1      39.550  33.678  37.023  1.00  0.00     0.023 A 
ATOM     77  C   UNL A   1      38.873  33.153  38.135  1.00  0.00     0.031 A 
ATOM     78  C   UNL A   1      39.962  35.022  37.077  1.00  0.00     0.131 A 
ATOM     79  C   UNL A   1      38.588  33.976  39.235  1.00  0.00     0.055 A 
ATOM     80  C   UNL A   1      39.720  35.824  38.194  1.00  0.00     0.041 A 
ATOM     81  F   UNL A   1      40.622  35.572  36.045  1.00  0.00    -0.206 F 
ATOM     82  C   UNL A   1      39.015  35.305  39.277  1.00  0.00     0.022 A 
BRANCH  79  83
ATOM     83  S   UNL A   1      37.576  33.305  40.583  1.00  0.00     0.124 S 
ATOM     84  O   UNL A   1      37.388  34.480  41.427  1.00  0.00    -0.237 OA
ATOM     85  O   UNL A   1      36.395  32.833  39.868  1.00  0.00    -0.237 OA
ATOM     86  O   UNL A   1      38.419  32.256  41.151  1.00  0.00    -0.744 OA
ENDBRANCH  79  83
ENDBRANCH  52  76
BRANCH  64  87
ATOM     87  C   UNL A   1      44.245  28.766  35.455  1.00  0.00     0.023 A 
ATOM     88  C   UNL A   1      44.142  27.710  36.376  1.00  0.00     0.031 A 
ATOM     89  C   UNL A   1      45.511  29.339  35.239  1.00  0.00     0.131 A 
ATOM     90  C   UNL A   1      45.278  27.291  37.085  1.00  0.00     0.055 A 
ATOM     91  C   UNL A   1      46.647  28.881  35.906  1.00  0.00     0.041 A 
ATOM     92  F   UNL A   1      45.663  30.351  34.370  1.00  0.00    -0.206 F 
ATOM     93  C   UNL A   1      46.532  27.859  36.844  1.00  0.00     0.022 A 
BRANCH  90  94
ATOM     94  S   UNL A   1      45.082  26.043  38.386  1.00  0.00     0.124 S 
ATOM     95  O   UNL A   1      46.468  25.722  38.710  1.00  0.00    -0.237 OA
ATOM     96  O   UNL A   1      44.340  26.772  39.410  1.00  0.00    -0.237 OA
ATOM     97  O   UNL A   1      44.336  24.973  37.727  1.00  0.00    -0.744 OA
ENDBRANCH  90  94
ENDBRANCH  64  87
ENDBRANCH  38  39
ENDBRANCH  30  33
ENDBRANCH  28  29
ENDBRANCH   1  28
TORSDOF 17
ENDMDL
MODEL 2
REMARK VINA RESULT:     -12.1      2.286      4.174
REMARK SMILES COc1ccc(OC)c(NC(=O)[C@@H]2[C@@H](C(=O)NCCCNC(=O)c3ccc(-c4c5nc(c(-c6cc(S(=O)(=O)[O-])ccc6F)c6ccc([nH]6)c(-c6cc(S(=O)(=O)[O-])ccc6F)c6nc(c(-c7cc(S(=O)(=O)[O-])ccc7F)c7ccc4[nH]7)C=C6)C=C5)cc3)[C@H]3C=C[C@@H]2C3)c1
REMARK SMILES IDX 19 1 18 2 17 3 15 4 16 5 14 7 13 8 90 9 87 10 89 11 91 12
REMARK SMILES IDX 88 13 11 14 10 15 12 17 9 18 3 19 4 20 92 21 5 22 6 23 2 24
REMARK SMILES IDX 1 25 7 26 8 27 20 28 21 29 22 30 23 32 24 33 25 34 86 35
REMARK SMILES IDX 26 36 85 37 27 38 28 39 29 40 79 41 30 42 84 43 78 44 80 45
REMARK SMILES IDX 31 46 83 47 77 48 76 49 32 51 64 52 44 53 63 54 45 55 48 56
REMARK SMILES IDX 62 57 81 58 46 59 47 60 61 62 82 63 49 64 33 65 34 66 42 67
REMARK SMILES IDX 35 68 41 69 43 70 40 71 36 72 37 73 38 74 39 75 65 76 66 77
REMARK SMILES IDX 74 78 67 79 73 80 75 81 72 82 68 83 69 84 70 85 71 86 50 87
REMARK SMILES IDX 51 88 59 89 52 90 58 91 60 92 57 93 53 94 54 95 55 96 56 97
REMARK H PARENT 17 6 10 16 21 31 80 50 48 61
REMARK Flexibility Score: inf
ROOT
ATOM      1  C   UNL A   1      33.364  29.224  24.476  1.00  0.00     0.042 C 
ENDROOT
BRANCH   1   2
ATOM      2  C   UNL A   1      33.964  27.835  24.272  1.00  0.00     0.117 C 
BRANCH   2   3
ATOM      3  N   UNL A   1      33.494  26.891  25.259  1.00  0.00    -0.356 N 
ATOM      4  C   UNL A   1      33.740  25.582  25.464  1.00  0.00     0.224 C 
ATOM      5  O   UNL A   1      33.223  25.109  26.486  1.00  0.00    -0.275 OA
ATOM      6  H   UNL A   1      32.870  27.282  25.913  1.00  0.00     0.163 HD
BRANCH   4   7
ATOM      7  C   UNL A   1      34.619  24.674  24.613  1.00  0.00     0.098 C 
ATOM      8  C   UNL A   1      33.889  23.490  23.893  1.00  0.00     0.099 C 
ATOM      9  C   UNL A   1      35.040  22.443  23.836  1.00  0.00     0.025 C 
ATOM     10  C   UNL A   1      35.937  24.036  25.133  1.00  0.00     0.025 C 
ATOM     11  C   UNL A   1      35.185  21.848  25.211  1.00  0.00    -0.027 C 
ATOM     12  C   UNL A   1      36.325  23.293  23.848  1.00  0.00     0.017 C 
ATOM     13  C   UNL A   1      35.755  22.790  25.973  1.00  0.00    -0.027 C 
BRANCH   8  14
ATOM     14  C   UNL A   1      33.464  23.828  22.469  1.00  0.00     0.229 C 
ATOM     15  N   UNL A   1      32.449  24.691  22.166  1.00  0.00    -0.323 N 
ATOM     16  H   UNL A   1      32.391  24.880  21.202  1.00  0.00     0.170 HD
ATOM     17  O   UNL A   1      34.043  23.326  21.497  1.00  0.00    -0.274 OA
BRANCH  15  18
ATOM     18  C   UNL A   1      31.464  25.374  22.908  1.00  0.00     0.087 A 
ATOM     19  C   UNL A   1      30.106  27.372  23.110  1.00  0.00     0.121 A 
ATOM     20  C   UNL A   1      29.593  26.950  24.333  1.00  0.00     0.050 A 
ATOM     21  C   UNL A   1      31.090  26.639  22.441  1.00  0.00     0.076 A 
ATOM     22  C   UNL A   1      29.904  25.673  24.772  1.00  0.00     0.052 A 
ATOM     23  C   UNL A   1      30.736  24.863  23.988  1.00  0.00     0.142 A 
BRANCH  19  24
ATOM     24  O   UNL A   1      29.572  28.488  22.524  1.00  0.00    -0.497 OA
ATOM     25  C   UNL A   1      29.711  29.588  23.437  1.00  0.00     0.278 C 
ENDBRANCH  19  24
BRANCH  23  26
ATOM     26  O   UNL A   1      30.558  23.515  24.169  1.00  0.00    -0.495 OA
ATOM     27  C   UNL A   1      30.648  23.237  25.579  1.00  0.00     0.278 C 
ENDBRANCH  23  26
ENDBRANCH  15  18
ENDBRANCH   8  14
ENDBRANCH   4   7
ENDBRANCH   2   3
ENDBRANCH   1   2
BRANCH   1  28
ATOM     28  C   UNL A   1      32.557  29.361  25.762  1.00  0.00     0.118 C 
BRANCH  28  29
ATOM     29  N   UNL A   1      32.231  30.754  26.045  1.00  0.00    -0.352 N 
ATOM     30  C   UNL A   1      32.794  31.630  26.943  1.00  0.00     0.251 C 
ATOM     31  H   UNL A   1      31.492  31.125  25.509  1.00  0.00     0.163 HD
ATOM     32  O   UNL A   1      32.225  32.689  27.181  1.00  0.00    -0.269 OA
BRANCH  30  33
ATOM     33  C   UNL A   1      34.060  31.289  27.633  1.00  0.00     0.039 A 
ATOM     34  C   UNL A   1      34.956  32.315  27.953  1.00  0.00     0.014 A 
ATOM     35  C   UNL A   1      34.378  29.966  27.947  1.00  0.00     0.014 A 
ATOM     36  C   UNL A   1      36.136  32.020  28.642  1.00  0.00     0.010 A 
ATOM     37  C   UNL A   1      35.507  29.685  28.709  1.00  0.00     0.010 A 
ATOM     38  C   UNL A   1      36.404  30.706  29.060  1.00  0.00    -0.014 A 
BRANCH  38  39
ATOM     39  C   UNL A   1      37.622  30.367  29.840  1.00  0.00     0.031 A 
ATOM     40  C   UNL A   1      38.665  29.459  29.242  1.00  0.00     0.074 A 
ATOM     41  C   UNL A   1      37.748  30.802  31.110  1.00  0.00     0.049 A 
ATOM     42  N   UNL A   1      39.728  28.935  29.797  1.00  0.00    -0.248 NA
ATOM     43  C   UNL A   1      38.456  29.055  27.843  1.00  0.00     0.031 C 
ATOM     44  C   UNL A   1      36.780  31.648  31.814  1.00  0.00     0.029 A 
ATOM     45  N   UNL A   1      38.733  30.584  32.040  1.00  0.00    -0.354 N 
ATOM     46  C   UNL A   1      40.296  28.115  28.827  1.00  0.00     0.074 A 
ATOM     47  C   UNL A   1      39.423  28.166  27.673  1.00  0.00     0.031 C 
ATOM     48  C   UNL A   1      37.231  31.895  33.055  1.00  0.00     0.029 A 
ATOM     49  C   UNL A   1      38.493  31.189  33.252  1.00  0.00     0.049 A 
ATOM     50  H   UNL A   1      39.536  30.044  31.858  1.00  0.00     0.167 HD
ATOM     51  C   UNL A   1      41.449  27.405  28.885  1.00  0.00     0.034 A 
ATOM     52  C   UNL A   1      39.205  31.169  34.397  1.00  0.00     0.034 A 
ATOM     53  C   UNL A   1      42.322  27.395  30.034  1.00  0.00     0.049 A 
ATOM     54  C   UNL A   1      40.494  30.387  34.435  1.00  0.00     0.074 A 
ATOM     55  C   UNL A   1      43.544  26.763  30.186  1.00  0.00     0.029 A 
ATOM     56  N   UNL A   1      42.064  28.051  31.231  1.00  0.00    -0.354 N 
ATOM     57  N   UNL A   1      41.039  29.650  33.495  1.00  0.00    -0.248 NA
ATOM     58  C   UNL A   1      41.268  30.445  35.680  1.00  0.00     0.031 C 
ATOM     59  C   UNL A   1      43.998  26.993  31.489  1.00  0.00     0.029 A 
ATOM     60  C   UNL A   1      43.094  27.825  32.130  1.00  0.00     0.049 A 
ATOM     61  H   UNL A   1      41.265  28.598  31.413  1.00  0.00     0.167 HD
ATOM     62  C   UNL A   1      42.238  29.184  34.026  1.00  0.00     0.074 A 
ATOM     63  C   UNL A   1      42.339  29.733  35.364  1.00  0.00     0.031 C 
ATOM     64  C   UNL A   1      43.175  28.382  33.460  1.00  0.00     0.034 A 
BRANCH  51  65
ATOM     65  C   UNL A   1      41.814  26.570  27.678  1.00  0.00     0.023 A 
ATOM     66  C   UNL A   1      41.431  25.222  27.570  1.00  0.00     0.031 A 
ATOM     67  C   UNL A   1      42.588  27.117  26.640  1.00  0.00     0.131 A 
ATOM     68  C   UNL A   1      41.898  24.443  26.501  1.00  0.00     0.055 A 
ATOM     69  C   UNL A   1      42.976  26.359  25.532  1.00  0.00     0.041 A 
ATOM     70  F   UNL A   1      43.002  28.393  26.692  1.00  0.00    -0.206 F 
ATOM     71  C   UNL A   1      42.646  25.008  25.467  1.00  0.00     0.022 A 
BRANCH  68  72
ATOM     72  S   UNL A   1      41.643  22.648  26.564  1.00  0.00     0.124 S 
ATOM     73  O   UNL A   1      40.185  22.561  26.615  1.00  0.00    -0.237 OA
ATOM     74  O   UNL A   1      42.268  22.197  25.327  1.00  0.00    -0.237 OA
ATOM     75  O   UNL A   1      42.327  22.247  27.791  1.00  0.00    -0.744 OA
ENDBRANCH  68  72
ENDBRANCH  51  65
BRANCH  52  76
ATOM     76  C   UNL A   1      38.725  31.908  35.598  1.00  0.00     0.023 A 
ATOM     77  C   UNL A   1      38.165  31.226  36.690  1.00  0.00     0.031 A 
ATOM     78  C   UNL A   1      38.792  33.312  35.662  1.00  0.00     0.131 A 
ATOM     79  C   UNL A   1      37.652  31.948  37.779  1.00  0.00     0.055 A 
ATOM     80  C   UNL A   1      38.325  34.023  36.769  1.00  0.00     0.041 A 
ATOM     81  F   UNL A   1      39.327  34.013  34.650  1.00  0.00    -0.206 F 
ATOM     82  C   UNL A   1      37.738  33.341  37.831  1.00  0.00     0.022 A 
BRANCH  79  83
ATOM     83  S   UNL A   1      36.796  31.040  39.096  1.00  0.00     0.124 S 
ATOM     84  O   UNL A   1      35.567  31.812  39.239  1.00  0.00    -0.237 OA
ATOM     85  O   UNL A   1      36.656  29.713  38.507  1.00  0.00    -0.237 OA
ATOM     86  O   UNL A   1      37.721  31.126  40.224  1.00  0.00    -0.744 OA
ENDBRANCH  79  83
ENDBRANCH  52  76
BRANCH  64  87
ATOM     87  C   UNL A   1      44.414  28.099  34.271  1.00  0.00     0.023 A 
ATOM     88  C   UNL A   1      44.516  26.971  35.102  1.00  0.00     0.031 A 
ATOM     89  C   UNL A   1      45.507  28.981  34.211  1.00  0.00     0.131 A 
ATOM     90  C   UNL A   1      45.668  26.779  35.879  1.00  0.00     0.055 A 
ATOM     91  C   UNL A   1      46.673  28.756  34.943  1.00  0.00     0.041 A 
ATOM     92  F   UNL A   1      45.461  30.075  33.433  1.00  0.00    -0.206 F 
ATOM     93  C   UNL A   1      46.753  27.656  35.792  1.00  0.00     0.022 A 
BRANCH  90  94
ATOM     94  S   UNL A   1      45.701  25.408  37.065  1.00  0.00     0.124 S 
ATOM     95  O   UNL A   1      44.781  24.455  36.453  1.00  0.00    -0.237 OA
ATOM     96  O   UNL A   1      47.109  25.027  37.063  1.00  0.00    -0.237 OA
ATOM     97  O   UNL A   1      45.227  26.017  38.307  1.00  0.00    -0.744 OA
ENDBRANCH  90  94
ENDBRANCH  64  87
ENDBRANCH  38  39
ENDBRANCH  30  33
ENDBRANCH  28  29
ENDBRANCH   1  28
TORSDOF 17
ENDMDL
MODEL 3
REMARK VINA RESULT:     -12.0      2.023      2.880
REMARK SMILES COc1ccc(OC)c(NC(=O)[C@@H]2[C@@H](C(=O)NCCCNC(=O)c3ccc(-c4c5nc(c(-c6cc(S(=O)(=O)[O-])ccc6F)c6ccc([nH]6)c(-c6cc(S(=O)(=O)[O-])ccc6F)c6nc(c(-c7cc(S(=O)(=O)[O-])ccc7F)c7ccc4[nH]7)C=C6)C=C5)cc3)[C@H]3C=C[C@@H]2C3)c1
REMARK SMILES IDX 19 1 18 2 17 3 15 4 16 5 14 7 13 8 90 9 87 10 89 11 91 12
REMARK SMILES IDX 88 13 11 14 10 15 12 17 9 18 3 19 4 20 92 21 5 22 6 23 2 24
REMARK SMILES IDX 1 25 7 26 8 27 20 28 21 29 22 30 23 32 24 33 25 34 86 35
REMARK SMILES IDX 26 36 85 37 27 38 28 39 29 40 79 41 30 42 84 43 78 44 80 45
REMARK SMILES IDX 31 46 83 47 77 48 76 49 32 51 64 52 44 53 63 54 45 55 48 56
REMARK SMILES IDX 62 57 81 58 46 59 47 60 61 62 82 63 49 64 33 65 34 66 42 67
REMARK SMILES IDX 35 68 41 69 43 70 40 71 36 72 37 73 38 74 39 75 65 76 66 77
REMARK SMILES IDX 74 78 67 79 73 80 75 81 72 82 68 83 69 84 70 85 71 86 50 87
REMARK SMILES IDX 51 88 59 89 52 90 58 91 60 92 57 93 53 94 54 95 55 96 56 97
REMARK H PARENT 17 6 10 16 21 31 80 50 48 61
REMARK Flexibility Score: inf
ROOT
ATOM      1  C   UNL A   1      31.353  31.960  26.890  1.00  0.00     0.042 C 
ENDROOT
BRANCH   1   2
ATOM      2  C   UNL A   1      31.313  30.955  25.742  1.00  0.00     0.117 C 
BRANCH   2   3
ATOM      3  N   UNL A   1      32.525  30.171  25.666  1.00  0.00    -0.356 N 
ATOM      4  C   UNL A   1      32.762  28.881  25.358  1.00  0.00     0.224 C 
ATOM      5  O   UNL A   1      33.961  28.572  25.303  1.00  0.00    -0.275 OA
ATOM      6  H   UNL A   1      33.338  30.682  25.882  1.00  0.00     0.163 HD
BRANCH   4   7
ATOM      7  C   UNL A   1      31.725  27.817  25.022  1.00  0.00     0.098 C 
ATOM      8  C   UNL A   1      32.286  26.389  24.702  1.00  0.00     0.099 C 
ATOM      9  C   UNL A   1      31.195  25.873  23.717  1.00  0.00     0.025 C 
ATOM     10  C   UNL A   1      30.608  28.023  23.961  1.00  0.00     0.025 C 
ATOM     11  C   UNL A   1      31.429  26.537  22.387  1.00  0.00    -0.027 C 
ATOM     12  C   UNL A   1      29.928  26.656  24.112  1.00  0.00     0.017 C 
ATOM     13  C   UNL A   1      31.043  27.812  22.527  1.00  0.00    -0.027 C 
BRANCH   8  14
ATOM     14  C   UNL A   1      32.317  25.474  25.920  1.00  0.00     0.229 C 
ATOM     15  N   UNL A   1      33.263  24.508  26.116  1.00  0.00    -0.323 N 
ATOM     16  H   UNL A   1      33.199  24.094  27.007  1.00  0.00     0.170 HD
ATOM     17  O   UNL A   1      31.467  25.575  26.813  1.00  0.00    -0.274 OA
BRANCH  15  18
ATOM     18  C   UNL A   1      34.308  23.962  25.344  1.00  0.00     0.087 A 
ATOM     19  C   UNL A   1      36.679  23.477  25.203  1.00  0.00     0.121 A 
ATOM     20  C   UNL A   1      36.552  23.029  23.892  1.00  0.00     0.050 A 
ATOM     21  C   UNL A   1      35.592  24.014  25.898  1.00  0.00     0.076 A 
ATOM     22  C   UNL A   1      35.280  22.910  23.357  1.00  0.00     0.052 A 
ATOM     23  C   UNL A   1      34.173  23.263  24.140  1.00  0.00     0.142 A 
BRANCH  19  24
ATOM     24  O   UNL A   1      37.880  23.310  25.841  1.00  0.00    -0.497 OA
ATOM     25  C   UNL A   1      38.337  21.971  25.600  1.00  0.00     0.278 C 
ENDBRANCH  19  24
BRANCH  23  26
ATOM     26  O   UNL A   1      33.004  22.630  23.796  1.00  0.00    -0.495 OA
ATOM     27  C   UNL A   1      33.150  21.229  24.092  1.00  0.00     0.278 C 
ENDBRANCH  23  26
ENDBRANCH  15  18
ENDBRANCH   8  14
ENDBRANCH   4   7
ENDBRANCH   2   3
ENDBRANCH   1   2
BRANCH   1  28
ATOM     28  C   UNL A   1      32.745  32.509  27.177  1.00  0.00     0.118 C 
BRANCH  28  29
ATOM     29  N   UNL A   1      32.693  33.896  27.623  1.00  0.00    -0.352 N 
ATOM     30  C   UNL A   1      33.400  34.534  28.616  1.00  0.00     0.251 C 
ATOM     31  H   UNL A   1      32.051  34.466  27.139  1.00  0.00     0.163 HD
ATOM     32  O   UNL A   1      33.045  35.650  28.979  1.00  0.00    -0.269 OA
BRANCH  30  33
ATOM     33  C   UNL A   1      34.562  33.873  29.255  1.00  0.00     0.039 A 
ATOM     34  C   UNL A   1      35.853  34.303  28.927  1.00  0.00     0.014 A 
ATOM     35  C   UNL A   1      34.388  32.822  30.157  1.00  0.00     0.014 A 
ATOM     36  C   UNL A   1      36.960  33.721  29.551  1.00  0.00     0.010 A 
ATOM     37  C   UNL A   1      35.484  32.305  30.841  1.00  0.00     0.010 A 
ATOM     38  C   UNL A   1      36.783  32.743  30.542  1.00  0.00    -0.014 A 
BRANCH  38  39
ATOM     39  C   UNL A   1      37.936  32.142  31.263  1.00  0.00     0.031 A 
ATOM     40  C   UNL A   1      38.712  31.018  30.628  1.00  0.00     0.074 A 
ATOM     41  C   UNL A   1      38.229  32.547  32.515  1.00  0.00     0.049 A 
ATOM     42  N   UNL A   1      39.659  30.271  31.135  1.00  0.00    -0.248 NA
ATOM     43  C   UNL A   1      38.338  30.661  29.250  1.00  0.00     0.031 C 
ATOM     44  C   UNL A   1      37.517  33.594  33.253  1.00  0.00     0.029 A 
ATOM     45  N   UNL A   1      39.189  32.118  33.395  1.00  0.00    -0.354 N 
ATOM     46  C   UNL A   1      39.971  29.337  30.152  1.00  0.00     0.074 A 
ATOM     47  C   UNL A   1      39.069  29.576  29.046  1.00  0.00     0.031 C 
ATOM     48  C   UNL A   1      38.082  33.742  34.462  1.00  0.00     0.029 A 
ATOM     49  C   UNL A   1      39.162  32.771  34.606  1.00  0.00     0.049 A 
ATOM     50  H   UNL A   1      39.839  31.410  33.180  1.00  0.00     0.167 HD
ATOM     51  C   UNL A   1      40.937  28.385  30.163  1.00  0.00     0.034 A 
ATOM     52  C   UNL A   1      39.914  32.599  35.711  1.00  0.00     0.034 A 
ATOM     53  C   UNL A   1      41.848  28.186  31.263  1.00  0.00     0.049 A 
ATOM     54  C   UNL A   1      40.994  31.546  35.696  1.00  0.00     0.074 A 
ATOM     55  C   UNL A   1      42.903  27.295  31.362  1.00  0.00     0.029 A 
ATOM     56  N   UNL A   1      41.813  28.893  32.459  1.00  0.00    -0.354 N 
ATOM     57  N   UNL A   1      41.305  30.698  34.742  1.00  0.00    -0.248 NA
ATOM     58  C   UNL A   1      41.830  31.436  36.896  1.00  0.00     0.031 C 
ATOM     59  C   UNL A   1      43.470  27.426  32.634  1.00  0.00     0.029 A 
ATOM     60  C   UNL A   1      42.815  28.446  33.306  1.00  0.00     0.049 A 
ATOM     61  H   UNL A   1      41.170  29.607  32.673  1.00  0.00     0.167 HD
ATOM     62  C   UNL A   1      42.396  29.977  35.218  1.00  0.00     0.074 A 
ATOM     63  C   UNL A   1      42.694  30.498  36.537  1.00  0.00     0.031 C 
ATOM     64  C   UNL A   1      43.094  28.979  34.618  1.00  0.00     0.034 A 
BRANCH  51  65
ATOM     65  C   UNL A   1      41.035  27.481  28.955  1.00  0.00     0.023 A 
ATOM     66  C   UNL A   1      42.050  27.638  27.995  1.00  0.00     0.031 A 
ATOM     67  C   UNL A   1      40.077  26.475  28.736  1.00  0.00     0.131 A 
ATOM     68  C   UNL A   1      42.034  26.869  26.823  1.00  0.00     0.055 A 
ATOM     69  C   UNL A   1      40.117  25.651  27.608  1.00  0.00     0.041 A 
ATOM     70  F   UNL A   1      39.071  26.286  29.605  1.00  0.00    -0.206 F 
ATOM     71  C   UNL A   1      41.089  25.859  26.633  1.00  0.00     0.022 A 
BRANCH  68  72
ATOM     72  S   UNL A   1      43.170  27.315  25.481  1.00  0.00     0.124 S 
ATOM     73  O   UNL A   1      44.200  28.058  26.204  1.00  0.00    -0.237 OA
ATOM     74  O   UNL A   1      43.568  26.014  24.958  1.00  0.00    -0.237 OA
ATOM     75  O   UNL A   1      42.343  28.121  24.585  1.00  0.00    -0.744 OA
ENDBRANCH  68  72
ENDBRANCH  51  65
BRANCH  52  76
ATOM     76  C   UNL A   1      39.682  33.436  36.922  1.00  0.00     0.023 A 
ATOM     77  C   UNL A   1      40.468  34.572  37.175  1.00  0.00     0.031 A 
ATOM     78  C   UNL A   1      38.692  33.097  37.861  1.00  0.00     0.131 A 
ATOM     79  C   UNL A   1      40.281  35.303  38.359  1.00  0.00     0.055 A 
ATOM     80  C   UNL A   1      38.476  33.856  39.013  1.00  0.00     0.041 A 
ATOM     81  F   UNL A   1      37.906  32.026  37.663  1.00  0.00    -0.206 F 
ATOM     82  C   UNL A   1      39.284  34.959  39.274  1.00  0.00     0.022 A 
BRANCH  79  83
ATOM     83  S   UNL A   1      41.417  36.669  38.724  1.00  0.00     0.124 S 
ATOM     84  O   UNL A   1      40.499  37.704  39.184  1.00  0.00    -0.237 OA
ATOM     85  O   UNL A   1      42.281  36.080  39.741  1.00  0.00    -0.237 OA
ATOM     86  O   UNL A   1      42.059  36.930  37.438  1.00  0.00    -0.744 OA
ENDBRANCH  79  83
ENDBRANCH  52  76
BRANCH  64  87
ATOM     87  C   UNL A   1      44.282  28.430  35.367  1.00  0.00     0.023 A 
ATOM     88  C   UNL A   1      44.143  27.444  36.358  1.00  0.00     0.031 A 
ATOM     89  C   UNL A   1      45.573  28.909  35.083  1.00  0.00     0.131 A 
ATOM     90  C   UNL A   1      45.271  27.002  37.066  1.00  0.00     0.055 A 
ATOM     91  C   UNL A   1      46.698  28.426  35.751  1.00  0.00     0.041 A 
ATOM     92  F   UNL A   1      45.761  29.852  34.146  1.00  0.00    -0.206 F 
ATOM     93  C   UNL A   1      46.550  27.476  36.756  1.00  0.00     0.022 A 
BRANCH  90  94
ATOM     94  S   UNL A   1      45.038  25.855  38.450  1.00  0.00     0.124 S 
ATOM     95  O   UNL A   1      43.958  26.494  39.195  1.00  0.00    -0.237 OA
ATOM     96  O   UNL A   1      44.694  24.610  37.771  1.00  0.00    -0.237 OA
ATOM     97  O   UNL A   1      46.337  25.856  39.120  1.00  0.00    -0.744 OA
ENDBRANCH  90  94
ENDBRANCH  64  87
ENDBRANCH  38  39
ENDBRANCH  30  33
ENDBRANCH  28  29
ENDBRANCH   1  28
TORSDOF 17
ENDMDL
