MODEL 1
REMARK VINA RESULT:     -13.2      0.000      0.000
REMARK SMILES COc1ccc(-c2cc(Cl)cc3c2O[C@@H](C(F)(F)F)C(C(=O)NCCCNC(=O)c2ccc(-c4c5nc(c(-c6cc(S(=O)(=O)[O-])ccc6F)c6ccc([nH]6)c(-c6cc(S(=O)(=O)[O-])ccc6F)c6nc(c(-c7cc(S(=O)(=O)[O-])ccc7F)c7ccc4[nH]7)C=C6)C=C5)cc2)=C3)cc1C
REMARK SMILES IDX 25 1 24 2 23 3 21 4 22 5 20 7 7 8 8 9 13 10 9 11 12 12 14 13
REMARK SMILES IDX 10 14 11 15 93 16 15 17 6 18 3 19 4 20 95 21 5 22 94 23
REMARK SMILES IDX 96 24 2 25 1 26 16 27 17 28 18 29 19 30 26 31 27 32 28 33
REMARK SMILES IDX 29 35 30 36 31 37 92 38 32 39 91 40 33 41 34 42 35 43 85 44
REMARK SMILES IDX 36 45 90 46 84 47 86 48 37 49 89 50 83 51 82 52 38 54 70 55
REMARK SMILES IDX 50 56 69 57 51 58 54 59 68 60 87 61 52 62 53 63 67 65 88 66
REMARK SMILES IDX 55 67 39 68 40 69 48 70 41 71 47 72 49 73 46 74 42 75 43 76
REMARK SMILES IDX 44 77 45 78 71 79 72 80 80 81 73 82 79 83 81 84 78 85 74 86
REMARK SMILES IDX 75 87 76 88 77 89 56 90 57 91 65 92 58 93 64 94 66 95 63 96
REMARK SMILES IDX 59 97 60 98 61 99 62 100
REMARK H PARENT 23 6 27 34 86 53 54 64
REMARK Flexibility Score: inf
ROOT
ATOM      1  C   UNL A   1      34.005  29.147  25.442  1.00  0.00     0.042 C 
ENDROOT
BRANCH   1   2
ATOM      2  C   UNL A   1      33.096  28.087  24.826  1.00  0.00     0.118 C 
BRANCH   2   3
ATOM      3  N   UNL A   1      33.807  26.966  24.236  1.00  0.00    -0.352 N 
ATOM      4  C   UNL A   1      33.416  25.873  23.522  1.00  0.00     0.251 C 
ATOM      5  O   UNL A   1      34.262  25.308  22.823  1.00  0.00    -0.270 OA
ATOM      6  H   UNL A   1      34.781  27.003  24.382  1.00  0.00     0.163 HD
BRANCH   4   7
ATOM      7  C   UNL A   1      31.994  25.292  23.582  1.00  0.00     0.067 C 
ATOM      8  C   UNL A   1      33.799  21.991  25.082  1.00  0.00     0.026 A 
ATOM      9  C   UNL A   1      33.426  20.707  24.640  1.00  0.00     0.033 A 
ATOM     10  C   UNL A   1      32.977  23.034  24.662  1.00  0.00     0.135 A 
ATOM     11  C   UNL A   1      32.533  20.558  23.574  1.00  0.00     0.042 A 
ATOM     12  C   UNL A   1      32.306  22.939  23.413  1.00  0.00     0.019 A 
ATOM     13  O   UNL A   1      32.678  24.098  25.539  1.00  0.00    -0.475 OA
ATOM     14  Cl  UNL A   1      32.153  18.978  23.005  1.00  0.00    -0.084 Cl
ATOM     15  C   UNL A   1      32.050  21.676  22.891  1.00  0.00     0.032 A 
ATOM     16  C   UNL A   1      31.874  24.220  22.749  1.00  0.00     0.025 C 
ATOM     17  C   UNL A   1      31.560  24.842  24.969  1.00  0.00     0.314 C 
BRANCH   8  18
ATOM     18  C   UNL A   1      35.273  22.197  25.156  1.00  0.00    -0.014 A 
ATOM     19  C   UNL A   1      38.058  22.180  25.677  1.00  0.00     0.121 A 
ATOM     20  C   UNL A   1      37.280  23.331  25.889  1.00  0.00     0.047 A 
ATOM     21  C   UNL A   1      37.462  21.022  25.175  1.00  0.00    -0.008 A 
ATOM     22  C   UNL A   1      35.896  23.344  25.636  1.00  0.00     0.013 A 
ATOM     23  C   UNL A   1      36.092  21.071  24.876  1.00  0.00     0.016 A 
ATOM     24  C   UNL A   1      38.184  19.718  24.994  1.00  0.00     0.048 C 
BRANCH  19  25
ATOM     25  O   UNL A   1      39.349  22.249  26.129  1.00  0.00    -0.496 OA
ATOM     26  C   UNL A   1      39.588  23.255  27.109  1.00  0.00     0.278 C 
ENDBRANCH  19  25
ENDBRANCH   8  18
BRANCH  17  27
ATOM     27  C   UNL A   1      30.682  25.775  25.812  1.00  0.00     0.429 C 
ATOM     28  F   UNL A   1      31.410  26.256  26.869  1.00  0.00    -0.167 F 
ATOM     29  F   UNL A   1      30.238  26.861  25.156  1.00  0.00    -0.167 F 
ATOM     30  F   UNL A   1      29.633  25.149  26.389  1.00  0.00    -0.167 F 
ENDBRANCH  17  27
ENDBRANCH   4   7
ENDBRANCH   2   3
ENDBRANCH   1   2
BRANCH   1  31
ATOM     31  C   UNL A   1      33.784  29.411  26.930  1.00  0.00     0.118 C 
BRANCH  31  32
ATOM     32  N   UNL A   1      34.271  30.726  27.367  1.00  0.00    -0.352 N 
ATOM     33  C   UNL A   1      35.491  31.061  27.944  1.00  0.00     0.251 C 
ATOM     34  H   UNL A   1      33.645  31.474  27.234  1.00  0.00     0.163 HD
ATOM     35  O   UNL A   1      35.792  32.192  28.239  1.00  0.00    -0.269 OA
BRANCH  33  36
ATOM     36  C   UNL A   1      36.479  29.969  28.091  1.00  0.00     0.039 A 
ATOM     37  C   UNL A   1      36.535  29.332  29.335  1.00  0.00     0.014 A 
ATOM     38  C   UNL A   1      37.509  29.856  27.164  1.00  0.00     0.014 A 
ATOM     39  C   UNL A   1      37.748  28.805  29.760  1.00  0.00     0.010 A 
ATOM     40  C   UNL A   1      38.733  29.406  27.618  1.00  0.00     0.010 A 
ATOM     41  C   UNL A   1      38.866  28.969  28.944  1.00  0.00    -0.014 A 
BRANCH  41  42
ATOM     42  C   UNL A   1      40.229  28.887  29.458  1.00  0.00     0.031 A 
ATOM     43  C   UNL A   1      41.064  27.708  29.171  1.00  0.00     0.074 A 
ATOM     44  C   UNL A   1      40.742  29.927  30.153  1.00  0.00     0.049 A 
ATOM     45  N   UNL A   1      42.118  27.382  29.839  1.00  0.00    -0.248 NA
ATOM     46  C   UNL A   1      40.708  26.728  28.149  1.00  0.00     0.031 C 
ATOM     47  C   UNL A   1      42.140  30.159  30.500  1.00  0.00     0.029 A 
ATOM     48  N   UNL A   1      40.034  30.855  30.920  1.00  0.00    -0.354 N 
ATOM     49  C   UNL A   1      42.744  26.366  29.156  1.00  0.00     0.074 A 
ATOM     50  C   UNL A   1      41.753  25.900  28.222  1.00  0.00     0.031 C 
ATOM     51  C   UNL A   1      42.192  30.950  31.582  1.00  0.00     0.029 A 
ATOM     52  C   UNL A   1      40.831  31.135  32.048  1.00  0.00     0.049 A 
ATOM     53  H   UNL A   1      39.150  31.238  30.713  1.00  0.00     0.167 HD
ATOM     54  C   UNL A   1      44.076  26.162  29.365  1.00  0.00     0.034 A 
ATOM     55  C   UNL A   1      40.388  30.872  33.312  1.00  0.00     0.034 A 
ATOM     56  C   UNL A   1      44.525  26.856  30.581  1.00  0.00     0.049 A 
ATOM     57  C   UNL A   1      41.255  29.891  34.064  1.00  0.00     0.074 A 
ATOM     58  C   UNL A   1      45.288  27.989  30.808  1.00  0.00     0.029 A 
ATOM     59  N   UNL A   1      43.943  26.528  31.806  1.00  0.00    -0.354 N 
ATOM     60  N   UNL A   1      42.159  29.136  33.501  1.00  0.00    -0.248 NA
ATOM     61  C   UNL A   1      41.164  29.670  35.504  1.00  0.00     0.031 C 
ATOM     62  C   UNL A   1      45.069  28.401  32.153  1.00  0.00     0.029 A 
ATOM     63  C   UNL A   1      44.218  27.491  32.759  1.00  0.00     0.049 A 
ATOM     64  H   UNL A   1      43.409  25.718  31.970  1.00  0.00     0.167 HD
ATOM     65  C   UNL A   1      42.735  28.324  34.442  1.00  0.00     0.074 A 
ATOM     66  C   UNL A   1      42.100  28.723  35.688  1.00  0.00     0.031 C 
ATOM     67  C   UNL A   1      43.669  27.381  34.110  1.00  0.00     0.034 A 
BRANCH  54  68
ATOM     68  C   UNL A   1      45.036  25.562  28.341  1.00  0.00     0.023 A 
ATOM     69  C   UNL A   1      45.592  26.407  27.351  1.00  0.00     0.031 A 
ATOM     70  C   UNL A   1      45.350  24.191  28.180  1.00  0.00     0.131 A 
ATOM     71  C   UNL A   1      46.346  25.892  26.273  1.00  0.00     0.055 A 
ATOM     72  C   UNL A   1      46.118  23.686  27.122  1.00  0.00     0.041 A 
ATOM     73  F   UNL A   1      44.919  23.240  29.009  1.00  0.00    -0.206 F 
ATOM     74  C   UNL A   1      46.612  24.534  26.154  1.00  0.00     0.022 A 
BRANCH  71  75
ATOM     75  S   UNL A   1      46.944  27.016  24.979  1.00  0.00     0.124 S 
ATOM     76  O   UNL A   1      45.738  27.769  24.647  1.00  0.00    -0.237 OA
ATOM     77  O   UNL A   1      48.000  27.749  25.666  1.00  0.00    -0.237 OA
ATOM     78  O   UNL A   1      47.409  26.108  23.930  1.00  0.00    -0.744 OA
ENDBRANCH  71  75
ENDBRANCH  54  68
BRANCH  55  79
ATOM     79  C   UNL A   1      38.916  31.042  33.463  1.00  0.00     0.023 A 
ATOM     80  C   UNL A   1      38.439  32.369  33.475  1.00  0.00     0.031 A 
ATOM     81  C   UNL A   1      38.007  30.020  33.166  1.00  0.00     0.131 A 
ATOM     82  C   UNL A   1      37.154  32.658  33.002  1.00  0.00     0.055 A 
ATOM     83  C   UNL A   1      36.692  30.310  32.779  1.00  0.00     0.041 A 
ATOM     84  F   UNL A   1      38.410  28.742  33.111  1.00  0.00    -0.206 F 
ATOM     85  C   UNL A   1      36.275  31.636  32.645  1.00  0.00     0.022 A 
BRANCH  82  86
ATOM     86  S   UNL A   1      36.781  34.377  32.554  1.00  0.00     0.124 S 
ATOM     87  O   UNL A   1      36.358  34.948  33.826  1.00  0.00    -0.237 OA
ATOM     88  O   UNL A   1      38.061  34.855  32.028  1.00  0.00    -0.237 OA
ATOM     89  O   UNL A   1      35.737  34.251  31.538  1.00  0.00    -0.744 OA
ENDBRANCH  82  86
ENDBRANCH  55  79
BRANCH  67  90
ATOM     90  C   UNL A   1      44.204  26.318  35.047  1.00  0.00     0.023 A 
ATOM     91  C   UNL A   1      45.284  26.526  35.920  1.00  0.00     0.031 A 
ATOM     92  C   UNL A   1      43.577  25.052  35.143  1.00  0.00     0.131 A 
ATOM     93  C   UNL A   1      45.760  25.495  36.753  1.00  0.00     0.055 A 
ATOM     94  C   UNL A   1      43.997  24.058  36.033  1.00  0.00     0.041 A 
ATOM     95  F   UNL A   1      42.524  24.728  34.379  1.00  0.00    -0.206 F 
ATOM     96  C   UNL A   1      45.109  24.268  36.831  1.00  0.00     0.022 A 
BRANCH  93  97
ATOM     97  S   UNL A   1      47.296  25.773  37.672  1.00  0.00     0.124 S 
ATOM     98  O   UNL A   1      48.039  24.547  37.395  1.00  0.00    -0.237 OA
ATOM     99  O   UNL A   1      47.820  26.984  37.050  1.00  0.00    -0.237 OA
ATOM    100  O   UNL A   1      46.849  25.928  39.055  1.00  0.00    -0.744 OA
ENDBRANCH  93  97
ENDBRANCH  67  90
ENDBRANCH  41  42
ENDBRANCH  33  36
ENDBRANCH  31  32
ENDBRANCH   1  31
TORSDOF 16
ENDMDL
MODEL 2
REMARK VINA RESULT:     -13.0      3.981      9.581
REMARK SMILES COc1ccc(-c2cc(Cl)cc3c2O[C@@H](C(F)(F)F)C(C(=O)NCCCNC(=O)c2ccc(-c4c5nc(c(-c6cc(S(=O)(=O)[O-])ccc6F)c6ccc([nH]6)c(-c6cc(S(=O)(=O)[O-])ccc6F)c6nc(c(-c7cc(S(=O)(=O)[O-])ccc7F)c7ccc4[nH]7)C=C6)C=C5)cc2)=C3)cc1C
REMARK SMILES IDX 25 1 24 2 23 3 21 4 22 5 20 7 7 8 8 9 13 10 9 11 12 12 14 13
REMARK SMILES IDX 10 14 11 15 93 16 15 17 6 18 3 19 4 20 95 21 5 22 94 23
REMARK SMILES IDX 96 24 2 25 1 26 16 27 17 28 18 29 19 30 26 31 27 32 28 33
REMARK SMILES IDX 29 35 30 36 31 37 92 38 32 39 91 40 33 41 34 42 35 43 85 44
REMARK SMILES IDX 36 45 90 46 84 47 86 48 37 49 89 50 83 51 82 52 38 54 70 55
REMARK SMILES IDX 50 56 69 57 51 58 54 59 68 60 87 61 52 62 53 63 67 65 88 66
REMARK SMILES IDX 55 67 39 68 40 69 48 70 41 71 47 72 49 73 46 74 42 75 43 76
REMARK SMILES IDX 44 77 45 78 71 79 72 80 80 81 73 82 79 83 81 84 78 85 74 86
REMARK SMILES IDX 75 87 76 88 77 89 56 90 57 91 65 92 58 93 64 94 66 95 63 96
REMARK SMILES IDX 59 97 60 98 61 99 62 100
REMARK H PARENT 23 6 27 34 86 53 54 64
REMARK Flexibility Score: inf
ROOT
ATOM      1  C   UNL A   1      36.050  22.910  26.431  1.00  0.00     0.042 C 
ENDROOT
BRANCH   1   2
ATOM      2  C   UNL A   1      34.703  22.917  25.714  1.00  0.00     0.118 C 
BRANCH   2   3
ATOM      3  N   UNL A   1      33.745  23.862  26.260  1.00  0.00    -0.352 N 
ATOM      4  C   UNL A   1      32.435  24.131  26.001  1.00  0.00     0.251 C 
ATOM      5  O   UNL A   1      31.780  24.705  26.877  1.00  0.00    -0.270 OA
ATOM      6  H   UNL A   1      34.122  24.431  26.971  1.00  0.00     0.163 HD
BRANCH   4   7
ATOM      7  C   UNL A   1      31.754  23.796  24.665  1.00  0.00     0.067 C 
ATOM      8  C   UNL A   1      31.464  27.812  24.223  1.00  0.00     0.026 A 
ATOM      9  C   UNL A   1      30.274  28.397  23.747  1.00  0.00     0.033 A 
ATOM     10  C   UNL A   1      31.528  26.423  24.136  1.00  0.00     0.135 A 
ATOM     11  C   UNL A   1      29.129  27.616  23.559  1.00  0.00     0.042 A 
ATOM     12  C   UNL A   1      30.335  25.658  24.237  1.00  0.00     0.019 A 
ATOM     13  O   UNL A   1      32.738  25.790  23.784  1.00  0.00    -0.475 OA
ATOM     14  Cl  UNL A   1      27.667  28.370  23.049  1.00  0.00    -0.084 Cl
ATOM     15  C   UNL A   1      29.128  26.262  23.902  1.00  0.00     0.032 A 
ATOM     16  C   UNL A   1      30.458  24.218  24.662  1.00  0.00     0.025 C 
ATOM     17  C   UNL A   1      32.433  24.404  23.447  1.00  0.00     0.314 C 
BRANCH   8  18
ATOM     18  C   UNL A   1      32.042  28.505  25.409  1.00  0.00    -0.014 A 
ATOM     19  C   UNL A   1      33.267  30.225  27.297  1.00  0.00     0.121 A 
ATOM     20  C   UNL A   1      33.754  28.928  27.065  1.00  0.00     0.047 A 
ATOM     21  C   UNL A   1      32.141  30.678  26.608  1.00  0.00    -0.008 A 
ATOM     22  C   UNL A   1      33.152  28.071  26.125  1.00  0.00     0.013 A 
ATOM     23  C   UNL A   1      31.522  29.790  25.717  1.00  0.00     0.016 A 
ATOM     24  C   UNL A   1      31.594  32.072  26.720  1.00  0.00     0.048 C 
BRANCH  19  25
ATOM     25  O   UNL A   1      34.047  31.013  28.102  1.00  0.00    -0.496 OA
ATOM     26  C   UNL A   1      35.408  31.124  27.694  1.00  0.00     0.278 C 
ENDBRANCH  19  25
ENDBRANCH   8  18
BRANCH  17  27
ATOM     27  C   UNL A   1      33.384  23.535  22.615  1.00  0.00     0.429 C 
ATOM     28  F   UNL A   1      34.678  23.928  22.839  1.00  0.00    -0.167 F 
ATOM     29  F   UNL A   1      33.346  22.226  22.918  1.00  0.00    -0.167 F 
ATOM     30  F   UNL A   1      33.219  23.683  21.282  1.00  0.00    -0.167 F 
ENDBRANCH  17  27
ENDBRANCH   4   7
ENDBRANCH   2   3
ENDBRANCH   1   2
BRANCH   1  31
ATOM     31  C   UNL A   1      37.262  23.200  25.548  1.00  0.00     0.118 C 
BRANCH  31  32
ATOM     32  N   UNL A   1      38.514  22.641  26.074  1.00  0.00    -0.352 N 
ATOM     33  C   UNL A   1      39.511  23.269  26.814  1.00  0.00     0.251 C 
ATOM     34  H   UNL A   1      38.669  21.690  25.873  1.00  0.00     0.163 HD
ATOM     35  O   UNL A   1      40.492  22.693  27.218  1.00  0.00    -0.269 OA
BRANCH  33  36
ATOM     36  C   UNL A   1      39.271  24.679  27.191  1.00  0.00     0.039 A 
ATOM     37  C   UNL A   1      39.976  25.652  26.475  1.00  0.00     0.014 A 
ATOM     38  C   UNL A   1      38.666  24.963  28.410  1.00  0.00     0.014 A 
ATOM     39  C   UNL A   1      40.309  26.839  27.113  1.00  0.00     0.010 A 
ATOM     40  C   UNL A   1      39.065  26.106  29.073  1.00  0.00     0.010 A 
ATOM     41  C   UNL A   1      39.959  26.993  28.455  1.00  0.00    -0.014 A 
BRANCH  41  42
ATOM     42  C   UNL A   1      40.630  27.943  29.335  1.00  0.00     0.031 A 
ATOM     43  C   UNL A   1      39.931  29.156  29.794  1.00  0.00     0.074 A 
ATOM     44  C   UNL A   1      41.881  27.676  29.773  1.00  0.00     0.049 A 
ATOM     45  N   UNL A   1      40.520  30.200  30.270  1.00  0.00    -0.248 NA
ATOM     46  C   UNL A   1      38.488  29.326  29.654  1.00  0.00     0.031 C 
ATOM     47  C   UNL A   1      42.602  28.336  30.856  1.00  0.00     0.029 A 
ATOM     48  N   UNL A   1      42.852  26.910  29.123  1.00  0.00    -0.354 N 
ATOM     49  C   UNL A   1      39.548  31.025  30.785  1.00  0.00     0.074 A 
ATOM     50  C   UNL A   1      38.319  30.516  30.235  1.00  0.00     0.031 C 
ATOM     51  C   UNL A   1      43.919  28.183  30.656  1.00  0.00     0.029 A 
ATOM     52  C   UNL A   1      44.089  27.541  29.366  1.00  0.00     0.049 A 
ATOM     53  H   UNL A   1      42.702  26.090  28.599  1.00  0.00     0.167 HD
ATOM     54  C   UNL A   1      39.901  31.933  31.740  1.00  0.00     0.034 A 
ATOM     55  C   UNL A   1      44.852  28.022  28.342  1.00  0.00     0.034 A 
ATOM     56  C   UNL A   1      41.360  32.105  31.781  1.00  0.00     0.049 A 
ATOM     57  C   UNL A   1      45.101  29.510  28.419  1.00  0.00     0.074 A 
ATOM     58  C   UNL A   1      42.345  31.707  32.668  1.00  0.00     0.029 A 
ATOM     59  N   UNL A   1      42.025  32.551  30.638  1.00  0.00    -0.354 N 
ATOM     60  N   UNL A   1      44.433  30.321  29.194  1.00  0.00    -0.248 NA
ATOM     61  C   UNL A   1      46.107  30.203  27.622  1.00  0.00     0.031 C 
ATOM     62  C   UNL A   1      43.600  31.813  32.006  1.00  0.00     0.029 A 
ATOM     63  C   UNL A   1      43.385  32.326  30.736  1.00  0.00     0.049 A 
ATOM     64  H   UNL A   1      41.584  32.970  29.865  1.00  0.00     0.167 HD
ATOM     65  C   UNL A   1      44.862  31.607  28.995  1.00  0.00     0.074 A 
ATOM     66  C   UNL A   1      45.937  31.474  28.026  1.00  0.00     0.031 C 
ATOM     67  C   UNL A   1      44.280  32.669  29.632  1.00  0.00     0.034 A 
BRANCH  54  68
ATOM     68  C   UNL A   1      38.963  32.471  32.818  1.00  0.00     0.023 A 
ATOM     69  C   UNL A   1      39.092  31.981  34.139  1.00  0.00     0.031 A 
ATOM     70  C   UNL A   1      37.861  33.338  32.623  1.00  0.00     0.131 A 
ATOM     71  C   UNL A   1      38.154  32.301  35.145  1.00  0.00     0.055 A 
ATOM     72  C   UNL A   1      36.945  33.673  33.629  1.00  0.00     0.041 A 
ATOM     73  F   UNL A   1      37.572  33.900  31.449  1.00  0.00    -0.206 F 
ATOM     74  C   UNL A   1      37.079  33.146  34.896  1.00  0.00     0.022 A 
BRANCH  71  75
ATOM     75  S   UNL A   1      38.316  31.557  36.793  1.00  0.00     0.124 S 
ATOM     76  O   UNL A   1      37.190  32.150  37.509  1.00  0.00    -0.237 OA
ATOM     77  O   UNL A   1      38.223  30.132  36.502  1.00  0.00    -0.237 OA
ATOM     78  O   UNL A   1      39.634  32.008  37.240  1.00  0.00    -0.744 OA
ENDBRANCH  71  75
ENDBRANCH  54  68
BRANCH  55  79
ATOM     79  C   UNL A   1      44.737  27.212  27.097  1.00  0.00     0.023 A 
ATOM     80  C   UNL A   1      45.319  25.928  27.132  1.00  0.00     0.031 A 
ATOM     81  C   UNL A   1      43.766  27.468  26.122  1.00  0.00     0.131 A 
ATOM     82  C   UNL A   1      44.787  24.894  26.351  1.00  0.00     0.055 A 
ATOM     83  C   UNL A   1      43.301  26.450  25.279  1.00  0.00     0.041 A 
ATOM     84  F   UNL A   1      43.158  28.662  26.059  1.00  0.00    -0.206 F 
ATOM     85  C   UNL A   1      43.774  25.144  25.427  1.00  0.00     0.022 A 
BRANCH  82  86
ATOM     86  S   UNL A   1      45.209  23.188  26.802  1.00  0.00     0.124 S 
ATOM     87  O   UNL A   1      44.808  23.126  28.201  1.00  0.00    -0.237 OA
ATOM     88  O   UNL A   1      44.403  22.401  25.866  1.00  0.00    -0.237 OA
ATOM     89  O   UNL A   1      46.647  23.109  26.552  1.00  0.00    -0.744 OA
ENDBRANCH  82  86
ENDBRANCH  55  79
BRANCH  67  90
ATOM     90  C   UNL A   1      44.556  34.126  29.323  1.00  0.00     0.023 A 
ATOM     91  C   UNL A   1      43.694  34.936  28.565  1.00  0.00     0.031 A 
ATOM     92  C   UNL A   1      45.690  34.780  29.862  1.00  0.00     0.131 A 
ATOM     93  C   UNL A   1      44.011  36.279  28.285  1.00  0.00     0.055 A 
ATOM     94  C   UNL A   1      45.958  36.137  29.655  1.00  0.00     0.041 A 
ATOM     95  F   UNL A   1      46.585  34.129  30.620  1.00  0.00    -0.206 F 
ATOM     96  C   UNL A   1      45.128  36.892  28.844  1.00  0.00     0.022 A 
BRANCH  93  97
ATOM     97  S   UNL A   1      42.968  37.180  27.109  1.00  0.00     0.124 S 
ATOM     98  O   UNL A   1      41.790  37.480  27.920  1.00  0.00    -0.237 OA
ATOM     99  O   UNL A   1      43.803  38.324  26.760  1.00  0.00    -0.237 OA
ATOM    100  O   UNL A   1      42.748  36.217  26.032  1.00  0.00    -0.744 OA
ENDBRANCH  93  97
ENDBRANCH  67  90
ENDBRANCH  41  42
ENDBRANCH  33  36
ENDBRANCH  31  32
ENDBRANCH   1  31
TORSDOF 16
ENDMDL
MODEL 3
REMARK VINA RESULT:     -12.7      3.114      4.204
REMARK SMILES COc1ccc(-c2cc(Cl)cc3c2O[C@@H](C(F)(F)F)C(C(=O)NCCCNC(=O)c2ccc(-c4c5nc(c(-c6cc(S(=O)(=O)[O-])ccc6F)c6ccc([nH]6)c(-c6cc(S(=O)(=O)[O-])ccc6F)c6nc(c(-c7cc(S(=O)(=O)[O-])ccc7F)c7ccc4[nH]7)C=C6)C=C5)cc2)=C3)cc1C
REMARK SMILES IDX 25 1 24 2 23 3 21 4 22 5 20 7 7 8 8 9 13 10 9 11 12 12 14 13
REMARK SMILES IDX 10 14 11 15 93 16 15 17 6 18 3 19 4 20 95 21 5 22 94 23
REMARK SMILES IDX 96 24 2 25 1 26 16 27 17 28 18 29 19 30 26 31 27 32 28 33
REMARK SMILES IDX 29 35 30 36 31 37 92 38 32 39 91 40 33 41 34 42 35 43 85 44
REMARK SMILES IDX 36 45 90 46 84 47 86 48 37 49 89 50 83 51 82 52 38 54 70 55
REMARK SMILES IDX 50 56 69 57 51 58 54 59 68 60 87 61 52 62 53 63 67 65 88 66
REMARK SMILES IDX 55 67 39 68 40 69 48 70 41 71 47 72 49 73 46 74 42 75 43 76
REMARK SMILES IDX 44 77 45 78 71 79 72 80 80 81 73 82 79 83 81 84 78 85 74 86
REMARK SMILES IDX 75 87 76 88 77 89 56 90 57 91 65 92 58 93 64 94 66 95 63 96
REMARK SMILES IDX 59 97 60 98 61 99 62 100
REMARK H PARENT 23 6 27 34 86 53 54 64
REMARK Flexibility Score: inf
ROOT
ATOM      1  C   UNL A   1      33.238  31.440  27.276  1.00  0.00     0.042 C 
ENDROOT
BRANCH   1   2
ATOM      2  C   UNL A   1      32.104  30.493  26.895  1.00  0.00     0.118 C 
BRANCH   2   3
ATOM      3  N   UNL A   1      32.545  29.168  26.495  1.00  0.00    -0.352 N 
ATOM      4  C   UNL A   1      32.920  28.618  25.307  1.00  0.00     0.251 C 
ATOM      5  O   UNL A   1      33.611  27.595  25.337  1.00  0.00    -0.270 OA
ATOM      6  H   UNL A   1      32.581  28.529  27.244  1.00  0.00     0.163 HD
BRANCH   4   7
ATOM      7  C   UNL A   1      32.488  29.182  23.944  1.00  0.00     0.067 C 
ATOM      8  C   UNL A   1      31.466  25.356  23.094  1.00  0.00     0.026 A 
ATOM      9  C   UNL A   1      31.781  24.791  21.843  1.00  0.00     0.033 A 
ATOM     10  C   UNL A   1      31.671  26.730  23.202  1.00  0.00     0.135 A 
ATOM     11  C   UNL A   1      32.579  25.491  20.931  1.00  0.00     0.042 A 
ATOM     12  C   UNL A   1      32.704  27.346  22.445  1.00  0.00     0.019 A 
ATOM     13  O   UNL A   1      30.760  27.528  23.925  1.00  0.00    -0.475 OA
ATOM     14  Cl  UNL A   1      33.011  24.746  19.441  1.00  0.00    -0.084 Cl
ATOM     15  C   UNL A   1      33.127  26.729  21.273  1.00  0.00     0.032 A 
ATOM     16  C   UNL A   1      33.249  28.660  22.940  1.00  0.00     0.025 C 
ATOM     17  C   UNL A   1      31.031  28.922  23.592  1.00  0.00     0.314 C 
BRANCH   8  18
ATOM     18  C   UNL A   1      31.777  24.469  24.250  1.00  0.00    -0.014 A 
ATOM     19  C   UNL A   1      32.103  23.170  26.746  1.00  0.00     0.121 A 
ATOM     20  C   UNL A   1      33.210  23.557  25.972  1.00  0.00     0.047 A 
ATOM     21  C   UNL A   1      30.810  23.403  26.275  1.00  0.00    -0.008 A 
ATOM     22  C   UNL A   1      33.054  24.205  24.733  1.00  0.00     0.013 A 
ATOM     23  C   UNL A   1      30.675  24.001  25.013  1.00  0.00     0.016 A 
ATOM     24  C   UNL A   1      29.565  23.108  27.061  1.00  0.00     0.048 C 
BRANCH  19  25
ATOM     25  O   UNL A   1      32.394  22.712  28.004  1.00  0.00    -0.496 OA
ATOM     26  C   UNL A   1      33.724  22.230  28.173  1.00  0.00     0.278 C 
ENDBRANCH  19  25
ENDBRANCH   8  18
BRANCH  17  27
ATOM     27  C   UNL A   1      30.001  30.035  23.824  1.00  0.00     0.429 C 
ATOM     28  F   UNL A   1      28.767  29.478  24.036  1.00  0.00    -0.167 F 
ATOM     29  F   UNL A   1      30.243  30.798  24.904  1.00  0.00    -0.167 F 
ATOM     30  F   UNL A   1      29.823  30.835  22.751  1.00  0.00    -0.167 F 
ENDBRANCH  17  27
ENDBRANCH   4   7
ENDBRANCH   2   3
ENDBRANCH   1   2
BRANCH   1  31
ATOM     31  C   UNL A   1      34.511  30.763  27.781  1.00  0.00     0.118 C 
BRANCH  31  32
ATOM     32  N   UNL A   1      35.297  31.606  28.691  1.00  0.00    -0.352 N 
ATOM     33  C   UNL A   1      36.494  31.318  29.338  1.00  0.00     0.251 C 
ATOM     34  H   UNL A   1      34.922  32.499  28.870  1.00  0.00     0.163 HD
ATOM     35  O   UNL A   1      37.065  32.109  30.049  1.00  0.00    -0.269 OA
BRANCH  33  36
ATOM     36  C   UNL A   1      37.116  30.010  29.034  1.00  0.00     0.039 A 
ATOM     37  C   UNL A   1      37.269  29.120  30.102  1.00  0.00     0.014 A 
ATOM     38  C   UNL A   1      37.819  29.853  27.844  1.00  0.00     0.014 A 
ATOM     39  C   UNL A   1      38.333  28.229  30.080  1.00  0.00     0.010 A 
ATOM     40  C   UNL A   1      38.923  29.025  27.857  1.00  0.00     0.010 A 
ATOM     41  C   UNL A   1      39.226  28.286  29.010  1.00  0.00    -0.014 A 
BRANCH  41  42
ATOM     42  C   UNL A   1      40.583  27.757  29.094  1.00  0.00     0.031 A 
ATOM     43  C   UNL A   1      40.863  26.362  28.712  1.00  0.00     0.074 A 
ATOM     44  C   UNL A   1      41.593  28.572  29.470  1.00  0.00     0.049 A 
ATOM     45  N   UNL A   1      41.918  25.708  29.065  1.00  0.00    -0.248 NA
ATOM     46  C   UNL A   1      39.905  25.546  27.973  1.00  0.00     0.031 C 
ATOM     47  C   UNL A   1      43.026  28.324  29.347  1.00  0.00     0.029 A 
ATOM     48  N   UNL A   1      41.503  29.694  30.297  1.00  0.00    -0.354 N 
ATOM     49  C   UNL A   1      41.934  24.532  28.353  1.00  0.00     0.074 A 
ATOM     50  C   UNL A   1      40.600  24.415  27.825  1.00  0.00     0.031 C 
ATOM     51  C   UNL A   1      43.674  29.065  30.259  1.00  0.00     0.029 A 
ATOM     52  C   UNL A   1      42.670  29.704  31.089  1.00  0.00     0.049 A 
ATOM     53  H   UNL A   1      40.769  30.350  30.323  1.00  0.00     0.167 HD
ATOM     54  C   UNL A   1      43.127  23.895  28.171  1.00  0.00     0.034 A 
ATOM     55  C   UNL A   1      42.603  29.620  32.449  1.00  0.00     0.034 A 
ATOM     56  C   UNL A   1      44.141  24.413  29.101  1.00  0.00     0.049 A 
ATOM     57  C   UNL A   1      43.313  28.415  33.017  1.00  0.00     0.074 A 
ATOM     58  C   UNL A   1      45.251  25.226  28.948  1.00  0.00     0.029 A 
ATOM     59  N   UNL A   1      43.918  24.315  30.475  1.00  0.00    -0.354 N 
ATOM     60  N   UNL A   1      43.698  27.392  32.302  1.00  0.00    -0.248 NA
ATOM     61  C   UNL A   1      43.631  28.256  34.432  1.00  0.00     0.031 C 
ATOM     62  C   UNL A   1      45.624  25.704  30.236  1.00  0.00     0.029 A 
ATOM     63  C   UNL A   1      44.776  25.141  31.177  1.00  0.00     0.049 A 
ATOM     64  H   UNL A   1      43.240  23.734  30.889  1.00  0.00     0.167 HD
ATOM     65  C   UNL A   1      44.263  26.446  33.116  1.00  0.00     0.074 A 
ATOM     66  C   UNL A   1      44.228  27.051  34.438  1.00  0.00     0.031 C 
ATOM     67  C   UNL A   1      44.691  25.240  32.633  1.00  0.00     0.034 A 
BRANCH  54  68
ATOM     68  C   UNL A   1      43.460  22.993  26.985  1.00  0.00     0.023 A 
ATOM     69  C   UNL A   1      42.912  21.689  26.946  1.00  0.00     0.031 A 
ATOM     70  C   UNL A   1      44.384  23.268  25.949  1.00  0.00     0.131 A 
ATOM     71  C   UNL A   1      43.312  20.744  25.976  1.00  0.00     0.055 A 
ATOM     72  C   UNL A   1      44.762  22.337  24.973  1.00  0.00     0.041 A 
ATOM     73  F   UNL A   1      45.007  24.440  25.817  1.00  0.00    -0.206 F 
ATOM     74  C   UNL A   1      44.236  21.062  24.988  1.00  0.00     0.022 A 
BRANCH  71  75
ATOM     75  S   UNL A   1      42.651  19.055  26.042  1.00  0.00     0.124 S 
ATOM     76  O   UNL A   1      43.675  18.297  25.331  1.00  0.00    -0.237 OA
ATOM     77  O   UNL A   1      42.544  18.818  27.476  1.00  0.00    -0.237 OA
ATOM     78  O   UNL A   1      41.371  19.165  25.340  1.00  0.00    -0.744 OA
ENDBRANCH  71  75
ENDBRANCH  54  68
BRANCH  55  79
ATOM     79  C   UNL A   1      41.393  30.279  33.017  1.00  0.00     0.023 A 
ATOM     80  C   UNL A   1      41.412  31.688  33.061  1.00  0.00     0.031 A 
ATOM     81  C   UNL A   1      40.153  29.634  33.089  1.00  0.00     0.131 A 
ATOM     82  C   UNL A   1      40.215  32.409  32.970  1.00  0.00     0.055 A 
ATOM     83  C   UNL A   1      38.956  30.365  33.089  1.00  0.00     0.041 A 
ATOM     84  F   UNL A   1      40.071  28.298  33.023  1.00  0.00    -0.206 F 
ATOM     85  C   UNL A   1      38.984  31.757  32.976  1.00  0.00     0.022 A 
BRANCH  82  86
ATOM     86  S   UNL A   1      40.315  34.163  32.512  1.00  0.00     0.124 S 
ATOM     87  O   UNL A   1      39.325  34.265  31.448  1.00  0.00    -0.237 OA
ATOM     88  O   UNL A   1      39.985  34.841  33.766  1.00  0.00    -0.237 OA
ATOM     89  O   UNL A   1      41.707  34.334  32.098  1.00  0.00    -0.744 OA
ENDBRANCH  82  86
ENDBRANCH  55  79
BRANCH  67  90
ATOM     90  C   UNL A   1      45.139  24.070  33.485  1.00  0.00     0.023 A 
ATOM     91  C   UNL A   1      46.413  23.979  34.069  1.00  0.00     0.031 A 
ATOM     92  C   UNL A   1      44.245  23.020  33.806  1.00  0.00     0.131 A 
ATOM     93  C   UNL A   1      46.789  22.856  34.831  1.00  0.00     0.055 A 
ATOM     94  C   UNL A   1      44.592  21.949  34.635  1.00  0.00     0.041 A 
ATOM     95  F   UNL A   1      42.991  22.993  33.330  1.00  0.00    -0.206 F 
ATOM     96  C   UNL A   1      45.879  21.850  35.137  1.00  0.00     0.022 A 
BRANCH  93  97
ATOM     97  S   UNL A   1      48.520  22.709  35.348  1.00  0.00     0.124 S 
ATOM     98  O   UNL A   1      48.572  21.334  35.836  1.00  0.00    -0.237 OA
ATOM     99  O   UNL A   1      49.242  22.968  34.107  1.00  0.00    -0.237 OA
ATOM    100  O   UNL A   1      48.663  23.737  36.377  1.00  0.00    -0.744 OA
ENDBRANCH  93  97
ENDBRANCH  67  90
ENDBRANCH  41  42
ENDBRANCH  33  36
ENDBRANCH  31  32
ENDBRANCH   1  31
TORSDOF 16
ENDMDL
