MODEL 1
REMARK VINA RESULT:     -11.8      0.000      0.000
REMARK SMILES CCOc1ccc(C[N@H+]2CC[NH2+][C@H](C(=O)NCCCNC(=O)c3ccc(-c4c5nc(c(-c6cc(S(=O)(=O)[O-])ccc6F)c6ccc([nH]6)c(-c6cc(S(=O)(=O)[O-])ccc6F)c6nc(c(-c7cc(S(=O)(=O)[O-])ccc7F)c7ccc4[nH]7)C=C6)C=C5)cc3)C2)c(OCC)c1C
REMARK SMILES IDX 17 1 16 2 14 3 15 4 13 6 9 7 10 8 86 9 11 11 12 12 8 15 7 16
REMARK SMILES IDX 4 17 5 18 91 19 6 20 87 21 92 22 3 23 2 24 1 25 88 26 89 27
REMARK SMILES IDX 90 28 18 29 19 30 20 31 21 32 22 34 23 35 24 36 85 37 25 38
REMARK SMILES IDX 84 39 26 40 27 41 28 42 78 43 29 44 83 45 77 46 79 47 30 48
REMARK SMILES IDX 82 49 76 50 75 51 31 53 63 54 43 55 62 56 44 57 47 58 61 59
REMARK SMILES IDX 80 60 45 61 46 62 60 64 81 65 48 66 32 67 33 68 41 69 34 70
REMARK SMILES IDX 40 71 42 72 39 73 35 74 36 75 37 76 38 77 64 78 65 79 73 80
REMARK SMILES IDX 66 81 72 82 74 83 71 84 67 85 68 86 69 87 70 88 49 89 50 90
REMARK SMILES IDX 58 91 51 92 57 93 59 94 56 95 52 96 53 97 54 98 55 99
REMARK H PARENT 16 5 9 10 12 13 12 14 20 33 79 52 47 63
REMARK Flexibility Score: inf
ROOT
ATOM      1  C   UNL A   1      36.642  20.973  24.691  1.00  0.00     0.118 C 
ENDROOT
BRANCH   1   2
ATOM      2  N   UNL A   1      35.609  20.036  25.128  1.00  0.00    -0.351 N 
ATOM      3  C   UNL A   1      34.256  20.085  24.954  1.00  0.00     0.284 C 
ATOM      4  O   UNL A   1      33.564  19.153  25.375  1.00  0.00    -0.268 OA
ATOM      5  H   UNL A   1      35.939  19.251  25.621  1.00  0.00     0.163 HD
BRANCH   3   6
ATOM      6  C   UNL A   1      33.636  21.300  24.253  1.00  0.00     0.328 C 
ATOM      7  N   UNL A   1      32.437  23.491  24.736  1.00  0.00    -0.321 N 
ATOM      8  C   UNL A   1      31.489  23.115  23.671  1.00  0.00     0.324 C 
ATOM      9  C   UNL A   1      33.037  22.268  25.303  1.00  0.00     0.339 C 
ATOM     10  H   UNL A   1      31.889  23.954  25.461  1.00  0.00     0.348 HD
ATOM     11  C   UNL A   1      31.974  22.030  22.671  1.00  0.00     0.323 C 
ATOM     12  N   UNL A   1      32.591  20.854  23.299  1.00  0.00    -0.327 N 
ATOM     13  H   UNL A   1      33.014  20.267  22.581  1.00  0.00     0.347 HD
ATOM     14  H   UNL A   1      31.880  20.319  23.798  1.00  0.00     0.347 HD
BRANCH   7  15
ATOM     15  C   UNL A   1      33.382  24.591  24.446  1.00  0.00     0.303 C 
BRANCH  15  16
ATOM     16  C   UNL A   1      32.968  26.022  24.747  1.00  0.00     0.049 A 
ATOM     17  C   UNL A   1      32.924  28.768  25.446  1.00  0.00     0.125 A 
ATOM     18  C   UNL A   1      33.647  28.349  24.341  1.00  0.00     0.047 A 
ATOM     19  C   UNL A   1      32.131  27.850  26.153  1.00  0.00     0.034 A 
ATOM     20  C   UNL A   1      33.667  27.002  23.999  1.00  0.00     0.017 A 
ATOM     21  C   UNL A   1      32.086  26.474  25.747  1.00  0.00     0.134 A 
ATOM     22  C   UNL A   1      31.491  28.240  27.466  1.00  0.00     0.052 C 
BRANCH  17  23
ATOM     23  O   UNL A   1      33.192  30.045  25.853  1.00  0.00    -0.493 OA
BRANCH  23  24
ATOM     24  C   UNL A   1      34.205  30.165  26.853  1.00  0.00     0.226 C 
ATOM     25  C   UNL A   1      33.783  31.234  27.841  1.00  0.00     0.049 C 
ENDBRANCH  23  24
ENDBRANCH  17  23
BRANCH  21  26
ATOM     26  O   UNL A   1      31.167  25.767  26.471  1.00  0.00    -0.493 OA
BRANCH  26  27
ATOM     27  C   UNL A   1      29.980  25.173  25.979  1.00  0.00     0.226 C 
ATOM     28  C   UNL A   1      29.265  26.008  24.937  1.00  0.00     0.049 C 
ENDBRANCH  26  27
ENDBRANCH  21  26
ENDBRANCH  15  16
ENDBRANCH   7  15
ENDBRANCH   3   6
ENDBRANCH   1   2
BRANCH   1  29
ATOM     29  C   UNL A   1      37.954  20.701  25.419  1.00  0.00     0.042 C 
BRANCH  29  30
ATOM     30  C   UNL A   1      38.736  21.958  25.784  1.00  0.00     0.118 C 
BRANCH  30  31
ATOM     31  N   UNL A   1      39.859  21.807  26.713  1.00  0.00    -0.352 N 
ATOM     32  C   UNL A   1      40.583  22.830  27.316  1.00  0.00     0.251 C 
ATOM     33  H   UNL A   1      40.128  20.887  26.934  1.00  0.00     0.163 HD
ATOM     34  O   UNL A   1      41.476  22.641  28.126  1.00  0.00    -0.269 OA
BRANCH  32  35
ATOM     35  C   UNL A   1      40.170  24.216  26.990  1.00  0.00     0.039 A 
ATOM     36  C   UNL A   1      41.195  25.127  26.714  1.00  0.00     0.014 A 
ATOM     37  C   UNL A   1      38.917  24.641  27.428  1.00  0.00     0.014 A 
ATOM     38  C   UNL A   1      41.061  26.437  27.159  1.00  0.00     0.010 A 
ATOM     39  C   UNL A   1      38.824  25.923  27.946  1.00  0.00     0.010 A 
ATOM     40  C   UNL A   1      39.934  26.784  27.908  1.00  0.00    -0.014 A 
BRANCH  40  41
ATOM     41  C   UNL A   1      39.975  27.861  28.906  1.00  0.00     0.031 A 
ATOM     42  C   UNL A   1      39.041  29.005  28.870  1.00  0.00     0.074 A 
ATOM     43  C   UNL A   1      40.862  27.811  29.930  1.00  0.00     0.049 A 
ATOM     44  N   UNL A   1      39.337  30.183  29.317  1.00  0.00    -0.248 NA
ATOM     45  C   UNL A   1      37.699  28.922  28.311  1.00  0.00     0.031 C 
ATOM     46  C   UNL A   1      40.864  28.638  31.137  1.00  0.00     0.029 A 
ATOM     47  N   UNL A   1      42.083  27.145  29.977  1.00  0.00    -0.354 N 
ATOM     48  C   UNL A   1      38.168  30.899  29.392  1.00  0.00     0.074 A 
ATOM     49  C   UNL A   1      37.190  30.098  28.689  1.00  0.00     0.031 C 
ATOM     50  C   UNL A   1      42.095  28.635  31.668  1.00  0.00     0.029 A 
ATOM     51  C   UNL A   1      42.962  27.899  30.769  1.00  0.00     0.049 A 
ATOM     52  H   UNL A   1      42.293  26.293  29.532  1.00  0.00     0.167 HD
ATOM     53  C   UNL A   1      38.089  32.020  30.162  1.00  0.00     0.034 A 
ATOM     54  C   UNL A   1      44.167  28.325  30.296  1.00  0.00     0.034 A 
ATOM     55  C   UNL A   1      39.339  32.319  30.858  1.00  0.00     0.049 A 
ATOM     56  C   UNL A   1      44.316  29.826  30.281  1.00  0.00     0.074 A 
ATOM     57  C   UNL A   1      39.752  32.146  32.169  1.00  0.00     0.029 A 
ATOM     58  N   UNL A   1      40.479  32.646  30.132  1.00  0.00    -0.354 N 
ATOM     59  N   UNL A   1      43.335  30.659  30.492  1.00  0.00    -0.248 NA
ATOM     60  C   UNL A   1      45.570  30.513  29.993  1.00  0.00     0.031 C 
ATOM     61  C   UNL A   1      41.156  32.350  32.222  1.00  0.00     0.029 A 
ATOM     62  C   UNL A   1      41.594  32.666  30.949  1.00  0.00     0.049 A 
ATOM     63  H   UNL A   1      40.490  32.838  29.166  1.00  0.00     0.167 HD
ATOM     64  C   UNL A   1      43.773  31.950  30.328  1.00  0.00     0.074 A 
ATOM     65  C   UNL A   1      45.192  31.802  30.054  1.00  0.00     0.031 C 
ATOM     66  C   UNL A   1      42.909  33.009  30.415  1.00  0.00     0.034 A 
BRANCH  53  67
ATOM     67  C   UNL A   1      36.761  32.648  30.509  1.00  0.00     0.023 A 
ATOM     68  C   UNL A   1      36.055  33.396  29.546  1.00  0.00     0.031 A 
ATOM     69  C   UNL A   1      36.167  32.575  31.783  1.00  0.00     0.131 A 
ATOM     70  C   UNL A   1      34.899  34.119  29.890  1.00  0.00     0.055 A 
ATOM     71  C   UNL A   1      35.058  33.347  32.145  1.00  0.00     0.041 A 
ATOM     72  F   UNL A   1      36.636  31.735  32.720  1.00  0.00    -0.206 F 
ATOM     73  C   UNL A   1      34.426  34.141  31.198  1.00  0.00     0.022 A 
BRANCH  70  74
ATOM     74  S   UNL A   1      34.010  35.027  28.594  1.00  0.00     0.124 S 
ATOM     75  O   UNL A   1      34.156  36.413  29.028  1.00  0.00    -0.237 OA
ATOM     76  O   UNL A   1      34.744  34.645  27.393  1.00  0.00    -0.237 OA
ATOM     77  O   UNL A   1      32.650  34.495  28.681  1.00  0.00    -0.744 OA
ENDBRANCH  70  74
ENDBRANCH  53  67
BRANCH  54  78
ATOM     78  C   UNL A   1      44.796  27.364  29.351  1.00  0.00     0.023 A 
ATOM     79  C   UNL A   1      44.552  27.580  27.979  1.00  0.00     0.031 A 
ATOM     80  C   UNL A   1      45.897  26.575  29.711  1.00  0.00     0.131 A 
ATOM     81  C   UNL A   1      45.487  27.165  27.024  1.00  0.00     0.055 A 
ATOM     82  C   UNL A   1      46.795  26.104  28.744  1.00  0.00     0.041 A 
ATOM     83  F   UNL A   1      46.195  26.366  31.001  1.00  0.00    -0.206 F 
ATOM     84  C   UNL A   1      46.617  26.438  27.400  1.00  0.00     0.022 A 
BRANCH  81  85
ATOM     85  S   UNL A   1      45.369  27.787  25.321  1.00  0.00     0.124 S 
ATOM     86  O   UNL A   1      46.028  29.083  25.420  1.00  0.00    -0.237 OA
ATOM     87  O   UNL A   1      46.079  26.771  24.548  1.00  0.00    -0.237 OA
ATOM     88  O   UNL A   1      43.924  27.814  25.100  1.00  0.00    -0.744 OA
ENDBRANCH  81  85
ENDBRANCH  54  78
BRANCH  66  89
ATOM     89  C   UNL A   1      43.211  34.466  30.095  1.00  0.00     0.023 A 
ATOM     90  C   UNL A   1      42.941  35.074  28.860  1.00  0.00     0.031 A 
ATOM     91  C   UNL A   1      43.751  35.331  31.084  1.00  0.00     0.131 A 
ATOM     92  C   UNL A   1      43.261  36.425  28.618  1.00  0.00     0.055 A 
ATOM     93  C   UNL A   1      44.006  36.689  30.864  1.00  0.00     0.041 A 
ATOM     94  F   UNL A   1      44.051  34.901  32.318  1.00  0.00    -0.206 F 
ATOM     95  C   UNL A   1      43.775  37.244  29.617  1.00  0.00     0.022 A 
BRANCH  92  96
ATOM     96  S   UNL A   1      43.033  37.075  26.941  1.00  0.00     0.124 S 
ATOM     97  O   UNL A   1      42.927  35.848  26.155  1.00  0.00    -0.237 OA
ATOM     98  O   UNL A   1      41.804  37.851  27.071  1.00  0.00    -0.237 OA
ATOM     99  O   UNL A   1      44.243  37.860  26.706  1.00  0.00    -0.744 OA
ENDBRANCH  92  96
ENDBRANCH  66  89
ENDBRANCH  40  41
ENDBRANCH  32  35
ENDBRANCH  30  31
ENDBRANCH  29  30
ENDBRANCH   1  29
TORSDOF 19
ENDMDL
MODEL 2
REMARK VINA RESULT:     -11.5      2.195      2.695
REMARK SMILES CCOc1ccc(C[N@H+]2CC[NH2+][C@H](C(=O)NCCCNC(=O)c3ccc(-c4c5nc(c(-c6cc(S(=O)(=O)[O-])ccc6F)c6ccc([nH]6)c(-c6cc(S(=O)(=O)[O-])ccc6F)c6nc(c(-c7cc(S(=O)(=O)[O-])ccc7F)c7ccc4[nH]7)C=C6)C=C5)cc3)C2)c(OCC)c1C
REMARK SMILES IDX 17 1 16 2 14 3 15 4 13 6 9 7 10 8 86 9 11 11 12 12 8 15 7 16
REMARK SMILES IDX 4 17 5 18 91 19 6 20 87 21 92 22 3 23 2 24 1 25 88 26 89 27
REMARK SMILES IDX 90 28 18 29 19 30 20 31 21 32 22 34 23 35 24 36 85 37 25 38
REMARK SMILES IDX 84 39 26 40 27 41 28 42 78 43 29 44 83 45 77 46 79 47 30 48
REMARK SMILES IDX 82 49 76 50 75 51 31 53 63 54 43 55 62 56 44 57 47 58 61 59
REMARK SMILES IDX 80 60 45 61 46 62 60 64 81 65 48 66 32 67 33 68 41 69 34 70
REMARK SMILES IDX 40 71 42 72 39 73 35 74 36 75 37 76 38 77 64 78 65 79 73 80
REMARK SMILES IDX 66 81 72 82 74 83 71 84 67 85 68 86 69 87 70 88 49 89 50 90
REMARK SMILES IDX 58 91 51 92 57 93 59 94 56 95 52 96 53 97 54 98 55 99
REMARK H PARENT 16 5 9 10 12 13 12 14 20 33 79 52 47 63
REMARK Flexibility Score: inf
ROOT
ATOM      1  C   UNL A   1      37.153  21.418  24.616  1.00  0.00     0.118 C 
ENDROOT
BRANCH   1   2
ATOM      2  N   UNL A   1      36.122  20.559  25.193  1.00  0.00    -0.351 N 
ATOM      3  C   UNL A   1      34.764  20.697  25.181  1.00  0.00     0.284 C 
ATOM      4  O   UNL A   1      34.069  19.820  25.702  1.00  0.00    -0.268 OA
ATOM      5  H   UNL A   1      36.457  19.760  25.659  1.00  0.00     0.163 HD
BRANCH   3   6
ATOM      6  C   UNL A   1      34.144  21.943  24.535  1.00  0.00     0.328 C 
ATOM      7  N   UNL A   1      32.987  24.132  25.115  1.00  0.00    -0.321 N 
ATOM      8  C   UNL A   1      32.009  23.802  24.062  1.00  0.00     0.324 C 
ATOM      9  C   UNL A   1      33.583  22.883  25.629  1.00  0.00     0.339 C 
ATOM     10  H   UNL A   1      32.463  24.579  25.867  1.00  0.00     0.348 HD
ATOM     11  C   UNL A   1      32.456  22.744  23.017  1.00  0.00     0.323 C 
ATOM     12  N   UNL A   1      33.072  21.541  23.592  1.00  0.00    -0.327 N 
ATOM     13  H   UNL A   1      33.470  20.971  22.846  1.00  0.00     0.347 HD
ATOM     14  H   UNL A   1      32.365  20.999  24.090  1.00  0.00     0.347 HD
BRANCH   7  15
ATOM     15  C   UNL A   1      33.941  25.228  24.838  1.00  0.00     0.303 C 
BRANCH  15  16
ATOM     16  C   UNL A   1      33.415  26.646  24.685  1.00  0.00     0.049 A 
ATOM     17  C   UNL A   1      32.126  29.141  25.060  1.00  0.00     0.125 A 
ATOM     18  C   UNL A   1      33.110  28.734  25.945  1.00  0.00     0.047 A 
ATOM     19  C   UNL A   1      31.844  28.369  23.921  1.00  0.00     0.034 A 
ATOM     20  C   UNL A   1      33.742  27.510  25.760  1.00  0.00     0.017 A 
ATOM     21  C   UNL A   1      32.558  27.146  23.686  1.00  0.00     0.134 A 
ATOM     22  C   UNL A   1      30.652  28.692  23.050  1.00  0.00     0.052 C 
BRANCH  17  23
ATOM     23  O   UNL A   1      31.384  30.210  25.482  1.00  0.00    -0.493 OA
BRANCH  23  24
ATOM     24  C   UNL A   1      31.872  30.864  26.653  1.00  0.00     0.226 C 
ATOM     25  C   UNL A   1      31.414  32.308  26.625  1.00  0.00     0.049 C 
ENDBRANCH  23  24
ENDBRANCH  17  23
BRANCH  21  26
ATOM     26  O   UNL A   1      32.239  26.605  22.472  1.00  0.00    -0.493 OA
BRANCH  26  27
ATOM     27  C   UNL A   1      33.136  26.306  21.418  1.00  0.00     0.226 C 
ATOM     28  C   UNL A   1      32.495  25.568  20.260  1.00  0.00     0.049 C 
ENDBRANCH  26  27
ENDBRANCH  21  26
ENDBRANCH  15  16
ENDBRANCH   7  15
ENDBRANCH   3   6
ENDBRANCH   1   2
BRANCH   1  29
ATOM     29  C   UNL A   1      38.437  21.338  25.434  1.00  0.00     0.042 C 
BRANCH  29  30
ATOM     30  C   UNL A   1      38.836  22.651  26.098  1.00  0.00     0.118 C 
BRANCH  30  31
ATOM     31  N   UNL A   1      40.238  22.806  26.498  1.00  0.00    -0.352 N 
ATOM     32  C   UNL A   1      40.832  23.949  27.022  1.00  0.00     0.251 C 
ATOM     33  H   UNL A   1      40.819  22.020  26.384  1.00  0.00     0.163 HD
ATOM     34  O   UNL A   1      41.995  23.999  27.388  1.00  0.00    -0.269 OA
BRANCH  32  35
ATOM     35  C   UNL A   1      39.954  25.130  27.203  1.00  0.00     0.039 A 
ATOM     36  C   UNL A   1      40.304  26.285  26.498  1.00  0.00     0.014 A 
ATOM     37  C   UNL A   1      39.175  25.189  28.358  1.00  0.00     0.014 A 
ATOM     38  C   UNL A   1      40.126  27.521  27.109  1.00  0.00     0.010 A 
ATOM     39  C   UNL A   1      39.080  26.415  29.000  1.00  0.00     0.010 A 
ATOM     40  C   UNL A   1      39.652  27.561  28.424  1.00  0.00    -0.014 A 
BRANCH  40  41
ATOM     41  C   UNL A   1      40.004  28.658  29.334  1.00  0.00     0.031 A 
ATOM     42  C   UNL A   1      39.029  29.692  29.738  1.00  0.00     0.074 A 
ATOM     43  C   UNL A   1      41.247  28.729  29.871  1.00  0.00     0.049 A 
ATOM     44  N   UNL A   1      39.360  30.904  30.046  1.00  0.00    -0.248 NA
ATOM     45  C   UNL A   1      37.596  29.448  29.814  1.00  0.00     0.031 C 
ATOM     46  C   UNL A   1      41.683  29.577  30.980  1.00  0.00     0.029 A 
ATOM     47  N   UNL A   1      42.433  28.203  29.365  1.00  0.00    -0.354 N 
ATOM     48  C   UNL A   1      38.269  31.488  30.640  1.00  0.00     0.074 A 
ATOM     49  C   UNL A   1      37.176  30.569  30.408  1.00  0.00     0.031 C 
ATOM     50  C   UNL A   1      43.015  29.723  30.925  1.00  0.00     0.029 A 
ATOM     51  C   UNL A   1      43.480  29.067  29.718  1.00  0.00     0.049 A 
ATOM     52  H   UNL A   1      42.520  27.369  28.850  1.00  0.00     0.167 HD
ATOM     53  C   UNL A   1      38.410  32.611  31.399  1.00  0.00     0.034 A 
ATOM     54  C   UNL A   1      44.306  29.612  28.782  1.00  0.00     0.034 A 
ATOM     55  C   UNL A   1      39.797  33.061  31.492  1.00  0.00     0.049 A 
ATOM     56  C   UNL A   1      44.269  31.120  28.746  1.00  0.00     0.074 A 
ATOM     57  C   UNL A   1      40.754  32.964  32.489  1.00  0.00     0.029 A 
ATOM     58  N   UNL A   1      40.466  33.496  30.353  1.00  0.00    -0.354 N 
ATOM     59  N   UNL A   1      43.393  31.844  29.384  1.00  0.00    -0.248 NA
ATOM     60  C   UNL A   1      45.192  31.934  27.962  1.00  0.00     0.031 C 
ATOM     61  C   UNL A   1      42.010  33.322  31.935  1.00  0.00     0.029 A 
ATOM     62  C   UNL A   1      41.815  33.657  30.607  1.00  0.00     0.049 A 
ATOM     63  H   UNL A   1      40.036  33.667  29.484  1.00  0.00     0.167 HD
ATOM     64  C   UNL A   1      43.573  33.172  29.083  1.00  0.00     0.074 A 
ATOM     65  C   UNL A   1      44.739  33.174  28.216  1.00  0.00     0.031 C 
ATOM     66  C   UNL A   1      42.723  34.131  29.566  1.00  0.00     0.034 A 
BRANCH  53  67
ATOM     67  C   UNL A   1      37.304  33.097  32.305  1.00  0.00     0.023 A 
ATOM     68  C   UNL A   1      36.183  33.759  31.767  1.00  0.00     0.031 A 
ATOM     69  C   UNL A   1      37.324  32.968  33.706  1.00  0.00     0.131 A 
ATOM     70  C   UNL A   1      35.222  34.358  32.600  1.00  0.00     0.055 A 
ATOM     71  C   UNL A   1      36.407  33.620  34.539  1.00  0.00     0.041 A 
ATOM     72  F   UNL A   1      38.230  32.188  34.319  1.00  0.00    -0.206 F 
ATOM     73  C   UNL A   1      35.356  34.337  33.985  1.00  0.00     0.022 A 
BRANCH  70  74
ATOM     74  S   UNL A   1      33.779  35.159  31.845  1.00  0.00     0.124 S 
ATOM     75  O   UNL A   1      32.698  34.764  32.744  1.00  0.00    -0.237 OA
ATOM     76  O   UNL A   1      34.160  36.566  31.872  1.00  0.00    -0.237 OA
ATOM     77  O   UNL A   1      33.718  34.561  30.511  1.00  0.00    -0.744 OA
ENDBRANCH  70  74
ENDBRANCH  53  67
BRANCH  54  78
ATOM     78  C   UNL A   1      44.564  28.706  27.632  1.00  0.00     0.023 A 
ATOM     79  C   UNL A   1      45.496  27.669  27.844  1.00  0.00     0.031 A 
ATOM     80  C   UNL A   1      43.664  28.578  26.565  1.00  0.00     0.131 A 
ATOM     81  C   UNL A   1      45.398  26.475  27.120  1.00  0.00     0.055 A 
ATOM     82  C   UNL A   1      43.614  27.406  25.798  1.00  0.00     0.041 A 
ATOM     83  F   UNL A   1      42.736  29.518  26.338  1.00  0.00    -0.206 F 
ATOM     84  C   UNL A   1      44.452  26.331  26.105  1.00  0.00     0.022 A 
BRANCH  81  85
ATOM     85  S   UNL A   1      46.330  25.014  27.665  1.00  0.00     0.124 S 
ATOM     86  O   UNL A   1      47.159  25.557  28.733  1.00  0.00    -0.237 OA
ATOM     87  O   UNL A   1      45.280  24.089  28.085  1.00  0.00    -0.237 OA
ATOM     88  O   UNL A   1      47.030  24.618  26.444  1.00  0.00    -0.744 OA
ENDBRANCH  81  85
ENDBRANCH  54  78
BRANCH  66  89
ATOM     89  C   UNL A   1      42.695  35.605  29.187  1.00  0.00     0.023 A 
ATOM     90  C   UNL A   1      43.531  36.579  29.752  1.00  0.00     0.031 A 
ATOM     91  C   UNL A   1      41.827  36.078  28.168  1.00  0.00     0.131 A 
ATOM     92  C   UNL A   1      43.446  37.933  29.373  1.00  0.00     0.055 A 
ATOM     93  C   UNL A   1      41.789  37.411  27.745  1.00  0.00     0.041 A 
ATOM     94  F   UNL A   1      40.975  35.265  27.525  1.00  0.00    -0.206 F 
ATOM     95  C   UNL A   1      42.593  38.355  28.359  1.00  0.00     0.022 A 
BRANCH  92  96
ATOM     96  S   UNL A   1      44.447  39.144  30.277  1.00  0.00     0.124 S 
ATOM     97  O   UNL A   1      44.022  38.916  31.656  1.00  0.00    -0.237 OA
ATOM     98  O   UNL A   1      45.808  38.726  29.957  1.00  0.00    -0.237 OA
ATOM     99  O   UNL A   1      44.039  40.427  29.707  1.00  0.00    -0.744 OA
ENDBRANCH  92  96
ENDBRANCH  66  89
ENDBRANCH  40  41
ENDBRANCH  32  35
ENDBRANCH  30  31
ENDBRANCH  29  30
ENDBRANCH   1  29
TORSDOF 19
ENDMDL
MODEL 3
REMARK VINA RESULT:     -11.4      4.090      9.970
REMARK SMILES CCOc1ccc(C[N@H+]2CC[NH2+][C@H](C(=O)NCCCNC(=O)c3ccc(-c4c5nc(c(-c6cc(S(=O)(=O)[O-])ccc6F)c6ccc([nH]6)c(-c6cc(S(=O)(=O)[O-])ccc6F)c6nc(c(-c7cc(S(=O)(=O)[O-])ccc7F)c7ccc4[nH]7)C=C6)C=C5)cc3)C2)c(OCC)c1C
REMARK SMILES IDX 17 1 16 2 14 3 15 4 13 6 9 7 10 8 86 9 11 11 12 12 8 15 7 16
REMARK SMILES IDX 4 17 5 18 91 19 6 20 87 21 92 22 3 23 2 24 1 25 88 26 89 27
REMARK SMILES IDX 90 28 18 29 19 30 20 31 21 32 22 34 23 35 24 36 85 37 25 38
REMARK SMILES IDX 84 39 26 40 27 41 28 42 78 43 29 44 83 45 77 46 79 47 30 48
REMARK SMILES IDX 82 49 76 50 75 51 31 53 63 54 43 55 62 56 44 57 47 58 61 59
REMARK SMILES IDX 80 60 45 61 46 62 60 64 81 65 48 66 32 67 33 68 41 69 34 70
REMARK SMILES IDX 40 71 42 72 39 73 35 74 36 75 37 76 38 77 64 78 65 79 73 80
REMARK SMILES IDX 66 81 72 82 74 83 71 84 67 85 68 86 69 87 70 88 49 89 50 90
REMARK SMILES IDX 58 91 51 92 57 93 59 94 56 95 52 96 53 97 54 98 55 99
REMARK H PARENT 16 5 9 10 12 13 12 14 20 33 79 52 47 63
REMARK Flexibility Score: inf
ROOT
ATOM      1  C   UNL A   1      33.043  29.952  26.153  1.00  0.00     0.118 C 
ENDROOT
BRANCH   1   2
ATOM      2  N   UNL A   1      33.260  29.857  24.711  1.00  0.00    -0.351 N 
ATOM      3  C   UNL A   1      32.908  28.868  23.839  1.00  0.00     0.284 C 
ATOM      4  O   UNL A   1      33.156  29.013  22.638  1.00  0.00    -0.268 OA
ATOM      5  H   UNL A   1      33.729  30.623  24.309  1.00  0.00     0.163 HD
BRANCH   3   6
ATOM      6  C   UNL A   1      32.228  27.603  24.378  1.00  0.00     0.328 C 
ATOM      7  N   UNL A   1      30.686  25.707  23.674  1.00  0.00    -0.321 N 
ATOM      8  C   UNL A   1      29.952  25.944  24.931  1.00  0.00     0.324 C 
ATOM      9  C   UNL A   1      31.365  26.953  23.269  1.00  0.00     0.339 C 
ATOM     10  H   UNL A   1      29.987  25.471  22.971  1.00  0.00     0.348 HD
ATOM     11  C   UNL A   1      30.713  26.730  26.033  1.00  0.00     0.323 C 
ATOM     12  N   UNL A   1      31.394  27.941  25.557  1.00  0.00    -0.327 N 
ATOM     13  H   UNL A   1      31.987  28.313  26.299  1.00  0.00     0.347 HD
ATOM     14  H   UNL A   1      30.702  28.644  25.295  1.00  0.00     0.347 HD
BRANCH   7  15
ATOM     15  C   UNL A   1      31.502  24.477  23.585  1.00  0.00     0.303 C 
BRANCH  15  16
ATOM     16  C   UNL A   1      32.632  24.265  24.580  1.00  0.00     0.049 A 
ATOM     17  C   UNL A   1      35.011  23.447  25.885  1.00  0.00     0.125 A 
ATOM     18  C   UNL A   1      35.085  24.197  24.723  1.00  0.00     0.047 A 
ATOM     19  C   UNL A   1      33.762  23.185  26.471  1.00  0.00     0.034 A 
ATOM     20  C   UNL A   1      33.917  24.599  24.084  1.00  0.00     0.017 A 
ATOM     21  C   UNL A   1      32.560  23.673  25.855  1.00  0.00     0.134 A 
ATOM     22  C   UNL A   1      33.643  22.214  27.624  1.00  0.00     0.052 C 
BRANCH  17  23
ATOM     23  O   UNL A   1      36.191  22.876  26.273  1.00  0.00    -0.493 OA
BRANCH  23  24
ATOM     24  C   UNL A   1      37.323  23.213  25.471  1.00  0.00     0.226 C 
ATOM     25  C   UNL A   1      38.431  22.221  25.759  1.00  0.00     0.049 C 
ENDBRANCH  23  24
ENDBRANCH  17  23
BRANCH  21  26
ATOM     26  O   UNL A   1      31.464  23.431  26.634  1.00  0.00    -0.493 OA
BRANCH  26  27
ATOM     27  C   UNL A   1      30.383  22.570  26.328  1.00  0.00     0.226 C 
ATOM     28  C   UNL A   1      29.213  22.694  27.284  1.00  0.00     0.049 C 
ENDBRANCH  26  27
ENDBRANCH  21  26
ENDBRANCH  15  16
ENDBRANCH   7  15
ENDBRANCH   3   6
ENDBRANCH   1   2
BRANCH   1  29
ATOM     29  C   UNL A   1      34.371  30.117  26.885  1.00  0.00     0.042 C 
BRANCH  29  30
ATOM     30  C   UNL A   1      34.257  30.817  28.234  1.00  0.00     0.118 C 
BRANCH  30  31
ATOM     31  N   UNL A   1      35.346  31.719  28.620  1.00  0.00    -0.352 N 
ATOM     32  C   UNL A   1      36.653  31.360  28.931  1.00  0.00     0.251 C 
ATOM     33  H   UNL A   1      35.129  32.678  28.663  1.00  0.00     0.163 HD
ATOM     34  O   UNL A   1      37.531  32.166  29.194  1.00  0.00    -0.269 OA
BRANCH  32  35
ATOM     35  C   UNL A   1      36.980  29.916  28.856  1.00  0.00     0.039 A 
ATOM     36  C   UNL A   1      37.259  29.273  30.066  1.00  0.00     0.014 A 
ATOM     37  C   UNL A   1      37.451  29.419  27.642  1.00  0.00     0.014 A 
ATOM     38  C   UNL A   1      38.253  28.302  30.093  1.00  0.00     0.010 A 
ATOM     39  C   UNL A   1      38.500  28.514  27.688  1.00  0.00     0.010 A 
ATOM     40  C   UNL A   1      38.971  28.040  28.923  1.00  0.00    -0.014 A 
BRANCH  40  41
ATOM     41  C   UNL A   1      40.357  27.554  28.965  1.00  0.00     0.031 A 
ATOM     42  C   UNL A   1      40.735  26.205  28.497  1.00  0.00     0.074 A 
ATOM     43  C   UNL A   1      41.352  28.364  29.405  1.00  0.00     0.049 A 
ATOM     44  N   UNL A   1      41.732  25.536  28.978  1.00  0.00    -0.248 NA
ATOM     45  C   UNL A   1      40.008  25.490  27.458  1.00  0.00     0.031 C 
ATOM     46  C   UNL A   1      42.792  28.148  29.265  1.00  0.00     0.029 A 
ATOM     47  N   UNL A   1      41.257  29.447  30.274  1.00  0.00    -0.354 N 
ATOM     48  C   UNL A   1      41.963  24.480  28.132  1.00  0.00     0.074 A 
ATOM     49  C   UNL A   1      40.823  24.453  27.242  1.00  0.00     0.031 C 
ATOM     50  C   UNL A   1      43.436  28.876  30.189  1.00  0.00     0.029 A 
ATOM     51  C   UNL A   1      42.437  29.504  31.030  1.00  0.00     0.049 A 
ATOM     52  H   UNL A   1      40.495  30.066  30.344  1.00  0.00     0.167 HD
ATOM     53  C   UNL A   1      43.155  23.820  28.155  1.00  0.00     0.034 A 
ATOM     54  C   UNL A   1      42.416  29.486  32.393  1.00  0.00     0.034 A 
ATOM     55  C   UNL A   1      44.089  24.373  29.134  1.00  0.00     0.049 A 
ATOM     56  C   UNL A   1      43.147  28.312  32.995  1.00  0.00     0.074 A 
ATOM     57  C   UNL A   1      45.201  25.191  29.018  1.00  0.00     0.029 A 
ATOM     58  N   UNL A   1      43.793  24.311  30.491  1.00  0.00    -0.354 N 
ATOM     59  N   UNL A   1      43.581  27.293  32.307  1.00  0.00    -0.248 NA
ATOM     60  C   UNL A   1      43.418  28.172  34.421  1.00  0.00     0.031 C 
ATOM     61  C   UNL A   1      45.558  25.641  30.316  1.00  0.00     0.029 A 
ATOM     62  C   UNL A   1      44.677  25.080  31.223  1.00  0.00     0.049 A 
ATOM     63  H   UNL A   1      43.053  23.789  30.878  1.00  0.00     0.167 HD
ATOM     64  C   UNL A   1      44.127  26.356  33.151  1.00  0.00     0.074 A 
ATOM     65  C   UNL A   1      44.033  26.976  34.462  1.00  0.00     0.031 C 
ATOM     66  C   UNL A   1      44.580  25.154  32.678  1.00  0.00     0.034 A 
BRANCH  53  67
ATOM     67  C   UNL A   1      43.556  22.874  27.050  1.00  0.00     0.023 A 
ATOM     68  C   UNL A   1      43.023  21.570  27.002  1.00  0.00     0.031 A 
ATOM     69  C   UNL A   1      44.488  23.190  26.044  1.00  0.00     0.131 A 
ATOM     70  C   UNL A   1      43.498  20.622  26.079  1.00  0.00     0.055 A 
ATOM     71  C   UNL A   1      45.012  22.231  25.169  1.00  0.00     0.041 A 
ATOM     72  F   UNL A   1      44.912  24.451  25.863  1.00  0.00    -0.206 F 
ATOM     73  C   UNL A   1      44.528  20.931  25.195  1.00  0.00     0.022 A 
BRANCH  70  74
ATOM     74  S   UNL A   1      42.740  18.974  26.039  1.00  0.00     0.124 S 
ATOM     75  O   UNL A   1      43.698  18.209  25.248  1.00  0.00    -0.237 OA
ATOM     76  O   UNL A   1      42.658  18.639  27.456  1.00  0.00    -0.237 OA
ATOM     77  O   UNL A   1      41.452  19.209  25.385  1.00  0.00    -0.744 OA
ENDBRANCH  70  74
ENDBRANCH  53  67
BRANCH  54  78
ATOM     78  C   UNL A   1      41.234  30.181  32.968  1.00  0.00     0.023 A 
ATOM     79  C   UNL A   1      41.245  31.590  32.915  1.00  0.00     0.031 A 
ATOM     80  C   UNL A   1      40.004  29.536  33.150  1.00  0.00     0.131 A 
ATOM     81  C   UNL A   1      40.040  32.302  32.865  1.00  0.00     0.055 A 
ATOM     82  C   UNL A   1      38.803  30.259  33.167  1.00  0.00     0.041 A 
ATOM     83  F   UNL A   1      39.931  28.198  33.175  1.00  0.00    -0.206 F 
ATOM     84  C   UNL A   1      38.815  31.642  32.978  1.00  0.00     0.022 A 
BRANCH  81  85
ATOM     85  S   UNL A   1      40.052  34.057  32.398  1.00  0.00     0.124 S 
ATOM     86  O   UNL A   1      41.410  34.235  31.901  1.00  0.00    -0.237 OA
ATOM     87  O   UNL A   1      38.992  34.141  31.397  1.00  0.00    -0.237 OA
ATOM     88  O   UNL A   1      39.738  34.718  33.665  1.00  0.00    -0.744 OA
ENDBRANCH  81  85
ENDBRANCH  54  78
BRANCH  66  89
ATOM     89  C   UNL A   1      45.050  23.964  33.503  1.00  0.00     0.023 A 
ATOM     90  C   UNL A   1      46.346  23.827  34.023  1.00  0.00     0.031 A 
ATOM     91  C   UNL A   1      44.154  22.917  33.847  1.00  0.00     0.131 A 
ATOM     92  C   UNL A   1      46.727  22.692  34.764  1.00  0.00     0.055 A 
ATOM     93  C   UNL A   1      44.514  21.822  34.640  1.00  0.00     0.041 A 
ATOM     94  F   UNL A   1      42.877  22.911  33.436  1.00  0.00    -0.206 F 
ATOM     95  C   UNL A   1      45.815  21.696  35.094  1.00  0.00     0.022 A 
BRANCH  92  96
ATOM     96  S   UNL A   1      48.466  22.525  35.249  1.00  0.00     0.124 S 
ATOM     97  O   UNL A   1      49.152  23.172  34.133  1.00  0.00    -0.237 OA
ATOM     98  O   UNL A   1      48.508  23.243  36.518  1.00  0.00    -0.237 OA
ATOM     99  O   UNL A   1      48.663  21.080  35.345  1.00  0.00    -0.744 OA
ENDBRANCH  92  96
ENDBRANCH  66  89
ENDBRANCH  40  41
ENDBRANCH  32  35
ENDBRANCH  30  31
ENDBRANCH  29  30
ENDBRANCH   1  29
TORSDOF 19
ENDMDL
