MODEL 1
REMARK VINA RESULT:     -13.7      0.000      0.000
REMARK SMILES Nc1ccc(-c2cc(Cl)cc3c2O[C@H](C(F)(F)F)C(C(=O)NCCCNC(=O)c2ccc(-c4c5nc(c(-c6cc(S(=O)(=O)[O-])ccc6F)c6ccc([nH]6)c(-c6cc(S(=O)(=O)[O-])ccc6F)c6nc(c(-c7cc(S(=O)(=O)[O-])ccc7F)c7ccc4[nH]7)C=C6)C=C5)cc2)=C3)cc1
REMARK SMILES IDX 24 1 23 2 22 3 20 4 21 5 19 7 6 8 7 9 12 10 8 11 11 12 13 13
REMARK SMILES IDX 9 14 10 15 92 16 14 17 5 18 2 19 3 20 94 21 4 22 93 23 1 24
REMARK SMILES IDX 15 27 16 28 17 29 18 30 25 31 26 32 27 33 28 35 29 36 30 37
REMARK SMILES IDX 91 38 31 39 90 40 32 41 33 42 34 43 84 44 35 45 89 46 83 47
REMARK SMILES IDX 85 48 36 49 88 50 82 51 81 52 37 54 69 55 49 56 68 57 50 58
REMARK SMILES IDX 53 59 67 60 86 61 51 62 52 63 66 65 87 66 54 67 38 68 39 69
REMARK SMILES IDX 47 70 40 71 46 72 48 73 45 74 41 75 42 76 43 77 44 78 70 79
REMARK SMILES IDX 71 80 79 81 72 82 78 83 80 84 77 85 73 86 74 87 75 88 76 89
REMARK SMILES IDX 55 90 56 91 64 92 57 93 63 94 65 95 62 96 58 97 59 98 60 99
REMARK SMILES IDX 61 100
REMARK H PARENT 22 6 1 25 1 26 26 34 85 53 53 64
REMARK Flexibility Score: inf
ROOT
ATOM      1  C   UNL A   1      32.779  29.044  24.631  1.00  0.00     0.042 C 
ENDROOT
BRANCH   1   2
ATOM      2  C   UNL A   1      31.880  27.975  24.028  1.00  0.00     0.118 C 
BRANCH   2   3
ATOM      3  N   UNL A   1      31.026  27.341  25.021  1.00  0.00    -0.352 N 
ATOM      4  C   UNL A   1      30.980  26.156  25.674  1.00  0.00     0.251 C 
ATOM      5  O   UNL A   1      30.069  26.043  26.501  1.00  0.00    -0.270 OA
ATOM      6  H   UNL A   1      30.284  27.930  25.288  1.00  0.00     0.163 HD
BRANCH   4   7
ATOM      7  C   UNL A   1      31.930  25.024  25.467  1.00  0.00     0.067 C 
ATOM      8  C   UNL A   1      34.645  21.827  25.126  1.00  0.00     0.026 A 
ATOM      9  C   UNL A   1      36.016  22.092  25.257  1.00  0.00     0.033 A 
ATOM     10  C   UNL A   1      33.744  22.890  25.332  1.00  0.00     0.135 A 
ATOM     11  C   UNL A   1      36.459  23.377  25.580  1.00  0.00     0.042 A 
ATOM     12  C   UNL A   1      34.187  24.181  25.647  1.00  0.00     0.019 A 
ATOM     13  O   UNL A   1      32.403  22.608  25.269  1.00  0.00    -0.475 OA
ATOM     14  Cl  UNL A   1      38.149  23.679  25.730  1.00  0.00    -0.084 Cl
ATOM     15  C   UNL A   1      35.555  24.421  25.775  1.00  0.00     0.032 A 
ATOM     16  C   UNL A   1      33.203  25.241  25.850  1.00  0.00     0.025 C 
ATOM     17  C   UNL A   1      31.550  23.706  24.860  1.00  0.00     0.314 C 
BRANCH   8  18
ATOM     18  C   UNL A   1      34.166  20.484  24.759  1.00  0.00    -0.014 A 
ATOM     19  C   UNL A   1      33.339  17.920  23.884  1.00  0.00     0.031 A 
ATOM     20  C   UNL A   1      34.574  18.092  24.508  1.00  0.00     0.026 A 
ATOM     21  C   UNL A   1      32.489  19.022  23.773  1.00  0.00     0.026 A 
ATOM     22  C   UNL A   1      34.987  19.359  24.932  1.00  0.00     0.011 A 
ATOM     23  C   UNL A   1      32.900  20.294  24.191  1.00  0.00     0.011 A 
BRANCH  19  24
ATOM     24  N   UNL A   1      32.909  16.655  23.512  1.00  0.00    -0.399 N 
ATOM     25  H   UNL A   1      33.141  15.874  24.065  1.00  0.00     0.156 HD
ATOM     26  H   UNL A   1      32.371  16.538  22.696  1.00  0.00     0.156 HD
ENDBRANCH  19  24
ENDBRANCH   8  18
BRANCH  17  27
ATOM     27  C   UNL A   1      31.471  23.754  23.321  1.00  0.00     0.429 C 
ATOM     28  F   UNL A   1      32.219  24.776  22.835  1.00  0.00    -0.167 F 
ATOM     29  F   UNL A   1      31.938  22.623  22.740  1.00  0.00    -0.167 F 
ATOM     30  F   UNL A   1      30.211  23.929  22.864  1.00  0.00    -0.167 F 
ENDBRANCH  17  27
ENDBRANCH   4   7
ENDBRANCH   2   3
ENDBRANCH   1   2
BRANCH   1  31
ATOM     31  C   UNL A   1      32.502  29.279  26.109  1.00  0.00     0.118 C 
BRANCH  31  32
ATOM     32  N   UNL A   1      32.212  30.679  26.409  1.00  0.00    -0.352 N 
ATOM     33  C   UNL A   1      32.921  31.597  27.149  1.00  0.00     0.251 C 
ATOM     34  H   UNL A   1      31.375  31.021  26.019  1.00  0.00     0.163 HD
ATOM     35  O   UNL A   1      32.405  32.678  27.423  1.00  0.00    -0.269 OA
BRANCH  33  36
ATOM     36  C   UNL A   1      34.277  31.270  27.636  1.00  0.00     0.039 A 
ATOM     37  C   UNL A   1      34.601  29.961  27.985  1.00  0.00     0.014 A 
ATOM     38  C   UNL A   1      35.229  32.285  27.768  1.00  0.00     0.014 A 
ATOM     39  C   UNL A   1      35.785  29.707  28.663  1.00  0.00     0.010 A 
ATOM     40  C   UNL A   1      36.474  32.000  28.341  1.00  0.00     0.010 A 
ATOM     41  C   UNL A   1      36.739  30.722  28.851  1.00  0.00    -0.014 A 
BRANCH  41  42
ATOM     42  C   UNL A   1      37.993  30.390  29.580  1.00  0.00     0.031 A 
ATOM     43  C   UNL A   1      38.210  30.838  31.000  1.00  0.00     0.074 A 
ATOM     44  C   UNL A   1      38.895  29.589  28.977  1.00  0.00     0.049 A 
ATOM     45  N   UNL A   1      39.186  30.532  31.815  1.00  0.00    -0.248 NA
ATOM     46  C   UNL A   1      37.214  31.752  31.584  1.00  0.00     0.031 C 
ATOM     47  C   UNL A   1      38.787  29.109  27.598  1.00  0.00     0.029 A 
ATOM     48  N   UNL A   1      40.038  28.992  29.448  1.00  0.00    -0.354 N 
ATOM     49  C   UNL A   1      38.938  31.228  32.994  1.00  0.00     0.074 A 
ATOM     50  C   UNL A   1      37.735  32.001  32.778  1.00  0.00     0.031 C 
ATOM     51  C   UNL A   1      39.762  28.221  27.365  1.00  0.00     0.029 A 
ATOM     52  C   UNL A   1      40.614  28.124  28.546  1.00  0.00     0.049 A 
ATOM     53  H   UNL A   1      40.410  29.167  30.342  1.00  0.00     0.167 HD
ATOM     54  C   UNL A   1      39.640  31.209  34.151  1.00  0.00     0.034 A 
ATOM     55  C   UNL A   1      41.701  27.332  28.654  1.00  0.00     0.034 A 
ATOM     56  C   UNL A   1      40.822  30.410  34.356  1.00  0.00     0.049 A 
ATOM     57  C   UNL A   1      42.448  27.311  29.961  1.00  0.00     0.074 A 
ATOM     58  C   UNL A   1      41.603  30.317  35.494  1.00  0.00     0.029 A 
ATOM     59  N   UNL A   1      41.385  29.558  33.416  1.00  0.00    -0.354 N 
ATOM     60  N   UNL A   1      42.176  27.951  31.075  1.00  0.00    -0.248 NA
ATOM     61  C   UNL A   1      43.643  26.460  30.036  1.00  0.00     0.031 C 
ATOM     62  C   UNL A   1      42.664  29.451  35.227  1.00  0.00     0.029 A 
ATOM     63  C   UNL A   1      42.507  28.946  33.946  1.00  0.00     0.049 A 
ATOM     64  H   UNL A   1      41.036  29.412  32.506  1.00  0.00     0.167 HD
ATOM     65  C   UNL A   1      43.153  27.565  31.987  1.00  0.00     0.074 A 
ATOM     66  C   UNL A   1      44.004  26.614  31.305  1.00  0.00     0.031 C 
ATOM     67  C   UNL A   1      43.333  27.974  33.268  1.00  0.00     0.034 A 
BRANCH  54  68
ATOM     68  C   UNL A   1      39.164  32.059  35.305  1.00  0.00     0.023 A 
ATOM     69  C   UNL A   1      39.632  33.380  35.444  1.00  0.00     0.031 A 
ATOM     70  C   UNL A   1      38.362  31.526  36.329  1.00  0.00     0.131 A 
ATOM     71  C   UNL A   1      39.326  34.109  36.600  1.00  0.00     0.055 A 
ATOM     72  C   UNL A   1      38.026  32.272  37.460  1.00  0.00     0.041 A 
ATOM     73  F   UNL A   1      37.890  30.272  36.243  1.00  0.00    -0.206 F 
ATOM     74  C   UNL A   1      38.520  33.566  37.605  1.00  0.00     0.022 A 
BRANCH  71  75
ATOM     75  S   UNL A   1      40.012  35.765  36.876  1.00  0.00     0.124 S 
ATOM     76  O   UNL A   1      41.435  35.477  37.042  1.00  0.00    -0.237 OA
ATOM     77  O   UNL A   1      39.655  36.453  35.639  1.00  0.00    -0.237 OA
ATOM     78  O   UNL A   1      39.330  36.233  38.078  1.00  0.00    -0.744 OA
ENDBRANCH  71  75
ENDBRANCH  54  68
BRANCH  55  79
ATOM     79  C   UNL A   1      42.083  26.462  27.503  1.00  0.00     0.023 A 
ATOM     80  C   UNL A   1      41.765  25.092  27.498  1.00  0.00     0.031 A 
ATOM     81  C   UNL A   1      42.880  26.956  26.457  1.00  0.00     0.131 A 
ATOM     82  C   UNL A   1      42.307  24.251  26.518  1.00  0.00     0.055 A 
ATOM     83  C   UNL A   1      43.352  26.129  25.435  1.00  0.00     0.041 A 
ATOM     84  F   UNL A   1      43.227  28.252  26.423  1.00  0.00    -0.206 F 
ATOM     85  C   UNL A   1      43.083  24.763  25.476  1.00  0.00     0.022 A 
BRANCH  82  86
ATOM     86  S   UNL A   1      42.160  22.448  26.662  1.00  0.00     0.124 S 
ATOM     87  O   UNL A   1      42.652  21.998  25.363  1.00  0.00    -0.237 OA
ATOM     88  O   UNL A   1      43.033  22.165  27.800  1.00  0.00    -0.237 OA
ATOM     89  O   UNL A   1      40.738  22.238  26.909  1.00  0.00    -0.744 OA
ENDBRANCH  82  86
ENDBRANCH  55  79
BRANCH  67  90
ATOM     90  C   UNL A   1      44.482  27.394  34.056  1.00  0.00     0.023 A 
ATOM     91  C   UNL A   1      44.308  26.186  34.759  1.00  0.00     0.031 A 
ATOM     92  C   UNL A   1      45.680  28.105  34.240  1.00  0.00     0.131 A 
ATOM     93  C   UNL A   1      45.299  25.746  35.644  1.00  0.00     0.055 A 
ATOM     94  C   UNL A   1      46.685  27.638  35.087  1.00  0.00     0.041 A 
ATOM     95  F   UNL A   1      45.886  29.268  33.602  1.00  0.00    -0.206 F 
ATOM     96  C   UNL A   1      46.490  26.461  35.806  1.00  0.00     0.022 A 
BRANCH  93  97
ATOM     97  S   UNL A   1      45.039  24.286  36.687  1.00  0.00     0.124 S 
ATOM     98  O   UNL A   1      44.108  23.502  35.879  1.00  0.00    -0.237 OA
ATOM     99  O   UNL A   1      46.389  23.736  36.792  1.00  0.00    -0.237 OA
ATOM    100  O   UNL A   1      44.486  24.828  37.924  1.00  0.00    -0.744 OA
ENDBRANCH  93  97
ENDBRANCH  67  90
ENDBRANCH  41  42
ENDBRANCH  33  36
ENDBRANCH  31  32
ENDBRANCH   1  31
TORSDOF 16
ENDMDL
MODEL 2
REMARK VINA RESULT:     -13.6      4.727     10.051
REMARK SMILES Nc1ccc(-c2cc(Cl)cc3c2O[C@H](C(F)(F)F)C(C(=O)NCCCNC(=O)c2ccc(-c4c5nc(c(-c6cc(S(=O)(=O)[O-])ccc6F)c6ccc([nH]6)c(-c6cc(S(=O)(=O)[O-])ccc6F)c6nc(c(-c7cc(S(=O)(=O)[O-])ccc7F)c7ccc4[nH]7)C=C6)C=C5)cc2)=C3)cc1
REMARK SMILES IDX 24 1 23 2 22 3 20 4 21 5 19 7 6 8 7 9 12 10 8 11 11 12 13 13
REMARK SMILES IDX 9 14 10 15 92 16 14 17 5 18 2 19 3 20 94 21 4 22 93 23 1 24
REMARK SMILES IDX 15 27 16 28 17 29 18 30 25 31 26 32 27 33 28 35 29 36 30 37
REMARK SMILES IDX 91 38 31 39 90 40 32 41 33 42 34 43 84 44 35 45 89 46 83 47
REMARK SMILES IDX 85 48 36 49 88 50 82 51 81 52 37 54 69 55 49 56 68 57 50 58
REMARK SMILES IDX 53 59 67 60 86 61 51 62 52 63 66 65 87 66 54 67 38 68 39 69
REMARK SMILES IDX 47 70 40 71 46 72 48 73 45 74 41 75 42 76 43 77 44 78 70 79
REMARK SMILES IDX 71 80 79 81 72 82 78 83 80 84 77 85 73 86 74 87 75 88 76 89
REMARK SMILES IDX 55 90 56 91 64 92 57 93 63 94 65 95 62 96 58 97 59 98 60 99
REMARK SMILES IDX 61 100
REMARK H PARENT 22 6 1 25 1 26 26 34 85 53 53 64
REMARK Flexibility Score: inf
ROOT
ATOM      1  C   UNL A   1      34.760  21.924  26.414  1.00  0.00     0.042 C 
ENDROOT
BRANCH   1   2
ATOM      2  C   UNL A   1      33.710  21.770  25.324  1.00  0.00     0.118 C 
BRANCH   2   3
ATOM      3  N   UNL A   1      34.222  22.114  24.006  1.00  0.00    -0.352 N 
ATOM      4  C   UNL A   1      34.206  23.193  23.189  1.00  0.00     0.251 C 
ATOM      5  O   UNL A   1      34.827  23.063  22.129  1.00  0.00    -0.270 OA
ATOM      6  H   UNL A   1      34.709  21.361  23.600  1.00  0.00     0.163 HD
BRANCH   4   7
ATOM      7  C   UNL A   1      33.516  24.482  23.483  1.00  0.00     0.067 C 
ATOM      8  C   UNL A   1      31.767  28.236  24.234  1.00  0.00     0.026 A 
ATOM      9  C   UNL A   1      32.184  28.958  25.362  1.00  0.00     0.033 A 
ATOM     10  C   UNL A   1      32.424  27.025  23.946  1.00  0.00     0.135 A 
ATOM     11  C   UNL A   1      33.219  28.477  26.166  1.00  0.00     0.042 A 
ATOM     12  C   UNL A   1      33.456  26.535  24.757  1.00  0.00     0.019 A 
ATOM     13  O   UNL A   1      32.057  26.358  22.805  1.00  0.00    -0.475 OA
ATOM     14  Cl  UNL A   1      33.709  29.380  27.549  1.00  0.00    -0.084 Cl
ATOM     15  C   UNL A   1      33.857  27.272  25.871  1.00  0.00     0.032 A 
ATOM     16  C   UNL A   1      34.100  25.272  24.404  1.00  0.00     0.025 C 
ATOM     17  C   UNL A   1      32.236  24.920  22.834  1.00  0.00     0.314 C 
BRANCH   8  18
ATOM     18  C   UNL A   1      30.659  28.719  23.394  1.00  0.00    -0.014 A 
ATOM     19  C   UNL A   1      28.518  29.805  21.889  1.00  0.00     0.031 A 
ATOM     20  C   UNL A   1      29.836  30.168  21.613  1.00  0.00     0.026 A 
ATOM     21  C   UNL A   1      28.286  28.836  22.868  1.00  0.00     0.026 A 
ATOM     22  C   UNL A   1      30.892  29.640  22.361  1.00  0.00     0.011 A 
ATOM     23  C   UNL A   1      29.340  28.308  23.623  1.00  0.00     0.011 A 
BRANCH  19  24
ATOM     24  N   UNL A   1      27.476  30.289  21.112  1.00  0.00    -0.399 N 
ATOM     25  H   UNL A   1      26.748  30.802  21.532  1.00  0.00     0.156 HD
ATOM     26  H   UNL A   1      27.465  30.121  20.143  1.00  0.00     0.156 HD
ENDBRANCH  19  24
ENDBRANCH   8  18
BRANCH  17  27
ATOM     27  C   UNL A   1      30.990  24.258  23.455  1.00  0.00     0.429 C 
ATOM     28  F   UNL A   1      31.164  24.064  24.786  1.00  0.00    -0.167 F 
ATOM     29  F   UNL A   1      29.874  25.013  23.317  1.00  0.00    -0.167 F 
ATOM     30  F   UNL A   1      30.708  23.052  22.910  1.00  0.00    -0.167 F 
ENDBRANCH  17  27
ENDBRANCH   4   7
ENDBRANCH   2   3
ENDBRANCH   1   2
BRANCH   1  31
ATOM     31  C   UNL A   1      36.077  22.475  25.888  1.00  0.00     0.118 C 
BRANCH  31  32
ATOM     32  N   UNL A   1      37.070  21.428  25.654  1.00  0.00    -0.352 N 
ATOM     33  C   UNL A   1      38.435  21.442  25.822  1.00  0.00     0.251 C 
ATOM     34  H   UNL A   1      36.703  20.577  25.323  1.00  0.00     0.163 HD
ATOM     35  O   UNL A   1      39.104  20.504  25.395  1.00  0.00    -0.269 OA
BRANCH  33  36
ATOM     36  C   UNL A   1      39.091  22.591  26.481  1.00  0.00     0.039 A 
ATOM     37  C   UNL A   1      38.641  23.888  26.243  1.00  0.00     0.014 A 
ATOM     38  C   UNL A   1      40.182  22.374  27.327  1.00  0.00     0.014 A 
ATOM     39  C   UNL A   1      39.404  24.965  26.668  1.00  0.00     0.010 A 
ATOM     40  C   UNL A   1      40.879  23.466  27.857  1.00  0.00     0.010 A 
ATOM     41  C   UNL A   1      40.534  24.771  27.481  1.00  0.00    -0.014 A 
BRANCH  41  42
ATOM     42  C   UNL A   1      41.312  25.965  27.912  1.00  0.00     0.031 A 
ATOM     43  C   UNL A   1      42.721  26.189  27.434  1.00  0.00     0.074 A 
ATOM     44  C   UNL A   1      40.693  26.901  28.660  1.00  0.00     0.049 A 
ATOM     45  N   UNL A   1      43.490  27.232  27.615  1.00  0.00    -0.248 NA
ATOM     46  C   UNL A   1      43.358  25.109  26.663  1.00  0.00     0.031 C 
ATOM     47  C   UNL A   1      39.332  26.775  29.187  1.00  0.00     0.029 A 
ATOM     48  N   UNL A   1      41.089  28.152  29.061  1.00  0.00    -0.354 N 
ATOM     49  C   UNL A   1      44.702  26.928  27.004  1.00  0.00     0.074 A 
ATOM     50  C   UNL A   1      44.580  25.588  26.475  1.00  0.00     0.031 C 
ATOM     51  C   UNL A   1      38.973  27.933  29.754  1.00  0.00     0.029 A 
ATOM     52  C   UNL A   1      40.099  28.859  29.707  1.00  0.00     0.049 A 
ATOM     53  H   UNL A   1      41.992  28.509  28.903  1.00  0.00     0.167 HD
ATOM     54  C   UNL A   1      45.806  27.703  26.883  1.00  0.00     0.034 A 
ATOM     55  C   UNL A   1      40.092  30.114  30.203  1.00  0.00     0.034 A 
ATOM     56  C   UNL A   1      45.899  29.048  27.394  1.00  0.00     0.049 A 
ATOM     57  C   UNL A   1      41.323  30.963  30.031  1.00  0.00     0.074 A 
ATOM     58  C   UNL A   1      46.972  29.918  27.318  1.00  0.00     0.029 A 
ATOM     59  N   UNL A   1      44.884  29.724  28.057  1.00  0.00    -0.354 N 
ATOM     60  N   UNL A   1      42.447  30.668  29.420  1.00  0.00    -0.248 NA
ATOM     61  C   UNL A   1      41.291  32.314  30.607  1.00  0.00     0.031 C 
ATOM     62  C   UNL A   1      46.626  31.098  27.978  1.00  0.00     0.029 A 
ATOM     63  C   UNL A   1      45.311  30.994  28.403  1.00  0.00     0.049 A 
ATOM     64  H   UNL A   1      43.992  29.353  28.252  1.00  0.00     0.167 HD
ATOM     65  C   UNL A   1      43.247  31.801  29.520  1.00  0.00     0.074 A 
ATOM     66  C   UNL A   1      42.467  32.798  30.224  1.00  0.00     0.031 C 
ATOM     67  C   UNL A   1      44.516  31.992  29.080  1.00  0.00     0.034 A 
BRANCH  54  68
ATOM     68  C   UNL A   1      47.012  27.145  26.166  1.00  0.00     0.023 A 
ATOM     69  C   UNL A   1      48.003  26.455  26.890  1.00  0.00     0.031 A 
ATOM     70  C   UNL A   1      47.245  27.408  24.805  1.00  0.00     0.131 A 
ATOM     71  C   UNL A   1      49.198  26.086  26.258  1.00  0.00     0.055 A 
ATOM     72  C   UNL A   1      48.420  27.001  24.169  1.00  0.00     0.041 A 
ATOM     73  F   UNL A   1      46.330  28.061  24.070  1.00  0.00    -0.206 F 
ATOM     74  C   UNL A   1      49.408  26.349  24.901  1.00  0.00     0.022 A 
BRANCH  71  75
ATOM     75  S   UNL A   1      50.550  25.309  27.185  1.00  0.00     0.124 S 
ATOM     76  O   UNL A   1      50.964  26.391  28.075  1.00  0.00    -0.237 OA
ATOM     77  O   UNL A   1      49.871  24.191  27.834  1.00  0.00    -0.237 OA
ATOM     78  O   UNL A   1      51.519  24.948  26.156  1.00  0.00    -0.744 OA
ENDBRANCH  71  75
ENDBRANCH  54  68
BRANCH  55  79
ATOM     79  C   UNL A   1      38.847  30.636  30.841  1.00  0.00     0.023 A 
ATOM     80  C   UNL A   1      37.911  31.377  30.097  1.00  0.00     0.031 A 
ATOM     81  C   UNL A   1      38.637  30.512  32.225  1.00  0.00     0.131 A 
ATOM     82  C   UNL A   1      36.860  32.033  30.750  1.00  0.00     0.055 A 
ATOM     83  C   UNL A   1      37.541  31.099  32.860  1.00  0.00     0.041 A 
ATOM     84  F   UNL A   1      39.508  29.829  32.983  1.00  0.00    -0.206 F 
ATOM     85  C   UNL A   1      36.658  31.884  32.124  1.00  0.00     0.022 A 
BRANCH  82  86
ATOM     86  S   UNL A   1      35.825  33.232  29.863  1.00  0.00     0.124 S 
ATOM     87  O   UNL A   1      36.798  33.896  29.002  1.00  0.00    -0.237 OA
ATOM     88  O   UNL A   1      34.870  32.359  29.182  1.00  0.00    -0.237 OA
ATOM     89  O   UNL A   1      35.259  34.052  30.930  1.00  0.00    -0.744 OA
ENDBRANCH  82  86
ENDBRANCH  55  79
BRANCH  67  90
ATOM     90  C   UNL A   1      45.168  33.333  29.313  1.00  0.00     0.023 A 
ATOM     91  C   UNL A   1      45.106  34.324  28.314  1.00  0.00     0.031 A 
ATOM     92  C   UNL A   1      45.974  33.572  30.439  1.00  0.00     0.131 A 
ATOM     93  C   UNL A   1      45.868  35.491  28.442  1.00  0.00     0.055 A 
ATOM     94  C   UNL A   1      46.694  34.757  30.584  1.00  0.00     0.041 A 
ATOM     95  F   UNL A   1      46.076  32.651  31.411  1.00  0.00    -0.206 F 
ATOM     96  C   UNL A   1      46.656  35.716  29.575  1.00  0.00     0.022 A 
BRANCH  93  97
ATOM     97  S   UNL A   1      45.941  36.711  27.102  1.00  0.00     0.124 S 
ATOM     98  O   UNL A   1      44.562  37.194  27.060  1.00  0.00    -0.237 OA
ATOM     99  O   UNL A   1      46.921  37.668  27.609  1.00  0.00    -0.237 OA
ATOM    100  O   UNL A   1      46.364  35.936  25.941  1.00  0.00    -0.744 OA
ENDBRANCH  93  97
ENDBRANCH  67  90
ENDBRANCH  41  42
ENDBRANCH  33  36
ENDBRANCH  31  32
ENDBRANCH   1  31
TORSDOF 16
ENDMDL
MODEL 3
REMARK VINA RESULT:     -13.6      2.867      3.732
REMARK SMILES Nc1ccc(-c2cc(Cl)cc3c2O[C@H](C(F)(F)F)C(C(=O)NCCCNC(=O)c2ccc(-c4c5nc(c(-c6cc(S(=O)(=O)[O-])ccc6F)c6ccc([nH]6)c(-c6cc(S(=O)(=O)[O-])ccc6F)c6nc(c(-c7cc(S(=O)(=O)[O-])ccc7F)c7ccc4[nH]7)C=C6)C=C5)cc2)=C3)cc1
REMARK SMILES IDX 24 1 23 2 22 3 20 4 21 5 19 7 6 8 7 9 12 10 8 11 11 12 13 13
REMARK SMILES IDX 9 14 10 15 92 16 14 17 5 18 2 19 3 20 94 21 4 22 93 23 1 24
REMARK SMILES IDX 15 27 16 28 17 29 18 30 25 31 26 32 27 33 28 35 29 36 30 37
REMARK SMILES IDX 91 38 31 39 90 40 32 41 33 42 34 43 84 44 35 45 89 46 83 47
REMARK SMILES IDX 85 48 36 49 88 50 82 51 81 52 37 54 69 55 49 56 68 57 50 58
REMARK SMILES IDX 53 59 67 60 86 61 51 62 52 63 66 65 87 66 54 67 38 68 39 69
REMARK SMILES IDX 47 70 40 71 46 72 48 73 45 74 41 75 42 76 43 77 44 78 70 79
REMARK SMILES IDX 71 80 79 81 72 82 78 83 80 84 77 85 73 86 74 87 75 88 76 89
REMARK SMILES IDX 55 90 56 91 64 92 57 93 63 94 65 95 62 96 58 97 59 98 60 99
REMARK SMILES IDX 61 100
REMARK H PARENT 22 6 1 25 1 26 26 34 85 53 53 64
REMARK Flexibility Score: inf
ROOT
ATOM      1  C   UNL A   1      31.391  32.167  26.689  1.00  0.00     0.042 C 
ENDROOT
BRANCH   1   2
ATOM      2  C   UNL A   1      31.582  30.692  26.368  1.00  0.00     0.118 C 
BRANCH   2   3
ATOM      3  N   UNL A   1      31.174  30.361  25.012  1.00  0.00    -0.352 N 
ATOM      4  C   UNL A   1      31.098  29.249  24.244  1.00  0.00     0.251 C 
ATOM      5  O   UNL A   1      30.635  29.417  23.112  1.00  0.00    -0.270 OA
ATOM      6  H   UNL A   1      30.874  31.160  24.520  1.00  0.00     0.163 HD
BRANCH   4   7
ATOM      7  C   UNL A   1      31.518  27.882  24.670  1.00  0.00     0.067 C 
ATOM      8  C   UNL A   1      32.567  23.936  25.692  1.00  0.00     0.026 A 
ATOM      9  C   UNL A   1      31.625  23.143  26.363  1.00  0.00     0.033 A 
ATOM     10  C   UNL A   1      32.171  25.223  25.277  1.00  0.00     0.135 A 
ATOM     11  C   UNL A   1      30.339  23.628  26.608  1.00  0.00     0.042 A 
ATOM     12  C   UNL A   1      30.884  25.714  25.530  1.00  0.00     0.019 A 
ATOM     13  O   UNL A   1      33.075  25.967  24.562  1.00  0.00    -0.475 OA
ATOM     14  Cl  UNL A   1      29.202  22.636  27.439  1.00  0.00    -0.084 Cl
ATOM     15  C   UNL A   1      29.963  24.906  26.196  1.00  0.00     0.032 A 
ATOM     16  C   UNL A   1      30.533  27.056  25.073  1.00  0.00     0.025 C 
ATOM     17  C   UNL A   1      32.940  27.405  24.686  1.00  0.00     0.314 C 
BRANCH   8  18
ATOM     18  C   UNL A   1      33.935  23.448  25.452  1.00  0.00    -0.014 A 
ATOM     19  C   UNL A   1      36.609  22.681  24.917  1.00  0.00     0.031 A 
ATOM     20  C   UNL A   1      36.286  23.355  26.095  1.00  0.00     0.026 A 
ATOM     21  C   UNL A   1      35.575  22.324  24.050  1.00  0.00     0.026 A 
ATOM     22  C   UNL A   1      34.969  23.742  26.356  1.00  0.00     0.011 A 
ATOM     23  C   UNL A   1      34.254  22.714  24.304  1.00  0.00     0.011 A 
BRANCH  19  24
ATOM     24  N   UNL A   1      37.907  22.252  24.684  1.00  0.00    -0.399 N 
ATOM     25  H   UNL A   1      38.369  21.696  25.353  1.00  0.00     0.156 HD
ATOM     26  H   UNL A   1      38.367  22.503  23.851  1.00  0.00     0.156 HD
ENDBRANCH  19  24
ENDBRANCH   8  18
BRANCH  17  27
ATOM     27  C   UNL A   1      33.725  27.892  25.920  1.00  0.00     0.429 C 
ATOM     28  F   UNL A   1      34.776  27.073  26.173  1.00  0.00    -0.167 F 
ATOM     29  F   UNL A   1      34.236  29.136  25.755  1.00  0.00    -0.167 F 
ATOM     30  F   UNL A   1      32.970  27.932  27.042  1.00  0.00    -0.167 F 
ENDBRANCH  17  27
ENDBRANCH   4   7
ENDBRANCH   2   3
ENDBRANCH   1   2
BRANCH   1  31
ATOM     31  C   UNL A   1      32.698  32.866  27.037  1.00  0.00     0.118 C 
BRANCH  31  32
ATOM     32  N   UNL A   1      32.495  34.052  27.866  1.00  0.00    -0.352 N 
ATOM     33  C   UNL A   1      33.192  34.501  28.963  1.00  0.00     0.251 C 
ATOM     34  H   UNL A   1      31.738  34.621  27.595  1.00  0.00     0.163 HD
ATOM     35  O   UNL A   1      32.742  35.436  29.622  1.00  0.00    -0.269 OA
BRANCH  33  36
ATOM     36  C   UNL A   1      34.453  33.842  29.363  1.00  0.00     0.039 A 
ATOM     37  C   UNL A   1      34.436  32.786  30.270  1.00  0.00     0.014 A 
ATOM     38  C   UNL A   1      35.668  34.299  28.845  1.00  0.00     0.014 A 
ATOM     39  C   UNL A   1      35.628  32.337  30.820  1.00  0.00     0.010 A 
ATOM     40  C   UNL A   1      36.871  33.758  29.312  1.00  0.00     0.010 A 
ATOM     41  C   UNL A   1      36.863  32.815  30.350  1.00  0.00    -0.014 A 
BRANCH  41  42
ATOM     42  C   UNL A   1      38.110  32.294  30.973  1.00  0.00     0.031 A 
ATOM     43  C   UNL A   1      38.582  32.799  32.310  1.00  0.00     0.074 A 
ATOM     44  C   UNL A   1      38.759  31.281  30.364  1.00  0.00     0.049 A 
ATOM     45  N   UNL A   1      39.574  32.366  33.044  1.00  0.00    -0.248 NA
ATOM     46  C   UNL A   1      37.861  33.939  32.899  1.00  0.00     0.031 C 
ATOM     47  C   UNL A   1      38.392  30.726  29.059  1.00  0.00     0.029 A 
ATOM     48  N   UNL A   1      39.814  30.503  30.769  1.00  0.00    -0.354 N 
ATOM     49  C   UNL A   1      39.611  33.187  34.166  1.00  0.00     0.074 A 
ATOM     50  C   UNL A   1      38.563  34.170  34.000  1.00  0.00     0.031 C 
ATOM     51  C   UNL A   1      39.140  29.643  28.816  1.00  0.00     0.029 A 
ATOM     52  C   UNL A   1      40.096  29.468  29.905  1.00  0.00     0.049 A 
ATOM     53  H   UNL A   1      40.320  30.669  31.597  1.00  0.00     0.167 HD
ATOM     54  C   UNL A   1      40.433  33.117  35.239  1.00  0.00     0.034 A 
ATOM     55  C   UNL A   1      41.015  28.483  29.978  1.00  0.00     0.034 A 
ATOM     56  C   UNL A   1      41.456  32.113  35.398  1.00  0.00     0.049 A 
ATOM     57  C   UNL A   1      41.899  28.413  31.195  1.00  0.00     0.074 A 
ATOM     58  C   UNL A   1      42.338  31.953  36.452  1.00  0.00     0.029 A 
ATOM     59  N   UNL A   1      41.723  31.093  34.496  1.00  0.00    -0.354 N 
ATOM     60  N   UNL A   1      41.895  29.180  32.260  1.00  0.00    -0.248 NA
ATOM     61  C   UNL A   1      42.908  27.345  31.229  1.00  0.00     0.031 C 
ATOM     62  C   UNL A   1      43.171  30.871  36.164  1.00  0.00     0.029 A 
ATOM     63  C   UNL A   1      42.763  30.309  34.965  1.00  0.00     0.049 A 
ATOM     64  H   UNL A   1      41.244  30.950  33.647  1.00  0.00     0.167 HD
ATOM     65  C   UNL A   1      42.884  28.677  33.099  1.00  0.00     0.074 A 
ATOM     66  C   UNL A   1      43.445  27.521  32.431  1.00  0.00     0.031 C 
ATOM     67  C   UNL A   1      43.296  29.140  34.306  1.00  0.00     0.034 A 
BRANCH  54  68
ATOM     68  C   UNL A   1      40.277  34.134  36.344  1.00  0.00     0.023 A 
ATOM     69  C   UNL A   1      39.747  33.744  37.589  1.00  0.00     0.031 A 
ATOM     70  C   UNL A   1      40.523  35.501  36.126  1.00  0.00     0.131 A 
ATOM     71  C   UNL A   1      39.445  34.714  38.553  1.00  0.00     0.055 A 
ATOM     72  C   UNL A   1      40.259  36.460  37.106  1.00  0.00     0.041 A 
ATOM     73  F   UNL A   1      41.029  35.924  34.956  1.00  0.00    -0.206 F 
ATOM     74  C   UNL A   1      39.704  36.068  38.321  1.00  0.00     0.022 A 
BRANCH  71  75
ATOM     75  S   UNL A   1      38.645  34.266  40.118  1.00  0.00     0.124 S 
ATOM     76  O   UNL A   1      37.472  33.527  39.656  1.00  0.00    -0.237 OA
ATOM     77  O   UNL A   1      39.675  33.460  40.767  1.00  0.00    -0.237 OA
ATOM     78  O   UNL A   1      38.360  35.551  40.747  1.00  0.00    -0.744 OA
ENDBRANCH  71  75
ENDBRANCH  54  68
BRANCH  55  79
ATOM     79  C   UNL A   1      41.078  27.465  28.888  1.00  0.00     0.023 A 
ATOM     80  C   UNL A   1      42.049  27.553  27.874  1.00  0.00     0.031 A 
ATOM     81  C   UNL A   1      40.094  26.468  28.771  1.00  0.00     0.131 A 
ATOM     82  C   UNL A   1      41.967  26.719  26.752  1.00  0.00     0.055 A 
ATOM     83  C   UNL A   1      40.064  25.585  27.691  1.00  0.00     0.041 A 
ATOM     84  F   UNL A   1      39.135  26.352  29.702  1.00  0.00    -0.206 F 
ATOM     85  C   UNL A   1      40.992  25.723  26.662  1.00  0.00     0.022 A 
BRANCH  82  86
ATOM     86  S   UNL A   1      43.018  27.014  25.302  1.00  0.00     0.124 S 
ATOM     87  O   UNL A   1      42.948  25.730  24.610  1.00  0.00    -0.237 OA
ATOM     88  O   UNL A   1      42.324  28.122  24.648  1.00  0.00    -0.237 OA
ATOM     89  O   UNL A   1      44.314  27.353  25.880  1.00  0.00    -0.744 OA
ENDBRANCH  82  86
ENDBRANCH  55  79
BRANCH  67  90
ATOM     90  C   UNL A   1      44.400  28.402  35.024  1.00  0.00     0.023 A 
ATOM     91  C   UNL A   1      44.077  27.446  36.007  1.00  0.00     0.031 A 
ATOM     92  C   UNL A   1      45.750  28.752  34.853  1.00  0.00     0.131 A 
ATOM     93  C   UNL A   1      45.088  26.903  36.809  1.00  0.00     0.055 A 
ATOM     94  C   UNL A   1      46.758  28.173  35.623  1.00  0.00     0.041 A 
ATOM     95  F   UNL A   1      46.105  29.668  33.938  1.00  0.00    -0.206 F 
ATOM     96  C   UNL A   1      46.427  27.256  36.617  1.00  0.00     0.022 A 
BRANCH  93  97
ATOM     97  S   UNL A   1      44.691  25.798  38.190  1.00  0.00     0.124 S 
ATOM     98  O   UNL A   1      43.496  26.429  38.747  1.00  0.00    -0.237 OA
ATOM     99  O   UNL A   1      44.464  24.524  37.511  1.00  0.00    -0.237 OA
ATOM    100  O   UNL A   1      45.876  25.852  39.039  1.00  0.00    -0.744 OA
ENDBRANCH  93  97
ENDBRANCH  67  90
ENDBRANCH  41  42
ENDBRANCH  33  36
ENDBRANCH  31  32
ENDBRANCH   1  31
TORSDOF 16
ENDMDL
