MODEL 1
REMARK VINA RESULT:     -11.4      0.000      0.000
REMARK SMILES CCc1cc([C@H]([NH3+])C(=O)NCCCNC(=O)c2ccc(-c3c4nc(c(-c5cc(S(=O)(=O)[O-])ccc5F)c5ccc([nH]5)c(-c5cc(S(=O)(=O)[O-])ccc5F)c5nc(c(-c6cc(S(=O)(=O)[O-])ccc6F)c6ccc3[nH]6)C=C5)C=C4)cc2)cc(CC)c1N
REMARK SMILES IDX 12 1 11 2 10 3 8 4 9 5 6 7 5 8 3 9 4 10 84 11 81 12 80 13
REMARK SMILES IDX 2 14 1 15 85 16 82 19 83 20 7 21 13 25 14 26 15 27 16 29
REMARK SMILES IDX 17 30 18 31 79 32 19 33 78 34 20 35 21 36 22 37 72 38 23 39
REMARK SMILES IDX 77 40 71 41 73 42 24 43 76 44 70 45 69 46 25 48 57 49 37 50
REMARK SMILES IDX 56 51 38 52 41 53 55 54 74 55 39 56 40 57 54 59 75 60 42 61
REMARK SMILES IDX 26 62 27 63 35 64 28 65 34 66 36 67 33 68 29 69 30 70 31 71
REMARK SMILES IDX 32 72 58 73 59 74 67 75 60 76 66 77 68 78 65 79 61 80 62 81
REMARK SMILES IDX 63 82 64 83 43 84 44 85 52 86 45 87 51 88 53 89 50 90 46 91
REMARK SMILES IDX 47 92 48 93 49 94
REMARK H PARENT 10 6 85 17 85 18 7 22 7 23 7 24 14 28 73 47 41 58
REMARK Flexibility Score: inf
ROOT
ATOM      1  C   UNL A   1      32.326  28.117  24.794  1.00  0.00     0.042 C 
ENDROOT
BRANCH   1   2
ATOM      2  C   UNL A   1      33.077  26.803  24.673  1.00  0.00     0.118 C 
BRANCH   2   3
ATOM      3  N   UNL A   1      33.291  26.405  23.292  1.00  0.00    -0.351 N 
ATOM      4  C   UNL A   1      33.014  25.211  22.686  1.00  0.00     0.283 C 
ATOM      5  O   UNL A   1      33.270  25.100  21.482  1.00  0.00    -0.268 OA
ATOM      6  H   UNL A   1      33.693  27.091  22.711  1.00  0.00     0.163 HD
BRANCH   4   7
ATOM      7  C   UNL A   1      32.416  24.018  23.484  1.00  0.00     0.302 C 
BRANCH   7   8
ATOM      8  C   UNL A   1      33.473  22.981  23.845  1.00  0.00     0.020 A 
ATOM      9  C   UNL A   1      35.739  22.379  24.583  1.00  0.00    -0.024 A 
ATOM     10  C   UNL A   1      34.816  23.311  24.074  1.00  0.00     0.016 A 
ATOM     11  C   UNL A   1      35.317  21.044  24.813  1.00  0.00     0.038 A 
ATOM     12  C   UNL A   1      33.986  20.676  24.509  1.00  0.00    -0.024 A 
ATOM     13  C   UNL A   1      33.088  21.651  24.034  1.00  0.00     0.016 A 
BRANCH   9  14
ATOM     14  C   UNL A   1      37.163  22.812  24.899  1.00  0.00     0.034 C 
ATOM     15  C   UNL A   1      37.369  23.704  26.123  1.00  0.00     0.009 C 
ENDBRANCH   9  14
BRANCH  11  16
ATOM     16  N   UNL A   1      36.238  20.080  25.224  1.00  0.00    -0.398 N 
ATOM     17  H   UNL A   1      36.755  19.575  24.554  1.00  0.00     0.156 HD
ATOM     18  H   UNL A   1      36.373  19.904  26.184  1.00  0.00     0.156 HD
ENDBRANCH  11  16
BRANCH  12  19
ATOM     19  C   UNL A   1      33.434  19.278  24.702  1.00  0.00     0.034 C 
ATOM     20  C   UNL A   1      32.528  18.848  23.553  1.00  0.00     0.009 C 
ENDBRANCH  12  19
ENDBRANCH   7   8
BRANCH   7  21
ATOM     21  N   UNL A   1      31.246  23.487  22.750  1.00  0.00    -0.343 N 
ATOM     22  H   UNL A   1      30.431  23.486  23.365  1.00  0.00     0.345 HD
ATOM     23  H   UNL A   1      31.441  22.535  22.443  1.00  0.00     0.345 HD
ATOM     24  H   UNL A   1      31.058  24.075  21.938  1.00  0.00     0.345 HD
ENDBRANCH   7  21
ENDBRANCH   4   7
ENDBRANCH   2   3
ENDBRANCH   1   2
BRANCH   1  25
ATOM     25  C   UNL A   1      33.234  29.330  24.927  1.00  0.00     0.118 C 
BRANCH  25  26
ATOM     26  N   UNL A   1      32.583  30.452  25.592  1.00  0.00    -0.352 N 
ATOM     27  C   UNL A   1      32.911  31.095  26.760  1.00  0.00     0.251 C 
ATOM     28  H   UNL A   1      31.786  30.803  25.133  1.00  0.00     0.163 HD
ATOM     29  O   UNL A   1      32.122  31.899  27.250  1.00  0.00    -0.269 OA
BRANCH  27  30
ATOM     30  C   UNL A   1      34.192  30.797  27.435  1.00  0.00     0.039 A 
ATOM     31  C   UNL A   1      35.072  31.845  27.719  1.00  0.00     0.014 A 
ATOM     32  C   UNL A   1      34.524  29.489  27.795  1.00  0.00     0.014 A 
ATOM     33  C   UNL A   1      36.245  31.590  28.434  1.00  0.00     0.010 A 
ATOM     34  C   UNL A   1      35.642  29.251  28.587  1.00  0.00     0.010 A 
ATOM     35  C   UNL A   1      36.518  30.298  28.911  1.00  0.00    -0.014 A 
BRANCH  35  36
ATOM     36  C   UNL A   1      37.720  30.006  29.736  1.00  0.00     0.031 A 
ATOM     37  C   UNL A   1      38.795  29.101  29.198  1.00  0.00     0.074 A 
ATOM     38  C   UNL A   1      37.809  30.491  30.991  1.00  0.00     0.049 A 
ATOM     39  N   UNL A   1      39.857  28.629  29.795  1.00  0.00    -0.248 NA
ATOM     40  C   UNL A   1      38.629  28.644  27.810  1.00  0.00     0.031 C 
ATOM     41  C   UNL A   1      36.820  31.359  31.635  1.00  0.00     0.029 A 
ATOM     42  N   UNL A   1      38.772  30.317  31.953  1.00  0.00    -0.354 N 
ATOM     43  C   UNL A   1      40.482  27.807  28.862  1.00  0.00     0.074 A 
ATOM     44  C   UNL A   1      39.634  27.789  27.689  1.00  0.00     0.031 C 
ATOM     45  C   UNL A   1      37.244  31.666  32.871  1.00  0.00     0.029 A 
ATOM     46  C   UNL A   1      38.501  30.973  33.132  1.00  0.00     0.049 A 
ATOM     47  H   UNL A   1      39.580  29.774  31.813  1.00  0.00     0.167 HD
ATOM     48  C   UNL A   1      41.665  27.152  28.962  1.00  0.00     0.034 A 
ATOM     49  C   UNL A   1      39.181  31.000  34.296  1.00  0.00     0.034 A 
ATOM     50  C   UNL A   1      42.499  27.184  30.139  1.00  0.00     0.049 A 
ATOM     51  C   UNL A   1      40.464  30.212  34.409  1.00  0.00     0.074 A 
ATOM     52  C   UNL A   1      43.730  26.586  30.340  1.00  0.00     0.029 A 
ATOM     53  N   UNL A   1      42.182  27.843  31.321  1.00  0.00    -0.354 N 
ATOM     54  N   UNL A   1      41.057  29.463  33.507  1.00  0.00    -0.248 NA
ATOM     55  C   UNL A   1      41.170  30.278  35.695  1.00  0.00     0.031 C 
ATOM     56  C   UNL A   1      44.122  26.821  31.663  1.00  0.00     0.029 A 
ATOM     57  C   UNL A   1      43.179  27.639  32.263  1.00  0.00     0.049 A 
ATOM     58  H   UNL A   1      41.367  28.377  31.467  1.00  0.00     0.167 HD
ATOM     59  C   UNL A   1      42.227  29.004  34.106  1.00  0.00     0.074 A 
ATOM     60  C   UNL A   1      42.257  29.564  35.441  1.00  0.00     0.031 C 
ATOM     61  C   UNL A   1      43.195  28.201  33.594  1.00  0.00     0.034 A 
BRANCH  48  62
ATOM     62  C   UNL A   1      42.102  26.329  27.771  1.00  0.00     0.023 A 
ATOM     63  C   UNL A   1      41.696  24.992  27.611  1.00  0.00     0.031 A 
ATOM     64  C   UNL A   1      42.974  26.868  26.809  1.00  0.00     0.131 A 
ATOM     65  C   UNL A   1      42.235  24.214  26.576  1.00  0.00     0.055 A 
ATOM     66  C   UNL A   1      43.430  26.115  25.725  1.00  0.00     0.041 A 
ATOM     67  F   UNL A   1      43.416  28.132  26.916  1.00  0.00    -0.206 F 
ATOM     68  C   UNL A   1      43.078  24.773  25.614  1.00  0.00     0.022 A 
BRANCH  65  69
ATOM     69  S   UNL A   1      41.959  22.421  26.612  1.00  0.00     0.124 S 
ATOM     70  O   UNL A   1      42.655  22.042  27.840  1.00  0.00    -0.237 OA
ATOM     71  O   UNL A   1      40.504  22.327  26.647  1.00  0.00    -0.237 OA
ATOM     72  O   UNL A   1      42.587  21.953  25.379  1.00  0.00    -0.744 OA
ENDBRANCH  65  69
ENDBRANCH  48  62
BRANCH  49  73
ATOM     73  C   UNL A   1      38.673  31.793  35.451  1.00  0.00     0.023 A 
ATOM     74  C   UNL A   1      38.163  31.153  36.592  1.00  0.00     0.031 A 
ATOM     75  C   UNL A   1      38.650  33.199  35.419  1.00  0.00     0.131 A 
ATOM     76  C   UNL A   1      37.609  31.913  37.633  1.00  0.00     0.055 A 
ATOM     77  C   UNL A   1      38.149  33.953  36.482  1.00  0.00     0.041 A 
ATOM     78  F   UNL A   1      39.126  33.862  34.354  1.00  0.00    -0.206 F 
ATOM     79  C   UNL A   1      37.612  33.310  37.593  1.00  0.00     0.022 A 
BRANCH  76  80
ATOM     80  S   UNL A   1      36.800  31.046  39.005  1.00  0.00     0.124 S 
ATOM     81  O   UNL A   1      36.652  29.703  38.459  1.00  0.00    -0.237 OA
ATOM     82  O   UNL A   1      37.777  31.200  40.079  1.00  0.00    -0.237 OA
ATOM     83  O   UNL A   1      35.554  31.787  39.189  1.00  0.00    -0.744 OA
ENDBRANCH  76  80
ENDBRANCH  49  73
BRANCH  61  84
ATOM     84  C   UNL A   1      44.399  27.931  34.464  1.00  0.00     0.023 A 
ATOM     85  C   UNL A   1      44.453  26.838  35.346  1.00  0.00     0.031 A 
ATOM     86  C   UNL A   1      45.515  28.786  34.401  1.00  0.00     0.131 A 
ATOM     87  C   UNL A   1      45.578  26.658  36.168  1.00  0.00     0.055 A 
ATOM     88  C   UNL A   1      46.656  28.565  35.174  1.00  0.00     0.041 A 
ATOM     89  F   UNL A   1      45.517  29.848  33.579  1.00  0.00    -0.206 F 
ATOM     90  C   UNL A   1      46.687  27.504  36.072  1.00  0.00     0.022 A 
BRANCH  87  91
ATOM     91  S   UNL A   1      45.540  25.353  37.427  1.00  0.00     0.124 S 
ATOM     92  O   UNL A   1      44.178  24.846  37.297  1.00  0.00    -0.237 OA
ATOM     93  O   UNL A   1      46.599  24.455  36.978  1.00  0.00    -0.237 OA
ATOM     94  O   UNL A   1      45.820  26.067  38.670  1.00  0.00    -0.744 OA
ENDBRANCH  87  91
ENDBRANCH  61  84
ENDBRANCH  35  36
ENDBRANCH  27  30
ENDBRANCH  25  26
ENDBRANCH   1  25
TORSDOF 18
ENDMDL
MODEL 2
REMARK VINA RESULT:     -11.2      2.482      8.527
REMARK SMILES CCc1cc([C@H]([NH3+])C(=O)NCCCNC(=O)c2ccc(-c3c4nc(c(-c5cc(S(=O)(=O)[O-])ccc5F)c5ccc([nH]5)c(-c5cc(S(=O)(=O)[O-])ccc5F)c5nc(c(-c6cc(S(=O)(=O)[O-])ccc6F)c6ccc3[nH]6)C=C5)C=C4)cc2)cc(CC)c1N
REMARK SMILES IDX 12 1 11 2 10 3 8 4 9 5 6 7 5 8 3 9 4 10 84 11 81 12 80 13
REMARK SMILES IDX 2 14 1 15 85 16 82 19 83 20 7 21 13 25 14 26 15 27 16 29
REMARK SMILES IDX 17 30 18 31 79 32 19 33 78 34 20 35 21 36 22 37 72 38 23 39
REMARK SMILES IDX 77 40 71 41 73 42 24 43 76 44 70 45 69 46 25 48 57 49 37 50
REMARK SMILES IDX 56 51 38 52 41 53 55 54 74 55 39 56 40 57 54 59 75 60 42 61
REMARK SMILES IDX 26 62 27 63 35 64 28 65 34 66 36 67 33 68 29 69 30 70 31 71
REMARK SMILES IDX 32 72 58 73 59 74 67 75 60 76 66 77 68 78 65 79 61 80 62 81
REMARK SMILES IDX 63 82 64 83 43 84 44 85 52 86 45 87 51 88 53 89 50 90 46 91
REMARK SMILES IDX 47 92 48 93 49 94
REMARK H PARENT 10 6 85 17 85 18 7 22 7 23 7 24 14 28 73 47 41 58
REMARK Flexibility Score: inf
ROOT
ATOM      1  C   UNL A   1      31.390  32.554  26.774  1.00  0.00     0.042 C 
ENDROOT
BRANCH   1   2
ATOM      2  C   UNL A   1      31.298  31.185  26.124  1.00  0.00     0.118 C 
BRANCH   2   3
ATOM      3  N   UNL A   1      32.461  30.357  26.393  1.00  0.00    -0.351 N 
ATOM      4  C   UNL A   1      33.150  29.537  25.544  1.00  0.00     0.283 C 
ATOM      5  O   UNL A   1      34.130  28.931  25.992  1.00  0.00    -0.268 OA
ATOM      6  H   UNL A   1      32.800  30.391  27.318  1.00  0.00     0.163 HD
BRANCH   4   7
ATOM      7  C   UNL A   1      32.710  29.348  24.065  1.00  0.00     0.302 C 
BRANCH   7   8
ATOM      8  C   UNL A   1      31.489  28.446  23.940  1.00  0.00     0.020 A 
ATOM      9  C   UNL A   1      30.266  26.383  24.485  1.00  0.00    -0.024 A 
ATOM     10  C   UNL A   1      31.454  27.138  24.442  1.00  0.00     0.016 A 
ATOM     11  C   UNL A   1      29.077  26.937  23.943  1.00  0.00     0.038 A 
ATOM     12  C   UNL A   1      29.116  28.223  23.359  1.00  0.00    -0.024 A 
ATOM     13  C   UNL A   1      30.318  28.955  23.371  1.00  0.00     0.016 A 
BRANCH   9  14
ATOM     14  C   UNL A   1      30.264  25.002  25.122  1.00  0.00     0.034 C 
ATOM     15  C   UNL A   1      31.584  24.232  25.130  1.00  0.00     0.009 C 
ENDBRANCH   9  14
BRANCH  11  16
ATOM     16  N   UNL A   1      27.912  26.171  23.886  1.00  0.00    -0.398 N 
ATOM     17  H   UNL A   1      27.624  25.777  23.030  1.00  0.00     0.156 HD
ATOM     18  H   UNL A   1      27.379  26.023  24.700  1.00  0.00     0.156 HD
ENDBRANCH  11  16
BRANCH  12  19
ATOM     19  C   UNL A   1      27.910  28.904  22.741  1.00  0.00     0.034 C 
ATOM     20  C   UNL A   1      27.972  30.422  22.870  1.00  0.00     0.009 C 
ENDBRANCH  12  19
ENDBRANCH   7   8
BRANCH   7  21
ATOM     21  N   UNL A   1      33.881  28.929  23.264  1.00  0.00    -0.343 N 
ATOM     22  H   UNL A   1      33.880  29.427  22.373  1.00  0.00     0.345 HD
ATOM     23  H   UNL A   1      33.833  27.925  23.091  1.00  0.00     0.345 HD
ATOM     24  H   UNL A   1      34.738  29.146  23.774  1.00  0.00     0.345 HD
ENDBRANCH   7  21
ENDBRANCH   4   7
ENDBRANCH   2   3
ENDBRANCH   1   2
BRANCH   1  25
ATOM     25  C   UNL A   1      32.816  33.005  27.052  1.00  0.00     0.118 C 
BRANCH  25  26
ATOM     26  N   UNL A   1      32.877  34.269  27.775  1.00  0.00    -0.352 N 
ATOM     27  C   UNL A   1      33.671  34.642  28.832  1.00  0.00     0.251 C 
ATOM     28  H   UNL A   1      32.253  34.962  27.458  1.00  0.00     0.163 HD
ATOM     29  O   UNL A   1      33.437  35.692  29.424  1.00  0.00    -0.269 OA
BRANCH  27  30
ATOM     30  C   UNL A   1      34.782  33.769  29.268  1.00  0.00     0.039 A 
ATOM     31  C   UNL A   1      36.091  34.100  28.907  1.00  0.00     0.014 A 
ATOM     32  C   UNL A   1      34.536  32.629  30.038  1.00  0.00     0.014 A 
ATOM     33  C   UNL A   1      37.156  33.333  29.386  1.00  0.00     0.010 A 
ATOM     34  C   UNL A   1      35.600  31.924  30.590  1.00  0.00     0.010 A 
ATOM     35  C   UNL A   1      36.922  32.264  30.267  1.00  0.00    -0.014 A 
BRANCH  35  36
ATOM     36  C   UNL A   1      38.036  31.474  30.852  1.00  0.00     0.031 A 
ATOM     37  C   UNL A   1      38.511  31.771  32.248  1.00  0.00     0.074 A 
ATOM     38  C   UNL A   1      38.668  30.545  30.105  1.00  0.00     0.049 A 
ATOM     39  N   UNL A   1      39.536  31.284  32.897  1.00  0.00    -0.248 NA
ATOM     40  C   UNL A   1      37.745  32.777  32.999  1.00  0.00     0.031 C 
ATOM     41  C   UNL A   1      38.316  30.184  28.730  1.00  0.00     0.029 A 
ATOM     42  N   UNL A   1      39.742  29.743  30.394  1.00  0.00    -0.354 N 
ATOM     43  C   UNL A   1      39.548  31.932  34.128  1.00  0.00     0.074 A 
ATOM     44  C   UNL A   1      38.472  32.901  34.099  1.00  0.00     0.031 C 
ATOM     45  C   UNL A   1      39.139  29.210  28.309  1.00  0.00     0.029 A 
ATOM     46  C   UNL A   1      40.111  28.918  29.356  1.00  0.00     0.049 A 
ATOM     47  H   UNL A   1      40.205  29.755  31.262  1.00  0.00     0.167 HD
ATOM     48  C   UNL A   1      40.360  31.721  35.194  1.00  0.00     0.034 A 
ATOM     49  C   UNL A   1      41.127  28.038  29.255  1.00  0.00     0.034 A 
ATOM     50  C   UNL A   1      41.425  30.748  35.206  1.00  0.00     0.049 A 
ATOM     51  C   UNL A   1      42.059  27.863  30.429  1.00  0.00     0.074 A 
ATOM     52  C   UNL A   1      42.287  30.426  36.239  1.00  0.00     0.029 A 
ATOM     53  N   UNL A   1      41.782  29.946  34.128  1.00  0.00    -0.354 N 
ATOM     54  N   UNL A   1      42.039  28.463  31.597  1.00  0.00    -0.248 NA
ATOM     55  C   UNL A   1      43.148  26.890  30.271  1.00  0.00     0.031 C 
ATOM     56  C   UNL A   1      43.209  29.485  35.765  1.00  0.00     0.029 A 
ATOM     57  C   UNL A   1      42.870  29.154  34.463  1.00  0.00     0.049 A 
ATOM     58  H   UNL A   1      41.327  29.940  33.255  1.00  0.00     0.167 HD
ATOM     59  C   UNL A   1      43.087  27.906  32.327  1.00  0.00     0.074 A 
ATOM     60  C   UNL A   1      43.713  26.922  31.469  1.00  0.00     0.031 C 
ATOM     61  C   UNL A   1      43.488  28.177  33.596  1.00  0.00     0.034 A 
BRANCH  48  62
ATOM     62  C   UNL A   1      40.133  32.581  36.417  1.00  0.00     0.023 A 
ATOM     63  C   UNL A   1      39.216  32.210  37.417  1.00  0.00     0.031 A 
ATOM     64  C   UNL A   1      40.800  33.809  36.563  1.00  0.00     0.131 A 
ATOM     65  C   UNL A   1      38.921  33.097  38.463  1.00  0.00     0.055 A 
ATOM     66  C   UNL A   1      40.574  34.644  37.659  1.00  0.00     0.041 A 
ATOM     67  F   UNL A   1      41.672  34.230  35.633  1.00  0.00    -0.206 F 
ATOM     68  C   UNL A   1      39.614  34.301  38.607  1.00  0.00     0.022 A 
BRANCH  65  69
ATOM     69  S   UNL A   1      37.496  32.735  39.525  1.00  0.00     0.124 S 
ATOM     70  O   UNL A   1      37.556  33.837  40.483  1.00  0.00    -0.237 OA
ATOM     71  O   UNL A   1      36.384  32.768  38.583  1.00  0.00    -0.237 OA
ATOM     72  O   UNL A   1      37.808  31.420  40.081  1.00  0.00    -0.744 OA
ENDBRANCH  65  69
ENDBRANCH  48  62
BRANCH  49  73
ATOM     73  C   UNL A   1      41.328  27.253  28.003  1.00  0.00     0.023 A 
ATOM     74  C   UNL A   1      40.979  25.894  27.944  1.00  0.00     0.031 A 
ATOM     75  C   UNL A   1      41.907  27.835  26.861  1.00  0.00     0.131 A 
ATOM     76  C   UNL A   1      41.255  25.150  26.787  1.00  0.00     0.055 A 
ATOM     77  C   UNL A   1      42.127  27.104  25.692  1.00  0.00     0.041 A 
ATOM     78  F   UNL A   1      42.257  29.131  26.862  1.00  0.00    -0.206 F 
ATOM     79  C   UNL A   1      41.813  25.749  25.655  1.00  0.00     0.022 A 
BRANCH  76  80
ATOM     80  S   UNL A   1      40.956  23.362  26.815  1.00  0.00     0.124 S 
ATOM     81  O   UNL A   1      41.364  23.015  28.171  1.00  0.00    -0.237 OA
ATOM     82  O   UNL A   1      39.526  23.289  26.535  1.00  0.00    -0.237 OA
ATOM     83  O   UNL A   1      41.822  22.855  25.752  1.00  0.00    -0.744 OA
ENDBRANCH  76  80
ENDBRANCH  49  73
BRANCH  61  84
ATOM     84  C   UNL A   1      44.623  27.351  34.152  1.00  0.00     0.023 A 
ATOM     85  C   UNL A   1      44.399  26.186  34.905  1.00  0.00     0.031 A 
ATOM     86  C   UNL A   1      45.954  27.741  33.917  1.00  0.00     0.131 A 
ATOM     87  C   UNL A   1      45.488  25.480  35.440  1.00  0.00     0.055 A 
ATOM     88  C   UNL A   1      47.034  27.000  34.397  1.00  0.00     0.041 A 
ATOM     89  F   UNL A   1      46.228  28.848  33.208  1.00  0.00    -0.206 F 
ATOM     90  C   UNL A   1      46.804  25.869  35.174  1.00  0.00     0.022 A 
BRANCH  87  91
ATOM     91  S   UNL A   1      45.163  24.092  36.561  1.00  0.00     0.124 S 
ATOM     92  O   UNL A   1      46.510  23.712  36.973  1.00  0.00    -0.237 OA
ATOM     93  O   UNL A   1      44.333  24.709  37.591  1.00  0.00    -0.237 OA
ATOM     94  O   UNL A   1      44.476  23.119  35.714  1.00  0.00    -0.744 OA
ENDBRANCH  87  91
ENDBRANCH  61  84
ENDBRANCH  35  36
ENDBRANCH  27  30
ENDBRANCH  25  26
ENDBRANCH   1  25
TORSDOF 18
ENDMDL
MODEL 3
REMARK VINA RESULT:     -11.2      1.377      2.088
REMARK SMILES CCc1cc([C@H]([NH3+])C(=O)NCCCNC(=O)c2ccc(-c3c4nc(c(-c5cc(S(=O)(=O)[O-])ccc5F)c5ccc([nH]5)c(-c5cc(S(=O)(=O)[O-])ccc5F)c5nc(c(-c6cc(S(=O)(=O)[O-])ccc6F)c6ccc3[nH]6)C=C5)C=C4)cc2)cc(CC)c1N
REMARK SMILES IDX 12 1 11 2 10 3 8 4 9 5 6 7 5 8 3 9 4 10 84 11 81 12 80 13
REMARK SMILES IDX 2 14 1 15 85 16 82 19 83 20 7 21 13 25 14 26 15 27 16 29
REMARK SMILES IDX 17 30 18 31 79 32 19 33 78 34 20 35 21 36 22 37 72 38 23 39
REMARK SMILES IDX 77 40 71 41 73 42 24 43 76 44 70 45 69 46 25 48 57 49 37 50
REMARK SMILES IDX 56 51 38 52 41 53 55 54 74 55 39 56 40 57 54 59 75 60 42 61
REMARK SMILES IDX 26 62 27 63 35 64 28 65 34 66 36 67 33 68 29 69 30 70 31 71
REMARK SMILES IDX 32 72 58 73 59 74 67 75 60 76 66 77 68 78 65 79 61 80 62 81
REMARK SMILES IDX 63 82 64 83 43 84 44 85 52 86 45 87 51 88 53 89 50 90 46 91
REMARK SMILES IDX 47 92 48 93 49 94
REMARK H PARENT 10 6 85 17 85 18 7 22 7 23 7 24 14 28 73 47 41 58
REMARK Flexibility Score: inf
ROOT
ATOM      1  C   UNL A   1      31.404  29.245  25.428  1.00  0.00     0.042 C 
ENDROOT
BRANCH   1   2
ATOM      2  C   UNL A   1      31.223  29.152  23.923  1.00  0.00     0.118 C 
BRANCH   2   3
ATOM      3  N   UNL A   1      32.485  29.131  23.206  1.00  0.00    -0.351 N 
ATOM      4  C   UNL A   1      33.090  28.092  22.555  1.00  0.00     0.283 C 
ATOM      5  O   UNL A   1      34.170  28.309  21.994  1.00  0.00    -0.268 OA
ATOM      6  H   UNL A   1      32.975  29.986  23.186  1.00  0.00     0.163 HD
BRANCH   4   7
ATOM      7  C   UNL A   1      32.457  26.672  22.535  1.00  0.00     0.302 C 
BRANCH   7   8
ATOM      8  C   UNL A   1      32.887  25.835  23.733  1.00  0.00     0.020 A 
ATOM      9  C   UNL A   1      32.375  24.590  25.790  1.00  0.00    -0.024 A 
ATOM     10  C   UNL A   1      32.022  25.511  24.786  1.00  0.00     0.016 A 
ATOM     11  C   UNL A   1      33.673  24.016  25.775  1.00  0.00     0.038 A 
ATOM     12  C   UNL A   1      34.585  24.396  24.764  1.00  0.00    -0.024 A 
ATOM     13  C   UNL A   1      34.176  25.295  23.761  1.00  0.00     0.016 A 
BRANCH   9  14
ATOM     14  C   UNL A   1      31.365  24.205  26.860  1.00  0.00     0.034 C 
ATOM     15  C   UNL A   1      30.504  22.970  26.601  1.00  0.00     0.009 C 
ENDBRANCH   9  14
BRANCH  11  16
ATOM     16  N   UNL A   1      34.079  23.177  26.813  1.00  0.00    -0.398 N 
ATOM     17  H   UNL A   1      34.751  23.487  27.463  1.00  0.00     0.156 HD
ATOM     18  H   UNL A   1      33.693  22.275  26.897  1.00  0.00     0.156 HD
ENDBRANCH  11  16
BRANCH  12  19
ATOM     19  C   UNL A   1      35.999  23.857  24.661  1.00  0.00     0.034 C 
ATOM     20  C   UNL A   1      36.073  22.579  23.832  1.00  0.00     0.009 C 
ENDBRANCH  12  19
ENDBRANCH   7   8
BRANCH   7  21
ATOM     21  N   UNL A   1      32.711  26.051  21.216  1.00  0.00    -0.343 N 
ATOM     22  H   UNL A   1      31.937  25.430  20.978  1.00  0.00     0.345 HD
ATOM     23  H   UNL A   1      33.577  25.516  21.253  1.00  0.00     0.345 HD
ATOM     24  H   UNL A   1      32.791  26.780  20.506  1.00  0.00     0.345 HD
ENDBRANCH   7  21
ENDBRANCH   4   7
ENDBRANCH   2   3
ENDBRANCH   1   2
BRANCH   1  25
ATOM     25  C   UNL A   1      32.637  30.030  25.848  1.00  0.00     0.118 C 
BRANCH  25  26
ATOM     26  N   UNL A   1      32.322  31.384  26.286  1.00  0.00    -0.352 N 
ATOM     27  C   UNL A   1      32.923  32.162  27.245  1.00  0.00     0.251 C 
ATOM     28  H   UNL A   1      31.560  31.805  25.825  1.00  0.00     0.163 HD
ATOM     29  O   UNL A   1      32.387  33.209  27.599  1.00  0.00    -0.269 OA
BRANCH  27  30
ATOM     30  C   UNL A   1      34.193  31.726  27.863  1.00  0.00     0.039 A 
ATOM     31  C   UNL A   1      35.203  32.666  28.083  1.00  0.00     0.014 A 
ATOM     32  C   UNL A   1      34.387  30.393  28.235  1.00  0.00     0.014 A 
ATOM     33  C   UNL A   1      36.372  32.285  28.746  1.00  0.00     0.010 A 
ATOM     34  C   UNL A   1      35.508  30.037  28.977  1.00  0.00     0.010 A 
ATOM     35  C   UNL A   1      36.515  30.978  29.237  1.00  0.00    -0.014 A 
BRANCH  35  36
ATOM     36  C   UNL A   1      37.715  30.559  30.009  1.00  0.00     0.031 A 
ATOM     37  C   UNL A   1      38.730  29.647  29.376  1.00  0.00     0.074 A 
ATOM     38  C   UNL A   1      37.851  30.936  31.297  1.00  0.00     0.049 A 
ATOM     39  N   UNL A   1      39.777  29.073  29.911  1.00  0.00    -0.248 NA
ATOM     40  C   UNL A   1      38.516  29.312  27.961  1.00  0.00     0.031 C 
ATOM     41  C   UNL A   1      36.922  31.798  32.029  1.00  0.00     0.029 A 
ATOM     42  N   UNL A   1      38.821  30.635  32.220  1.00  0.00    -0.354 N 
ATOM     43  C   UNL A   1      40.340  28.299  28.901  1.00  0.00     0.074 A 
ATOM     44  C   UNL A   1      39.471  28.419  27.750  1.00  0.00     0.031 C 
ATOM     45  C   UNL A   1      37.384  31.982  33.277  1.00  0.00     0.029 A 
ATOM     46  C   UNL A   1      38.606  31.207  33.453  1.00  0.00     0.049 A 
ATOM     47  H   UNL A   1      39.597  30.064  32.019  1.00  0.00     0.167 HD
ATOM     48  C   UNL A   1      41.489  27.577  28.923  1.00  0.00     0.034 A 
ATOM     49  C   UNL A   1      39.308  31.104  34.600  1.00  0.00     0.034 A 
ATOM     50  C   UNL A   1      42.344  27.471  30.080  1.00  0.00     0.049 A 
ATOM     51  C   UNL A   1      40.548  30.245  34.621  1.00  0.00     0.074 A 
ATOM     52  C   UNL A   1      43.545  26.797  30.205  1.00  0.00     0.029 A 
ATOM     53  N   UNL A   1      42.083  28.048  31.318  1.00  0.00    -0.354 N 
ATOM     54  N   UNL A   1      41.085  29.542  33.650  1.00  0.00    -0.248 NA
ATOM     55  C   UNL A   1      41.280  30.170  35.893  1.00  0.00     0.031 C 
ATOM     56  C   UNL A   1      43.973  26.904  31.534  1.00  0.00     0.029 A 
ATOM     57  C   UNL A   1      43.085  27.718  32.218  1.00  0.00     0.049 A 
ATOM     58  H   UNL A   1      41.301  28.610  31.524  1.00  0.00     0.167 HD
ATOM     59  C   UNL A   1      42.240  28.977  34.185  1.00  0.00     0.074 A 
ATOM     60  C   UNL A   1      42.323  29.424  35.559  1.00  0.00     0.031 C 
ATOM     61  C   UNL A   1      43.154  28.169  33.589  1.00  0.00     0.034 A 
BRANCH  48  62
ATOM     62  C   UNL A   1      41.860  26.832  27.660  1.00  0.00     0.023 A 
ATOM     63  C   UNL A   1      41.602  25.457  27.514  1.00  0.00     0.031 A 
ATOM     64  C   UNL A   1      42.524  27.489  26.610  1.00  0.00     0.131 A 
ATOM     65  C   UNL A   1      42.088  24.767  26.395  1.00  0.00     0.055 A 
ATOM     66  C   UNL A   1      42.920  26.814  25.453  1.00  0.00     0.041 A 
ATOM     67  F   UNL A   1      42.820  28.796  26.697  1.00  0.00    -0.206 F 
ATOM     68  C   UNL A   1      42.722  25.441  25.349  1.00  0.00     0.022 A 
BRANCH  65  69
ATOM     69  S   UNL A   1      42.039  22.954  26.411  1.00  0.00     0.124 S 
ATOM     70  O   UNL A   1      42.648  22.632  25.122  1.00  0.00    -0.237 OA
ATOM     71  O   UNL A   1      42.831  22.628  27.591  1.00  0.00    -0.237 OA
ATOM     72  O   UNL A   1      40.613  22.651  26.510  1.00  0.00    -0.744 OA
ENDBRANCH  65  69
ENDBRANCH  48  62
BRANCH  49  73
ATOM     73  C   UNL A   1      38.863  31.827  35.826  1.00  0.00     0.023 A 
ATOM     74  C   UNL A   1      38.177  31.151  36.849  1.00  0.00     0.031 A 
ATOM     75  C   UNL A   1      39.078  33.208  35.979  1.00  0.00     0.131 A 
ATOM     76  C   UNL A   1      37.690  31.863  37.954  1.00  0.00     0.055 A 
ATOM     77  C   UNL A   1      38.640  33.902  37.109  1.00  0.00     0.041 A 
ATOM     78  F   UNL A   1      39.729  33.903  35.034  1.00  0.00    -0.206 F 
ATOM     79  C   UNL A   1      37.929  33.232  38.100  1.00  0.00     0.022 A 
BRANCH  76  80
ATOM     80  S   UNL A   1      36.657  30.989  39.162  1.00  0.00     0.124 S 
ATOM     81  O   UNL A   1      35.499  31.869  39.252  1.00  0.00    -0.237 OA
ATOM     82  O   UNL A   1      36.439  29.705  38.502  1.00  0.00    -0.237 OA
ATOM     83  O   UNL A   1      37.498  30.938  40.356  1.00  0.00    -0.744 OA
ENDBRANCH  76  80
ENDBRANCH  49  73
BRANCH  61  84
ATOM     84  C   UNL A   1      44.358  27.767  34.408  1.00  0.00     0.023 A 
ATOM     85  C   UNL A   1      44.384  26.585  35.167  1.00  0.00     0.031 A 
ATOM     86  C   UNL A   1      45.501  28.587  34.421  1.00  0.00     0.131 A 
ATOM     87  C   UNL A   1      45.510  26.281  35.949  1.00  0.00     0.055 A 
ATOM     88  C   UNL A   1      46.642  28.248  35.149  1.00  0.00     0.041 A 
ATOM     89  F   UNL A   1      45.531  29.731  33.717  1.00  0.00    -0.206 F 
ATOM     90  C   UNL A   1      46.646  27.096  35.928  1.00  0.00     0.022 A 
BRANCH  87  91
ATOM     91  S   UNL A   1      45.441  24.850  37.061  1.00  0.00     0.124 S 
ATOM     92  O   UNL A   1      45.554  23.735  36.128  1.00  0.00    -0.237 OA
ATOM     93  O   UNL A   1      46.594  25.073  37.929  1.00  0.00    -0.237 OA
ATOM     94  O   UNL A   1      44.141  24.985  37.713  1.00  0.00    -0.744 OA
ENDBRANCH  87  91
ENDBRANCH  61  84
ENDBRANCH  35  36
ENDBRANCH  27  30
ENDBRANCH  25  26
ENDBRANCH   1  25
TORSDOF 18
ENDMDL
