MODEL 1
REMARK VINA RESULT:     -12.3      0.000      0.000
REMARK SMILES O=C(COc1ccccc1/C=N/N1[C@@H](S)N=N[C@H]1[C@@H]1C=C(c2ccccc2)N=N1)NCCCNC(=O)c1ccc(-c2c3nc(c(-c4cc(S(=O)(=O)[O-])ccc4F)c4ccc([nH]4)c(-c4cc(S(=O)(=O)[O-])ccc4F)c4nc(c(-c5cc(S(=O)(=O)[O-])ccc5F)c5ccc2[nH]5)C=C4)C=C3)cc1
REMARK SMILES IDX 1 1 2 2 30 3 3 5 4 6 5 7 6 8 10 9 7 10 9 11 8 12 11 13 12 14
REMARK SMILES IDX 13 15 14 16 18 17 16 18 17 19 15 20 19 22 20 23 29 24 21 25
REMARK SMILES IDX 28 26 22 27 23 28 27 29 24 30 26 31 25 32 31 33 32 34 33 35
REMARK SMILES IDX 34 36 35 37 36 39 37 40 38 41 99 42 39 43 98 44 40 45 41 46
REMARK SMILES IDX 42 47 92 48 43 49 97 50 91 51 93 52 44 53 96 54 90 55 89 56
REMARK SMILES IDX 45 58 77 59 57 60 76 61 58 62 61 63 75 64 94 65 59 66 60 67
REMARK SMILES IDX 74 69 95 70 62 71 46 72 47 73 55 74 48 75 54 76 56 77 53 78
REMARK SMILES IDX 49 79 50 80 51 81 52 82 78 83 79 84 87 85 80 86 86 87 88 88
REMARK SMILES IDX 85 89 81 90 82 91 83 92 84 93 63 94 64 95 72 96 65 97 71 98
REMARK SMILES IDX 73 99 70 100 66 101 67 102 68 103 69 104
REMARK H PARENT 30 4 15 21 34 38 93 57 61 68
REMARK Flexibility Score: inf
ROOT
ATOM      1  O   UNL A   1      36.286  23.120  22.847  1.00  0.00    -0.271 OA
ATOM      2  C   UNL A   1      36.439  23.356  24.050  1.00  0.00     0.257 C 
ATOM      3  N   UNL A   1      37.376  22.837  25.049  1.00  0.00    -0.353 N 
ATOM      4  H   UNL A   1      37.291  23.415  25.842  1.00  0.00     0.163 HD
ENDROOT
BRANCH   2   5
ATOM      5  C   UNL A   1      35.319  24.290  24.401  1.00  0.00     0.329 C 
BRANCH   5   6
ATOM      6  O   UNL A   1      35.151  24.726  25.679  1.00  0.00    -0.483 OA
BRANCH   6   7
ATOM      7  C   UNL A   1      34.121  24.278  26.429  1.00  0.00     0.128 A 
ATOM      8  C   UNL A   1      34.688  23.136  27.051  1.00  0.00     0.047 A 
ATOM      9  C   UNL A   1      32.735  24.586  26.475  1.00  0.00     0.037 A 
ATOM     10  C   UNL A   1      33.905  22.173  27.629  1.00  0.00     0.004 A 
ATOM     11  C   UNL A   1      31.967  23.556  27.062  1.00  0.00     0.013 A 
ATOM     12  C   UNL A   1      32.537  22.374  27.610  1.00  0.00     0.001 A 
BRANCH   9  13
ATOM     13  C   UNL A   1      31.873  25.686  25.730  1.00  0.00     0.145 C 
ATOM     14  N   UNL A   1      32.013  26.998  25.745  1.00  0.00    -0.180 NA
BRANCH  14  15
ATOM     15  N   UNL A   1      31.584  27.802  24.498  1.00  0.00    -0.233 NA
ATOM     16  C   UNL A   1      32.322  29.107  24.393  1.00  0.00     0.298 C 
ATOM     17  C   UNL A   1      32.059  27.335  22.891  1.00  0.00     0.274 C 
ATOM     18  N   UNL A   1      33.476  29.003  23.463  1.00  0.00    -0.153 NA
ATOM     19  N   UNL A   1      33.339  28.072  22.623  1.00  0.00    -0.161 NA
BRANCH  16  20
ATOM     20  S   UNL A   1      32.660  29.867  26.023  1.00  0.00    -0.128 SA
ATOM     21  H   UNL A   1      31.763  29.405  26.934  1.00  0.00     0.106 HD
ENDBRANCH  16  20
BRANCH  17  22
ATOM     22  C   UNL A   1      31.971  25.825  21.803  1.00  0.00     0.202 C 
ATOM     23  C   UNL A   1      31.497  24.421  22.199  1.00  0.00     0.037 C 
ATOM     24  N   UNL A   1      33.261  25.359  21.108  1.00  0.00    -0.177 NA
ATOM     25  C   UNL A   1      32.442  23.498  21.970  1.00  0.00     0.091 C 
ATOM     26  N   UNL A   1      33.482  24.095  21.298  1.00  0.00    -0.155 NA
BRANCH  25  27
ATOM     27  C   UNL A   1      32.461  22.173  22.729  1.00  0.00     0.002 A 
ATOM     28  C   UNL A   1      31.931  20.997  22.161  1.00  0.00     0.010 A 
ATOM     29  C   UNL A   1      33.123  21.954  23.941  1.00  0.00     0.010 A 
ATOM     30  C   UNL A   1      32.107  19.693  22.660  1.00  0.00     0.001 A 
ATOM     31  C   UNL A   1      33.233  20.657  24.516  1.00  0.00     0.001 A 
ATOM     32  C   UNL A   1      32.751  19.522  23.863  1.00  0.00     0.000 A 
ENDBRANCH  25  27
ENDBRANCH  17  22
ENDBRANCH  14  15
ENDBRANCH   9  13
ENDBRANCH   6   7
ENDBRANCH   5   6
ENDBRANCH   2   5
BRANCH   3  33
ATOM     33  C   UNL A   1      38.522  21.690  25.416  1.00  0.00     0.117 C 
BRANCH  33  34
ATOM     34  C   UNL A   1      38.889  20.121  25.042  1.00  0.00     0.042 C 
BRANCH  34  35
ATOM     35  C   UNL A   1      39.549  18.960  25.900  1.00  0.00     0.118 C 
BRANCH  35  36
ATOM     36  N   UNL A   1      40.998  18.753  25.707  1.00  0.00    -0.352 N 
ATOM     37  C   UNL A   1      42.044  19.680  25.635  1.00  0.00     0.251 C 
ATOM     38  H   UNL A   1      41.273  17.812  25.613  1.00  0.00     0.163 HD
ATOM     39  O   UNL A   1      42.993  19.435  24.897  1.00  0.00    -0.269 OA
BRANCH  37  40
ATOM     40  C   UNL A   1      42.067  20.907  26.475  1.00  0.00     0.039 A 
ATOM     41  C   UNL A   1      41.634  20.960  27.803  1.00  0.00     0.014 A 
ATOM     42  C   UNL A   1      42.424  22.091  25.860  1.00  0.00     0.014 A 
ATOM     43  C   UNL A   1      41.627  22.195  28.474  1.00  0.00     0.010 A 
ATOM     44  C   UNL A   1      42.569  23.277  26.540  1.00  0.00     0.010 A 
ATOM     45  C   UNL A   1      42.103  23.357  27.834  1.00  0.00    -0.014 A 
BRANCH  45  46
ATOM     46  C   UNL A   1      42.273  24.631  28.537  1.00  0.00     0.031 A 
ATOM     47  C   UNL A   1      41.113  25.530  28.344  1.00  0.00     0.074 A 
ATOM     48  C   UNL A   1      43.246  24.912  29.438  1.00  0.00     0.049 A 
ATOM     49  N   UNL A   1      41.023  26.497  27.495  1.00  0.00    -0.248 NA
ATOM     50  C   UNL A   1      39.830  25.174  28.972  1.00  0.00     0.031 C 
ATOM     51  C   UNL A   1      44.294  24.012  29.937  1.00  0.00     0.029 A 
ATOM     52  N   UNL A   1      43.472  26.050  30.165  1.00  0.00    -0.354 N 
ATOM     53  C   UNL A   1      39.781  27.072  27.725  1.00  0.00     0.074 A 
ATOM     54  C   UNL A   1      39.013  26.068  28.407  1.00  0.00     0.031 C 
ATOM     55  C   UNL A   1      44.905  24.558  31.016  1.00  0.00     0.029 A 
ATOM     56  C   UNL A   1      44.426  25.919  31.182  1.00  0.00     0.049 A 
ATOM     57  H   UNL A   1      43.001  26.896  29.987  1.00  0.00     0.167 HD
ATOM     58  C   UNL A   1      39.633  28.423  27.643  1.00  0.00     0.034 A 
ATOM     59  C   UNL A   1      44.839  26.870  32.067  1.00  0.00     0.034 A 
ATOM     60  C   UNL A   1      40.815  29.014  27.046  1.00  0.00     0.049 A 
ATOM     61  C   UNL A   1      44.581  28.174  31.425  1.00  0.00     0.074 A 
ATOM     62  C   UNL A   1      41.412  29.017  25.803  1.00  0.00     0.029 A 
ATOM     63  N   UNL A   1      41.776  29.391  27.956  1.00  0.00    -0.354 N 
ATOM     64  N   UNL A   1      45.197  28.560  30.342  1.00  0.00    -0.248 NA
ATOM     65  C   UNL A   1      43.352  28.896  31.727  1.00  0.00     0.031 C 
ATOM     66  C   UNL A   1      42.815  29.137  26.046  1.00  0.00     0.029 A 
ATOM     67  C   UNL A   1      43.031  29.272  27.418  1.00  0.00     0.049 A 
ATOM     68  H   UNL A   1      41.587  29.703  28.870  1.00  0.00     0.167 HD
ATOM     69  C   UNL A   1      44.226  29.212  29.607  1.00  0.00     0.074 A 
ATOM     70  C   UNL A   1      43.187  29.551  30.574  1.00  0.00     0.031 C 
ATOM     71  C   UNL A   1      44.220  29.135  28.245  1.00  0.00     0.034 A 
BRANCH  58  72
ATOM     72  C   UNL A   1      38.713  29.266  28.514  1.00  0.00     0.023 A 
ATOM     73  C   UNL A   1      38.973  29.261  29.901  1.00  0.00     0.031 A 
ATOM     74  C   UNL A   1      37.467  29.809  28.131  1.00  0.00     0.131 A 
ATOM     75  C   UNL A   1      37.995  29.673  30.825  1.00  0.00     0.055 A 
ATOM     76  C   UNL A   1      36.519  30.266  29.052  1.00  0.00     0.041 A 
ATOM     77  F   UNL A   1      37.047  29.855  26.863  1.00  0.00    -0.206 F 
ATOM     78  C   UNL A   1      36.766  30.171  30.409  1.00  0.00     0.022 A 
BRANCH  75  79
ATOM     79  S   UNL A   1      38.299  29.396  32.589  1.00  0.00     0.124 S 
ATOM     80  O   UNL A   1      37.887  30.670  33.166  1.00  0.00    -0.237 OA
ATOM     81  O   UNL A   1      37.438  28.252  32.865  1.00  0.00    -0.237 OA
ATOM     82  O   UNL A   1      39.733  29.122  32.646  1.00  0.00    -0.744 OA
ENDBRANCH  75  79
ENDBRANCH  58  72
BRANCH  59  83
ATOM     83  C   UNL A   1      45.217  26.744  33.505  1.00  0.00     0.023 A 
ATOM     84  C   UNL A   1      44.278  26.632  34.560  1.00  0.00     0.031 A 
ATOM     85  C   UNL A   1      46.556  26.431  33.817  1.00  0.00     0.131 A 
ATOM     86  C   UNL A   1      44.692  26.201  35.847  1.00  0.00     0.055 A 
ATOM     87  C   UNL A   1      46.957  25.995  35.084  1.00  0.00     0.041 A 
ATOM     88  F   UNL A   1      47.505  26.446  32.867  1.00  0.00    -0.206 F 
ATOM     89  C   UNL A   1      46.023  25.867  36.102  1.00  0.00     0.022 A 
BRANCH  86  90
ATOM     90  S   UNL A   1      43.486  25.982  37.204  1.00  0.00     0.124 S 
ATOM     91  O   UNL A   1      42.921  27.320  37.341  1.00  0.00    -0.237 OA
ATOM     92  O   UNL A   1      42.598  24.955  36.675  1.00  0.00    -0.237 OA
ATOM     93  O   UNL A   1      44.312  25.552  38.333  1.00  0.00    -0.744 OA
ENDBRANCH  86  90
ENDBRANCH  59  83
BRANCH  71  94
ATOM     94  C   UNL A   1      45.526  28.773  27.570  1.00  0.00     0.023 A 
ATOM     95  C   UNL A   1      45.870  27.496  27.072  1.00  0.00     0.031 A 
ATOM     96  C   UNL A   1      46.456  29.813  27.403  1.00  0.00     0.131 A 
ATOM     97  C   UNL A   1      47.117  27.299  26.445  1.00  0.00     0.055 A 
ATOM     98  C   UNL A   1      47.678  29.620  26.763  1.00  0.00     0.041 A 
ATOM     99  F   UNL A   1      46.181  31.050  27.847  1.00  0.00    -0.206 F 
ATOM    100  C   UNL A   1      48.017  28.359  26.287  1.00  0.00     0.022 A 
BRANCH  97 101
ATOM    101  S   UNL A   1      47.612  25.650  25.843  1.00  0.00     0.124 S 
ATOM    102  O   UNL A   1      46.920  24.732  26.748  1.00  0.00    -0.237 OA
ATOM    103  O   UNL A   1      47.137  25.655  24.464  1.00  0.00    -0.237 OA
ATOM    104  O   UNL A   1      49.068  25.655  25.983  1.00  0.00    -0.744 OA
ENDBRANCH  97 101
ENDBRANCH  71  94
ENDBRANCH  45  46
ENDBRANCH  37  40
ENDBRANCH  35  36
ENDBRANCH  34  35
ENDBRANCH  33  34
ENDBRANCH   3  33
TORSDOF 20
ENDMDL
MODEL 2
REMARK VINA RESULT:     -11.3     10.641     16.524
REMARK SMILES O=C(COc1ccccc1/C=N/N1[C@@H](S)N=N[C@H]1[C@@H]1C=C(c2ccccc2)N=N1)NCCCNC(=O)c1ccc(-c2c3nc(c(-c4cc(S(=O)(=O)[O-])ccc4F)c4ccc([nH]4)c(-c4cc(S(=O)(=O)[O-])ccc4F)c4nc(c(-c5cc(S(=O)(=O)[O-])ccc5F)c5ccc2[nH]5)C=C4)C=C3)cc1
REMARK SMILES IDX 1 1 2 2 30 3 3 5 4 6 5 7 6 8 10 9 7 10 9 11 8 12 11 13 12 14
REMARK SMILES IDX 13 15 14 16 18 17 16 18 17 19 15 20 19 22 20 23 29 24 21 25
REMARK SMILES IDX 28 26 22 27 23 28 27 29 24 30 26 31 25 32 31 33 32 34 33 35
REMARK SMILES IDX 34 36 35 37 36 39 37 40 38 41 99 42 39 43 98 44 40 45 41 46
REMARK SMILES IDX 42 47 92 48 43 49 97 50 91 51 93 52 44 53 96 54 90 55 89 56
REMARK SMILES IDX 45 58 77 59 57 60 76 61 58 62 61 63 75 64 94 65 59 66 60 67
REMARK SMILES IDX 74 69 95 70 62 71 46 72 47 73 55 74 48 75 54 76 56 77 53 78
REMARK SMILES IDX 49 79 50 80 51 81 52 82 78 83 79 84 87 85 80 86 86 87 88 88
REMARK SMILES IDX 85 89 81 90 82 91 83 92 84 93 63 94 64 95 72 96 65 97 71 98
REMARK SMILES IDX 73 99 70 100 66 101 67 102 68 103 69 104
REMARK H PARENT 30 4 15 21 34 38 93 57 61 68
REMARK Flexibility Score: inf
ROOT
ATOM      1  O   UNL A   1      47.224  43.310  26.794  1.00  0.00    -0.271 OA
ATOM      2  C   UNL A   1      46.052  43.273  26.404  1.00  0.00     0.257 C 
ATOM      3  N   UNL A   1      44.898  42.467  26.812  1.00  0.00    -0.353 N 
ATOM      4  H   UNL A   1      44.107  42.871  26.386  1.00  0.00     0.163 HD
ENDROOT
BRANCH   2   5
ATOM      5  C   UNL A   1      46.007  44.215  25.238  1.00  0.00     0.329 C 
BRANCH   5   6
ATOM      6  O   UNL A   1      47.153  44.643  24.644  1.00  0.00    -0.483 OA
BRANCH   6   7
ATOM      7  C   UNL A   1      47.661  43.987  23.577  1.00  0.00     0.128 A 
ATOM      8  C   UNL A   1      48.927  44.610  23.428  1.00  0.00     0.047 A 
ATOM      9  C   UNL A   1      47.105  43.105  22.612  1.00  0.00     0.037 A 
ATOM     10  C   UNL A   1      49.643  44.505  22.266  1.00  0.00     0.004 A 
ATOM     11  C   UNL A   1      47.867  43.044  21.426  1.00  0.00     0.013 A 
ATOM     12  C   UNL A   1      49.096  43.739  21.252  1.00  0.00     0.001 A 
BRANCH   9  13
ATOM     13  C   UNL A   1      45.671  42.444  22.490  1.00  0.00     0.145 C 
ATOM     14  N   UNL A   1      44.504  43.028  22.292  1.00  0.00    -0.180 NA
BRANCH  14  15
ATOM     15  N   UNL A   1      43.406  42.248  21.537  1.00  0.00    -0.233 NA
ATOM     16  C   UNL A   1      42.130  42.171  22.329  1.00  0.00     0.298 C 
ATOM     17  C   UNL A   1      42.581  42.916  20.158  1.00  0.00     0.274 C 
ATOM     18  N   UNL A   1      41.161  43.211  21.893  1.00  0.00    -0.153 NA
ATOM     19  N   UNL A   1      41.368  43.603  20.712  1.00  0.00    -0.161 NA
BRANCH  16  20
ATOM     20  S   UNL A   1      42.416  42.033  24.130  1.00  0.00    -0.128 SA
ATOM     21  H   UNL A   1      43.297  42.991  24.524  1.00  0.00     0.106 HD
ENDBRANCH  16  20
BRANCH  17  22
ATOM     22  C   UNL A   1      43.020  43.662  18.509  1.00  0.00     0.202 C 
ATOM     23  C   UNL A   1      43.839  44.934  18.252  1.00  0.00     0.037 C 
ATOM     24  N   UNL A   1      41.873  44.025  17.551  1.00  0.00    -0.177 NA
ATOM     25  C   UNL A   1      43.150  45.826  17.528  1.00  0.00     0.091 C 
ATOM     26  N   UNL A   1      41.979  45.239  17.109  1.00  0.00    -0.155 NA
BRANCH  25  27
ATOM     27  C   UNL A   1      43.478  47.317  17.579  1.00  0.00     0.002 A 
ATOM     28  C   UNL A   1      44.290  47.852  18.600  1.00  0.00     0.010 A 
ATOM     29  C   UNL A   1      43.166  48.240  16.576  1.00  0.00     0.010 A 
ATOM     30  C   UNL A   1      44.847  49.145  18.612  1.00  0.00     0.001 A 
ATOM     31  C   UNL A   1      43.638  49.583  16.614  1.00  0.00     0.001 A 
ATOM     32  C   UNL A   1      44.501  50.028  17.615  1.00  0.00     0.000 A 
ENDBRANCH  25  27
ENDBRANCH  17  22
ENDBRANCH  14  15
ENDBRANCH   9  13
ENDBRANCH   6   7
ENDBRANCH   5   6
ENDBRANCH   2   5
BRANCH   3  33
ATOM     33  C   UNL A   1      44.354  41.164  27.689  1.00  0.00     0.117 C 
BRANCH  33  34
ATOM     34  C   UNL A   1      44.493  39.516  27.701  1.00  0.00     0.042 C 
BRANCH  34  35
ATOM     35  C   UNL A   1      45.683  38.561  28.141  1.00  0.00     0.118 C 
BRANCH  35  36
ATOM     36  N   UNL A   1      45.839  37.317  27.362  1.00  0.00    -0.352 N 
ATOM     37  C   UNL A   1      45.609  35.984  27.726  1.00  0.00     0.251 C 
ATOM     38  H   UNL A   1      46.156  37.443  26.439  1.00  0.00     0.163 HD
ATOM     39  O   UNL A   1      46.329  35.114  27.247  1.00  0.00    -0.269 OA
BRANCH  37  40
ATOM     40  C   UNL A   1      44.481  35.595  28.614  1.00  0.00     0.039 A 
ATOM     41  C   UNL A   1      43.548  36.492  29.141  1.00  0.00     0.014 A 
ATOM     42  C   UNL A   1      44.433  34.282  29.041  1.00  0.00     0.014 A 
ATOM     43  C   UNL A   1      42.572  36.021  30.035  1.00  0.00     0.010 A 
ATOM     44  C   UNL A   1      43.398  33.774  29.789  1.00  0.00     0.010 A 
ATOM     45  C   UNL A   1      42.498  34.651  30.355  1.00  0.00    -0.014 A 
BRANCH  45  46
ATOM     46  C   UNL A   1      41.404  34.082  31.146  1.00  0.00     0.031 A 
ATOM     47  C   UNL A   1      41.736  34.024  32.588  1.00  0.00     0.074 A 
ATOM     48  C   UNL A   1      40.151  33.833  30.695  1.00  0.00     0.049 A 
ATOM     49  N   UNL A   1      42.171  32.995  33.234  1.00  0.00    -0.248 NA
ATOM     50  C   UNL A   1      41.837  35.282  33.342  1.00  0.00     0.031 C 
ATOM     51  C   UNL A   1      39.605  34.112  29.360  1.00  0.00     0.029 A 
ATOM     52  N   UNL A   1      39.059  33.335  31.355  1.00  0.00    -0.354 N 
ATOM     53  C   UNL A   1      42.283  33.413  34.553  1.00  0.00     0.074 A 
ATOM     54  C   UNL A   1      42.348  34.847  34.498  1.00  0.00     0.031 C 
ATOM     55  C   UNL A   1      38.257  33.977  29.368  1.00  0.00     0.029 A 
ATOM     56  C   UNL A   1      37.853  33.428  30.651  1.00  0.00     0.049 A 
ATOM     57  H   UNL A   1      39.118  32.943  32.257  1.00  0.00     0.167 HD
ATOM     58  C   UNL A   1      41.960  32.561  35.565  1.00  0.00     0.034 A 
ATOM     59  C   UNL A   1      36.614  33.034  31.061  1.00  0.00     0.034 A 
ATOM     60  C   UNL A   1      41.794  31.217  35.045  1.00  0.00     0.049 A 
ATOM     61  C   UNL A   1      36.828  31.983  32.076  1.00  0.00     0.074 A 
ATOM     62  C   UNL A   1      42.610  30.247  34.506  1.00  0.00     0.029 A 
ATOM     63  N   UNL A   1      40.505  30.916  34.668  1.00  0.00    -0.354 N 
ATOM     64  N   UNL A   1      37.373  30.832  31.793  1.00  0.00    -0.248 NA
ATOM     65  C   UNL A   1      36.824  32.334  33.490  1.00  0.00     0.031 C 
ATOM     66  C   UNL A   1      41.797  29.528  33.575  1.00  0.00     0.029 A 
ATOM     67  C   UNL A   1      40.497  30.030  33.621  1.00  0.00     0.049 A 
ATOM     68  H   UNL A   1      39.698  31.286  35.093  1.00  0.00     0.167 HD
ATOM     69  C   UNL A   1      38.171  30.552  32.885  1.00  0.00     0.074 A 
ATOM     70  C   UNL A   1      37.653  31.395  33.956  1.00  0.00     0.031 C 
ATOM     71  C   UNL A   1      39.360  29.900  32.724  1.00  0.00     0.034 A 
BRANCH  58  72
ATOM     72  C   UNL A   1      41.307  32.958  36.880  1.00  0.00     0.023 A 
ATOM     73  C   UNL A   1      39.996  32.486  37.106  1.00  0.00     0.031 A 
ATOM     74  C   UNL A   1      41.745  33.975  37.757  1.00  0.00     0.131 A 
ATOM     75  C   UNL A   1      39.166  33.080  38.073  1.00  0.00     0.055 A 
ATOM     76  C   UNL A   1      40.932  34.528  38.752  1.00  0.00     0.041 A 
ATOM     77  F   UNL A   1      42.942  34.560  37.658  1.00  0.00    -0.206 F 
ATOM     78  C   UNL A   1      39.624  34.104  38.895  1.00  0.00     0.022 A 
BRANCH  75  79
ATOM     79  S   UNL A   1      37.420  32.600  38.129  1.00  0.00     0.124 S 
ATOM     80  O   UNL A   1      36.858  33.389  37.039  1.00  0.00    -0.237 OA
ATOM     81  O   UNL A   1      37.499  31.160  37.913  1.00  0.00    -0.237 OA
ATOM     82  O   UNL A   1      37.002  33.005  39.470  1.00  0.00    -0.744 OA
ENDBRANCH  75  79
ENDBRANCH  58  72
BRANCH  59  83
ATOM     83  C   UNL A   1      35.279  33.655  30.818  1.00  0.00     0.023 A 
ATOM     84  C   UNL A   1      34.705  34.643  31.656  1.00  0.00     0.031 A 
ATOM     85  C   UNL A   1      34.682  33.476  29.553  1.00  0.00     0.131 A 
ATOM     86  C   UNL A   1      33.600  35.411  31.206  1.00  0.00     0.055 A 
ATOM     87  C   UNL A   1      33.600  34.245  29.110  1.00  0.00     0.041 A 
ATOM     88  F   UNL A   1      35.196  32.609  28.666  1.00  0.00    -0.206 F 
ATOM     89  C   UNL A   1      33.063  35.224  29.931  1.00  0.00     0.022 A 
BRANCH  86  90
ATOM     90  S   UNL A   1      32.888  36.738  32.244  1.00  0.00     0.124 S 
ATOM     91  O   UNL A   1      32.928  37.891  31.351  1.00  0.00    -0.237 OA
ATOM     92  O   UNL A   1      31.567  36.212  32.566  1.00  0.00    -0.237 OA
ATOM     93  O   UNL A   1      33.806  36.816  33.381  1.00  0.00    -0.744 OA
ENDBRANCH  86  90
ENDBRANCH  59  83
BRANCH  71  94
ATOM     94  C   UNL A   1      39.529  29.077  31.465  1.00  0.00     0.023 A 
ATOM     95  C   UNL A   1      40.397  29.381  30.392  1.00  0.00     0.031 A 
ATOM     96  C   UNL A   1      38.775  27.894  31.381  1.00  0.00     0.131 A 
ATOM     97  C   UNL A   1      40.473  28.515  29.283  1.00  0.00     0.055 A 
ATOM     98  C   UNL A   1      38.869  27.029  30.294  1.00  0.00     0.041 A 
ATOM     99  F   UNL A   1      37.941  27.547  32.375  1.00  0.00    -0.206 F 
ATOM    100  C   UNL A   1      39.714  27.340  29.236  1.00  0.00     0.022 A 
BRANCH  97 101
ATOM    101  S   UNL A   1      41.542  28.910  27.858  1.00  0.00     0.124 S 
ATOM    102  O   UNL A   1      42.435  27.754  27.769  1.00  0.00    -0.237 OA
ATOM    103  O   UNL A   1      40.584  29.054  26.768  1.00  0.00    -0.237 OA
ATOM    104  O   UNL A   1      42.200  30.153  28.257  1.00  0.00    -0.744 OA
ENDBRANCH  97 101
ENDBRANCH  71  94
ENDBRANCH  45  46
ENDBRANCH  37  40
ENDBRANCH  35  36
ENDBRANCH  34  35
ENDBRANCH  33  34
ENDBRANCH   3  33
TORSDOF 20
ENDMDL
MODEL 3
REMARK VINA RESULT:     -11.2      3.387      8.591
REMARK SMILES O=C(COc1ccccc1/C=N/N1[C@@H](S)N=N[C@H]1[C@@H]1C=C(c2ccccc2)N=N1)NCCCNC(=O)c1ccc(-c2c3nc(c(-c4cc(S(=O)(=O)[O-])ccc4F)c4ccc([nH]4)c(-c4cc(S(=O)(=O)[O-])ccc4F)c4nc(c(-c5cc(S(=O)(=O)[O-])ccc5F)c5ccc2[nH]5)C=C4)C=C3)cc1
REMARK SMILES IDX 1 1 2 2 30 3 3 5 4 6 5 7 6 8 10 9 7 10 9 11 8 12 11 13 12 14
REMARK SMILES IDX 13 15 14 16 18 17 16 18 17 19 15 20 19 22 20 23 29 24 21 25
REMARK SMILES IDX 28 26 22 27 23 28 27 29 24 30 26 31 25 32 31 33 32 34 33 35
REMARK SMILES IDX 34 36 35 37 36 39 37 40 38 41 99 42 39 43 98 44 40 45 41 46
REMARK SMILES IDX 42 47 92 48 43 49 97 50 91 51 93 52 44 53 96 54 90 55 89 56
REMARK SMILES IDX 45 58 77 59 57 60 76 61 58 62 61 63 75 64 94 65 59 66 60 67
REMARK SMILES IDX 74 69 95 70 62 71 46 72 47 73 55 74 48 75 54 76 56 77 53 78
REMARK SMILES IDX 49 79 50 80 51 81 52 82 78 83 79 84 87 85 80 86 86 87 88 88
REMARK SMILES IDX 85 89 81 90 82 91 83 92 84 93 63 94 64 95 72 96 65 97 71 98
REMARK SMILES IDX 73 99 70 100 66 101 67 102 68 103 69 104
REMARK H PARENT 30 4 15 21 34 38 93 57 61 68
REMARK Flexibility Score: inf
ROOT
ATOM      1  O   UNL A   1      32.870  35.252  29.140  1.00  0.00    -0.271 OA
ATOM      2  C   UNL A   1      33.623  34.272  29.138  1.00  0.00     0.257 C 
ATOM      3  N   UNL A   1      34.554  33.738  30.134  1.00  0.00    -0.353 N 
ATOM      4  H   UNL A   1      34.821  32.843  29.820  1.00  0.00     0.163 HD
ENDROOT
BRANCH   2   5
ATOM      5  C   UNL A   1      33.503  33.702  27.756  1.00  0.00     0.329 C 
BRANCH   5   6
ATOM      6  O   UNL A   1      32.762  32.585  27.526  1.00  0.00    -0.483 OA
BRANCH   6   7
ATOM      7  C   UNL A   1      33.346  31.367  27.487  1.00  0.00     0.128 A 
ATOM      8  C   UNL A   1      34.653  31.655  27.957  1.00  0.00     0.047 A 
ATOM      9  C   UNL A   1      32.979  30.121  26.910  1.00  0.00     0.037 A 
ATOM     10  C   UNL A   1      35.692  30.788  27.757  1.00  0.00     0.004 A 
ATOM     11  C   UNL A   1      34.086  29.269  26.706  1.00  0.00     0.013 A 
ATOM     12  C   UNL A   1      35.410  29.601  27.106  1.00  0.00     0.001 A 
BRANCH   9  13
ATOM     13  C   UNL A   1      31.657  29.646  26.179  1.00  0.00     0.145 C 
ATOM     14  N   UNL A   1      31.280  29.854  24.931  1.00  0.00    -0.180 NA
BRANCH  14  15
ATOM     15  N   UNL A   1      30.391  28.797  24.242  1.00  0.00    -0.233 NA
ATOM     16  C   UNL A   1      29.463  29.418  23.235  1.00  0.00     0.298 C 
ATOM     17  C   UNL A   1      31.024  27.684  23.063  1.00  0.00     0.274 C 
ATOM     18  N   UNL A   1      30.009  29.307  21.857  1.00  0.00    -0.153 NA
ATOM     19  N   UNL A   1      30.829  28.356  21.736  1.00  0.00    -0.161 NA
BRANCH  16  20
ATOM     20  S   UNL A   1      28.867  31.072  23.740  1.00  0.00    -0.128 SA
ATOM     21  H   UNL A   1      29.213  31.987  22.796  1.00  0.00     0.106 HD
ENDBRANCH  16  20
BRANCH  17  22
ATOM     22  C   UNL A   1      32.402  26.438  22.934  1.00  0.00     0.202 C 
ATOM     23  C   UNL A   1      32.387  24.982  23.417  1.00  0.00     0.037 C 
ATOM     24  N   UNL A   1      33.758  26.793  23.566  1.00  0.00    -0.177 NA
ATOM     25  C   UNL A   1      33.379  24.739  24.284  1.00  0.00     0.091 C 
ATOM     26  N   UNL A   1      34.194  25.846  24.337  1.00  0.00    -0.155 NA
BRANCH  25  27
ATOM     27  C   UNL A   1      33.292  23.597  25.294  1.00  0.00     0.002 A 
ATOM     28  C   UNL A   1      33.154  22.258  24.874  1.00  0.00     0.010 A 
ATOM     29  C   UNL A   1      33.498  23.728  26.671  1.00  0.00     0.010 A 
ATOM     30  C   UNL A   1      33.303  21.122  25.691  1.00  0.00     0.001 A 
ATOM     31  C   UNL A   1      33.557  22.598  27.535  1.00  0.00     0.001 A 
ATOM     32  C   UNL A   1      33.489  21.295  27.043  1.00  0.00     0.000 A 
ENDBRANCH  25  27
ENDBRANCH  17  22
ENDBRANCH  14  15
ENDBRANCH   9  13
ENDBRANCH   6   7
ENDBRANCH   5   6
ENDBRANCH   2   5
BRANCH   3  33
ATOM     33  C   UNL A   1      35.353  33.996  31.569  1.00  0.00     0.117 C 
BRANCH  33  34
ATOM     34  C   UNL A   1      36.782  33.594  32.298  1.00  0.00     0.042 C 
BRANCH  34  35
ATOM     35  C   UNL A   1      37.700  32.303  32.179  1.00  0.00     0.118 C 
BRANCH  35  36
ATOM     36  N   UNL A   1      36.995  31.008  32.123  1.00  0.00    -0.352 N 
ATOM     37  C   UNL A   1      37.080  29.969  31.189  1.00  0.00     0.251 C 
ATOM     38  H   UNL A   1      36.362  30.849  32.861  1.00  0.00     0.163 HD
ATOM     39  O   UNL A   1      36.068  29.320  30.942  1.00  0.00    -0.269 OA
BRANCH  37  40
ATOM     40  C   UNL A   1      38.367  29.590  30.548  1.00  0.00     0.039 A 
ATOM     41  C   UNL A   1      38.859  30.163  29.372  1.00  0.00     0.014 A 
ATOM     42  C   UNL A   1      39.053  28.519  31.086  1.00  0.00     0.014 A 
ATOM     43  C   UNL A   1      40.050  29.669  28.814  1.00  0.00     0.010 A 
ATOM     44  C   UNL A   1      40.294  28.124  30.644  1.00  0.00     0.010 A 
ATOM     45  C   UNL A   1      40.771  28.645  29.461  1.00  0.00    -0.014 A 
BRANCH  45  46
ATOM     46  C   UNL A   1      42.096  28.209  29.015  1.00  0.00     0.031 A 
ATOM     47  C   UNL A   1      42.033  26.948  28.242  1.00  0.00     0.074 A 
ATOM     48  C   UNL A   1      43.234  28.943  29.085  1.00  0.00     0.049 A 
ATOM     49  N   UNL A   1      42.262  25.760  28.691  1.00  0.00    -0.248 NA
ATOM     50  C   UNL A   1      41.417  26.966  26.906  1.00  0.00     0.031 C 
ATOM     51  C   UNL A   1      43.384  30.322  29.567  1.00  0.00     0.029 A 
ATOM     52  N   UNL A   1      44.504  28.641  28.672  1.00  0.00    -0.354 N 
ATOM     53  C   UNL A   1      42.132  24.922  27.592  1.00  0.00     0.074 A 
ATOM     54  C   UNL A   1      41.351  25.659  26.637  1.00  0.00     0.031 C 
ATOM     55  C   UNL A   1      44.605  30.804  29.234  1.00  0.00     0.029 A 
ATOM     56  C   UNL A   1      45.396  29.720  28.678  1.00  0.00     0.049 A 
ATOM     57  H   UNL A   1      44.770  27.735  28.393  1.00  0.00     0.167 HD
ATOM     58  C   UNL A   1      42.969  23.858  27.447  1.00  0.00     0.034 A 
ATOM     59  C   UNL A   1      46.708  29.722  28.306  1.00  0.00     0.034 A 
ATOM     60  C   UNL A   1      43.715  23.646  28.672  1.00  0.00     0.049 A 
ATOM     61  C   UNL A   1      47.186  28.333  28.467  1.00  0.00     0.074 A 
ATOM     62  C   UNL A   1      43.431  23.231  29.955  1.00  0.00     0.029 A 
ATOM     63  N   UNL A   1      44.918  24.312  28.721  1.00  0.00    -0.354 N 
ATOM     64  N   UNL A   1      47.258  27.745  29.628  1.00  0.00    -0.248 NA
ATOM     65  C   UNL A   1      47.201  27.438  27.318  1.00  0.00     0.031 C 
ATOM     66  C   UNL A   1      44.363  23.910  30.799  1.00  0.00     0.029 A 
ATOM     67  C   UNL A   1      45.229  24.664  30.008  1.00  0.00     0.049 A 
ATOM     68  H   UNL A   1      45.479  24.508  27.936  1.00  0.00     0.167 HD
ATOM     69  C   UNL A   1      46.860  26.445  29.381  1.00  0.00     0.074 A 
ATOM     70  C   UNL A   1      47.023  26.269  27.942  1.00  0.00     0.031 C 
ATOM     71  C   UNL A   1      46.149  25.750  30.315  1.00  0.00     0.034 A 
BRANCH  58  72
ATOM     72  C   UNL A   1      43.504  23.329  26.125  1.00  0.00     0.023 A 
ATOM     73  C   UNL A   1      43.459  21.930  25.936  1.00  0.00     0.031 A 
ATOM     74  C   UNL A   1      44.299  24.041  25.200  1.00  0.00     0.131 A 
ATOM     75  C   UNL A   1      44.249  21.303  24.956  1.00  0.00     0.055 A 
ATOM     76  C   UNL A   1      45.042  23.416  24.193  1.00  0.00     0.041 A 
ATOM     77  F   UNL A   1      44.482  25.363  25.258  1.00  0.00    -0.206 F 
ATOM     78  C   UNL A   1      45.046  22.038  24.086  1.00  0.00     0.022 A 
BRANCH  75  79
ATOM     79  S   UNL A   1      44.339  19.494  24.943  1.00  0.00     0.124 S 
ATOM     80  O   UNL A   1      45.609  19.254  25.618  1.00  0.00    -0.237 OA
ATOM     81  O   UNL A   1      43.135  19.129  25.681  1.00  0.00    -0.237 OA
ATOM     82  O   UNL A   1      44.319  19.165  23.519  1.00  0.00    -0.744 OA
ENDBRANCH  75  79
ENDBRANCH  58  72
BRANCH  59  83
ATOM     83  C   UNL A   1      47.506  30.769  27.604  1.00  0.00     0.023 A 
ATOM     84  C   UNL A   1      46.938  31.902  26.972  1.00  0.00     0.031 A 
ATOM     85  C   UNL A   1      48.900  30.799  27.820  1.00  0.00     0.131 A 
ATOM     86  C   UNL A   1      47.753  33.005  26.608  1.00  0.00     0.055 A 
ATOM     87  C   UNL A   1      49.697  31.894  27.470  1.00  0.00     0.041 A 
ATOM     88  F   UNL A   1      49.517  29.799  28.469  1.00  0.00    -0.206 F 
ATOM     89  C   UNL A   1      49.124  33.007  26.873  1.00  0.00     0.022 A 
BRANCH  86  90
ATOM     90  S   UNL A   1      47.030  34.506  25.854  1.00  0.00     0.124 S 
ATOM     91  O   UNL A   1      46.796  35.359  27.014  1.00  0.00    -0.237 OA
ATOM     92  O   UNL A   1      48.076  34.933  24.934  1.00  0.00    -0.237 OA
ATOM     93  O   UNL A   1      45.813  34.013  25.206  1.00  0.00    -0.744 OA
ENDBRANCH  86  90
ENDBRANCH  59  83
BRANCH  71  94
ATOM     94  C   UNL A   1      46.249  26.222  31.750  1.00  0.00     0.023 A 
ATOM     95  C   UNL A   1      45.279  26.989  32.434  1.00  0.00     0.031 A 
ATOM     96  C   UNL A   1      47.395  25.830  32.461  1.00  0.00     0.131 A 
ATOM     97  C   UNL A   1      45.490  27.347  33.781  1.00  0.00     0.055 A 
ATOM     98  C   UNL A   1      47.590  26.166  33.799  1.00  0.00     0.041 A 
ATOM     99  F   UNL A   1      48.346  25.091  31.866  1.00  0.00    -0.206 F 
ATOM    100  C   UNL A   1      46.640  26.933  34.463  1.00  0.00     0.022 A 
BRANCH  97 101
ATOM    101  S   UNL A   1      44.283  28.384  34.674  1.00  0.00     0.124 S 
ATOM    102  O   UNL A   1      43.074  27.560  34.698  1.00  0.00    -0.237 OA
ATOM    103  O   UNL A   1      44.931  28.593  35.964  1.00  0.00    -0.237 OA
ATOM    104  O   UNL A   1      44.182  29.584  33.844  1.00  0.00    -0.744 OA
ENDBRANCH  97 101
ENDBRANCH  71  94
ENDBRANCH  45  46
ENDBRANCH  37  40
ENDBRANCH  35  36
ENDBRANCH  34  35
ENDBRANCH  33  34
ENDBRANCH   3  33
TORSDOF 20
ENDMDL
