MODEL 1
REMARK VINA RESULT:     -13.0      0.000      0.000
REMARK SMILES Cc1cc2c(c(C)c1Cl)C=C(C(=O)NCCCNC(=O)c1ccc(-c3c4nc(c(-c5cc(S(=O)(=O)[O-])ccc5F)c5ccc([nH]5)c(-c5cc(S(=O)(=O)[O-])ccc5F)c5nc(c(-c6cc(S(=O)(=O)[O-])ccc6F)c6ccc3[nH]6)C=C5)C=C4)cc1)[C@H](C(F)(F)F)O2
REMARK SMILES IDX 17 1 16 2 15 3 14 4 12 5 13 6 11 8 1 9 2 10 3 11 8 12 4 13
REMARK SMILES IDX 6 14 9 15 5 16 89 17 7 18 10 19 84 20 85 21 86 22 87 23
REMARK SMILES IDX 88 24 18 25 19 26 20 28 21 29 22 30 83 31 23 32 82 33 24 34
REMARK SMILES IDX 25 35 26 36 76 37 27 38 81 39 75 40 77 41 28 42 80 43 74 44
REMARK SMILES IDX 73 45 29 47 61 48 41 49 60 50 42 51 45 52 59 53 78 54 43 55
REMARK SMILES IDX 44 56 58 58 79 59 46 60 30 61 31 62 39 63 32 64 38 65 40 66
REMARK SMILES IDX 37 67 33 68 34 69 35 70 36 71 62 72 63 73 71 74 64 75 70 76
REMARK SMILES IDX 72 77 69 78 65 79 66 80 67 81 68 82 47 83 48 84 56 85 49 86
REMARK SMILES IDX 55 87 57 88 54 89 50 90 51 91 52 92 53 93
REMARK H PARENT 14 7 18 27 77 46 45 57
REMARK Flexibility Score: inf
ROOT
ATOM      1  C   UNL A   1      35.639  22.141  26.143  1.00  0.00     0.118 C 
ENDROOT
BRANCH   1   2
ATOM      2  C   UNL A   1      34.333  21.629  26.750  1.00  0.00     0.042 C 
BRANCH   2   3
ATOM      3  C   UNL A   1      33.399  22.756  27.189  1.00  0.00     0.118 C 
BRANCH   3   4
ATOM      4  N   UNL A   1      32.001  22.362  27.106  1.00  0.00    -0.352 N 
ATOM      5  C   UNL A   1      30.921  22.717  26.376  1.00  0.00     0.251 C 
ATOM      6  O   UNL A   1      29.908  22.037  26.568  1.00  0.00    -0.270 OA
ATOM      7  H   UNL A   1      31.786  21.651  27.752  1.00  0.00     0.163 HD
BRANCH   5   8
ATOM      8  C   UNL A   1      30.880  23.830  25.386  1.00  0.00     0.067 C 
ATOM      9  C   UNL A   1      30.714  29.540  22.258  1.00  0.00     0.046 C 
ATOM     10  C   UNL A   1      30.817  28.413  23.250  1.00  0.00    -0.028 A 
ATOM     11  C   UNL A   1      30.615  27.103  22.800  1.00  0.00     0.052 A 
ATOM     12  C   UNL A   1      31.078  28.631  24.620  1.00  0.00     0.047 A 
ATOM     13  C   UNL A   1      30.681  26.032  23.686  1.00  0.00     0.128 A 
ATOM     14  C   UNL A   1      31.148  27.552  25.532  1.00  0.00    -0.021 A 
ATOM     15  Cl  UNL A   1      31.286  30.269  25.170  1.00  0.00    -0.084 Cl
ATOM     16  C   UNL A   1      30.919  26.240  25.049  1.00  0.00     0.022 A 
ATOM     17  O   UNL A   1      30.458  24.795  23.145  1.00  0.00    -0.475 OA
ATOM     18  C   UNL A   1      31.454  27.763  26.996  1.00  0.00     0.047 C 
ATOM     19  C   UNL A   1      30.869  25.065  25.923  1.00  0.00     0.026 C 
ATOM     20  C   UNL A   1      30.974  23.660  23.898  1.00  0.00     0.314 C 
BRANCH  20  21
ATOM     21  C   UNL A   1      32.382  23.283  23.413  1.00  0.00     0.429 C 
ATOM     22  F   UNL A   1      33.360  23.869  24.138  1.00  0.00    -0.167 F 
ATOM     23  F   UNL A   1      32.597  21.948  23.457  1.00  0.00    -0.167 F 
ATOM     24  F   UNL A   1      32.547  23.664  22.121  1.00  0.00    -0.167 F 
ENDBRANCH  20  21
ENDBRANCH   5   8
ENDBRANCH   3   4
ENDBRANCH   2   3
ENDBRANCH   1   2
BRANCH   1  25
ATOM     25  N   UNL A   1      36.585  21.056  25.921  1.00  0.00    -0.352 N 
ATOM     26  C   UNL A   1      37.944  21.100  25.729  1.00  0.00     0.251 C 
ATOM     27  H   UNL A   1      36.190  20.154  25.905  1.00  0.00     0.163 HD
ATOM     28  O   UNL A   1      38.510  20.120  25.252  1.00  0.00    -0.269 OA
BRANCH  26  29
ATOM     29  C   UNL A   1      38.721  22.308  26.088  1.00  0.00     0.039 A 
ATOM     30  C   UNL A   1      39.891  22.164  26.841  1.00  0.00     0.014 A 
ATOM     31  C   UNL A   1      38.267  23.586  25.747  1.00  0.00     0.014 A 
ATOM     32  C   UNL A   1      40.625  23.294  27.212  1.00  0.00     0.010 A 
ATOM     33  C   UNL A   1      39.035  24.706  26.057  1.00  0.00     0.010 A 
ATOM     34  C   UNL A   1      40.213  24.574  26.805  1.00  0.00    -0.014 A 
BRANCH  34  35
ATOM     35  C   UNL A   1      40.979  25.787  27.190  1.00  0.00     0.031 A 
ATOM     36  C   UNL A   1      40.352  26.818  28.090  1.00  0.00     0.074 A 
ATOM     37  C   UNL A   1      42.217  25.983  26.699  1.00  0.00     0.049 A 
ATOM     38  N   UNL A   1      40.823  27.974  28.479  1.00  0.00    -0.248 NA
ATOM     39  C   UNL A   1      39.004  26.517  28.595  1.00  0.00     0.031 C 
ATOM     40  C   UNL A   1      42.924  25.068  25.800  1.00  0.00     0.029 A 
ATOM     41  N   UNL A   1      43.103  27.013  26.888  1.00  0.00    -0.354 N 
ATOM     42  C   UNL A   1      39.827  28.545  29.263  1.00  0.00     0.074 A 
ATOM     43  C   UNL A   1      38.704  27.631  29.244  1.00  0.00     0.031 C 
ATOM     44  C   UNL A   1      44.146  25.562  25.546  1.00  0.00     0.029 A 
ATOM     45  C   UNL A   1      44.296  26.844  26.226  1.00  0.00     0.049 A 
ATOM     46  H   UNL A   1      42.902  27.801  27.444  1.00  0.00     0.167 HD
ATOM     47  C   UNL A   1      39.853  29.711  29.954  1.00  0.00     0.034 A 
ATOM     48  C   UNL A   1      45.386  27.634  26.171  1.00  0.00     0.034 A 
ATOM     49  C   UNL A   1      40.986  30.600  29.984  1.00  0.00     0.049 A 
ATOM     50  C   UNL A   1      45.387  28.937  26.922  1.00  0.00     0.074 A 
ATOM     51  C   UNL A   1      41.137  31.780  30.691  1.00  0.00     0.029 A 
ATOM     52  N   UNL A   1      42.164  30.409  29.274  1.00  0.00    -0.354 N 
ATOM     53  N   UNL A   1      44.438  29.461  27.662  1.00  0.00    -0.248 NA
ATOM     54  C   UNL A   1      46.602  29.756  26.827  1.00  0.00     0.031 C 
ATOM     55  C   UNL A   1      42.384  32.329  30.366  1.00  0.00     0.029 A 
ATOM     56  C   UNL A   1      43.036  31.462  29.504  1.00  0.00     0.049 A 
ATOM     57  H   UNL A   1      42.353  29.638  28.692  1.00  0.00     0.167 HD
ATOM     58  C   UNL A   1      44.947  30.667  28.132  1.00  0.00     0.074 A 
ATOM     59  C   UNL A   1      46.289  30.791  27.595  1.00  0.00     0.031 C 
ATOM     60  C   UNL A   1      44.359  31.584  28.939  1.00  0.00     0.034 A 
BRANCH  47  61
ATOM     61  C   UNL A   1      38.609  30.090  30.717  1.00  0.00     0.023 A 
ATOM     62  C   UNL A   1      37.591  30.859  30.127  1.00  0.00     0.031 A 
ATOM     63  C   UNL A   1      38.451  29.704  32.060  1.00  0.00     0.131 A 
ATOM     64  C   UNL A   1      36.495  31.280  30.896  1.00  0.00     0.055 A 
ATOM     65  C   UNL A   1      37.320  30.062  32.798  1.00  0.00     0.041 A 
ATOM     66  F   UNL A   1      39.398  28.985  32.680  1.00  0.00    -0.206 F 
ATOM     67  C   UNL A   1      36.342  30.867  32.222  1.00  0.00     0.022 A 
BRANCH  64  68
ATOM     68  S   UNL A   1      35.337  32.474  30.175  1.00  0.00     0.124 S 
ATOM     69  O   UNL A   1      36.220  33.602  29.889  1.00  0.00    -0.237 OA
ATOM     70  O   UNL A   1      34.822  31.756  29.015  1.00  0.00    -0.237 OA
ATOM     71  O   UNL A   1      34.371  32.703  31.246  1.00  0.00    -0.744 OA
ENDBRANCH  64  68
ENDBRANCH  47  61
BRANCH  48  72
ATOM     72  C   UNL A   1      46.564  27.202  25.374  1.00  0.00     0.023 A 
ATOM     73  C   UNL A   1      46.829  27.771  24.119  1.00  0.00     0.031 A 
ATOM     74  C   UNL A   1      47.462  26.243  25.873  1.00  0.00     0.131 A 
ATOM     75  C   UNL A   1      47.964  27.370  23.398  1.00  0.00     0.055 A 
ATOM     76  C   UNL A   1      48.604  25.867  25.165  1.00  0.00     0.041 A 
ATOM     77  F   UNL A   1      47.255  25.683  27.076  1.00  0.00    -0.206 F 
ATOM     78  C   UNL A   1      48.859  26.431  23.919  1.00  0.00     0.022 A 
BRANCH  75  79
ATOM     79  S   UNL A   1      48.266  28.101  21.767  1.00  0.00     0.124 S 
ATOM     80  O   UNL A   1      49.663  28.507  21.878  1.00  0.00    -0.237 OA
ATOM     81  O   UNL A   1      47.991  26.981  20.872  1.00  0.00    -0.237 OA
ATOM     82  O   UNL A   1      47.299  29.195  21.701  1.00  0.00    -0.744 OA
ENDBRANCH  75  79
ENDBRANCH  48  72
BRANCH  60  83
ATOM     83  C   UNL A   1      45.167  32.800  29.305  1.00  0.00     0.023 A 
ATOM     84  C   UNL A   1      45.099  33.979  28.545  1.00  0.00     0.031 A 
ATOM     85  C   UNL A   1      45.981  32.790  30.451  1.00  0.00     0.131 A 
ATOM     86  C   UNL A   1      45.856  35.096  28.926  1.00  0.00     0.055 A 
ATOM     87  C   UNL A   1      46.698  33.918  30.851  1.00  0.00     0.041 A 
ATOM     88  F   UNL A   1      46.076  31.687  31.211  1.00  0.00    -0.206 F 
ATOM     89  C   UNL A   1      46.641  35.078  30.083  1.00  0.00     0.022 A 
BRANCH  86  90
ATOM     90  S   UNL A   1      45.826  36.573  27.874  1.00  0.00     0.124 S 
ATOM     91  O   UNL A   1      44.562  36.412  27.164  1.00  0.00    -0.237 OA
ATOM     92  O   UNL A   1      45.879  37.657  28.848  1.00  0.00    -0.237 OA
ATOM     93  O   UNL A   1      47.024  36.429  27.047  1.00  0.00    -0.744 OA
ENDBRANCH  86  90
ENDBRANCH  60  83
ENDBRANCH  34  35
ENDBRANCH  26  29
ENDBRANCH   1  25
TORSDOF 14
ENDMDL
MODEL 2
REMARK VINA RESULT:     -12.9      5.331     10.100
REMARK SMILES Cc1cc2c(c(C)c1Cl)C=C(C(=O)NCCCNC(=O)c1ccc(-c3c4nc(c(-c5cc(S(=O)(=O)[O-])ccc5F)c5ccc([nH]5)c(-c5cc(S(=O)(=O)[O-])ccc5F)c5nc(c(-c6cc(S(=O)(=O)[O-])ccc6F)c6ccc3[nH]6)C=C5)C=C4)cc1)[C@H](C(F)(F)F)O2
REMARK SMILES IDX 17 1 16 2 15 3 14 4 12 5 13 6 11 8 1 9 2 10 3 11 8 12 4 13
REMARK SMILES IDX 6 14 9 15 5 16 89 17 7 18 10 19 84 20 85 21 86 22 87 23
REMARK SMILES IDX 88 24 18 25 19 26 20 28 21 29 22 30 83 31 23 32 82 33 24 34
REMARK SMILES IDX 25 35 26 36 76 37 27 38 81 39 75 40 77 41 28 42 80 43 74 44
REMARK SMILES IDX 73 45 29 47 61 48 41 49 60 50 42 51 45 52 59 53 78 54 43 55
REMARK SMILES IDX 44 56 58 58 79 59 46 60 30 61 31 62 39 63 32 64 38 65 40 66
REMARK SMILES IDX 37 67 33 68 34 69 35 70 36 71 62 72 63 73 71 74 64 75 70 76
REMARK SMILES IDX 72 77 69 78 65 79 66 80 67 81 68 82 47 83 48 84 56 85 49 86
REMARK SMILES IDX 55 87 57 88 54 89 50 90 51 91 52 92 53 93
REMARK H PARENT 14 7 18 27 77 46 45 57
REMARK Flexibility Score: inf
ROOT
ATOM      1  C   UNL A   1      33.285  29.114  24.907  1.00  0.00     0.118 C 
ENDROOT
BRANCH   1   2
ATOM      2  C   UNL A   1      32.816  28.820  23.482  1.00  0.00     0.042 C 
BRANCH   2   3
ATOM      3  C   UNL A   1      33.663  27.757  22.784  1.00  0.00     0.118 C 
BRANCH   3   4
ATOM      4  N   UNL A   1      32.964  27.168  21.652  1.00  0.00    -0.352 N 
ATOM      5  C   UNL A   1      32.322  26.009  21.388  1.00  0.00     0.251 C 
ATOM      6  O   UNL A   1      31.767  25.952  20.285  1.00  0.00    -0.270 OA
ATOM      7  H   UNL A   1      32.959  27.772  20.874  1.00  0.00     0.163 HD
BRANCH   5   8
ATOM      8  C   UNL A   1      32.238  24.842  22.311  1.00  0.00     0.067 C 
ATOM      9  C   UNL A   1      33.274  19.560  25.976  1.00  0.00     0.046 C 
ATOM     10  C   UNL A   1      33.370  20.774  25.092  1.00  0.00    -0.028 A 
ATOM     11  C   UNL A   1      32.190  21.437  24.734  1.00  0.00     0.052 A 
ATOM     12  C   UNL A   1      34.600  21.249  24.588  1.00  0.00     0.047 A 
ATOM     13  C   UNL A   1      32.230  22.553  23.904  1.00  0.00     0.128 A 
ATOM     14  C   UNL A   1      34.654  22.382  23.742  1.00  0.00    -0.021 A 
ATOM     15  Cl  UNL A   1      36.052  20.389  25.009  1.00  0.00    -0.084 Cl
ATOM     16  C   UNL A   1      33.441  23.019  23.382  1.00  0.00     0.022 A 
ATOM     17  O   UNL A   1      31.019  23.120  23.607  1.00  0.00    -0.475 OA
ATOM     18  C   UNL A   1      35.963  22.921  23.214  1.00  0.00     0.047 C 
ATOM     19  C   UNL A   1      33.376  24.135  22.434  1.00  0.00     0.026 C 
ATOM     20  C   UNL A   1      31.049  24.507  23.163  1.00  0.00     0.314 C 
BRANCH  20  21
ATOM     21  C   UNL A   1      30.862  25.460  24.354  1.00  0.00     0.429 C 
ATOM     22  F   UNL A   1      30.066  24.945  25.317  1.00  0.00    -0.167 F 
ATOM     23  F   UNL A   1      32.038  25.785  24.938  1.00  0.00    -0.167 F 
ATOM     24  F   UNL A   1      30.298  26.622  23.936  1.00  0.00    -0.167 F 
ENDBRANCH  20  21
ENDBRANCH   5   8
ENDBRANCH   3   4
ENDBRANCH   2   3
ENDBRANCH   1   2
BRANCH   1  25
ATOM     25  N   UNL A   1      32.673  30.327  25.430  1.00  0.00    -0.352 N 
ATOM     26  C   UNL A   1      32.882  30.973  26.624  1.00  0.00     0.251 C 
ATOM     27  H   UNL A   1      32.008  30.749  24.838  1.00  0.00     0.163 HD
ATOM     28  O   UNL A   1      32.053  31.793  27.010  1.00  0.00    -0.269 OA
BRANCH  26  29
ATOM     29  C   UNL A   1      34.084  30.687  27.440  1.00  0.00     0.039 A 
ATOM     30  C   UNL A   1      35.033  31.698  27.627  1.00  0.00     0.014 A 
ATOM     31  C   UNL A   1      34.315  29.411  27.962  1.00  0.00     0.014 A 
ATOM     32  C   UNL A   1      36.186  31.441  28.372  1.00  0.00     0.010 A 
ATOM     33  C   UNL A   1      35.431  29.176  28.762  1.00  0.00     0.010 A 
ATOM     34  C   UNL A   1      36.386  30.182  28.963  1.00  0.00    -0.014 A 
BRANCH  34  35
ATOM     35  C   UNL A   1      37.606  29.889  29.758  1.00  0.00     0.031 A 
ATOM     36  C   UNL A   1      38.681  29.006  29.186  1.00  0.00     0.074 A 
ATOM     37  C   UNL A   1      37.728  30.382  31.005  1.00  0.00     0.049 A 
ATOM     38  N   UNL A   1      39.781  28.571  29.745  1.00  0.00    -0.248 NA
ATOM     39  C   UNL A   1      38.475  28.525  27.811  1.00  0.00     0.031 C 
ATOM     40  C   UNL A   1      36.745  31.231  31.679  1.00  0.00     0.029 A 
ATOM     41  N   UNL A   1      38.733  30.241  31.928  1.00  0.00    -0.354 N 
ATOM     42  C   UNL A   1      40.391  27.757  28.798  1.00  0.00     0.074 A 
ATOM     43  C   UNL A   1      39.509  27.713  27.651  1.00  0.00     0.031 C 
ATOM     44  C   UNL A   1      37.212  31.565  32.892  1.00  0.00     0.029 A 
ATOM     45  C   UNL A   1      38.505  30.921  33.101  1.00  0.00     0.049 A 
ATOM     46  H   UNL A   1      39.542  29.702  31.767  1.00  0.00     0.167 HD
ATOM     47  C   UNL A   1      41.588  27.123  28.866  1.00  0.00     0.034 A 
ATOM     48  C   UNL A   1      39.251  31.013  34.219  1.00  0.00     0.034 A 
ATOM     49  C   UNL A   1      42.469  27.195  30.005  1.00  0.00     0.049 A 
ATOM     50  C   UNL A   1      40.563  30.281  34.289  1.00  0.00     0.074 A 
ATOM     51  C   UNL A   1      43.724  26.633  30.160  1.00  0.00     0.029 A 
ATOM     52  N   UNL A   1      42.186  27.867  31.186  1.00  0.00    -0.354 N 
ATOM     53  N   UNL A   1      41.128  29.518  33.382  1.00  0.00    -0.248 NA
ATOM     54  C   UNL A   1      41.334  30.418  35.531  1.00  0.00     0.031 C 
ATOM     55  C   UNL A   1      44.177  26.921  31.453  1.00  0.00     0.029 A 
ATOM     56  C   UNL A   1      43.231  27.713  32.084  1.00  0.00     0.049 A 
ATOM     57  H   UNL A   1      41.364  28.380  31.360  1.00  0.00     0.167 HD
ATOM     58  C   UNL A   1      42.330  29.094  33.941  1.00  0.00     0.074 A 
ATOM     59  C   UNL A   1      42.409  29.690  35.261  1.00  0.00     0.031 C 
ATOM     60  C   UNL A   1      43.282  28.290  33.407  1.00  0.00     0.034 A 
BRANCH  47  61
ATOM     61  C   UNL A   1      41.997  26.287  27.680  1.00  0.00     0.023 A 
ATOM     62  C   UNL A   1      41.615  24.940  27.564  1.00  0.00     0.031 A 
ATOM     63  C   UNL A   1      42.804  26.835  26.667  1.00  0.00     0.131 A 
ATOM     64  C   UNL A   1      42.096  24.164  26.499  1.00  0.00     0.055 A 
ATOM     65  C   UNL A   1      43.218  26.077  25.569  1.00  0.00     0.041 A 
ATOM     66  F   UNL A   1      43.215  28.110  26.735  1.00  0.00    -0.206 F 
ATOM     67  C   UNL A   1      42.877  24.730  25.488  1.00  0.00     0.022 A 
BRANCH  64  68
ATOM     68  S   UNL A   1      41.790  22.378  26.520  1.00  0.00     0.124 S 
ATOM     69  O   UNL A   1      42.591  21.929  25.383  1.00  0.00    -0.237 OA
ATOM     70  O   UNL A   1      42.277  21.988  27.837  1.00  0.00    -0.237 OA
ATOM     71  O   UNL A   1      40.344  22.276  26.334  1.00  0.00    -0.744 OA
ENDBRANCH  64  68
ENDBRANCH  47  61
BRANCH  48  72
ATOM     72  C   UNL A   1      38.765  31.836  35.358  1.00  0.00     0.023 A 
ATOM     73  C   UNL A   1      38.156  31.234  36.469  1.00  0.00     0.031 A 
ATOM     74  C   UNL A   1      38.940  33.230  35.367  1.00  0.00     0.131 A 
ATOM     75  C   UNL A   1      37.733  32.029  37.546  1.00  0.00     0.055 A 
ATOM     76  C   UNL A   1      38.543  34.013  36.452  1.00  0.00     0.041 A 
ATOM     77  F   UNL A   1      39.532  33.846  34.331  1.00  0.00    -0.206 F 
ATOM     78  C   UNL A   1      37.934  33.412  37.549  1.00  0.00     0.022 A 
BRANCH  75  79
ATOM     79  S   UNL A   1      36.922  31.228  38.956  1.00  0.00     0.124 S 
ATOM     80  O   UNL A   1      36.793  29.854  38.483  1.00  0.00    -0.237 OA
ATOM     81  O   UNL A   1      37.884  31.450  40.031  1.00  0.00    -0.237 OA
ATOM     82  O   UNL A   1      35.667  31.964  39.090  1.00  0.00    -0.744 OA
ENDBRANCH  75  79
ENDBRANCH  48  72
BRANCH  60  83
ATOM     83  C   UNL A   1      44.503  28.017  34.243  1.00  0.00     0.023 A 
ATOM     84  C   UNL A   1      44.574  26.897  35.088  1.00  0.00     0.031 A 
ATOM     85  C   UNL A   1      45.621  28.864  34.161  1.00  0.00     0.131 A 
ATOM     86  C   UNL A   1      45.734  26.667  35.842  1.00  0.00     0.055 A 
ATOM     87  C   UNL A   1      46.789  28.608  34.880  1.00  0.00     0.041 A 
ATOM     88  F   UNL A   1      45.601  29.945  33.366  1.00  0.00    -0.206 F 
ATOM     89  C   UNL A   1      46.848  27.506  35.730  1.00  0.00     0.022 A 
BRANCH  86  90
ATOM     90  S   UNL A   1      45.764  25.271  36.998  1.00  0.00     0.124 S 
ATOM     91  O   UNL A   1      47.056  24.661  36.700  1.00  0.00    -0.237 OA
ATOM     92  O   UNL A   1      45.653  25.930  38.294  1.00  0.00    -0.237 OA
ATOM     93  O   UNL A   1      44.600  24.478  36.608  1.00  0.00    -0.744 OA
ENDBRANCH  86  90
ENDBRANCH  60  83
ENDBRANCH  34  35
ENDBRANCH  26  29
ENDBRANCH   1  25
TORSDOF 14
ENDMDL
MODEL 3
REMARK VINA RESULT:     -12.6      1.137      7.600
REMARK SMILES Cc1cc2c(c(C)c1Cl)C=C(C(=O)NCCCNC(=O)c1ccc(-c3c4nc(c(-c5cc(S(=O)(=O)[O-])ccc5F)c5ccc([nH]5)c(-c5cc(S(=O)(=O)[O-])ccc5F)c5nc(c(-c6cc(S(=O)(=O)[O-])ccc6F)c6ccc3[nH]6)C=C5)C=C4)cc1)[C@H](C(F)(F)F)O2
REMARK SMILES IDX 17 1 16 2 15 3 14 4 12 5 13 6 11 8 1 9 2 10 3 11 8 12 4 13
REMARK SMILES IDX 6 14 9 15 5 16 89 17 7 18 10 19 84 20 85 21 86 22 87 23
REMARK SMILES IDX 88 24 18 25 19 26 20 28 21 29 22 30 83 31 23 32 82 33 24 34
REMARK SMILES IDX 25 35 26 36 76 37 27 38 81 39 75 40 77 41 28 42 80 43 74 44
REMARK SMILES IDX 73 45 29 47 61 48 41 49 60 50 42 51 45 52 59 53 78 54 43 55
REMARK SMILES IDX 44 56 58 58 79 59 46 60 30 61 31 62 39 63 32 64 38 65 40 66
REMARK SMILES IDX 37 67 33 68 34 69 35 70 36 71 62 72 63 73 71 74 64 75 70 76
REMARK SMILES IDX 72 77 69 78 65 79 66 80 67 81 68 82 47 83 48 84 56 85 49 86
REMARK SMILES IDX 55 87 57 88 54 89 50 90 51 91 52 92 53 93
REMARK H PARENT 14 7 18 27 77 46 45 57
REMARK Flexibility Score: inf
ROOT
ATOM      1  C   UNL A   1      37.674  21.677  24.977  1.00  0.00     0.118 C 
ENDROOT
BRANCH   1   2
ATOM      2  C   UNL A   1      36.186  21.657  25.325  1.00  0.00     0.042 C 
BRANCH   2   3
ATOM      3  C   UNL A   1      35.745  22.883  26.122  1.00  0.00     0.118 C 
BRANCH   3   4
ATOM      4  N   UNL A   1      34.740  22.547  27.119  1.00  0.00    -0.352 N 
ATOM      5  C   UNL A   1      33.410  22.732  27.276  1.00  0.00     0.251 C 
ATOM      6  O   UNL A   1      32.914  22.181  28.264  1.00  0.00    -0.270 OA
ATOM      7  H   UNL A   1      35.130  22.056  27.877  1.00  0.00     0.163 HD
BRANCH   5   8
ATOM      8  C   UNL A   1      32.539  23.525  26.364  1.00  0.00     0.067 C 
ATOM      9  C   UNL A   1      29.283  28.130  23.107  1.00  0.00     0.046 C 
ATOM     10  C   UNL A   1      30.207  27.329  23.984  1.00  0.00    -0.028 A 
ATOM     11  C   UNL A   1      30.061  25.937  24.016  1.00  0.00     0.052 A 
ATOM     12  C   UNL A   1      31.191  27.930  24.797  1.00  0.00     0.047 A 
ATOM     13  C   UNL A   1      30.880  25.158  24.827  1.00  0.00     0.128 A 
ATOM     14  C   UNL A   1      32.031  27.150  25.627  1.00  0.00    -0.021 A 
ATOM     15  Cl  UNL A   1      31.333  29.664  24.777  1.00  0.00    -0.084 Cl
ATOM     16  C   UNL A   1      31.845  25.746  25.651  1.00  0.00     0.022 A 
ATOM     17  O   UNL A   1      30.647  23.809  24.791  1.00  0.00    -0.475 OA
ATOM     18  C   UNL A   1      33.109  27.773  26.482  1.00  0.00     0.047 C 
ATOM     19  C   UNL A   1      32.591  24.857  26.547  1.00  0.00     0.026 C 
ATOM     20  C   UNL A   1      31.743  22.954  25.227  1.00  0.00     0.314 C 
BRANCH  20  21
ATOM     21  C   UNL A   1      32.607  22.530  24.029  1.00  0.00     0.429 C 
ATOM     22  F   UNL A   1      33.607  23.400  23.769  1.00  0.00    -0.167 F 
ATOM     23  F   UNL A   1      33.172  21.314  24.213  1.00  0.00    -0.167 F 
ATOM     24  F   UNL A   1      31.842  22.441  22.912  1.00  0.00    -0.167 F 
ENDBRANCH  20  21
ENDBRANCH   5   8
ENDBRANCH   3   4
ENDBRANCH   2   3
ENDBRANCH   1   2
BRANCH   1  25
ATOM     25  N   UNL A   1      38.424  20.726  25.785  1.00  0.00    -0.352 N 
ATOM     26  C   UNL A   1      39.596  20.895  26.481  1.00  0.00     0.251 C 
ATOM     27  H   UNL A   1      38.033  19.824  25.839  1.00  0.00     0.163 HD
ATOM     28  O   UNL A   1      40.226  19.902  26.837  1.00  0.00    -0.269 OA
BRANCH  26  29
ATOM     29  C   UNL A   1      40.100  22.250  26.799  1.00  0.00     0.039 A 
ATOM     30  C   UNL A   1      39.528  23.355  26.159  1.00  0.00     0.014 A 
ATOM     31  C   UNL A   1      41.178  22.433  27.670  1.00  0.00     0.014 A 
ATOM     32  C   UNL A   1      40.006  24.640  26.427  1.00  0.00     0.010 A 
ATOM     33  C   UNL A   1      41.608  23.719  27.989  1.00  0.00     0.010 A 
ATOM     34  C   UNL A   1      41.038  24.835  27.360  1.00  0.00    -0.014 A 
BRANCH  34  35
ATOM     35  C   UNL A   1      41.561  26.193  27.658  1.00  0.00     0.031 A 
ATOM     36  C   UNL A   1      42.934  26.589  27.187  1.00  0.00     0.074 A 
ATOM     37  C   UNL A   1      40.821  27.052  28.384  1.00  0.00     0.049 A 
ATOM     38  N   UNL A   1      43.598  27.694  27.407  1.00  0.00    -0.248 NA
ATOM     39  C   UNL A   1      43.667  25.597  26.385  1.00  0.00     0.031 C 
ATOM     40  C   UNL A   1      39.486  26.777  28.916  1.00  0.00     0.029 A 
ATOM     41  N   UNL A   1      41.087  28.333  28.798  1.00  0.00    -0.354 N 
ATOM     42  C   UNL A   1      44.830  27.526  26.784  1.00  0.00     0.074 A 
ATOM     43  C   UNL A   1      44.840  26.190  26.228  1.00  0.00     0.031 C 
ATOM     44  C   UNL A   1      39.035  27.869  29.555  1.00  0.00     0.029 A 
ATOM     45  C   UNL A   1      40.063  28.904  29.515  1.00  0.00     0.049 A 
ATOM     46  H   UNL A   1      41.932  28.798  28.602  1.00  0.00     0.167 HD
ATOM     47  C   UNL A   1      45.850  28.412  26.665  1.00  0.00     0.034 A 
ATOM     48  C   UNL A   1      39.963  30.124  30.079  1.00  0.00     0.034 A 
ATOM     49  C   UNL A   1      45.818  29.748  27.203  1.00  0.00     0.049 A 
ATOM     50  C   UNL A   1      41.115  31.084  29.962  1.00  0.00     0.074 A 
ATOM     51  C   UNL A   1      46.774  30.743  27.096  1.00  0.00     0.029 A 
ATOM     52  N   UNL A   1      44.775  30.278  27.951  1.00  0.00    -0.354 N 
ATOM     53  N   UNL A   1      42.271  30.911  29.365  1.00  0.00    -0.248 NA
ATOM     54  C   UNL A   1      40.950  32.398  30.595  1.00  0.00     0.031 C 
ATOM     55  C   UNL A   1      46.334  31.854  27.825  1.00  0.00     0.029 A 
ATOM     56  C   UNL A   1      45.076  31.575  28.336  1.00  0.00     0.049 A 
ATOM     57  H   UNL A   1      43.943  29.802  28.175  1.00  0.00     0.167 HD
ATOM     58  C   UNL A   1      42.969  32.102  29.541  1.00  0.00     0.074 A 
ATOM     59  C   UNL A   1      42.101  32.986  30.295  1.00  0.00     0.031 C 
ATOM     60  C   UNL A   1      44.212  32.434  29.111  1.00  0.00     0.034 A 
BRANCH  47  61
ATOM     61  C   UNL A   1      47.087  27.948  25.938  1.00  0.00     0.023 A 
ATOM     62  C   UNL A   1      47.253  28.162  24.559  1.00  0.00     0.031 A 
ATOM     63  C   UNL A   1      48.100  27.257  26.626  1.00  0.00     0.131 A 
ATOM     64  C   UNL A   1      48.368  27.629  23.896  1.00  0.00     0.055 A 
ATOM     65  C   UNL A   1      49.245  26.793  25.974  1.00  0.00     0.041 A 
ATOM     66  F   UNL A   1      47.987  27.007  27.939  1.00  0.00    -0.206 F 
ATOM     67  C   UNL A   1      49.377  26.965  24.599  1.00  0.00     0.022 A 
BRANCH  64  68
ATOM     68  S   UNL A   1      48.420  27.707  22.086  1.00  0.00     0.124 S 
ATOM     69  O   UNL A   1      48.657  26.308  21.739  1.00  0.00    -0.237 OA
ATOM     70  O   UNL A   1      47.102  28.234  21.753  1.00  0.00    -0.237 OA
ATOM     71  O   UNL A   1      49.538  28.607  21.814  1.00  0.00    -0.744 OA
ENDBRANCH  64  68
ENDBRANCH  47  61
BRANCH  48  72
ATOM     72  C   UNL A   1      38.720  30.497  30.804  1.00  0.00     0.023 A 
ATOM     73  C   UNL A   1      37.710  31.231  30.165  1.00  0.00     0.031 A 
ATOM     74  C   UNL A   1      38.509  30.090  32.133  1.00  0.00     0.131 A 
ATOM     75  C   UNL A   1      36.532  31.545  30.860  1.00  0.00     0.055 A 
ATOM     76  C   UNL A   1      37.324  30.381  32.811  1.00  0.00     0.041 A 
ATOM     77  F   UNL A   1      39.443  29.372  32.778  1.00  0.00    -0.206 F 
ATOM     78  C   UNL A   1      36.328  31.114  32.174  1.00  0.00     0.022 A 
BRANCH  75  79
ATOM     79  S   UNL A   1      35.255  32.521  30.019  1.00  0.00     0.124 S 
ATOM     80  O   UNL A   1      34.338  32.816  31.113  1.00  0.00    -0.237 OA
ATOM     81  O   UNL A   1      36.022  33.650  29.501  1.00  0.00    -0.237 OA
ATOM     82  O   UNL A   1      34.744  31.606  29.001  1.00  0.00    -0.744 OA
ENDBRANCH  75  79
ENDBRANCH  48  72
BRANCH  60  83
ATOM     83  C   UNL A   1      44.706  33.818  29.433  1.00  0.00     0.023 A 
ATOM     84  C   UNL A   1      44.495  34.893  28.554  1.00  0.00     0.031 A 
ATOM     85  C   UNL A   1      45.358  34.071  30.653  1.00  0.00     0.131 A 
ATOM     86  C   UNL A   1      44.958  36.172  28.895  1.00  0.00     0.055 A 
ATOM     87  C   UNL A   1      45.777  35.353  31.008  1.00  0.00     0.041 A 
ATOM     88  F   UNL A   1      45.579  33.076  31.526  1.00  0.00    -0.206 F 
ATOM     89  C   UNL A   1      45.582  36.411  30.124  1.00  0.00     0.022 A 
BRANCH  86  90
ATOM     90  S   UNL A   1      44.761  37.521  27.701  1.00  0.00     0.124 S 
ATOM     91  O   UNL A   1      43.484  37.188  27.077  1.00  0.00    -0.237 OA
ATOM     92  O   UNL A   1      44.764  38.704  28.555  1.00  0.00    -0.237 OA
ATOM     93  O   UNL A   1      45.929  37.385  26.832  1.00  0.00    -0.744 OA
ENDBRANCH  86  90
ENDBRANCH  60  83
ENDBRANCH  34  35
ENDBRANCH  26  29
ENDBRANCH   1  25
TORSDOF 14
ENDMDL
