MODEL 1
REMARK VINA RESULT:     -13.0      0.000      0.000
REMARK SMILES Nc1c(Nc2ncc(C(F)(F)F)cc2Cl)ncnc1N1CCC(C(=O)NCCCNC(=O)c2ccc(-c3c4nc(c(-c5cc(S(=O)(=O)[O-])ccc5F)c5ccc([nH]5)c(-c5cc(S(=O)(=O)[O-])ccc5F)c5nc(c(-c6cc(S(=O)(=O)[O-])ccc6F)c6ccc3[nH]6)C=C5)C=C4)cc2)CC1
REMARK SMILES IDX 27 1 26 2 24 3 25 4 23 6 20 7 21 8 97 9 22 10 96 11 19 12
REMARK SMILES IDX 2 13 3 14 16 15 18 16 17 17 1 18 4 21 5 23 6 24 14 25 7 26
REMARK SMILES IDX 13 27 15 28 8 29 9 30 10 31 11 32 12 33 28 34 29 35 30 36
REMARK SMILES IDX 31 37 32 39 33 40 34 41 95 42 35 43 94 44 36 45 37 46 38 47
REMARK SMILES IDX 88 48 39 49 93 50 87 51 89 52 40 53 92 54 86 55 85 56 41 58
REMARK SMILES IDX 73 59 53 60 72 61 54 62 57 63 71 64 90 65 55 66 56 67 70 69
REMARK SMILES IDX 91 70 58 71 42 72 43 73 51 74 44 75 50 76 52 77 49 78 45 79
REMARK SMILES IDX 46 80 47 81 48 82 74 83 75 84 83 85 76 86 82 87 84 88 81 89
REMARK SMILES IDX 77 90 78 91 79 92 80 93 59 94 60 95 68 96 61 97 67 98 69 99
REMARK SMILES IDX 66 100 62 101 63 102 64 103 65 104
REMARK H PARENT 26 5 1 19 1 20 4 22 30 38 89 57 57 68
REMARK Flexibility Score: inf
ROOT
ATOM      1  C   UNL A   1      34.957  21.210  25.954  1.00  0.00     0.117 C 
ENDROOT
BRANCH   1   2
ATOM      2  N   UNL A   1      34.134  20.013  25.849  1.00  0.00    -0.356 N 
ATOM      3  C   UNL A   1      32.878  19.823  25.372  1.00  0.00     0.223 C 
ATOM      4  O   UNL A   1      32.414  18.680  25.421  1.00  0.00    -0.275 OA
ATOM      5  H   UNL A   1      34.567  19.194  26.183  1.00  0.00     0.163 HD
BRANCH   3   6
ATOM      6  C   UNL A   1      32.060  20.950  24.765  1.00  0.00     0.082 C 
ATOM      7  N   UNL A   1      31.617  23.673  24.016  1.00  0.00    -0.355 N 
ATOM      8  C   UNL A   1      30.879  23.145  25.157  1.00  0.00     0.119 C 
ATOM      9  C   UNL A   1      31.995  22.739  22.964  1.00  0.00     0.119 C 
ATOM     10  C   UNL A   1      31.622  21.985  25.805  1.00  0.00     0.035 C 
ATOM     11  C   UNL A   1      32.750  21.545  23.531  1.00  0.00     0.035 C 
BRANCH   7  12
ATOM     12  C   UNL A   1      32.409  24.803  24.225  1.00  0.00     0.157 A 
ATOM     13  C   UNL A   1      32.224  25.936  23.414  1.00  0.00     0.118 A 
ATOM     14  C   UNL A   1      32.983  27.068  23.745  1.00  0.00     0.160 A 
ATOM     15  N   UNL A   1      33.899  27.057  24.727  1.00  0.00    -0.217 NA
ATOM     16  N   UNL A   1      33.306  24.790  25.228  1.00  0.00    -0.217 NA
ATOM     17  C   UNL A   1      34.012  25.916  25.418  1.00  0.00     0.226 A 
BRANCH  13  18
ATOM     18  N   UNL A   1      31.187  26.009  22.460  1.00  0.00    -0.393 N 
ATOM     19  H   UNL A   1      30.337  26.448  22.691  1.00  0.00     0.156 HD
ATOM     20  H   UNL A   1      31.314  25.622  21.564  1.00  0.00     0.156 HD
ENDBRANCH  13  18
BRANCH  14  21
ATOM     21  N   UNL A   1      32.686  28.268  23.050  1.00  0.00    -0.322 N 
ATOM     22  H   UNL A   1      33.373  28.581  22.419  1.00  0.00     0.170 HD
BRANCH  21  23
ATOM     23  C   UNL A   1      31.544  29.059  23.150  1.00  0.00     0.150 A 
ATOM     24  N   UNL A   1      30.806  29.103  22.010  1.00  0.00    -0.237 NA
ATOM     25  C   UNL A   1      31.165  29.778  24.290  1.00  0.00     0.084 A 
ATOM     26  C   UNL A   1      29.636  29.781  22.028  1.00  0.00     0.126 A 
ATOM     27  C   UNL A   1      29.960  30.486  24.273  1.00  0.00     0.039 A 
ATOM     28  Cl  UNL A   1      32.171  29.951  25.685  1.00  0.00    -0.080 Cl
ATOM     29  C   UNL A   1      29.162  30.478  23.126  1.00  0.00     0.075 A 
BRANCH  29  30
ATOM     30  C   UNL A   1      27.850  31.193  23.040  1.00  0.00     0.417 C 
ATOM     31  F   UNL A   1      27.986  32.454  22.540  1.00  0.00    -0.166 F 
ATOM     32  F   UNL A   1      26.964  30.564  22.224  1.00  0.00    -0.166 F 
ATOM     33  F   UNL A   1      27.227  31.337  24.241  1.00  0.00    -0.166 F 
ENDBRANCH  29  30
ENDBRANCH  21  23
ENDBRANCH  14  21
ENDBRANCH   7  12
ENDBRANCH   3   6
ENDBRANCH   1   2
BRANCH   1  34
ATOM     34  C   UNL A   1      36.022  21.276  24.867  1.00  0.00     0.042 C 
BRANCH  34  35
ATOM     35  C   UNL A   1      37.317  21.935  25.320  1.00  0.00     0.118 C 
BRANCH  35  36
ATOM     36  N   UNL A   1      38.308  20.965  25.764  1.00  0.00    -0.352 N 
ATOM     37  C   UNL A   1      39.555  21.159  26.307  1.00  0.00     0.251 C 
ATOM     38  H   UNL A   1      38.043  20.023  25.660  1.00  0.00     0.163 HD
ATOM     39  O   UNL A   1      40.324  20.206  26.403  1.00  0.00    -0.269 OA
BRANCH  37  40
ATOM     40  C   UNL A   1      39.977  22.506  26.749  1.00  0.00     0.039 A 
ATOM     41  C   UNL A   1      40.881  22.619  27.808  1.00  0.00     0.014 A 
ATOM     42  C   UNL A   1      39.472  23.656  26.136  1.00  0.00     0.014 A 
ATOM     43  C   UNL A   1      41.330  23.881  28.202  1.00  0.00     0.010 A 
ATOM     44  C   UNL A   1      39.984  24.905  26.473  1.00  0.00     0.010 A 
ATOM     45  C   UNL A   1      40.915  25.032  27.513  1.00  0.00    -0.014 A 
BRANCH  45  46
ATOM     46  C   UNL A   1      41.425  26.377  27.882  1.00  0.00     0.031 A 
ATOM     47  C   UNL A   1      42.839  26.764  27.546  1.00  0.00     0.074 A 
ATOM     48  C   UNL A   1      40.628  27.235  28.550  1.00  0.00     0.049 A 
ATOM     49  N   UNL A   1      43.485  27.863  27.835  1.00  0.00    -0.248 NA
ATOM     50  C   UNL A   1      43.640  25.772  26.811  1.00  0.00     0.031 C 
ATOM     51  C   UNL A   1      39.247  26.963  28.955  1.00  0.00     0.029 A 
ATOM     52  N   UNL A   1      40.860  28.509  29.000  1.00  0.00    -0.354 N 
ATOM     53  C   UNL A   1      44.767  27.694  27.324  1.00  0.00     0.074 A 
ATOM     54  C   UNL A   1      44.824  26.362  26.762  1.00  0.00     0.031 C 
ATOM     55  C   UNL A   1      38.742  28.055  29.552  1.00  0.00     0.029 A 
ATOM     56  C   UNL A   1      39.772  29.087  29.612  1.00  0.00     0.049 A 
ATOM     57  H   UNL A   1      41.725  28.968  28.894  1.00  0.00     0.167 HD
ATOM     58  C   UNL A   1      45.792  28.580  27.296  1.00  0.00     0.034 A 
ATOM     59  C   UNL A   1      39.622  30.309  30.159  1.00  0.00     0.034 A 
ATOM     60  C   UNL A   1      45.717  29.913  27.835  1.00  0.00     0.049 A 
ATOM     61  C   UNL A   1      40.786  31.263  30.151  1.00  0.00     0.074 A 
ATOM     62  C   UNL A   1      46.684  30.903  27.821  1.00  0.00     0.029 A 
ATOM     63  N   UNL A   1      44.611  30.445  28.482  1.00  0.00    -0.354 N 
ATOM     64  N   UNL A   1      41.990  31.086  29.660  1.00  0.00    -0.248 NA
ATOM     65  C   UNL A   1      40.574  32.575  30.776  1.00  0.00     0.031 C 
ATOM     66  C   UNL A   1      46.181  32.015  28.504  1.00  0.00     0.029 A 
ATOM     67  C   UNL A   1      44.879  31.740  28.894  1.00  0.00     0.049 A 
ATOM     68  H   UNL A   1      43.760  29.972  28.628  1.00  0.00     0.167 HD
ATOM     69  C   UNL A   1      42.675  32.273  29.902  1.00  0.00     0.074 A 
ATOM     70  C   UNL A   1      41.749  33.159  30.579  1.00  0.00     0.031 C 
ATOM     71  C   UNL A   1      43.952  32.600  29.586  1.00  0.00     0.034 A 
BRANCH  58  72
ATOM     72  C   UNL A   1      47.083  28.125  26.665  1.00  0.00     0.023 A 
ATOM     73  C   UNL A   1      47.257  28.136  25.271  1.00  0.00     0.031 A 
ATOM     74  C   UNL A   1      48.146  27.669  27.462  1.00  0.00     0.131 A 
ATOM     75  C   UNL A   1      48.444  27.644  24.712  1.00  0.00     0.055 A 
ATOM     76  C   UNL A   1      49.352  27.245  26.903  1.00  0.00     0.041 A 
ATOM     77  F   UNL A   1      48.026  27.621  28.799  1.00  0.00    -0.206 F 
ATOM     78  C   UNL A   1      49.503  27.221  25.518  1.00  0.00     0.022 A 
BRANCH  75  79
ATOM     79  S   UNL A   1      48.549  27.473  22.910  1.00  0.00     0.124 S 
ATOM     80  O   UNL A   1      48.517  26.020  22.752  1.00  0.00    -0.237 OA
ATOM     81  O   UNL A   1      47.364  28.190  22.453  1.00  0.00    -0.237 OA
ATOM     82  O   UNL A   1      49.825  28.102  22.579  1.00  0.00    -0.744 OA
ENDBRANCH  75  79
ENDBRANCH  58  72
BRANCH  59  83
ATOM     83  C   UNL A   1      38.316  30.700  30.756  1.00  0.00     0.023 A 
ATOM     84  C   UNL A   1      37.375  31.423  30.009  1.00  0.00     0.031 A 
ATOM     85  C   UNL A   1      37.988  30.346  32.076  1.00  0.00     0.131 A 
ATOM     86  C   UNL A   1      36.153  31.787  30.593  1.00  0.00     0.055 A 
ATOM     87  C   UNL A   1      36.757  30.682  32.642  1.00  0.00     0.041 A 
ATOM     88  F   UNL A   1      38.853  29.644  32.824  1.00  0.00    -0.206 F 
ATOM     89  C   UNL A   1      35.833  31.412  31.900  1.00  0.00     0.022 A 
BRANCH  86  90
ATOM     90  S   UNL A   1      34.983  32.778  29.622  1.00  0.00     0.124 S 
ATOM     91  O   UNL A   1      34.342  31.758  28.800  1.00  0.00    -0.237 OA
ATOM     92  O   UNL A   1      34.154  33.379  30.663  1.00  0.00    -0.237 OA
ATOM     93  O   UNL A   1      35.846  33.712  28.902  1.00  0.00    -0.744 OA
ENDBRANCH  86  90
ENDBRANCH  59  83
BRANCH  71  94
ATOM     94  C   UNL A   1      44.422  33.980  29.953  1.00  0.00     0.023 A 
ATOM     95  C   UNL A   1      44.260  35.064  29.074  1.00  0.00     0.031 A 
ATOM     96  C   UNL A   1      44.988  34.222  31.216  1.00  0.00     0.131 A 
ATOM     97  C   UNL A   1      44.680  36.344  29.465  1.00  0.00     0.055 A 
ATOM     98  C   UNL A   1      45.367  35.503  31.616  1.00  0.00     0.041 A 
ATOM     99  F   UNL A   1      45.159  33.217  32.091  1.00  0.00    -0.206 F 
ATOM    100  C   UNL A   1      45.216  36.573  30.736  1.00  0.00     0.022 A 
BRANCH  97 101
ATOM    101  S   UNL A   1      44.531  37.711  28.284  1.00  0.00     0.124 S 
ATOM    102  O   UNL A   1      44.258  38.842  29.164  1.00  0.00    -0.237 OA
ATOM    103  O   UNL A   1      45.836  37.712  27.631  1.00  0.00    -0.237 OA
ATOM    104  O   UNL A   1      43.416  37.306  27.431  1.00  0.00    -0.744 OA
ENDBRANCH  97 101
ENDBRANCH  71  94
ENDBRANCH  45  46
ENDBRANCH  37  40
ENDBRANCH  35  36
ENDBRANCH  34  35
ENDBRANCH   1  34
TORSDOF 18
ENDMDL
MODEL 2
REMARK VINA RESULT:     -13.0      5.474     10.234
REMARK SMILES Nc1c(Nc2ncc(C(F)(F)F)cc2Cl)ncnc1N1CCC(C(=O)NCCCNC(=O)c2ccc(-c3c4nc(c(-c5cc(S(=O)(=O)[O-])ccc5F)c5ccc([nH]5)c(-c5cc(S(=O)(=O)[O-])ccc5F)c5nc(c(-c6cc(S(=O)(=O)[O-])ccc6F)c6ccc3[nH]6)C=C5)C=C4)cc2)CC1
REMARK SMILES IDX 27 1 26 2 24 3 25 4 23 6 20 7 21 8 97 9 22 10 96 11 19 12
REMARK SMILES IDX 2 13 3 14 16 15 18 16 17 17 1 18 4 21 5 23 6 24 14 25 7 26
REMARK SMILES IDX 13 27 15 28 8 29 9 30 10 31 11 32 12 33 28 34 29 35 30 36
REMARK SMILES IDX 31 37 32 39 33 40 34 41 95 42 35 43 94 44 36 45 37 46 38 47
REMARK SMILES IDX 88 48 39 49 93 50 87 51 89 52 40 53 92 54 86 55 85 56 41 58
REMARK SMILES IDX 73 59 53 60 72 61 54 62 57 63 71 64 90 65 55 66 56 67 70 69
REMARK SMILES IDX 91 70 58 71 42 72 43 73 51 74 44 75 50 76 52 77 49 78 45 79
REMARK SMILES IDX 46 80 47 81 48 82 74 83 75 84 83 85 76 86 82 87 84 88 81 89
REMARK SMILES IDX 77 90 78 91 79 92 80 93 59 94 60 95 68 96 61 97 67 98 69 99
REMARK SMILES IDX 66 100 62 101 63 102 64 103 65 104
REMARK H PARENT 26 5 1 19 1 20 4 22 30 38 89 57 57 68
REMARK Flexibility Score: inf
ROOT
ATOM      1  C   UNL A   1      31.315  29.422  24.901  1.00  0.00     0.117 C 
ENDROOT
BRANCH   1   2
ATOM      2  N   UNL A   1      30.732  29.846  23.636  1.00  0.00    -0.356 N 
ATOM      3  C   UNL A   1      30.323  29.139  22.551  1.00  0.00     0.223 C 
ATOM      4  O   UNL A   1      29.872  29.773  21.592  1.00  0.00    -0.275 OA
ATOM      5  H   UNL A   1      30.613  30.819  23.552  1.00  0.00     0.163 HD
BRANCH   3   6
ATOM      6  C   UNL A   1      30.375  27.622  22.503  1.00  0.00     0.082 C 
ATOM      7  N   UNL A   1      31.324  25.067  23.361  1.00  0.00    -0.355 N 
ATOM      8  C   UNL A   1      31.785  25.574  22.075  1.00  0.00     0.119 C 
ATOM      9  C   UNL A   1      30.006  25.483  23.819  1.00  0.00     0.119 C 
ATOM     10  C   UNL A   1      31.734  27.095  22.033  1.00  0.00     0.035 C 
ATOM     11  C   UNL A   1      29.871  26.999  23.811  1.00  0.00     0.035 C 
BRANCH   7  12
ATOM     12  C   UNL A   1      32.292  24.740  24.313  1.00  0.00     0.157 A 
ATOM     13  C   UNL A   1      32.207  23.512  24.991  1.00  0.00     0.118 A 
ATOM     14  C   UNL A   1      33.267  23.206  25.857  1.00  0.00     0.160 A 
ATOM     15  N   UNL A   1      34.269  24.067  26.099  1.00  0.00    -0.217 NA
ATOM     16  N   UNL A   1      33.306  25.598  24.527  1.00  0.00    -0.217 NA
ATOM     17  C   UNL A   1      34.235  25.219  25.418  1.00  0.00     0.226 A 
BRANCH  13  18
ATOM     18  N   UNL A   1      31.232  22.545  24.666  1.00  0.00    -0.393 N 
ATOM     19  H   UNL A   1      31.376  21.940  23.903  1.00  0.00     0.156 HD
ATOM     20  H   UNL A   1      30.409  22.476  25.201  1.00  0.00     0.156 HD
ENDBRANCH  13  18
BRANCH  14  21
ATOM     21  N   UNL A   1      33.286  21.903  26.417  1.00  0.00    -0.322 N 
ATOM     22  H   UNL A   1      33.050  21.840  27.371  1.00  0.00     0.170 HD
BRANCH  21  23
ATOM     23  C   UNL A   1      33.597  20.701  25.786  1.00  0.00     0.150 A 
ATOM     24  N   UNL A   1      32.547  19.843  25.694  1.00  0.00    -0.237 NA
ATOM     25  C   UNL A   1      34.863  20.358  25.297  1.00  0.00     0.084 A 
ATOM     26  C   UNL A   1      32.726  18.679  25.028  1.00  0.00     0.126 A 
ATOM     27  C   UNL A   1      35.022  19.140  24.631  1.00  0.00     0.039 A 
ATOM     28  Cl  UNL A   1      36.283  21.299  25.587  1.00  0.00    -0.080 Cl
ATOM     29  C   UNL A   1      33.931  18.283  24.471  1.00  0.00     0.075 A 
BRANCH  29  30
ATOM     30  C   UNL A   1      34.018  16.974  23.751  1.00  0.00     0.417 C 
ATOM     31  F   UNL A   1      35.009  16.181  24.248  1.00  0.00    -0.166 F 
ATOM     32  F   UNL A   1      32.875  16.246  23.849  1.00  0.00    -0.166 F 
ATOM     33  F   UNL A   1      34.278  17.100  22.422  1.00  0.00    -0.166 F 
ENDBRANCH  29  30
ENDBRANCH  21  23
ENDBRANCH  14  21
ENDBRANCH   7  12
ENDBRANCH   3   6
ENDBRANCH   1   2
BRANCH   1  34
ATOM     34  C   UNL A   1      32.835  29.348  24.840  1.00  0.00     0.042 C 
BRANCH  34  35
ATOM     35  C   UNL A   1      33.510  29.533  26.191  1.00  0.00     0.118 C 
BRANCH  35  36
ATOM     36  N   UNL A   1      33.402  30.900  26.683  1.00  0.00    -0.352 N 
ATOM     37  C   UNL A   1      34.141  31.558  27.636  1.00  0.00     0.251 C 
ATOM     38  H   UNL A   1      32.688  31.435  26.269  1.00  0.00     0.163 HD
ATOM     39  O   UNL A   1      33.742  32.637  28.067  1.00  0.00    -0.269 OA
BRANCH  37  40
ATOM     40  C   UNL A   1      35.392  30.964  28.155  1.00  0.00     0.039 A 
ATOM     41  C   UNL A   1      36.598  31.639  27.952  1.00  0.00     0.014 A 
ATOM     42  C   UNL A   1      35.382  29.738  28.825  1.00  0.00     0.014 A 
ATOM     43  C   UNL A   1      37.781  31.118  28.482  1.00  0.00     0.010 A 
ATOM     44  C   UNL A   1      36.545  29.264  29.425  1.00  0.00     0.010 A 
ATOM     45  C   UNL A   1      37.758  29.946  29.256  1.00  0.00    -0.014 A 
BRANCH  45  46
ATOM     46  C   UNL A   1      38.995  29.408  29.875  1.00  0.00     0.031 A 
ATOM     47  C   UNL A   1      39.493  29.972  31.177  1.00  0.00     0.074 A 
ATOM     48  C   UNL A   1      39.690  28.438  29.247  1.00  0.00     0.049 A 
ATOM     49  N   UNL A   1      40.580  29.679  31.842  1.00  0.00    -0.248 NA
ATOM     50  C   UNL A   1      38.673  31.024  31.799  1.00  0.00     0.031 C 
ATOM     51  C   UNL A   1      39.322  27.829  27.966  1.00  0.00     0.029 A 
ATOM     52  N   UNL A   1      40.844  27.788  29.602  1.00  0.00    -0.354 N 
ATOM     53  C   UNL A   1      40.577  30.511  32.956  1.00  0.00     0.074 A 
ATOM     54  C   UNL A   1      39.414  31.364  32.842  1.00  0.00     0.031 C 
ATOM     55  C   UNL A   1      40.208  26.864  27.669  1.00  0.00     0.029 A 
ATOM     56  C   UNL A   1      41.228  26.814  28.710  1.00  0.00     0.049 A 
ATOM     57  H   UNL A   1      41.350  27.999  30.420  1.00  0.00     0.167 HD
ATOM     58  C   UNL A   1      41.448  30.541  33.995  1.00  0.00     0.034 A 
ATOM     59  C   UNL A   1      42.284  25.976  28.729  1.00  0.00     0.034 A 
ATOM     60  C   UNL A   1      42.588  29.670  34.112  1.00  0.00     0.049 A 
ATOM     61  C   UNL A   1      43.258  26.052  29.873  1.00  0.00     0.074 A 
ATOM     62  C   UNL A   1      43.508  29.590  35.142  1.00  0.00     0.029 A 
ATOM     63  N   UNL A   1      42.965  28.725  33.167  1.00  0.00    -0.354 N 
ATOM     64  N   UNL A   1      43.237  26.844  30.919  1.00  0.00    -0.248 NA
ATOM     65  C   UNL A   1      44.399  25.128  29.837  1.00  0.00     0.031 C 
ATOM     66  C   UNL A   1      44.469  28.633  34.798  1.00  0.00     0.029 A 
ATOM     67  C   UNL A   1      44.116  28.076  33.579  1.00  0.00     0.049 A 
ATOM     68  H   UNL A   1      42.484  28.545  32.327  1.00  0.00     0.167 HD
ATOM     69  C   UNL A   1      44.355  26.502  31.675  1.00  0.00     0.074 A 
ATOM     70  C   UNL A   1      45.025  25.430  30.967  1.00  0.00     0.031 C 
ATOM     71  C   UNL A   1      44.782  27.025  32.850  1.00  0.00     0.034 A 
BRANCH  58  72
ATOM     72  C   UNL A   1      41.195  31.554  35.081  1.00  0.00     0.023 A 
ATOM     73  C   UNL A   1      40.087  31.445  35.937  1.00  0.00     0.031 A 
ATOM     74  C   UNL A   1      42.064  32.644  35.257  1.00  0.00     0.131 A 
ATOM     75  C   UNL A   1      39.843  32.440  36.894  1.00  0.00     0.055 A 
ATOM     76  C   UNL A   1      41.854  33.595  36.257  1.00  0.00     0.041 A 
ATOM     77  F   UNL A   1      43.129  32.806  34.455  1.00  0.00    -0.206 F 
ATOM     78  C   UNL A   1      40.732  33.502  37.076  1.00  0.00     0.022 A 
BRANCH  75  79
ATOM     79  S   UNL A   1      38.293  32.380  37.832  1.00  0.00     0.124 S 
ATOM     80  O   UNL A   1      37.730  31.107  37.387  1.00  0.00    -0.237 OA
ATOM     81  O   UNL A   1      38.756  32.424  39.214  1.00  0.00    -0.237 OA
ATOM     82  O   UNL A   1      37.572  33.567  37.378  1.00  0.00    -0.744 OA
ENDBRANCH  75  79
ENDBRANCH  58  72
BRANCH  59  83
ATOM     83  C   UNL A   1      42.468  24.990  27.631  1.00  0.00     0.023 A 
ATOM     84  C   UNL A   1      41.760  23.779  27.628  1.00  0.00     0.031 A 
ATOM     85  C   UNL A   1      43.346  25.250  26.564  1.00  0.00     0.131 A 
ATOM     86  C   UNL A   1      41.954  22.861  26.586  1.00  0.00     0.055 A 
ATOM     87  C   UNL A   1      43.512  24.347  25.512  1.00  0.00     0.041 A 
ATOM     88  F   UNL A   1      44.036  26.400  26.518  1.00  0.00    -0.206 F 
ATOM     89  C   UNL A   1      42.816  23.142  25.522  1.00  0.00     0.022 A 
BRANCH  86  90
ATOM     90  S   UNL A   1      41.072  21.276  26.644  1.00  0.00     0.124 S 
ATOM     91  O   UNL A   1      39.888  21.567  25.843  1.00  0.00    -0.237 OA
ATOM     92  O   UNL A   1      42.043  20.364  26.048  1.00  0.00    -0.237 OA
ATOM     93  O   UNL A   1      40.830  21.075  28.071  1.00  0.00    -0.744 OA
ENDBRANCH  86  90
ENDBRANCH  59  83
BRANCH  71  94
ATOM     94  C   UNL A   1      46.025  26.435  33.458  1.00  0.00     0.023 A 
ATOM     95  C   UNL A   1      47.296  26.958  33.172  1.00  0.00     0.031 A 
ATOM     96  C   UNL A   1      45.928  25.374  34.375  1.00  0.00     0.131 A 
ATOM     97  C   UNL A   1      48.430  26.404  33.784  1.00  0.00     0.055 A 
ATOM     98  C   UNL A   1      47.054  24.852  35.011  1.00  0.00     0.041 A 
ATOM     99  F   UNL A   1      44.734  24.844  34.681  1.00  0.00    -0.206 F 
ATOM    100  C   UNL A   1      48.315  25.367  34.714  1.00  0.00     0.022 A 
BRANCH  97 101
ATOM    101  S   UNL A   1      50.065  27.047  33.339  1.00  0.00     0.124 S 
ATOM    102  O   UNL A   1      49.722  28.200  32.515  1.00  0.00    -0.237 OA
ATOM    103  O   UNL A   1      50.654  27.346  34.640  1.00  0.00    -0.237 OA
ATOM    104  O   UNL A   1      50.687  25.935  32.623  1.00  0.00    -0.744 OA
ENDBRANCH  97 101
ENDBRANCH  71  94
ENDBRANCH  45  46
ENDBRANCH  37  40
ENDBRANCH  35  36
ENDBRANCH  34  35
ENDBRANCH   1  34
TORSDOF 18
ENDMDL
MODEL 3
REMARK VINA RESULT:     -12.7      2.467      7.819
REMARK SMILES Nc1c(Nc2ncc(C(F)(F)F)cc2Cl)ncnc1N1CCC(C(=O)NCCCNC(=O)c2ccc(-c3c4nc(c(-c5cc(S(=O)(=O)[O-])ccc5F)c5ccc([nH]5)c(-c5cc(S(=O)(=O)[O-])ccc5F)c5nc(c(-c6cc(S(=O)(=O)[O-])ccc6F)c6ccc3[nH]6)C=C5)C=C4)cc2)CC1
REMARK SMILES IDX 27 1 26 2 24 3 25 4 23 6 20 7 21 8 97 9 22 10 96 11 19 12
REMARK SMILES IDX 2 13 3 14 16 15 18 16 17 17 1 18 4 21 5 23 6 24 14 25 7 26
REMARK SMILES IDX 13 27 15 28 8 29 9 30 10 31 11 32 12 33 28 34 29 35 30 36
REMARK SMILES IDX 31 37 32 39 33 40 34 41 95 42 35 43 94 44 36 45 37 46 38 47
REMARK SMILES IDX 88 48 39 49 93 50 87 51 89 52 40 53 92 54 86 55 85 56 41 58
REMARK SMILES IDX 73 59 53 60 72 61 54 62 57 63 71 64 90 65 55 66 56 67 70 69
REMARK SMILES IDX 91 70 58 71 42 72 43 73 51 74 44 75 50 76 52 77 49 78 45 79
REMARK SMILES IDX 46 80 47 81 48 82 74 83 75 84 83 85 76 86 82 87 84 88 81 89
REMARK SMILES IDX 77 90 78 91 79 92 80 93 59 94 60 95 68 96 61 97 67 98 69 99
REMARK SMILES IDX 66 100 62 101 63 102 64 103 65 104
REMARK H PARENT 26 5 1 19 1 20 4 22 30 38 89 57 57 68
REMARK Flexibility Score: inf
ROOT
ATOM      1  C   UNL A   1      37.298  20.449  24.718  1.00  0.00     0.117 C 
ENDROOT
BRANCH   1   2
ATOM      2  N   UNL A   1      35.981  20.007  25.155  1.00  0.00    -0.356 N 
ATOM      3  C   UNL A   1      34.748  20.545  24.982  1.00  0.00     0.223 C 
ATOM      4  O   UNL A   1      33.789  19.951  25.485  1.00  0.00    -0.275 OA
ATOM      5  H   UNL A   1      35.988  19.166  25.667  1.00  0.00     0.163 HD
BRANCH   3   6
ATOM      6  C   UNL A   1      34.519  21.812  24.176  1.00  0.00     0.082 C 
ATOM      7  N   UNL A   1      33.205  24.289  23.623  1.00  0.00    -0.355 N 
ATOM      8  C   UNL A   1      32.913  23.150  22.762  1.00  0.00     0.119 C 
ATOM      9  C   UNL A   1      34.522  24.350  24.242  1.00  0.00     0.119 C 
ATOM     10  C   UNL A   1      33.149  21.834  23.491  1.00  0.00     0.035 C 
ATOM     11  C   UNL A   1      34.837  23.067  24.999  1.00  0.00     0.035 C 
BRANCH   7  12
ATOM     12  C   UNL A   1      32.131  24.902  24.272  1.00  0.00     0.157 A 
ATOM     13  C   UNL A   1      31.165  25.585  23.513  1.00  0.00     0.118 A 
ATOM     14  C   UNL A   1      30.063  26.088  24.220  1.00  0.00     0.160 A 
ATOM     15  N   UNL A   1      29.965  26.002  25.556  1.00  0.00    -0.217 NA
ATOM     16  N   UNL A   1      32.030  24.786  25.608  1.00  0.00    -0.217 NA
ATOM     17  C   UNL A   1      30.957  25.354  26.180  1.00  0.00     0.226 A 
BRANCH  13  18
ATOM     18  N   UNL A   1      31.185  25.584  22.103  1.00  0.00    -0.393 N 
ATOM     19  H   UNL A   1      31.550  26.357  21.615  1.00  0.00     0.156 HD
ATOM     20  H   UNL A   1      30.835  24.810  21.606  1.00  0.00     0.156 HD
ENDBRANCH  13  18
BRANCH  14  21
ATOM     21  N   UNL A   1      28.999  26.629  23.453  1.00  0.00    -0.322 N 
ATOM     22  H   UNL A   1      28.385  25.975  23.048  1.00  0.00     0.170 HD
BRANCH  21  23
ATOM     23  C   UNL A   1      28.715  27.969  23.203  1.00  0.00     0.150 A 
ATOM     24  N   UNL A   1      29.801  28.703  22.847  1.00  0.00    -0.237 NA
ATOM     25  C   UNL A   1      27.448  28.554  23.320  1.00  0.00     0.084 A 
ATOM     26  C   UNL A   1      29.617  29.999  22.507  1.00  0.00     0.126 A 
ATOM     27  C   UNL A   1      27.292  29.901  22.981  1.00  0.00     0.039 A 
ATOM     28  Cl  UNL A   1      26.080  27.737  23.989  1.00  0.00    -0.080 Cl
ATOM     29  C   UNL A   1      28.392  30.644  22.545  1.00  0.00     0.075 A 
BRANCH  29  30
ATOM     30  C   UNL A   1      28.299  32.082  22.144  1.00  0.00     0.417 C 
ATOM     31  F   UNL A   1      27.709  32.845  23.107  1.00  0.00    -0.166 F 
ATOM     32  F   UNL A   1      29.517  32.643  21.921  1.00  0.00    -0.166 F 
ATOM     33  F   UNL A   1      27.573  32.287  21.013  1.00  0.00    -0.166 F 
ENDBRANCH  29  30
ENDBRANCH  21  23
ENDBRANCH  14  21
ENDBRANCH   7  12
ENDBRANCH   3   6
ENDBRANCH   1   2
BRANCH   1  34
ATOM     34  C   UNL A   1      38.391  19.451  25.077  1.00  0.00     0.042 C 
BRANCH  34  35
ATOM     35  C   UNL A   1      39.464  20.024  25.992  1.00  0.00     0.118 C 
BRANCH  35  36
ATOM     36  N   UNL A   1      40.654  19.186  26.045  1.00  0.00    -0.352 N 
ATOM     37  C   UNL A   1      41.981  19.536  26.102  1.00  0.00     0.251 C 
ATOM     38  H   UNL A   1      40.480  18.217  26.039  1.00  0.00     0.163 HD
ATOM     39  O   UNL A   1      42.839  18.678  25.910  1.00  0.00    -0.269 OA
BRANCH  37  40
ATOM     40  C   UNL A   1      42.375  20.937  26.368  1.00  0.00     0.039 A 
ATOM     41  C   UNL A   1      42.634  21.330  27.683  1.00  0.00     0.014 A 
ATOM     42  C   UNL A   1      42.472  21.867  25.329  1.00  0.00     0.014 A 
ATOM     43  C   UNL A   1      43.058  22.635  27.945  1.00  0.00     0.010 A 
ATOM     44  C   UNL A   1      42.975  23.139  25.580  1.00  0.00     0.010 A 
ATOM     45  C   UNL A   1      43.269  23.539  26.891  1.00  0.00    -0.014 A 
BRANCH  45  46
ATOM     46  C   UNL A   1      43.773  24.912  27.144  1.00  0.00     0.031 A 
ATOM     47  C   UNL A   1      42.862  25.952  27.737  1.00  0.00     0.074 A 
ATOM     48  C   UNL A   1      45.038  25.233  26.807  1.00  0.00     0.049 A 
ATOM     49  N   UNL A   1      43.096  27.216  27.976  1.00  0.00    -0.248 NA
ATOM     50  C   UNL A   1      41.499  25.518  28.082  1.00  0.00     0.031 C 
ATOM     51  C   UNL A   1      46.008  24.319  26.200  1.00  0.00     0.029 A 
ATOM     52  N   UNL A   1      45.729  26.412  26.932  1.00  0.00    -0.354 N 
ATOM     53  C   UNL A   1      41.912  27.729  28.494  1.00  0.00     0.074 A 
ATOM     54  C   UNL A   1      40.943  26.654  28.474  1.00  0.00     0.031 C 
ATOM     55  C   UNL A   1      47.180  24.958  26.049  1.00  0.00     0.029 A 
ATOM     56  C   UNL A   1      47.033  26.337  26.506  1.00  0.00     0.049 A 
ATOM     57  H   UNL A   1      45.326  27.235  27.293  1.00  0.00     0.167 HD
ATOM     58  C   UNL A   1      41.664  28.973  28.970  1.00  0.00     0.034 A 
ATOM     59  C   UNL A   1      48.003  27.273  26.485  1.00  0.00     0.034 A 
ATOM     60  C   UNL A   1      42.642  30.028  29.009  1.00  0.00     0.049 A 
ATOM     61  C   UNL A   1      47.694  28.658  26.984  1.00  0.00     0.074 A 
ATOM     62  C   UNL A   1      42.505  31.311  29.510  1.00  0.00     0.029 A 
ATOM     63  N   UNL A   1      43.941  29.923  28.532  1.00  0.00    -0.354 N 
ATOM     64  N   UNL A   1      46.569  29.123  27.473  1.00  0.00    -0.248 NA
ATOM     65  C   UNL A   1      48.781  29.644  26.924  1.00  0.00     0.031 C 
ATOM     66  C   UNL A   1      43.704  31.997  29.289  1.00  0.00     0.029 A 
ATOM     67  C   UNL A   1      44.608  31.125  28.702  1.00  0.00     0.049 A 
ATOM     68  H   UNL A   1      44.330  29.114  28.129  1.00  0.00     0.167 HD
ATOM     69  C   UNL A   1      46.818  30.454  27.794  1.00  0.00     0.074 A 
ATOM     70  C   UNL A   1      48.200  30.716  27.448  1.00  0.00     0.031 C 
ATOM     71  C   UNL A   1      45.979  31.373  28.332  1.00  0.00     0.034 A 
BRANCH  58  72
ATOM     72  C   UNL A   1      40.274  29.253  29.482  1.00  0.00     0.023 A 
ATOM     73  C   UNL A   1      40.002  29.313  30.859  1.00  0.00     0.031 A 
ATOM     74  C   UNL A   1      39.211  29.455  28.587  1.00  0.00     0.131 A 
ATOM     75  C   UNL A   1      38.687  29.509  31.303  1.00  0.00     0.055 A 
ATOM     76  C   UNL A   1      37.915  29.718  29.034  1.00  0.00     0.041 A 
ATOM     77  F   UNL A   1      39.412  29.391  27.260  1.00  0.00    -0.206 F 
ATOM     78  C   UNL A   1      37.645  29.736  30.400  1.00  0.00     0.022 A 
BRANCH  75  79
ATOM     79  S   UNL A   1      38.339  29.365  33.076  1.00  0.00     0.124 S 
ATOM     80  O   UNL A   1      38.021  30.747  33.425  1.00  0.00    -0.237 OA
ATOM     81  O   UNL A   1      37.223  28.426  33.106  1.00  0.00    -0.237 OA
ATOM     82  O   UNL A   1      39.593  28.860  33.631  1.00  0.00    -0.744 OA
ENDBRANCH  75  79
ENDBRANCH  58  72
BRANCH  59  83
ATOM     83  C   UNL A   1      49.359  26.927  25.978  1.00  0.00     0.023 A 
ATOM     84  C   UNL A   1      49.785  27.363  24.715  1.00  0.00     0.031 A 
ATOM     85  C   UNL A   1      50.250  26.165  26.754  1.00  0.00     0.131 A 
ATOM     86  C   UNL A   1      51.064  27.020  24.254  1.00  0.00     0.055 A 
ATOM     87  C   UNL A   1      51.534  25.854  26.305  1.00  0.00     0.041 A 
ATOM     88  F   UNL A   1      49.890  25.736  27.973  1.00  0.00    -0.206 F 
ATOM     89  C   UNL A   1      51.945  26.278  25.045  1.00  0.00     0.022 A 
BRANCH  86  90
ATOM     90  S   UNL A   1      51.562  27.545  22.590  1.00  0.00     0.124 S 
ATOM     91  O   UNL A   1      51.228  28.965  22.615  1.00  0.00    -0.237 OA
ATOM     92  O   UNL A   1      52.984  27.219  22.579  1.00  0.00    -0.237 OA
ATOM     93  O   UNL A   1      50.732  26.722  21.712  1.00  0.00    -0.744 OA
ENDBRANCH  86  90
ENDBRANCH  59  83
BRANCH  71  94
ATOM     94  C   UNL A   1      46.535  32.745  28.597  1.00  0.00     0.023 A 
ATOM     95  C   UNL A   1      46.537  33.736  27.602  1.00  0.00     0.031 A 
ATOM     96  C   UNL A   1      47.016  33.078  29.875  1.00  0.00     0.131 A 
ATOM     97  C   UNL A   1      47.032  35.015  27.897  1.00  0.00     0.055 A 
ATOM     98  C   UNL A   1      47.470  34.362  30.174  1.00  0.00     0.041 A 
ATOM     99  F   UNL A   1      47.030  32.164  30.858  1.00  0.00    -0.206 F 
ATOM    100  C   UNL A   1      47.482  35.339  29.180  1.00  0.00     0.022 A 
BRANCH  97 101
ATOM    101  S   UNL A   1      47.095  36.254  26.574  1.00  0.00     0.124 S 
ATOM    102  O   UNL A   1      48.412  36.848  26.780  1.00  0.00    -0.237 OA
ATOM    103  O   UNL A   1      46.944  35.442  25.372  1.00  0.00    -0.237 OA
ATOM    104  O   UNL A   1      45.965  37.131  26.873  1.00  0.00    -0.744 OA
ENDBRANCH  97 101
ENDBRANCH  71  94
ENDBRANCH  45  46
ENDBRANCH  37  40
ENDBRANCH  35  36
ENDBRANCH  34  35
ENDBRANCH   1  34
TORSDOF 18
ENDMDL
