MODEL 1
REMARK VINA RESULT:     -13.7      0.000      0.000
REMARK SMILES CCOc1ccc(-n2nnc(-c3nc(C)c(C(=O)NCCCNC(=O)c4ccc(-c5c6nc(c(-c7cc(S(=O)(=O)[O-])ccc7F)c7ccc([nH]7)c(-c7cc(S(=O)(=O)[O-])ccc7F)c7nc(c(-c8cc(S(=O)(=O)[O-])ccc8F)c8ccc5[nH]8)C=C7)C=C6)cc4)s3)c2C)cc1
REMARK SMILES IDX 20 1 19 2 17 3 18 4 16 6 12 7 13 8 89 9 14 10 15 11 11 12
REMARK SMILES IDX 8 13 9 14 90 15 10 16 91 17 7 18 4 19 5 20 93 21 6 22 92 23
REMARK SMILES IDX 3 24 2 25 1 26 21 27 22 28 23 29 24 30 25 32 26 33 27 34
REMARK SMILES IDX 88 35 28 36 87 37 29 38 30 39 31 40 81 41 32 42 86 43 80 44
REMARK SMILES IDX 82 45 33 46 85 47 79 48 78 49 34 51 66 52 46 53 65 54 47 55
REMARK SMILES IDX 50 56 64 57 83 58 48 59 49 60 63 62 84 63 51 64 35 65 36 66
REMARK SMILES IDX 44 67 37 68 43 69 45 70 42 71 38 72 39 73 40 74 41 75 67 76
REMARK SMILES IDX 68 77 76 78 69 79 75 80 77 81 74 82 70 83 71 84 72 85 73 86
REMARK SMILES IDX 52 87 53 88 61 89 54 90 60 91 62 92 59 93 55 94 56 95 57 96
REMARK SMILES IDX 58 97
REMARK H PARENT 19 5 23 31 82 50 50 61
REMARK Flexibility Score: inf
ROOT
ATOM      1  C   UNL A   1      33.548  28.828  25.804  1.00  0.00     0.118 C 
ENDROOT
BRANCH   1   2
ATOM      2  N   UNL A   1      32.502  29.838  25.677  1.00  0.00    -0.351 N 
ATOM      3  C   UNL A   1      31.474  29.959  24.760  1.00  0.00     0.263 C 
ATOM      4  O   UNL A   1      30.638  30.831  24.973  1.00  0.00    -0.268 OA
ATOM      5  H   UNL A   1      32.534  30.549  26.357  1.00  0.00     0.163 HD
BRANCH   3   6
ATOM      6  C   UNL A   1      31.355  29.000  23.683  1.00  0.00     0.115 A 
ATOM      7  C   UNL A   1      31.645  27.012  22.390  1.00  0.00     0.146 A 
ATOM      8  N   UNL A   1      30.380  27.379  22.336  1.00  0.00    -0.239 NA
ATOM      9  S   UNL A   1      32.708  28.227  22.957  1.00  0.00    -0.107 S 
ATOM     10  C   UNL A   1      30.251  28.643  22.921  1.00  0.00     0.062 A 
ATOM     11  C   UNL A   1      28.969  29.384  22.766  1.00  0.00     0.068 C 
BRANCH   7  12
ATOM     12  C   UNL A   1      32.154  25.618  22.231  1.00  0.00     0.145 A 
ATOM     13  N   UNL A   1      32.858  23.633  22.791  1.00  0.00    -0.217 N 
ATOM     14  N   UNL A   1      33.628  24.079  21.771  1.00  0.00    -0.061 NA
ATOM     15  C   UNL A   1      31.979  24.630  23.189  1.00  0.00     0.072 A 
ATOM     16  N   UNL A   1      33.194  25.280  21.412  1.00  0.00    -0.127 NA
ATOM     17  C   UNL A   1      31.284  24.691  24.504  1.00  0.00     0.069 C 
BRANCH  13  18
ATOM     18  C   UNL A   1      33.062  22.355  23.360  1.00  0.00     0.067 A 
ATOM     19  C   UNL A   1      33.592  19.800  24.350  1.00  0.00     0.119 A 
ATOM     20  C   UNL A   1      32.505  20.003  23.498  1.00  0.00     0.048 A 
ATOM     21  C   UNL A   1      34.409  20.869  24.705  1.00  0.00     0.048 A 
ATOM     22  C   UNL A   1      32.219  21.288  23.019  1.00  0.00     0.032 A 
ATOM     23  C   UNL A   1      34.138  22.148  24.229  1.00  0.00     0.032 A 
BRANCH  19  24
ATOM     24  O   UNL A   1      33.919  18.519  24.699  1.00  0.00    -0.494 OA
BRANCH  24  25
ATOM     25  C   UNL A   1      33.165  17.513  24.011  1.00  0.00     0.226 C 
ATOM     26  C   UNL A   1      34.028  16.619  23.131  1.00  0.00     0.049 C 
ENDBRANCH  24  25
ENDBRANCH  19  24
ENDBRANCH  13  18
ENDBRANCH   7  12
ENDBRANCH   3   6
ENDBRANCH   1   2
BRANCH   1  27
ATOM     27  C   UNL A   1      34.028  28.654  27.250  1.00  0.00     0.042 C 
BRANCH  27  28
ATOM     28  C   UNL A   1      35.362  29.330  27.490  1.00  0.00     0.118 C 
BRANCH  28  29
ATOM     29  N   UNL A   1      35.494  29.843  28.853  1.00  0.00    -0.352 N 
ATOM     30  C   UNL A   1      36.467  29.515  29.782  1.00  0.00     0.251 C 
ATOM     31  H   UNL A   1      34.815  30.494  29.143  1.00  0.00     0.163 HD
ATOM     32  O   UNL A   1      36.275  29.694  30.975  1.00  0.00    -0.269 OA
BRANCH  30  33
ATOM     33  C   UNL A   1      37.735  28.952  29.283  1.00  0.00     0.039 A 
ATOM     34  C   UNL A   1      38.398  29.483  28.176  1.00  0.00     0.014 A 
ATOM     35  C   UNL A   1      38.283  27.894  30.004  1.00  0.00     0.014 A 
ATOM     36  C   UNL A   1      39.662  28.988  27.857  1.00  0.00     0.010 A 
ATOM     37  C   UNL A   1      39.590  27.540  29.804  1.00  0.00     0.010 A 
ATOM     38  C   UNL A   1      40.261  28.029  28.693  1.00  0.00    -0.014 A 
BRANCH  38  39
ATOM     39  C   UNL A   1      41.655  27.629  28.531  1.00  0.00     0.031 A 
ATOM     40  C   UNL A   1      41.819  26.388  27.728  1.00  0.00     0.074 A 
ATOM     41  C   UNL A   1      42.695  28.430  28.860  1.00  0.00     0.049 A 
ATOM     42  N   UNL A   1      42.143  25.216  28.159  1.00  0.00    -0.248 NA
ATOM     43  C   UNL A   1      41.369  26.390  26.324  1.00  0.00     0.031 C 
ATOM     44  C   UNL A   1      42.658  29.801  29.384  1.00  0.00     0.029 A 
ATOM     45  N   UNL A   1      44.031  28.225  28.697  1.00  0.00    -0.354 N 
ATOM     46  C   UNL A   1      42.227  24.407  27.032  1.00  0.00     0.074 A 
ATOM     47  C   UNL A   1      41.501  25.101  26.004  1.00  0.00     0.031 C 
ATOM     48  C   UNL A   1      43.878  30.374  29.266  1.00  0.00     0.029 A 
ATOM     49  C   UNL A   1      44.825  29.368  28.821  1.00  0.00     0.049 A 
ATOM     50  H   UNL A   1      44.410  27.337  28.504  1.00  0.00     0.167 HD
ATOM     51  C   UNL A   1      43.135  23.391  26.975  1.00  0.00     0.034 A 
ATOM     52  C   UNL A   1      46.163  29.484  28.572  1.00  0.00     0.034 A 
ATOM     53  C   UNL A   1      43.655  23.103  28.297  1.00  0.00     0.049 A 
ATOM     54  C   UNL A   1      46.716  28.108  28.656  1.00  0.00     0.074 A 
ATOM     55  C   UNL A   1      43.081  22.745  29.504  1.00  0.00     0.029 A 
ATOM     56  N   UNL A   1      44.904  23.593  28.616  1.00  0.00    -0.354 N 
ATOM     57  N   UNL A   1      46.724  27.413  29.762  1.00  0.00    -0.248 NA
ATOM     58  C   UNL A   1      46.758  27.320  27.433  1.00  0.00     0.031 C 
ATOM     59  C   UNL A   1      43.782  23.512  30.481  1.00  0.00     0.029 A 
ATOM     60  C   UNL A   1      44.815  24.204  29.843  1.00  0.00     0.049 A 
ATOM     61  H   UNL A   1      45.715  23.518  28.062  1.00  0.00     0.167 HD
ATOM     62  C   UNL A   1      46.316  26.142  29.389  1.00  0.00     0.074 A 
ATOM     63  C   UNL A   1      46.436  26.122  27.929  1.00  0.00     0.031 C 
ATOM     64  C   UNL A   1      45.635  25.331  30.254  1.00  0.00     0.034 A 
BRANCH  51  65
ATOM     65  C   UNL A   1      43.859  22.939  25.721  1.00  0.00     0.023 A 
ATOM     66  C   UNL A   1      43.910  21.551  25.486  1.00  0.00     0.031 A 
ATOM     67  C   UNL A   1      44.729  23.722  24.929  1.00  0.00     0.131 A 
ATOM     68  C   UNL A   1      44.865  20.996  24.620  1.00  0.00     0.055 A 
ATOM     69  C   UNL A   1      45.633  23.169  24.018  1.00  0.00     0.041 A 
ATOM     70  F   UNL A   1      44.825  25.050  25.044  1.00  0.00    -0.206 F 
ATOM     71  C   UNL A   1      45.733  21.797  23.885  1.00  0.00     0.022 A 
BRANCH  68  72
ATOM     72  S   UNL A   1      45.078  19.198  24.622  1.00  0.00     0.124 S 
ATOM     73  O   UNL A   1      46.460  19.071  25.072  1.00  0.00    -0.237 OA
ATOM     74  O   UNL A   1      44.050  18.778  25.567  1.00  0.00    -0.237 OA
ATOM     75  O   UNL A   1      44.836  18.828  23.230  1.00  0.00    -0.744 OA
ENDBRANCH  68  72
ENDBRANCH  51  65
BRANCH  52  76
ATOM     76  C   UNL A   1      46.885  30.627  27.929  1.00  0.00     0.023 A 
ATOM     77  C   UNL A   1      46.248  31.627  27.154  1.00  0.00     0.031 A 
ATOM     78  C   UNL A   1      48.225  30.883  28.299  1.00  0.00     0.131 A 
ATOM     79  C   UNL A   1      46.947  32.809  26.789  1.00  0.00     0.055 A 
ATOM     80  C   UNL A   1      48.905  32.052  27.942  1.00  0.00     0.041 A 
ATOM     81  F   UNL A   1      48.896  30.041  29.099  1.00  0.00    -0.206 F 
ATOM     82  C   UNL A   1      48.266  33.025  27.193  1.00  0.00     0.022 A 
BRANCH  79  83
ATOM     83  S   UNL A   1      46.131  34.138  25.833  1.00  0.00     0.124 S 
ATOM     84  O   UNL A   1      47.219  34.639  25.001  1.00  0.00    -0.237 OA
ATOM     85  O   UNL A   1      45.063  33.422  25.144  1.00  0.00    -0.237 OA
ATOM     86  O   UNL A   1      45.673  35.071  26.863  1.00  0.00    -0.744 OA
ENDBRANCH  79  83
ENDBRANCH  52  76
BRANCH  64  87
ATOM     87  C   UNL A   1      45.580  25.717  31.723  1.00  0.00     0.023 A 
ATOM     88  C   UNL A   1      44.415  26.088  32.437  1.00  0.00     0.031 A 
ATOM     89  C   UNL A   1      46.771  25.574  32.457  1.00  0.00     0.131 A 
ATOM     90  C   UNL A   1      44.482  26.307  33.830  1.00  0.00     0.055 A 
ATOM     91  C   UNL A   1      46.827  25.767  33.835  1.00  0.00     0.041 A 
ATOM     92  F   UNL A   1      47.908  25.204  31.842  1.00  0.00    -0.206 F 
ATOM     93  C   UNL A   1      45.682  26.139  34.528  1.00  0.00     0.022 A 
BRANCH  90  94
ATOM     94  S   UNL A   1      43.012  26.839  34.772  1.00  0.00     0.124 S 
ATOM     95  O   UNL A   1      42.462  25.590  35.284  1.00  0.00    -0.237 OA
ATOM     96  O   UNL A   1      43.582  27.743  35.768  1.00  0.00    -0.237 OA
ATOM     97  O   UNL A   1      42.181  27.500  33.763  1.00  0.00    -0.744 OA
ENDBRANCH  90  94
ENDBRANCH  64  87
ENDBRANCH  38  39
ENDBRANCH  30  33
ENDBRANCH  28  29
ENDBRANCH  27  28
ENDBRANCH   1  27
TORSDOF 17
ENDMDL
MODEL 2
REMARK VINA RESULT:     -13.7      1.619      2.381
REMARK SMILES CCOc1ccc(-n2nnc(-c3nc(C)c(C(=O)NCCCNC(=O)c4ccc(-c5c6nc(c(-c7cc(S(=O)(=O)[O-])ccc7F)c7ccc([nH]7)c(-c7cc(S(=O)(=O)[O-])ccc7F)c7nc(c(-c8cc(S(=O)(=O)[O-])ccc8F)c8ccc5[nH]8)C=C7)C=C6)cc4)s3)c2C)cc1
REMARK SMILES IDX 20 1 19 2 17 3 18 4 16 6 12 7 13 8 89 9 14 10 15 11 11 12
REMARK SMILES IDX 8 13 9 14 90 15 10 16 91 17 7 18 4 19 5 20 93 21 6 22 92 23
REMARK SMILES IDX 3 24 2 25 1 26 21 27 22 28 23 29 24 30 25 32 26 33 27 34
REMARK SMILES IDX 88 35 28 36 87 37 29 38 30 39 31 40 81 41 32 42 86 43 80 44
REMARK SMILES IDX 82 45 33 46 85 47 79 48 78 49 34 51 66 52 46 53 65 54 47 55
REMARK SMILES IDX 50 56 64 57 83 58 48 59 49 60 63 62 84 63 51 64 35 65 36 66
REMARK SMILES IDX 44 67 37 68 43 69 45 70 42 71 38 72 39 73 40 74 41 75 67 76
REMARK SMILES IDX 68 77 76 78 69 79 75 80 77 81 74 82 70 83 71 84 72 85 73 86
REMARK SMILES IDX 52 87 53 88 61 89 54 90 60 91 62 92 59 93 55 94 56 95 57 96
REMARK SMILES IDX 58 97
REMARK H PARENT 19 5 23 31 82 50 50 61
REMARK Flexibility Score: inf
ROOT
ATOM      1  C   UNL A   1      33.259  28.601  25.939  1.00  0.00     0.118 C 
ENDROOT
BRANCH   1   2
ATOM      2  N   UNL A   1      32.150  29.234  25.233  1.00  0.00    -0.351 N 
ATOM      3  C   UNL A   1      31.245  28.713  24.327  1.00  0.00     0.263 C 
ATOM      4  O   UNL A   1      30.311  29.437  23.993  1.00  0.00    -0.268 OA
ATOM      5  H   UNL A   1      32.027  30.190  25.435  1.00  0.00     0.163 HD
BRANCH   3   6
ATOM      6  C   UNL A   1      31.356  27.332  23.912  1.00  0.00     0.115 A 
ATOM      7  C   UNL A   1      32.299  25.188  23.435  1.00  0.00     0.146 A 
ATOM      8  N   UNL A   1      31.128  25.023  24.017  1.00  0.00    -0.239 NA
ATOM      9  S   UNL A   1      32.572  26.768  22.834  1.00  0.00    -0.107 S 
ATOM     10  C   UNL A   1      30.491  26.265  24.112  1.00  0.00     0.062 A 
ATOM     11  C   UNL A   1      29.056  26.313  24.505  1.00  0.00     0.068 C 
BRANCH   7  12
ATOM     12  C   UNL A   1      33.435  24.221  23.475  1.00  0.00     0.145 A 
ATOM     13  N   UNL A   1      35.379  23.387  23.999  1.00  0.00    -0.217 N 
ATOM     14  N   UNL A   1      35.157  23.142  22.687  1.00  0.00    -0.061 NA
ATOM     15  C   UNL A   1      34.356  24.172  24.511  1.00  0.00     0.072 A 
ATOM     16  N   UNL A   1      33.968  23.632  22.364  1.00  0.00    -0.127 NA
ATOM     17  C   UNL A   1      34.435  24.986  25.755  1.00  0.00     0.069 C 
BRANCH  13  18
ATOM     18  C   UNL A   1      36.559  22.944  24.640  1.00  0.00     0.067 A 
ATOM     19  C   UNL A   1      38.986  22.138  25.758  1.00  0.00     0.119 A 
ATOM     20  C   UNL A   1      38.226  21.229  25.021  1.00  0.00     0.048 A 
ATOM     21  C   UNL A   1      38.535  23.443  25.935  1.00  0.00     0.048 A 
ATOM     22  C   UNL A   1      36.994  21.621  24.480  1.00  0.00     0.032 A 
ATOM     23  C   UNL A   1      37.316  23.844  25.395  1.00  0.00     0.032 A 
BRANCH  19  24
ATOM     24  O   UNL A   1      40.237  21.766  26.166  1.00  0.00    -0.494 OA
BRANCH  24  25
ATOM     25  C   UNL A   1      40.342  21.502  27.571  1.00  0.00     0.226 C 
ATOM     26  C   UNL A   1      41.285  20.351  27.892  1.00  0.00     0.049 C 
ENDBRANCH  24  25
ENDBRANCH  19  24
ENDBRANCH  13  18
ENDBRANCH   7  12
ENDBRANCH   3   6
ENDBRANCH   1   2
BRANCH   1  27
ATOM     27  C   UNL A   1      34.235  29.619  26.540  1.00  0.00     0.042 C 
BRANCH  27  28
ATOM     28  C   UNL A   1      35.235  28.965  27.470  1.00  0.00     0.118 C 
BRANCH  28  29
ATOM     29  N   UNL A   1      35.404  29.705  28.721  1.00  0.00    -0.352 N 
ATOM     30  C   UNL A   1      36.451  29.602  29.621  1.00  0.00     0.251 C 
ATOM     31  H   UNL A   1      34.694  30.347  28.949  1.00  0.00     0.163 HD
ATOM     32  O   UNL A   1      36.314  29.962  30.780  1.00  0.00    -0.269 OA
BRANCH  30  33
ATOM     33  C   UNL A   1      37.728  29.050  29.133  1.00  0.00     0.039 A 
ATOM     34  C   UNL A   1      38.352  29.531  27.981  1.00  0.00     0.014 A 
ATOM     35  C   UNL A   1      38.327  28.061  29.910  1.00  0.00     0.014 A 
ATOM     36  C   UNL A   1      39.627  29.059  27.668  1.00  0.00     0.010 A 
ATOM     37  C   UNL A   1      39.641  27.740  29.706  1.00  0.00     0.010 A 
ATOM     38  C   UNL A   1      40.274  28.178  28.552  1.00  0.00    -0.014 A 
BRANCH  38  39
ATOM     39  C   UNL A   1      41.679  27.816  28.387  1.00  0.00     0.031 A 
ATOM     40  C   UNL A   1      41.871  26.529  27.668  1.00  0.00     0.074 A 
ATOM     41  C   UNL A   1      42.695  28.674  28.638  1.00  0.00     0.049 A 
ATOM     42  N   UNL A   1      42.245  25.401  28.171  1.00  0.00    -0.248 NA
ATOM     43  C   UNL A   1      41.394  26.419  26.277  1.00  0.00     0.031 C 
ATOM     44  C   UNL A   1      42.619  30.076  29.067  1.00  0.00     0.029 A 
ATOM     45  N   UNL A   1      44.034  28.504  28.460  1.00  0.00    -0.354 N 
ATOM     46  C   UNL A   1      42.336  24.520  27.100  1.00  0.00     0.074 A 
ATOM     47  C   UNL A   1      41.566  25.116  26.043  1.00  0.00     0.031 C 
ATOM     48  C   UNL A   1      43.815  30.681  28.884  1.00  0.00     0.029 A 
ATOM     49  C   UNL A   1      44.789  29.680  28.488  1.00  0.00     0.049 A 
ATOM     50  H   UNL A   1      44.441  27.618  28.320  1.00  0.00     0.167 HD
ATOM     51  C   UNL A   1      43.279  23.534  27.093  1.00  0.00     0.034 A 
ATOM     52  C   UNL A   1      46.117  29.824  28.203  1.00  0.00     0.034 A 
ATOM     53  C   UNL A   1      43.834  23.357  28.420  1.00  0.00     0.049 A 
ATOM     54  C   UNL A   1      46.720  28.477  28.368  1.00  0.00     0.074 A 
ATOM     55  C   UNL A   1      43.298  23.063  29.660  1.00  0.00     0.029 A 
ATOM     56  N   UNL A   1      45.071  23.910  28.677  1.00  0.00    -0.354 N 
ATOM     57  N   UNL A   1      46.775  27.861  29.518  1.00  0.00    -0.248 NA
ATOM     58  C   UNL A   1      46.767  27.608  27.201  1.00  0.00     0.031 C 
ATOM     59  C   UNL A   1      43.989  23.920  30.567  1.00  0.00     0.029 A 
ATOM     60  C   UNL A   1      44.984  24.601  29.861  1.00  0.00     0.049 A 
ATOM     61  H   UNL A   1      45.873  23.825  28.112  1.00  0.00     0.167 HD
ATOM     62  C   UNL A   1      46.405  26.553  29.242  1.00  0.00     0.074 A 
ATOM     63  C   UNL A   1      46.498  26.436  27.785  1.00  0.00     0.031 C 
ATOM     64  C   UNL A   1      45.771  25.781  30.176  1.00  0.00     0.034 A 
BRANCH  51  65
ATOM     65  C   UNL A   1      43.994  23.022  25.857  1.00  0.00     0.023 A 
ATOM     66  C   UNL A   1      43.998  21.627  25.662  1.00  0.00     0.031 A 
ATOM     67  C   UNL A   1      44.896  23.752  25.049  1.00  0.00     0.131 A 
ATOM     68  C   UNL A   1      44.939  21.015  24.818  1.00  0.00     0.055 A 
ATOM     69  C   UNL A   1      45.785  23.142  24.160  1.00  0.00     0.041 A 
ATOM     70  F   UNL A   1      45.038  25.078  25.128  1.00  0.00    -0.206 F 
ATOM     71  C   UNL A   1      45.838  21.764  24.067  1.00  0.00     0.022 A 
BRANCH  68  72
ATOM     72  S   UNL A   1      45.088  19.212  24.872  1.00  0.00     0.124 S 
ATOM     73  O   UNL A   1      43.985  18.856  25.759  1.00  0.00    -0.237 OA
ATOM     74  O   UNL A   1      44.928  18.856  23.467  1.00  0.00    -0.237 OA
ATOM     75  O   UNL A   1      46.426  19.000  25.420  1.00  0.00    -0.744 OA
ENDBRANCH  68  72
ENDBRANCH  51  65
BRANCH  52  76
ATOM     76  C   UNL A   1      46.785  30.944  27.467  1.00  0.00     0.023 A 
ATOM     77  C   UNL A   1      46.100  32.078  26.966  1.00  0.00     0.031 A 
ATOM     78  C   UNL A   1      48.196  31.020  27.475  1.00  0.00     0.131 A 
ATOM     79  C   UNL A   1      46.824  33.211  26.506  1.00  0.00     0.055 A 
ATOM     80  C   UNL A   1      48.902  32.141  27.027  1.00  0.00     0.041 A 
ATOM     81  F   UNL A   1      48.940  30.036  28.001  1.00  0.00    -0.206 F 
ATOM     82  C   UNL A   1      48.219  33.247  26.550  1.00  0.00     0.022 A 
BRANCH  79  83
ATOM     83  S   UNL A   1      45.962  34.708  25.903  1.00  0.00     0.124 S 
ATOM     84  O   UNL A   1      45.212  35.134  27.079  1.00  0.00    -0.237 OA
ATOM     85  O   UNL A   1      47.068  35.566  25.492  1.00  0.00    -0.237 OA
ATOM     86  O   UNL A   1      45.138  34.210  24.801  1.00  0.00    -0.744 OA
ENDBRANCH  79  83
ENDBRANCH  52  76
BRANCH  64  87
ATOM     87  C   UNL A   1      45.731  26.265  31.616  1.00  0.00     0.023 A 
ATOM     88  C   UNL A   1      44.638  26.916  32.239  1.00  0.00     0.031 A 
ATOM     89  C   UNL A   1      46.831  25.928  32.425  1.00  0.00     0.131 A 
ATOM     90  C   UNL A   1      44.686  27.207  33.619  1.00  0.00     0.055 A 
ATOM     91  C   UNL A   1      46.862  26.194  33.792  1.00  0.00     0.041 A 
ATOM     92  F   UNL A   1      47.891  25.290  31.899  1.00  0.00    -0.206 F 
ATOM     93  C   UNL A   1      45.790  26.840  34.394  1.00  0.00     0.022 A 
BRANCH  90  94
ATOM     94  S   UNL A   1      43.319  28.094  34.443  1.00  0.00     0.124 S 
ATOM     95  O   UNL A   1      42.127  27.561  33.796  1.00  0.00    -0.237 OA
ATOM     96  O   UNL A   1      43.503  27.730  35.846  1.00  0.00    -0.237 OA
ATOM     97  O   UNL A   1      43.596  29.500  34.143  1.00  0.00    -0.744 OA
ENDBRANCH  90  94
ENDBRANCH  64  87
ENDBRANCH  38  39
ENDBRANCH  30  33
ENDBRANCH  28  29
ENDBRANCH  27  28
ENDBRANCH   1  27
TORSDOF 17
ENDMDL
MODEL 3
REMARK VINA RESULT:     -13.5      2.429      6.979
REMARK SMILES CCOc1ccc(-n2nnc(-c3nc(C)c(C(=O)NCCCNC(=O)c4ccc(-c5c6nc(c(-c7cc(S(=O)(=O)[O-])ccc7F)c7ccc([nH]7)c(-c7cc(S(=O)(=O)[O-])ccc7F)c7nc(c(-c8cc(S(=O)(=O)[O-])ccc8F)c8ccc5[nH]8)C=C7)C=C6)cc4)s3)c2C)cc1
REMARK SMILES IDX 20 1 19 2 17 3 18 4 16 6 12 7 13 8 89 9 14 10 15 11 11 12
REMARK SMILES IDX 8 13 9 14 90 15 10 16 91 17 7 18 4 19 5 20 93 21 6 22 92 23
REMARK SMILES IDX 3 24 2 25 1 26 21 27 22 28 23 29 24 30 25 32 26 33 27 34
REMARK SMILES IDX 88 35 28 36 87 37 29 38 30 39 31 40 81 41 32 42 86 43 80 44
REMARK SMILES IDX 82 45 33 46 85 47 79 48 78 49 34 51 66 52 46 53 65 54 47 55
REMARK SMILES IDX 50 56 64 57 83 58 48 59 49 60 63 62 84 63 51 64 35 65 36 66
REMARK SMILES IDX 44 67 37 68 43 69 45 70 42 71 38 72 39 73 40 74 41 75 67 76
REMARK SMILES IDX 68 77 76 78 69 79 75 80 77 81 74 82 70 83 71 84 72 85 73 86
REMARK SMILES IDX 52 87 53 88 61 89 54 90 60 91 62 92 59 93 55 94 56 95 57 96
REMARK SMILES IDX 58 97
REMARK H PARENT 19 5 23 31 82 50 50 61
REMARK Flexibility Score: inf
ROOT
ATOM      1  C   UNL A   1      32.353  28.381  26.593  1.00  0.00     0.118 C 
ENDROOT
BRANCH   1   2
ATOM      2  N   UNL A   1      31.736  29.640  26.189  1.00  0.00    -0.351 N 
ATOM      3  C   UNL A   1      31.181  30.025  24.983  1.00  0.00     0.263 C 
ATOM      4  O   UNL A   1      30.592  31.101  24.958  1.00  0.00    -0.268 OA
ATOM      5  H   UNL A   1      31.709  30.329  26.893  1.00  0.00     0.163 HD
BRANCH   3   6
ATOM      6  C   UNL A   1      31.206  29.117  23.857  1.00  0.00     0.115 A 
ATOM      7  C   UNL A   1      31.726  27.219  22.500  1.00  0.00     0.146 A 
ATOM      8  N   UNL A   1      30.445  27.503  22.369  1.00  0.00    -0.239 NA
ATOM      9  S   UNL A   1      32.659  28.472  23.200  1.00  0.00    -0.107 S 
ATOM     10  C   UNL A   1      30.187  28.725  23.000  1.00  0.00     0.062 A 
ATOM     11  C   UNL A   1      28.870  29.386  22.783  1.00  0.00     0.068 C 
BRANCH   7  12
ATOM     12  C   UNL A   1      32.342  25.872  22.317  1.00  0.00     0.145 A 
ATOM     13  N   UNL A   1      32.893  23.810  22.757  1.00  0.00    -0.217 N 
ATOM     14  N   UNL A   1      33.971  24.426  22.218  1.00  0.00    -0.061 NA
ATOM     15  C   UNL A   1      31.869  24.728  22.942  1.00  0.00     0.072 A 
ATOM     16  N   UNL A   1      33.637  25.678  21.931  1.00  0.00    -0.127 NA
ATOM     17  C   UNL A   1      30.713  24.555  23.865  1.00  0.00     0.069 C 
BRANCH  13  18
ATOM     18  C   UNL A   1      32.938  22.447  23.131  1.00  0.00     0.067 A 
ATOM     19  C   UNL A   1      32.865  19.784  23.962  1.00  0.00     0.119 A 
ATOM     20  C   UNL A   1      33.619  20.714  24.679  1.00  0.00     0.048 A 
ATOM     21  C   UNL A   1      32.151  20.183  22.836  1.00  0.00     0.048 A 
ATOM     22  C   UNL A   1      33.680  22.047  24.251  1.00  0.00     0.032 A 
ATOM     23  C   UNL A   1      32.200  21.506  22.407  1.00  0.00     0.032 A 
BRANCH  19  24
ATOM     24  O   UNL A   1      32.724  18.523  24.473  1.00  0.00    -0.494 OA
BRANCH  24  25
ATOM     25  C   UNL A   1      33.916  17.730  24.417  1.00  0.00     0.226 C 
ATOM     26  C   UNL A   1      34.043  16.937  23.124  1.00  0.00     0.049 C 
ENDBRANCH  24  25
ENDBRANCH  19  24
ENDBRANCH  13  18
ENDBRANCH   7  12
ENDBRANCH   3   6
ENDBRANCH   1   2
BRANCH   1  27
ATOM     27  C   UNL A   1      33.586  28.586  27.481  1.00  0.00     0.042 C 
BRANCH  27  28
ATOM     28  C   UNL A   1      34.580  29.544  26.858  1.00  0.00     0.118 C 
BRANCH  28  29
ATOM     29  N   UNL A   1      34.420  30.914  27.345  1.00  0.00    -0.352 N 
ATOM     30  C   UNL A   1      34.993  31.474  28.474  1.00  0.00     0.251 C 
ATOM     31  H   UNL A   1      33.841  31.503  26.811  1.00  0.00     0.163 HD
ATOM     32  O   UNL A   1      34.509  32.470  28.989  1.00  0.00    -0.269 OA
BRANCH  30  33
ATOM     33  C   UNL A   1      36.201  30.833  29.026  1.00  0.00     0.039 A 
ATOM     34  C   UNL A   1      36.141  29.646  29.758  1.00  0.00     0.014 A 
ATOM     35  C   UNL A   1      37.424  31.431  28.732  1.00  0.00     0.014 A 
ATOM     36  C   UNL A   1      37.338  29.027  30.118  1.00  0.00     0.010 A 
ATOM     37  C   UNL A   1      38.585  30.733  28.923  1.00  0.00     0.010 A 
ATOM     38  C   UNL A   1      38.558  29.567  29.675  1.00  0.00    -0.014 A 
BRANCH  38  39
ATOM     39  C   UNL A   1      39.822  28.856  29.841  1.00  0.00     0.031 A 
ATOM     40  C   UNL A   1      40.170  28.606  31.265  1.00  0.00     0.074 A 
ATOM     41  C   UNL A   1      40.478  28.269  28.813  1.00  0.00     0.049 A 
ATOM     42  N   UNL A   1      41.084  29.194  31.960  1.00  0.00    -0.248 NA
ATOM     43  C   UNL A   1      39.272  27.762  32.075  1.00  0.00     0.031 C 
ATOM     44  C   UNL A   1      40.076  28.191  27.403  1.00  0.00     0.029 A 
ATOM     45  N   UNL A   1      41.611  27.516  28.827  1.00  0.00    -0.354 N 
ATOM     46  C   UNL A   1      41.066  28.579  33.207  1.00  0.00     0.074 A 
ATOM     47  C   UNL A   1      39.794  27.918  33.293  1.00  0.00     0.031 C 
ATOM     48  C   UNL A   1      40.810  27.250  26.765  1.00  0.00     0.029 A 
ATOM     49  C   UNL A   1      41.847  26.777  27.665  1.00  0.00     0.049 A 
ATOM     50  H   UNL A   1      42.221  27.493  29.600  1.00  0.00     0.167 HD
ATOM     51  C   UNL A   1      42.219  28.429  33.920  1.00  0.00     0.034 A 
ATOM     52  C   UNL A   1      42.818  25.840  27.456  1.00  0.00     0.034 A 
ATOM     53  C   UNL A   1      43.263  29.276  33.378  1.00  0.00     0.049 A 
ATOM     54  C   UNL A   1      43.876  26.115  28.460  1.00  0.00     0.074 A 
ATOM     55  C   UNL A   1      43.385  30.635  33.154  1.00  0.00     0.029 A 
ATOM     56  N   UNL A   1      44.218  28.685  32.578  1.00  0.00    -0.354 N 
ATOM     57  N   UNL A   1      44.582  27.214  28.464  1.00  0.00    -0.248 NA
ATOM     58  C   UNL A   1      43.780  25.441  29.747  1.00  0.00     0.031 C 
ATOM     59  C   UNL A   1      44.014  30.738  31.878  1.00  0.00     0.029 A 
ATOM     60  C   UNL A   1      44.350  29.452  31.446  1.00  0.00     0.049 A 
ATOM     61  H   UNL A   1      44.716  27.860  32.782  1.00  0.00     0.167 HD
ATOM     62  C   UNL A   1      44.628  27.606  29.793  1.00  0.00     0.074 A 
ATOM     63  C   UNL A   1      44.192  26.428  30.548  1.00  0.00     0.031 C 
ATOM     64  C   UNL A   1      44.720  28.925  30.143  1.00  0.00     0.034 A 
BRANCH  51  65
ATOM     65  C   UNL A   1      42.540  27.249  34.819  1.00  0.00     0.023 A 
ATOM     66  C   UNL A   1      43.393  26.263  34.286  1.00  0.00     0.031 A 
ATOM     67  C   UNL A   1      41.856  26.888  36.002  1.00  0.00     0.131 A 
ATOM     68  C   UNL A   1      43.437  24.969  34.832  1.00  0.00     0.055 A 
ATOM     69  C   UNL A   1      41.955  25.620  36.581  1.00  0.00     0.041 A 
ATOM     70  F   UNL A   1      40.990  27.696  36.621  1.00  0.00    -0.206 F 
ATOM     71  C   UNL A   1      42.718  24.638  35.976  1.00  0.00     0.022 A 
BRANCH  68  72
ATOM     72  S   UNL A   1      44.300  23.679  33.902  1.00  0.00     0.124 S 
ATOM     73  O   UNL A   1      43.402  23.488  32.769  1.00  0.00    -0.237 OA
ATOM     74  O   UNL A   1      45.577  24.322  33.613  1.00  0.00    -0.237 OA
ATOM     75  O   UNL A   1      44.362  22.566  34.847  1.00  0.00    -0.744 OA
ENDBRANCH  68  72
ENDBRANCH  51  65
BRANCH  52  76
ATOM     76  C   UNL A   1      42.706  24.549  26.705  1.00  0.00     0.023 A 
ATOM     77  C   UNL A   1      43.755  23.993  25.931  1.00  0.00     0.031 A 
ATOM     78  C   UNL A   1      41.604  23.703  26.962  1.00  0.00     0.131 A 
ATOM     79  C   UNL A   1      43.669  22.656  25.458  1.00  0.00     0.055 A 
ATOM     80  C   UNL A   1      41.529  22.385  26.499  1.00  0.00     0.041 A 
ATOM     81  F   UNL A   1      40.594  24.101  27.750  1.00  0.00    -0.206 F 
ATOM     82  C   UNL A   1      42.566  21.852  25.753  1.00  0.00     0.022 A 
BRANCH  79  83
ATOM     83  S   UNL A   1      45.031  21.898  24.501  1.00  0.00     0.124 S 
ATOM     84  O   UNL A   1      46.058  21.704  25.518  1.00  0.00    -0.237 OA
ATOM     85  O   UNL A   1      44.409  20.691  23.967  1.00  0.00    -0.237 OA
ATOM     86  O   UNL A   1      45.352  22.912  23.496  1.00  0.00    -0.744 OA
ENDBRANCH  79  83
ENDBRANCH  52  76
BRANCH  64  87
ATOM     87  C   UNL A   1      45.063  29.942  29.066  1.00  0.00     0.023 A 
ATOM     88  C   UNL A   1      46.369  30.322  28.674  1.00  0.00     0.031 A 
ATOM     89  C   UNL A   1      43.987  30.456  28.320  1.00  0.00     0.131 A 
ATOM     90  C   UNL A   1      46.550  31.190  27.576  1.00  0.00     0.055 A 
ATOM     91  C   UNL A   1      44.172  31.292  27.222  1.00  0.00     0.041 A 
ATOM     92  F   UNL A   1      42.723  30.117  28.629  1.00  0.00    -0.206 F 
ATOM     93  C   UNL A   1      45.456  31.667  26.848  1.00  0.00     0.022 A 
BRANCH  90  94
ATOM     94  S   UNL A   1      48.217  31.744  27.077  1.00  0.00     0.124 S 
ATOM     95  O   UNL A   1      48.814  32.200  28.326  1.00  0.00    -0.237 OA
ATOM     96  O   UNL A   1      48.794  30.534  26.497  1.00  0.00    -0.237 OA
ATOM     97  O   UNL A   1      47.947  32.809  26.109  1.00  0.00    -0.744 OA
ENDBRANCH  90  94
ENDBRANCH  64  87
ENDBRANCH  38  39
ENDBRANCH  30  33
ENDBRANCH  28  29
ENDBRANCH  27  28
ENDBRANCH   1  27
TORSDOF 17
ENDMDL
