MODEL 1
REMARK VINA RESULT:     -12.4      0.000      0.000
REMARK SMILES Cc1ccc(N)cc1S(=O)(=O)Nc1cccc(C(=O)NCCCNC(=O)c2ccc(-c3c4nc(c(-c5cc(S(=O)(=O)[O-])ccc5F)c5ccc([nH]5)c(-c5cc(S(=O)(=O)[O-])ccc5F)c5nc(c(-c6cc(S(=O)(=O)[O-])ccc6F)c6ccc3[nH]6)C=C5)C=C4)cc2)c1
REMARK SMILES IDX 21 1 20 2 18 3 19 4 17 6 13 7 14 8 90 9 15 10 16 11 12 12
REMARK SMILES IDX 9 14 10 15 11 16 8 17 1 18 2 19 3 20 4 21 7 22 5 23 6 24
REMARK SMILES IDX 22 27 23 28 24 29 25 30 26 32 27 33 28 34 89 35 29 36 88 37
REMARK SMILES IDX 30 38 31 39 32 40 82 41 33 42 87 43 81 44 83 45 34 46 86 47
REMARK SMILES IDX 80 48 79 49 35 51 67 52 47 53 66 54 48 55 51 56 65 57 84 58
REMARK SMILES IDX 49 59 50 60 64 62 85 63 52 64 36 65 37 66 45 67 38 68 44 69
REMARK SMILES IDX 46 70 43 71 39 72 40 73 41 74 42 75 68 76 69 77 77 78 70 79
REMARK SMILES IDX 76 80 78 81 75 82 71 83 72 84 73 85 74 86 53 87 54 88 62 89
REMARK SMILES IDX 55 90 61 91 63 92 60 93 56 94 57 95 58 96 59 97
REMARK H PARENT 20 5 12 13 6 25 6 26 24 31 83 50 51 61
REMARK Flexibility Score: inf
ROOT
ATOM      1  C   UNL A   1      31.632  29.535  25.062  1.00  0.00     0.118 C 
ENDROOT
BRANCH   1   2
ATOM      2  N   UNL A   1      30.986  29.768  23.781  1.00  0.00    -0.352 N 
ATOM      3  C   UNL A   1      30.498  28.926  22.814  1.00  0.00     0.251 C 
ATOM      4  O   UNL A   1      29.962  29.445  21.833  1.00  0.00    -0.269 OA
ATOM      5  H   UNL A   1      30.876  30.722  23.565  1.00  0.00     0.163 HD
BRANCH   3   6
ATOM      6  C   UNL A   1      30.504  27.437  22.923  1.00  0.00     0.041 A 
ATOM      7  C   UNL A   1      31.466  25.242  22.578  1.00  0.00     0.050 A 
ATOM      8  C   UNL A   1      30.520  24.684  23.444  1.00  0.00     0.027 A 
ATOM      9  C   UNL A   1      31.381  26.592  22.240  1.00  0.00     0.040 A 
ATOM     10  C   UNL A   1      29.570  25.495  24.057  1.00  0.00     0.003 A 
ATOM     11  C   UNL A   1      29.585  26.869  23.823  1.00  0.00     0.014 A 
BRANCH   7  12
ATOM     12  N   UNL A   1      32.560  24.413  22.221  1.00  0.00    -0.280 N 
ATOM     13  H   UNL A   1      32.559  24.058  21.303  1.00  0.00     0.180 HD
BRANCH  12  14
ATOM     14  S   UNL A   1      33.848  23.972  23.183  1.00  0.00     0.262 S 
ATOM     15  O   UNL A   1      34.038  25.020  24.164  1.00  0.00    -0.201 OA
ATOM     16  O   UNL A   1      34.904  23.627  22.252  1.00  0.00    -0.201 OA
BRANCH  14  17
ATOM     17  C   UNL A   1      33.498  22.472  24.099  1.00  0.00     0.092 A 
ATOM     18  C   UNL A   1      32.039  21.191  22.376  1.00  0.00     0.046 C 
ATOM     19  C   UNL A   1      32.677  21.400  23.714  1.00  0.00    -0.030 A 
ATOM     20  C   UNL A   1      32.392  20.411  24.680  1.00  0.00     0.007 A 
ATOM     21  C   UNL A   1      32.994  20.419  25.939  1.00  0.00     0.026 A 
ATOM     22  C   UNL A   1      34.120  22.445  25.369  1.00  0.00     0.048 A 
ATOM     23  C   UNL A   1      33.914  21.403  26.272  1.00  0.00     0.033 A 
BRANCH  23  24
ATOM     24  N   UNL A   1      34.519  21.412  27.513  1.00  0.00    -0.399 N 
ATOM     25  H   UNL A   1      34.042  21.781  28.291  1.00  0.00     0.156 HD
ATOM     26  H   UNL A   1      35.427  21.048  27.620  1.00  0.00     0.156 HD
ENDBRANCH  23  24
ENDBRANCH  14  17
ENDBRANCH  12  14
ENDBRANCH   7  12
ENDBRANCH   3   6
ENDBRANCH   1   2
BRANCH   1  27
ATOM     27  C   UNL A   1      32.956  28.796  24.887  1.00  0.00     0.042 C 
BRANCH  27  28
ATOM     28  C   UNL A   1      33.938  29.078  26.015  1.00  0.00     0.118 C 
BRANCH  28  29
ATOM     29  N   UNL A   1      33.700  30.378  26.625  1.00  0.00    -0.352 N 
ATOM     30  C   UNL A   1      34.388  31.010  27.631  1.00  0.00     0.251 C 
ATOM     31  H   UNL A   1      32.933  30.877  26.263  1.00  0.00     0.163 HD
ATOM     32  O   UNL A   1      33.909  32.027  28.130  1.00  0.00    -0.269 OA
BRANCH  30  33
ATOM     33  C   UNL A   1      35.672  30.467  28.131  1.00  0.00     0.039 A 
ATOM     34  C   UNL A   1      35.652  29.663  29.276  1.00  0.00     0.014 A 
ATOM     35  C   UNL A   1      36.891  30.766  27.515  1.00  0.00     0.014 A 
ATOM     36  C   UNL A   1      36.843  29.136  29.780  1.00  0.00     0.010 A 
ATOM     37  C   UNL A   1      38.068  30.176  27.972  1.00  0.00     0.010 A 
ATOM     38  C   UNL A   1      38.060  29.373  29.121  1.00  0.00    -0.014 A 
BRANCH  38  39
ATOM     39  C   UNL A   1      39.333  28.818  29.653  1.00  0.00     0.031 A 
ATOM     40  C   UNL A   1      39.950  29.402  30.895  1.00  0.00     0.074 A 
ATOM     41  C   UNL A   1      39.948  27.815  28.998  1.00  0.00     0.049 A 
ATOM     42  N   UNL A   1      41.052  29.061  31.514  1.00  0.00    -0.248 NA
ATOM     43  C   UNL A   1      39.250  30.543  31.504  1.00  0.00     0.031 C 
ATOM     44  C   UNL A   1      39.474  27.201  27.757  1.00  0.00     0.029 A 
ATOM     45  N   UNL A   1      41.100  27.130  29.289  1.00  0.00    -0.354 N 
ATOM     46  C   UNL A   1      41.187  29.958  32.571  1.00  0.00     0.074 A 
ATOM     47  C   UNL A   1      40.090  30.896  32.463  1.00  0.00     0.031 C 
ATOM     48  C   UNL A   1      40.305  26.202  27.415  1.00  0.00     0.029 A 
ATOM     49  C   UNL A   1      41.386  26.126  28.393  1.00  0.00     0.049 A 
ATOM     50  H   UNL A   1      41.669  27.337  30.065  1.00  0.00     0.167 HD
ATOM     51  C   UNL A   1      42.124  29.981  33.553  1.00  0.00     0.034 A 
ATOM     52  C   UNL A   1      42.399  25.239  28.370  1.00  0.00     0.034 A 
ATOM     53  C   UNL A   1      43.198  29.022  33.656  1.00  0.00     0.049 A 
ATOM     54  C   UNL A   1      43.424  25.275  29.473  1.00  0.00     0.074 A 
ATOM     55  C   UNL A   1      44.162  28.903  34.642  1.00  0.00     0.029 A 
ATOM     56  N   UNL A   1      43.455  28.018  32.730  1.00  0.00    -0.354 N 
ATOM     57  N   UNL A   1      43.504  26.087  30.502  1.00  0.00    -0.248 NA
ATOM     58  C   UNL A   1      44.486  24.263  29.419  1.00  0.00     0.031 C 
ATOM     59  C   UNL A   1      45.033  27.867  34.284  1.00  0.00     0.029 A 
ATOM     60  C   UNL A   1      44.577  27.295  33.108  1.00  0.00     0.049 A 
ATOM     61  H   UNL A   1      42.920  27.846  31.921  1.00  0.00     0.167 HD
ATOM     62  C   UNL A   1      44.606  25.661  31.236  1.00  0.00     0.074 A 
ATOM     63  C   UNL A   1      45.154  24.516  30.534  1.00  0.00     0.031 C 
ATOM     64  C   UNL A   1      45.117  26.163  32.390  1.00  0.00     0.034 A 
BRANCH  51  65
ATOM     65  C   UNL A   1      42.031  31.099  34.568  1.00  0.00     0.023 A 
ATOM     66  C   UNL A   1      40.988  31.158  35.510  1.00  0.00     0.031 A 
ATOM     67  C   UNL A   1      42.962  32.152  34.556  1.00  0.00     0.131 A 
ATOM     68  C   UNL A   1      40.842  32.290  36.326  1.00  0.00     0.055 A 
ATOM     69  C   UNL A   1      42.864  33.234  35.434  1.00  0.00     0.041 A 
ATOM     70  F   UNL A   1      43.972  32.164  33.671  1.00  0.00    -0.206 F 
ATOM     71  C   UNL A   1      41.787  33.317  36.313  1.00  0.00     0.022 A 
BRANCH  68  72
ATOM     72  S   UNL A   1      39.305  32.481  37.273  1.00  0.00     0.124 S 
ATOM     73  O   UNL A   1      39.815  32.637  38.634  1.00  0.00    -0.237 OA
ATOM     74  O   UNL A   1      38.712  33.670  36.673  1.00  0.00    -0.237 OA
ATOM     75  O   UNL A   1      38.590  31.231  37.024  1.00  0.00    -0.744 OA
ENDBRANCH  68  72
ENDBRANCH  51  65
BRANCH  52  76
ATOM     76  C   UNL A   1      42.483  24.222  27.286  1.00  0.00     0.023 A 
ATOM     77  C   UNL A   1      41.707  23.053  27.339  1.00  0.00     0.031 A 
ATOM     78  C   UNL A   1      43.350  24.392  26.193  1.00  0.00     0.131 A 
ATOM     79  C   UNL A   1      41.840  22.080  26.337  1.00  0.00     0.055 A 
ATOM     80  C   UNL A   1      43.447  23.440  25.177  1.00  0.00     0.041 A 
ATOM     81  F   UNL A   1      44.104  25.498  26.092  1.00  0.00    -0.206 F 
ATOM     82  C   UNL A   1      42.697  22.270  25.251  1.00  0.00     0.022 A 
BRANCH  79  83
ATOM     83  S   UNL A   1      40.916  20.528  26.506  1.00  0.00     0.124 S 
ATOM     84  O   UNL A   1      39.607  20.900  25.981  1.00  0.00    -0.237 OA
ATOM     85  O   UNL A   1      41.702  19.615  25.684  1.00  0.00    -0.237 OA
ATOM     86  O   UNL A   1      40.959  20.261  27.943  1.00  0.00    -0.744 OA
ENDBRANCH  79  83
ENDBRANCH  52  76
BRANCH  64  87
ATOM     87  C   UNL A   1      46.299  25.437  32.981  1.00  0.00     0.023 A 
ATOM     88  C   UNL A   1      46.139  24.352  33.858  1.00  0.00     0.031 A 
ATOM     89  C   UNL A   1      47.607  25.860  32.680  1.00  0.00     0.131 A 
ATOM     90  C   UNL A   1      47.265  23.761  34.452  1.00  0.00     0.055 A 
ATOM     91  C   UNL A   1      48.725  25.232  33.229  1.00  0.00     0.041 A 
ATOM     92  F   UNL A   1      47.817  26.893  31.849  1.00  0.00    -0.206 F 
ATOM     93  C   UNL A   1      48.558  24.185  34.131  1.00  0.00     0.022 A 
BRANCH  90  94
ATOM     94  S   UNL A   1      47.015  22.492  35.723  1.00  0.00     0.124 S 
ATOM     95  O   UNL A   1      48.381  22.232  36.167  1.00  0.00    -0.237 OA
ATOM     96  O   UNL A   1      46.153  23.175  36.682  1.00  0.00    -0.237 OA
ATOM     97  O   UNL A   1      46.381  21.395  34.993  1.00  0.00    -0.744 OA
ENDBRANCH  90  94
ENDBRANCH  64  87
ENDBRANCH  38  39
ENDBRANCH  30  33
ENDBRANCH  28  29
ENDBRANCH  27  28
ENDBRANCH   1  27
TORSDOF 17
ENDMDL
MODEL 2
REMARK VINA RESULT:     -12.1      3.029      8.386
REMARK SMILES Cc1ccc(N)cc1S(=O)(=O)Nc1cccc(C(=O)NCCCNC(=O)c2ccc(-c3c4nc(c(-c5cc(S(=O)(=O)[O-])ccc5F)c5ccc([nH]5)c(-c5cc(S(=O)(=O)[O-])ccc5F)c5nc(c(-c6cc(S(=O)(=O)[O-])ccc6F)c6ccc3[nH]6)C=C5)C=C4)cc2)c1
REMARK SMILES IDX 21 1 20 2 18 3 19 4 17 6 13 7 14 8 90 9 15 10 16 11 12 12
REMARK SMILES IDX 9 14 10 15 11 16 8 17 1 18 2 19 3 20 4 21 7 22 5 23 6 24
REMARK SMILES IDX 22 27 23 28 24 29 25 30 26 32 27 33 28 34 89 35 29 36 88 37
REMARK SMILES IDX 30 38 31 39 32 40 82 41 33 42 87 43 81 44 83 45 34 46 86 47
REMARK SMILES IDX 80 48 79 49 35 51 67 52 47 53 66 54 48 55 51 56 65 57 84 58
REMARK SMILES IDX 49 59 50 60 64 62 85 63 52 64 36 65 37 66 45 67 38 68 44 69
REMARK SMILES IDX 46 70 43 71 39 72 40 73 41 74 42 75 68 76 69 77 77 78 70 79
REMARK SMILES IDX 76 80 78 81 75 82 71 83 72 84 73 85 74 86 53 87 54 88 62 89
REMARK SMILES IDX 55 90 61 91 63 92 60 93 56 94 57 95 58 96 59 97
REMARK H PARENT 20 5 12 13 6 25 6 26 24 31 83 50 51 61
REMARK Flexibility Score: inf
ROOT
ATOM      1  C   UNL A   1      31.576  30.368  25.886  1.00  0.00     0.118 C 
ENDROOT
BRANCH   1   2
ATOM      2  N   UNL A   1      30.982  30.371  24.560  1.00  0.00    -0.352 N 
ATOM      3  C   UNL A   1      30.685  29.372  23.668  1.00  0.00     0.251 C 
ATOM      4  O   UNL A   1      30.139  29.703  22.613  1.00  0.00    -0.269 OA
ATOM      5  H   UNL A   1      30.747  31.271  24.237  1.00  0.00     0.163 HD
BRANCH   3   6
ATOM      6  C   UNL A   1      30.903  27.920  23.936  1.00  0.00     0.041 A 
ATOM      7  C   UNL A   1      32.282  25.983  24.395  1.00  0.00     0.050 A 
ATOM      8  C   UNL A   1      31.142  25.237  24.708  1.00  0.00     0.027 A 
ATOM      9  C   UNL A   1      32.144  27.282  23.907  1.00  0.00     0.040 A 
ATOM     10  C   UNL A   1      29.883  25.825  24.645  1.00  0.00     0.003 A 
ATOM     11  C   UNL A   1      29.769  27.169  24.294  1.00  0.00     0.014 A 
BRANCH   7  12
ATOM     12  N   UNL A   1      33.529  25.410  24.753  1.00  0.00    -0.280 N 
ATOM     13  H   UNL A   1      33.936  25.734  25.589  1.00  0.00     0.180 HD
BRANCH  12  14
ATOM     14  S   UNL A   1      34.383  24.248  23.916  1.00  0.00     0.262 S 
ATOM     15  O   UNL A   1      35.663  24.090  24.575  1.00  0.00    -0.201 OA
ATOM     16  O   UNL A   1      34.308  24.661  22.529  1.00  0.00    -0.201 OA
BRANCH  14  17
ATOM     17  C   UNL A   1      33.568  22.654  23.994  1.00  0.00     0.092 A 
ATOM     18  C   UNL A   1      34.183  21.921  26.406  1.00  0.00     0.046 C 
ATOM     19  C   UNL A   1      33.598  21.721  25.043  1.00  0.00    -0.030 A 
ATOM     20  C   UNL A   1      33.042  20.446  24.805  1.00  0.00     0.007 A 
ATOM     21  C   UNL A   1      32.374  20.146  23.616  1.00  0.00     0.026 A 
ATOM     22  C   UNL A   1      32.862  22.339  22.810  1.00  0.00     0.048 A 
ATOM     23  C   UNL A   1      32.222  21.113  22.632  1.00  0.00     0.033 A 
BRANCH  23  24
ATOM     24  N   UNL A   1      31.555  20.825  21.458  1.00  0.00    -0.399 N 
ATOM     25  H   UNL A   1      30.781  20.217  21.468  1.00  0.00     0.156 HD
ATOM     26  H   UNL A   1      31.854  21.228  20.611  1.00  0.00     0.156 HD
ENDBRANCH  23  24
ENDBRANCH  14  17
ENDBRANCH  12  14
ENDBRANCH   7  12
ENDBRANCH   3   6
ENDBRANCH   1   2
BRANCH   1  27
ATOM     27  C   UNL A   1      31.401  31.719  26.574  1.00  0.00     0.042 C 
BRANCH  27  28
ATOM     28  C   UNL A   1      32.706  32.262  27.141  1.00  0.00     0.118 C 
BRANCH  28  29
ATOM     29  N   UNL A   1      32.597  33.670  27.491  1.00  0.00    -0.352 N 
ATOM     30  C   UNL A   1      33.272  34.387  28.447  1.00  0.00     0.251 C 
ATOM     31  H   UNL A   1      31.943  34.184  26.965  1.00  0.00     0.163 HD
ATOM     32  O   UNL A   1      32.898  35.528  28.710  1.00  0.00    -0.269 OA
BRANCH  30  33
ATOM     33  C   UNL A   1      34.417  33.792  29.175  1.00  0.00     0.039 A 
ATOM     34  C   UNL A   1      34.159  32.785  30.111  1.00  0.00     0.014 A 
ATOM     35  C   UNL A   1      35.729  34.235  28.978  1.00  0.00     0.014 A 
ATOM     36  C   UNL A   1      35.213  32.203  30.819  1.00  0.00     0.010 A 
ATOM     37  C   UNL A   1      36.787  33.600  29.627  1.00  0.00     0.010 A 
ATOM     38  C   UNL A   1      36.538  32.593  30.570  1.00  0.00    -0.014 A 
BRANCH  38  39
ATOM     39  C   UNL A   1      37.665  31.981  31.322  1.00  0.00     0.031 A 
ATOM     40  C   UNL A   1      38.480  30.880  30.697  1.00  0.00     0.074 A 
ATOM     41  C   UNL A   1      37.932  32.392  32.576  1.00  0.00     0.049 A 
ATOM     42  N   UNL A   1      39.497  30.219  31.187  1.00  0.00    -0.248 NA
ATOM     43  C   UNL A   1      38.073  30.442  29.354  1.00  0.00     0.031 C 
ATOM     44  C   UNL A   1      37.182  33.415  33.307  1.00  0.00     0.029 A 
ATOM     45  N   UNL A   1      38.911  32.006  33.456  1.00  0.00    -0.354 N 
ATOM     46  C   UNL A   1      39.838  29.275  30.223  1.00  0.00     0.074 A 
ATOM     47  C   UNL A   1      38.873  29.408  29.152  1.00  0.00     0.031 C 
ATOM     48  C   UNL A   1      37.753  33.606  34.508  1.00  0.00     0.029 A 
ATOM     49  C   UNL A   1      38.888  32.698  34.645  1.00  0.00     0.049 A 
ATOM     50  H   UNL A   1      39.568  31.301  33.256  1.00  0.00     0.167 HD
ATOM     51  C   UNL A   1      40.873  28.397  30.219  1.00  0.00     0.034 A 
ATOM     52  C   UNL A   1      39.698  32.616  35.718  1.00  0.00     0.034 A 
ATOM     53  C   UNL A   1      41.839  28.295  31.287  1.00  0.00     0.049 A 
ATOM     54  C   UNL A   1      40.846  31.642  35.691  1.00  0.00     0.074 A 
ATOM     55  C   UNL A   1      42.967  27.496  31.362  1.00  0.00     0.029 A 
ATOM     56  N   UNL A   1      41.784  29.013  32.475  1.00  0.00    -0.354 N 
ATOM     57  N   UNL A   1      41.196  30.801  34.746  1.00  0.00    -0.248 NA
ATOM     58  C   UNL A   1      41.718  31.619  36.872  1.00  0.00     0.031 C 
ATOM     59  C   UNL A   1      43.560  27.688  32.616  1.00  0.00     0.029 A 
ATOM     60  C   UNL A   1      42.841  28.656  33.300  1.00  0.00     0.049 A 
ATOM     61  H   UNL A   1      41.094  29.679  32.701  1.00  0.00     0.167 HD
ATOM     62  C   UNL A   1      42.349  30.173  35.205  1.00  0.00     0.074 A 
ATOM     63  C   UNL A   1      42.638  30.739  36.508  1.00  0.00     0.031 C 
ATOM     64  C   UNL A   1      43.108  29.221  34.602  1.00  0.00     0.034 A 
BRANCH  51  65
ATOM     65  C   UNL A   1      40.985  27.468  29.031  1.00  0.00     0.023 A 
ATOM     66  C   UNL A   1      41.989  27.627  28.058  1.00  0.00     0.031 A 
ATOM     67  C   UNL A   1      40.040  26.446  28.834  1.00  0.00     0.131 A 
ATOM     68  C   UNL A   1      41.963  26.851  26.889  1.00  0.00     0.055 A 
ATOM     69  C   UNL A   1      40.074  25.615  27.711  1.00  0.00     0.041 A 
ATOM     70  F   UNL A   1      39.047  26.252  29.717  1.00  0.00    -0.206 F 
ATOM     71  C   UNL A   1      41.028  25.829  26.720  1.00  0.00     0.022 A 
BRANCH  68  72
ATOM     72  S   UNL A   1      43.057  27.317  25.518  1.00  0.00     0.124 S 
ATOM     73  O   UNL A   1      42.188  28.190  24.731  1.00  0.00    -0.237 OA
ATOM     74  O   UNL A   1      44.165  27.970  26.207  1.00  0.00    -0.237 OA
ATOM     75  O   UNL A   1      43.380  26.040  24.886  1.00  0.00    -0.744 OA
ENDBRANCH  68  72
ENDBRANCH  51  65
BRANCH  52  76
ATOM     76  C   UNL A   1      39.474  33.498  36.897  1.00  0.00     0.023 A 
ATOM     77  C   UNL A   1      38.817  33.014  38.040  1.00  0.00     0.031 A 
ATOM     78  C   UNL A   1      39.895  34.839  36.892  1.00  0.00     0.131 A 
ATOM     79  C   UNL A   1      38.567  33.876  39.118  1.00  0.00     0.055 A 
ATOM     80  C   UNL A   1      39.680  35.680  37.985  1.00  0.00     0.041 A 
ATOM     81  F   UNL A   1      40.536  35.345  35.827  1.00  0.00    -0.206 F 
ATOM     82  C   UNL A   1      39.003  35.203  39.103  1.00  0.00     0.022 A 
BRANCH  79  83
ATOM     83  S   UNL A   1      37.606  33.249  40.523  1.00  0.00     0.124 S 
ATOM     84  O   UNL A   1      37.454  34.447  41.341  1.00  0.00    -0.237 OA
ATOM     85  O   UNL A   1      36.396  32.760  39.870  1.00  0.00    -0.237 OA
ATOM     86  O   UNL A   1      38.467  32.212  41.089  1.00  0.00    -0.744 OA
ENDBRANCH  79  83
ENDBRANCH  52  76
BRANCH  64  87
ATOM     87  C   UNL A   1      44.347  28.776  35.336  1.00  0.00     0.023 A 
ATOM     88  C   UNL A   1      44.308  27.765  36.312  1.00  0.00     0.031 A 
ATOM     89  C   UNL A   1      45.582  29.395  35.072  1.00  0.00     0.131 A 
ATOM     90  C   UNL A   1      45.469  27.443  37.031  1.00  0.00     0.055 A 
ATOM     91  C   UNL A   1      46.746  29.031  35.751  1.00  0.00     0.041 A 
ATOM     92  F   UNL A   1      45.676  30.367  34.151  1.00  0.00    -0.206 F 
ATOM     93  C   UNL A   1      46.691  28.060  36.746  1.00  0.00     0.022 A 
BRANCH  90  94
ATOM     94  S   UNL A   1      45.342  26.273  38.412  1.00  0.00     0.124 S 
ATOM     95  O   UNL A   1      44.592  27.045  39.397  1.00  0.00    -0.237 OA
ATOM     96  O   UNL A   1      44.632  25.151  37.806  1.00  0.00    -0.237 OA
ATOM     97  O   UNL A   1      46.736  26.007  38.764  1.00  0.00    -0.744 OA
ENDBRANCH  90  94
ENDBRANCH  64  87
ENDBRANCH  38  39
ENDBRANCH  30  33
ENDBRANCH  28  29
ENDBRANCH  27  28
ENDBRANCH   1  27
TORSDOF 17
ENDMDL
MODEL 3
REMARK VINA RESULT:     -12.1      2.639      3.530
REMARK SMILES Cc1ccc(N)cc1S(=O)(=O)Nc1cccc(C(=O)NCCCNC(=O)c2ccc(-c3c4nc(c(-c5cc(S(=O)(=O)[O-])ccc5F)c5ccc([nH]5)c(-c5cc(S(=O)(=O)[O-])ccc5F)c5nc(c(-c6cc(S(=O)(=O)[O-])ccc6F)c6ccc3[nH]6)C=C5)C=C4)cc2)c1
REMARK SMILES IDX 21 1 20 2 18 3 19 4 17 6 13 7 14 8 90 9 15 10 16 11 12 12
REMARK SMILES IDX 9 14 10 15 11 16 8 17 1 18 2 19 3 20 4 21 7 22 5 23 6 24
REMARK SMILES IDX 22 27 23 28 24 29 25 30 26 32 27 33 28 34 89 35 29 36 88 37
REMARK SMILES IDX 30 38 31 39 32 40 82 41 33 42 87 43 81 44 83 45 34 46 86 47
REMARK SMILES IDX 80 48 79 49 35 51 67 52 47 53 66 54 48 55 51 56 65 57 84 58
REMARK SMILES IDX 49 59 50 60 64 62 85 63 52 64 36 65 37 66 45 67 38 68 44 69
REMARK SMILES IDX 46 70 43 71 39 72 40 73 41 74 42 75 68 76 69 77 77 78 70 79
REMARK SMILES IDX 76 80 78 81 75 82 71 83 72 84 73 85 74 86 53 87 54 88 62 89
REMARK SMILES IDX 55 90 61 91 63 92 60 93 56 94 57 95 58 96 59 97
REMARK H PARENT 20 5 12 13 6 25 6 26 24 31 83 50 51 61
REMARK Flexibility Score: inf
ROOT
ATOM      1  C   UNL A   1      31.456  30.488  26.381  1.00  0.00     0.118 C 
ENDROOT
BRANCH   1   2
ATOM      2  N   UNL A   1      32.353  30.179  25.280  1.00  0.00    -0.352 N 
ATOM      3  C   UNL A   1      32.502  29.075  24.480  1.00  0.00     0.251 C 
ATOM      4  O   UNL A   1      33.352  29.136  23.589  1.00  0.00    -0.269 OA
ATOM      5  H   UNL A   1      32.979  30.908  25.068  1.00  0.00     0.163 HD
BRANCH   3   6
ATOM      6  C   UNL A   1      31.647  27.855  24.570  1.00  0.00     0.041 A 
ATOM      7  C   UNL A   1      30.966  25.754  25.562  1.00  0.00     0.050 A 
ATOM      8  C   UNL A   1      29.796  25.764  24.797  1.00  0.00     0.027 A 
ATOM      9  C   UNL A   1      31.930  26.741  25.362  1.00  0.00     0.040 A 
ATOM     10  C   UNL A   1      29.541  26.816  23.924  1.00  0.00     0.003 A 
ATOM     11  C   UNL A   1      30.446  27.873  23.838  1.00  0.00     0.014 A 
BRANCH   7  12
ATOM     12  N   UNL A   1      31.019  24.811  26.621  1.00  0.00    -0.280 N 
ATOM     13  H   UNL A   1      30.688  25.117  27.496  1.00  0.00     0.180 HD
BRANCH  12  14
ATOM     14  S   UNL A   1      31.578  23.242  26.549  1.00  0.00     0.262 S 
ATOM     15  O   UNL A   1      30.544  22.439  25.931  1.00  0.00    -0.201 OA
ATOM     16  O   UNL A   1      32.041  22.953  27.891  1.00  0.00    -0.201 OA
BRANCH  14  17
ATOM     17  C   UNL A   1      33.024  23.111  25.497  1.00  0.00     0.092 A 
ATOM     18  C   UNL A   1      31.921  23.233  23.152  1.00  0.00     0.046 C 
ATOM     19  C   UNL A   1      33.066  23.042  24.096  1.00  0.00    -0.030 A 
ATOM     20  C   UNL A   1      34.305  22.744  23.490  1.00  0.00     0.007 A 
ATOM     21  C   UNL A   1      35.481  22.637  24.235  1.00  0.00     0.026 A 
ATOM     22  C   UNL A   1      34.231  23.028  26.230  1.00  0.00     0.048 A 
ATOM     23  C   UNL A   1      35.464  22.842  25.607  1.00  0.00     0.033 A 
BRANCH  23  24
ATOM     24  N   UNL A   1      36.625  22.746  26.348  1.00  0.00    -0.399 N 
ATOM     25  H   UNL A   1      37.302  23.459  26.297  1.00  0.00     0.156 HD
ATOM     26  H   UNL A   1      36.776  21.965  26.928  1.00  0.00     0.156 HD
ENDBRANCH  23  24
ENDBRANCH  14  17
ENDBRANCH  12  14
ENDBRANCH   7  12
ENDBRANCH   3   6
ENDBRANCH   1   2
BRANCH   1  27
ATOM     27  C   UNL A   1      31.399  31.991  26.642  1.00  0.00     0.042 C 
BRANCH  27  28
ATOM     28  C   UNL A   1      32.748  32.566  27.052  1.00  0.00     0.118 C 
BRANCH  28  29
ATOM     29  N   UNL A   1      32.609  33.864  27.694  1.00  0.00    -0.352 N 
ATOM     30  C   UNL A   1      33.316  34.402  28.740  1.00  0.00     0.251 C 
ATOM     31  H   UNL A   1      31.903  34.442  27.323  1.00  0.00     0.163 HD
ATOM     32  O   UNL A   1      32.916  35.444  29.255  1.00  0.00    -0.269 OA
BRANCH  30  33
ATOM     33  C   UNL A   1      34.527  33.729  29.264  1.00  0.00     0.039 A 
ATOM     34  C   UNL A   1      34.362  32.665  30.156  1.00  0.00     0.014 A 
ATOM     35  C   UNL A   1      35.815  34.152  28.920  1.00  0.00     0.014 A 
ATOM     36  C   UNL A   1      35.480  32.008  30.674  1.00  0.00     0.010 A 
ATOM     37  C   UNL A   1      36.927  33.446  29.375  1.00  0.00     0.010 A 
ATOM     38  C   UNL A   1      36.773  32.381  30.274  1.00  0.00    -0.014 A 
BRANCH  38  39
ATOM     39  C   UNL A   1      37.969  31.689  30.823  1.00  0.00     0.031 A 
ATOM     40  C   UNL A   1      38.458  32.012  32.209  1.00  0.00     0.074 A 
ATOM     41  C   UNL A   1      38.632  30.798  30.062  1.00  0.00     0.049 A 
ATOM     42  N   UNL A   1      39.478  31.522  32.866  1.00  0.00    -0.248 NA
ATOM     43  C   UNL A   1      37.718  33.051  32.942  1.00  0.00     0.031 C 
ATOM     44  C   UNL A   1      38.285  30.439  28.686  1.00  0.00     0.029 A 
ATOM     45  N   UNL A   1      39.731  30.026  30.339  1.00  0.00    -0.354 N 
ATOM     46  C   UNL A   1      39.515  32.206  34.078  1.00  0.00     0.074 A 
ATOM     47  C   UNL A   1      38.455  33.191  34.031  1.00  0.00     0.031 C 
ATOM     48  C   UNL A   1      39.128  29.487  28.253  1.00  0.00     0.029 A 
ATOM     49  C   UNL A   1      40.094  29.191  29.308  1.00  0.00     0.049 A 
ATOM     50  H   UNL A   1      40.216  30.066  31.195  1.00  0.00     0.167 HD
ATOM     51  C   UNL A   1      40.339  32.013  35.139  1.00  0.00     0.034 A 
ATOM     52  C   UNL A   1      41.086  28.284  29.227  1.00  0.00     0.034 A 
ATOM     53  C   UNL A   1      41.376  31.010  35.174  1.00  0.00     0.049 A 
ATOM     54  C   UNL A   1      41.984  28.078  30.418  1.00  0.00     0.074 A 
ATOM     55  C   UNL A   1      42.223  30.675  36.216  1.00  0.00     0.029 A 
ATOM     56  N   UNL A   1      41.713  30.181  34.110  1.00  0.00    -0.354 N 
ATOM     57  N   UNL A   1      41.967  28.686  31.581  1.00  0.00    -0.248 NA
ATOM     58  C   UNL A   1      43.025  27.052  30.288  1.00  0.00     0.031 C 
ATOM     59  C   UNL A   1      43.108  29.688  35.766  1.00  0.00     0.029 A 
ATOM     60  C   UNL A   1      42.772  29.357  34.462  1.00  0.00     0.049 A 
ATOM     61  H   UNL A   1      41.266  30.180  33.233  1.00  0.00     0.167 HD
ATOM     62  C   UNL A   1      42.974  28.091  32.334  1.00  0.00     0.074 A 
ATOM     63  C   UNL A   1      43.572  27.071  31.494  1.00  0.00     0.031 C 
ATOM     64  C   UNL A   1      43.365  28.355  33.608  1.00  0.00     0.034 A 
BRANCH  51  65
ATOM     65  C   UNL A   1      40.158  32.930  36.328  1.00  0.00     0.023 A 
ATOM     66  C   UNL A   1      41.005  34.033  36.548  1.00  0.00     0.031 A 
ATOM     67  C   UNL A   1      39.166  32.666  37.288  1.00  0.00     0.131 A 
ATOM     68  C   UNL A   1      40.911  34.763  37.742  1.00  0.00     0.055 A 
ATOM     69  C   UNL A   1      39.018  33.454  38.432  1.00  0.00     0.041 A 
ATOM     70  F   UNL A   1      38.337  31.620  37.145  1.00  0.00    -0.206 F 
ATOM     71  C   UNL A   1      39.907  34.497  38.675  1.00  0.00     0.022 A 
BRANCH  68  72
ATOM     72  S   UNL A   1      42.229  35.946  38.139  1.00  0.00     0.124 S 
ATOM     73  O   UNL A   1      43.397  35.071  38.216  1.00  0.00    -0.237 OA
ATOM     74  O   UNL A   1      42.187  36.857  37.000  1.00  0.00    -0.237 OA
ATOM     75  O   UNL A   1      41.805  36.519  39.414  1.00  0.00    -0.744 OA
ENDBRANCH  68  72
ENDBRANCH  51  65
BRANCH  52  76
ATOM     76  C   UNL A   1      41.267  27.478  27.987  1.00  0.00     0.023 A 
ATOM     77  C   UNL A   1      40.946  26.111  27.969  1.00  0.00     0.031 A 
ATOM     78  C   UNL A   1      41.780  28.054  26.813  1.00  0.00     0.131 A 
ATOM     79  C   UNL A   1      41.176  25.356  26.809  1.00  0.00     0.055 A 
ATOM     80  C   UNL A   1      41.967  27.307  25.649  1.00  0.00     0.041 A 
ATOM     81  F   UNL A   1      42.092  29.360  26.778  1.00  0.00    -0.206 F 
ATOM     82  C   UNL A   1      41.675  25.946  25.645  1.00  0.00     0.022 A 
BRANCH  79  83
ATOM     83  S   UNL A   1      40.867  23.569  26.862  1.00  0.00     0.124 S 
ATOM     84  O   UNL A   1      41.229  23.244  28.237  1.00  0.00    -0.237 OA
ATOM     85  O   UNL A   1      39.446  23.497  26.538  1.00  0.00    -0.237 OA
ATOM     86  O   UNL A   1      41.765  23.038  25.837  1.00  0.00    -0.744 OA
ENDBRANCH  79  83
ENDBRANCH  52  76
BRANCH  64  87
ATOM     87  C   UNL A   1      44.461  27.487  34.174  1.00  0.00     0.023 A 
ATOM     88  C   UNL A   1      44.187  26.250  34.782  1.00  0.00     0.031 A 
ATOM     89  C   UNL A   1      45.798  27.922  34.127  1.00  0.00     0.131 A 
ATOM     90  C   UNL A   1      45.227  25.516  35.372  1.00  0.00     0.055 A 
ATOM     91  C   UNL A   1      46.836  27.161  34.665  1.00  0.00     0.041 A 
ATOM     92  F   UNL A   1      46.115  29.096  33.559  1.00  0.00    -0.206 F 
ATOM     93  C   UNL A   1      46.552  25.957  35.304  1.00  0.00     0.022 A 
BRANCH  90  94
ATOM     94  S   UNL A   1      44.815  24.022  36.314  1.00  0.00     0.124 S 
ATOM     95  O   UNL A   1      43.573  23.594  35.677  1.00  0.00    -0.237 OA
ATOM     96  O   UNL A   1      45.978  23.173  36.077  1.00  0.00    -0.237 OA
ATOM     97  O   UNL A   1      44.673  24.509  37.685  1.00  0.00    -0.744 OA
ENDBRANCH  90  94
ENDBRANCH  64  87
ENDBRANCH  38  39
ENDBRANCH  30  33
ENDBRANCH  28  29
ENDBRANCH  27  28
ENDBRANCH   1  27
TORSDOF 17
ENDMDL
