MODEL 1
REMARK VINA RESULT:     -12.3      0.000      0.000
REMARK SMILES CC1(C)CC[N@H+](CCC(=O)NCCCNC(=O)c2ccc(-c3c4nc(c(-c5cc(S(=O)(=O)[O-])ccc5F)c5ccc([nH]5)c(-c5cc(S(=O)(=O)[O-])ccc5F)c5nc(c(-c6cc(S(=O)(=O)[O-])ccc6F)c6ccc3[nH]6)C=C5)C=C4)cc2)C1
REMARK SMILES IDX 13 1 12 2 11 3 9 4 10 5 8 7 7 8 6 9 1 10 2 11 3 12 4 13
REMARK SMILES IDX 81 14 5 15 14 17 15 18 16 19 17 21 18 22 19 23 80 24 20 25
REMARK SMILES IDX 79 26 21 27 22 28 23 29 73 30 24 31 78 32 72 33 74 34 25 35
REMARK SMILES IDX 77 36 71 37 70 38 26 40 58 41 38 42 57 43 39 44 42 45 56 46
REMARK SMILES IDX 75 47 40 48 41 49 55 51 76 52 43 53 27 54 28 55 36 56 29 57
REMARK SMILES IDX 35 58 37 59 34 60 30 61 31 62 32 63 33 64 59 65 60 66 68 67
REMARK SMILES IDX 61 68 67 69 69 70 66 71 62 72 63 73 64 74 65 75 44 76 45 77
REMARK SMILES IDX 53 78 46 79 52 80 54 81 51 82 47 83 48 84 49 85 50 86
REMARK H PARENT 11 6 6 16 15 20 74 39 42 50
REMARK Flexibility Score: inf
ROOT
ATOM      1  C   UNL A   1      33.402  29.296  24.288  1.00  0.00     0.042 C 
ENDROOT
BRANCH   1   2
ATOM      2  C   UNL A   1      32.452  27.961  22.837  1.00  0.00     0.117 C 
BRANCH   2   3
ATOM      3  N   UNL A   1      33.022  27.046  21.704  1.00  0.00    -0.356 N 
ATOM      4  C   UNL A   1      32.706  25.729  21.519  1.00  0.00     0.225 C 
ATOM      5  O   UNL A   1      33.191  25.096  20.586  1.00  0.00    -0.275 OA
ATOM      6  H   UNL A   1      33.659  27.452  21.072  1.00  0.00     0.163 HD
BRANCH   4   7
ATOM      7  C   UNL A   1      31.700  25.157  22.476  1.00  0.00     0.161 C 
BRANCH   7   8
ATOM      8  C   UNL A   1      32.273  24.105  23.428  1.00  0.00     0.272 C 
BRANCH   8   9
ATOM      9  N   UNL A   1      33.374  24.422  24.347  1.00  0.00    -0.334 N 
ATOM     10  C   UNL A   1      37.434  23.689  25.645  1.00  0.00     0.017 C 
ATOM     11  C   UNL A   1      36.004  22.963  25.480  1.00  0.00     0.019 C 
ATOM     12  C   UNL A   1      36.576  21.502  25.218  1.00  0.00     0.017 C 
ATOM     13  C   UNL A   1      34.578  23.010  26.956  1.00  0.00     0.073 C 
ATOM     14  C   UNL A   1      35.120  23.801  23.869  1.00  0.00     0.268 C 
ATOM     15  C   UNL A   1      33.010  24.069  26.207  1.00  0.00     0.263 C 
ATOM     16  H   UNL A   1      33.409  25.434  24.222  1.00  0.00     0.348 HD
ENDBRANCH   8   9
ENDBRANCH   7   8
ENDBRANCH   4   7
ENDBRANCH   2   3
ENDBRANCH   1   2
BRANCH   1  17
ATOM     17  C   UNL A   1      33.541  29.350  26.032  1.00  0.00     0.118 C 
BRANCH  17  18
ATOM     18  N   UNL A   1      33.620  30.651  26.728  1.00  0.00    -0.352 N 
ATOM     19  C   UNL A   1      34.579  31.224  27.507  1.00  0.00     0.251 C 
ATOM     20  H   UNL A   1      32.823  31.215  26.603  1.00  0.00     0.163 HD
ATOM     21  O   UNL A   1      34.437  32.381  27.888  1.00  0.00    -0.269 OA
BRANCH  19  22
ATOM     22  C   UNL A   1      35.693  30.408  27.973  1.00  0.00     0.039 A 
ATOM     23  C   UNL A   1      36.895  30.534  27.276  1.00  0.00     0.014 A 
ATOM     24  C   UNL A   1      35.585  29.622  29.119  1.00  0.00     0.014 A 
ATOM     25  C   UNL A   1      38.030  29.921  27.777  1.00  0.00     0.010 A 
ATOM     26  C   UNL A   1      36.734  29.070  29.658  1.00  0.00     0.010 A 
ATOM     27  C   UNL A   1      37.960  29.230  28.995  1.00  0.00    -0.014 A 
BRANCH  27  28
ATOM     28  C   UNL A   1      39.186  28.675  29.595  1.00  0.00     0.031 A 
ATOM     29  C   UNL A   1      39.694  29.246  30.878  1.00  0.00     0.074 A 
ATOM     30  C   UNL A   1      39.830  27.688  28.944  1.00  0.00     0.049 A 
ATOM     31  N   UNL A   1      40.766  28.930  31.552  1.00  0.00    -0.248 NA
ATOM     32  C   UNL A   1      38.908  30.342  31.468  1.00  0.00     0.031 C 
ATOM     33  C   UNL A   1      39.404  27.101  27.669  1.00  0.00     0.029 A 
ATOM     34  N   UNL A   1      40.970  27.003  29.260  1.00  0.00    -0.354 N 
ATOM     35  C   UNL A   1      40.788  29.791  32.642  1.00  0.00     0.074 A 
ATOM     36  C   UNL A   1      39.662  30.687  32.499  1.00  0.00     0.031 C 
ATOM     37  C   UNL A   1      40.252  26.116  27.335  1.00  0.00     0.029 A 
ATOM     38  C   UNL A   1      41.306  26.039  28.338  1.00  0.00     0.049 A 
ATOM     39  H   UNL A   1      41.500  27.182  30.071  1.00  0.00     0.167 HD
ATOM     40  C   UNL A   1      41.663  29.808  33.675  1.00  0.00     0.034 A 
ATOM     41  C   UNL A   1      42.357  25.199  28.313  1.00  0.00     0.034 A 
ATOM     42  C   UNL A   1      42.775  28.896  33.774  1.00  0.00     0.049 A 
ATOM     43  C   UNL A   1      43.341  25.269  29.453  1.00  0.00     0.074 A 
ATOM     44  C   UNL A   1      43.713  28.782  34.783  1.00  0.00     0.029 A 
ATOM     45  N   UNL A   1      43.106  27.945  32.812  1.00  0.00    -0.354 N 
ATOM     46  N   UNL A   1      43.327  26.053  30.508  1.00  0.00    -0.248 NA
ATOM     47  C   UNL A   1      44.472  24.339  29.405  1.00  0.00     0.031 C 
ATOM     48  C   UNL A   1      44.653  27.820  34.397  1.00  0.00     0.029 A 
ATOM     49  C   UNL A   1      44.255  27.267  33.188  1.00  0.00     0.049 A 
ATOM     50  H   UNL A   1      42.598  27.777  31.986  1.00  0.00     0.167 HD
ATOM     51  C   UNL A   1      44.433  25.687  31.267  1.00  0.00     0.074 A 
ATOM     52  C   UNL A   1      45.079  24.600  30.554  1.00  0.00     0.031 C 
ATOM     53  C   UNL A   1      44.878  26.195  32.445  1.00  0.00     0.034 A 
BRANCH  40  54
ATOM     54  C   UNL A   1      41.462  30.864  34.734  1.00  0.00     0.023 A 
ATOM     55  C   UNL A   1      40.328  30.871  35.568  1.00  0.00     0.031 A 
ATOM     56  C   UNL A   1      42.386  31.914  34.877  1.00  0.00     0.131 A 
ATOM     57  C   UNL A   1      40.102  31.948  36.437  1.00  0.00     0.055 A 
ATOM     58  C   UNL A   1      42.201  32.936  35.811  1.00  0.00     0.041 A 
ATOM     59  F   UNL A   1      43.473  31.980  34.093  1.00  0.00    -0.206 F 
ATOM     60  C   UNL A   1      41.045  32.968  36.584  1.00  0.00     0.022 A 
BRANCH  57  61
ATOM     61  S   UNL A   1      38.483  32.085  37.243  1.00  0.00     0.124 S 
ATOM     62  O   UNL A   1      37.878  33.191  36.502  1.00  0.00    -0.237 OA
ATOM     63  O   UNL A   1      37.902  30.768  37.012  1.00  0.00    -0.237 OA
ATOM     64  O   UNL A   1      38.816  32.387  38.634  1.00  0.00    -0.744 OA
ENDBRANCH  57  61
ENDBRANCH  40  54
BRANCH  41  65
ATOM     65  C   UNL A   1      42.533  24.233  27.191  1.00  0.00     0.023 A 
ATOM     66  C   UNL A   1      41.936  22.963  27.233  1.00  0.00     0.031 A 
ATOM     67  C   UNL A   1      43.324  24.551  26.072  1.00  0.00     0.131 A 
ATOM     68  C   UNL A   1      42.181  22.041  26.204  1.00  0.00     0.055 A 
ATOM     69  C   UNL A   1      43.516  23.650  25.023  1.00  0.00     0.041 A 
ATOM     70  F   UNL A   1      43.914  25.754  25.976  1.00  0.00    -0.206 F 
ATOM     71  C   UNL A   1      42.954  22.380  25.093  1.00  0.00     0.022 A 
BRANCH  68  72
ATOM     72  S   UNL A   1      41.547  20.351  26.388  1.00  0.00     0.124 S 
ATOM     73  O   UNL A   1      41.946  20.031  27.754  1.00  0.00    -0.237 OA
ATOM     74  O   UNL A   1      40.118  20.538  26.164  1.00  0.00    -0.237 OA
ATOM     75  O   UNL A   1      42.248  19.610  25.343  1.00  0.00    -0.744 OA
ENDBRANCH  68  72
ENDBRANCH  41  65
BRANCH  53  76
ATOM     76  C   UNL A   1      46.097  25.542  33.047  1.00  0.00     0.023 A 
ATOM     77  C   UNL A   1      45.992  24.450  33.925  1.00  0.00     0.031 A 
ATOM     78  C   UNL A   1      47.382  26.025  32.738  1.00  0.00     0.131 A 
ATOM     79  C   UNL A   1      47.148  23.914  34.510  1.00  0.00     0.055 A 
ATOM     80  C   UNL A   1      48.531  25.441  33.268  1.00  0.00     0.041 A 
ATOM     81  F   UNL A   1      47.537  27.069  31.909  1.00  0.00    -0.206 F 
ATOM     82  C   UNL A   1      48.418  24.388  34.170  1.00  0.00     0.022 A 
BRANCH  79  83
ATOM     83  S   UNL A   1      46.964  22.652  35.798  1.00  0.00     0.124 S 
ATOM     84  O   UNL A   1      48.343  22.222  36.001  1.00  0.00    -0.237 OA
ATOM     85  O   UNL A   1      46.364  23.408  36.893  1.00  0.00    -0.237 OA
ATOM     86  O   UNL A   1      46.088  21.657  35.181  1.00  0.00    -0.744 OA
ENDBRANCH  79  83
ENDBRANCH  53  76
ENDBRANCH  27  28
ENDBRANCH  19  22
ENDBRANCH  17  18
ENDBRANCH   1  17
TORSDOF 15
ENDMDL
MODEL 2
REMARK VINA RESULT:     -12.1      3.353      9.071
REMARK SMILES CC1(C)CC[N@H+](CCC(=O)NCCCNC(=O)c2ccc(-c3c4nc(c(-c5cc(S(=O)(=O)[O-])ccc5F)c5ccc([nH]5)c(-c5cc(S(=O)(=O)[O-])ccc5F)c5nc(c(-c6cc(S(=O)(=O)[O-])ccc6F)c6ccc3[nH]6)C=C5)C=C4)cc2)C1
REMARK SMILES IDX 13 1 12 2 11 3 9 4 10 5 8 7 7 8 6 9 1 10 2 11 3 12 4 13
REMARK SMILES IDX 81 14 5 15 14 17 15 18 16 19 17 21 18 22 19 23 80 24 20 25
REMARK SMILES IDX 79 26 21 27 22 28 23 29 73 30 24 31 78 32 72 33 74 34 25 35
REMARK SMILES IDX 77 36 71 37 70 38 26 40 58 41 38 42 57 43 39 44 42 45 56 46
REMARK SMILES IDX 75 47 40 48 41 49 55 51 76 52 43 53 27 54 28 55 36 56 29 57
REMARK SMILES IDX 35 58 37 59 34 60 30 61 31 62 32 63 33 64 59 65 60 66 68 67
REMARK SMILES IDX 61 68 67 69 69 70 66 71 62 72 63 73 64 74 65 75 44 76 45 77
REMARK SMILES IDX 53 78 46 79 52 80 54 81 51 82 47 83 48 84 49 85 50 86
REMARK H PARENT 11 6 6 16 15 20 74 39 42 50
REMARK Flexibility Score: inf
ROOT
ATOM      1  C   UNL A   1      32.167  30.748  26.703  1.00  0.00     0.042 C 
ENDROOT
BRANCH   1   2
ATOM      2  C   UNL A   1      31.874  29.631  24.845  1.00  0.00     0.117 C 
BRANCH   2   3
ATOM      3  N   UNL A   1      30.897  29.816  23.637  1.00  0.00    -0.356 N 
ATOM      4  C   UNL A   1      30.182  28.816  23.039  1.00  0.00     0.225 C 
ATOM      5  O   UNL A   1      29.423  29.063  22.106  1.00  0.00    -0.275 OA
ATOM      6  H   UNL A   1      30.788  30.728  23.279  1.00  0.00     0.163 HD
BRANCH   4   7
ATOM      7  C   UNL A   1      30.342  27.449  23.639  1.00  0.00     0.161 C 
BRANCH   7   8
ATOM      8  C   UNL A   1      31.026  26.439  22.715  1.00  0.00     0.272 C 
BRANCH   8   9
ATOM      9  N   UNL A   1      31.822  25.326  23.252  1.00  0.00    -0.334 N 
ATOM     10  C   UNL A   1      31.938  21.487  25.242  1.00  0.00     0.017 C 
ATOM     11  C   UNL A   1      31.469  23.015  25.457  1.00  0.00     0.019 C 
ATOM     12  C   UNL A   1      30.262  22.693  26.441  1.00  0.00     0.017 C 
ATOM     13  C   UNL A   1      32.737  24.453  26.193  1.00  0.00     0.073 C 
ATOM     14  C   UNL A   1      30.895  23.699  23.646  1.00  0.00     0.268 C 
ATOM     15  C   UNL A   1      33.016  25.796  24.690  1.00  0.00     0.263 C 
ATOM     16  H   UNL A   1      32.389  25.116  22.430  1.00  0.00     0.348 HD
ENDBRANCH   8   9
ENDBRANCH   7   8
ENDBRANCH   4   7
ENDBRANCH   2   3
ENDBRANCH   1   2
BRANCH   1  17
ATOM     17  C   UNL A   1      33.284  31.975  27.260  1.00  0.00     0.118 C 
BRANCH  17  18
ATOM     18  N   UNL A   1      32.780  33.294  27.696  1.00  0.00    -0.352 N 
ATOM     19  C   UNL A   1      33.280  34.243  28.534  1.00  0.00     0.251 C 
ATOM     20  H   UNL A   1      31.910  33.534  27.301  1.00  0.00     0.163 HD
ATOM     21  O   UNL A   1      32.699  35.317  28.648  1.00  0.00    -0.269 OA
BRANCH  19  22
ATOM     22  C   UNL A   1      34.428  33.915  29.370  1.00  0.00     0.039 A 
ATOM     23  C   UNL A   1      34.170  33.173  30.523  1.00  0.00     0.014 A 
ATOM     24  C   UNL A   1      35.725  34.244  28.980  1.00  0.00     0.014 A 
ATOM     25  C   UNL A   1      35.235  32.684  31.259  1.00  0.00     0.010 A 
ATOM     26  C   UNL A   1      36.788  33.695  29.676  1.00  0.00     0.010 A 
ATOM     27  C   UNL A   1      36.545  32.903  30.808  1.00  0.00    -0.014 A 
BRANCH  27  28
ATOM     28  C   UNL A   1      37.678  32.289  31.520  1.00  0.00     0.031 A 
ATOM     29  C   UNL A   1      38.425  31.167  30.874  1.00  0.00     0.074 A 
ATOM     30  C   UNL A   1      37.983  32.738  32.752  1.00  0.00     0.049 A 
ATOM     31  N   UNL A   1      39.424  30.468  31.340  1.00  0.00    -0.248 NA
ATOM     32  C   UNL A   1      37.967  30.756  29.537  1.00  0.00     0.031 C 
ATOM     33  C   UNL A   1      37.277  33.813  33.456  1.00  0.00     0.029 A 
ATOM     34  N   UNL A   1      38.962  32.357  33.627  1.00  0.00    -0.354 N 
ATOM     35  C   UNL A   1      39.710  29.529  30.357  1.00  0.00     0.074 A 
ATOM     36  C   UNL A   1      38.735  29.705  29.304  1.00  0.00     0.031 C 
ATOM     37  C   UNL A   1      37.874  34.030  34.639  1.00  0.00     0.029 A 
ATOM     38  C   UNL A   1      38.965  33.077  34.798  1.00  0.00     0.049 A 
ATOM     39  H   UNL A   1      39.604  31.635  33.437  1.00  0.00     0.167 HD
ATOM     40  C   UNL A   1      40.715  28.622  30.337  1.00  0.00     0.034 A 
ATOM     41  C   UNL A   1      39.760  32.966  35.878  1.00  0.00     0.034 A 
ATOM     42  C   UNL A   1      41.663  28.481  31.414  1.00  0.00     0.049 A 
ATOM     43  C   UNL A   1      40.843  31.917  35.848  1.00  0.00     0.074 A 
ATOM     44  C   UNL A   1      42.748  27.628  31.505  1.00  0.00     0.029 A 
ATOM     45  N   UNL A   1      41.628  29.208  32.601  1.00  0.00    -0.354 N 
ATOM     46  N   UNL A   1      41.140  31.065  34.893  1.00  0.00    -0.248 NA
ATOM     47  C   UNL A   1      41.700  31.820  37.034  1.00  0.00     0.031 C 
ATOM     48  C   UNL A   1      43.319  27.784  32.773  1.00  0.00     0.029 A 
ATOM     49  C   UNL A   1      42.648  28.797  33.443  1.00  0.00     0.049 A 
ATOM     50  H   UNL A   1      40.973  29.913  32.811  1.00  0.00     0.167 HD
ATOM     51  C   UNL A   1      42.242  30.351  35.351  1.00  0.00     0.074 A 
ATOM     52  C   UNL A   1      42.563  30.887  36.660  1.00  0.00     0.031 C 
ATOM     53  C   UNL A   1      42.932  29.347  34.750  1.00  0.00     0.034 A 
BRANCH  40  54
ATOM     54  C   UNL A   1      40.796  27.706  29.140  1.00  0.00     0.023 A 
ATOM     55  C   UNL A   1      41.730  27.916  28.109  1.00  0.00     0.031 A 
ATOM     56  C   UNL A   1      39.890  26.641  28.996  1.00  0.00     0.131 A 
ATOM     57  C   UNL A   1      41.679  27.136  26.945  1.00  0.00     0.055 A 
ATOM     58  C   UNL A   1      39.904  25.809  27.874  1.00  0.00     0.041 A 
ATOM     59  F   UNL A   1      38.956  26.406  29.931  1.00  0.00    -0.206 F 
ATOM     60  C   UNL A   1      40.790  26.065  26.832  1.00  0.00     0.022 A 
BRANCH  57  61
ATOM     61  S   UNL A   1      42.671  27.647  25.515  1.00  0.00     0.124 S 
ATOM     62  O   UNL A   1      42.615  26.451  24.676  1.00  0.00    -0.237 OA
ATOM     63  O   UNL A   1      41.939  28.808  25.021  1.00  0.00    -0.237 OA
ATOM     64  O   UNL A   1      43.983  27.933  26.091  1.00  0.00    -0.744 OA
ENDBRANCH  57  61
ENDBRANCH  40  54
BRANCH  41  65
ATOM     65  C   UNL A   1      39.570  33.855  37.059  1.00  0.00     0.023 A 
ATOM     66  C   UNL A   1      38.949  33.381  38.225  1.00  0.00     0.031 A 
ATOM     67  C   UNL A   1      39.977  35.201  37.032  1.00  0.00     0.131 A 
ATOM     68  C   UNL A   1      38.707  34.256  39.295  1.00  0.00     0.055 A 
ATOM     69  C   UNL A   1      39.786  36.053  38.121  1.00  0.00     0.041 A 
ATOM     70  F   UNL A   1      40.581  35.707  35.945  1.00  0.00    -0.206 F 
ATOM     71  C   UNL A   1      39.134  35.585  39.257  1.00  0.00     0.022 A 
BRANCH  68  72
ATOM     72  S   UNL A   1      37.737  33.654  40.704  1.00  0.00     0.124 S 
ATOM     73  O   UNL A   1      36.621  32.994  40.036  1.00  0.00    -0.237 OA
ATOM     74  O   UNL A   1      38.691  32.779  41.376  1.00  0.00    -0.237 OA
ATOM     75  O   UNL A   1      37.396  34.876  41.429  1.00  0.00    -0.744 OA
ENDBRANCH  68  72
ENDBRANCH  41  65
BRANCH  53  76
ATOM     76  C   UNL A   1      44.125  28.803  35.494  1.00  0.00     0.023 A 
ATOM     77  C   UNL A   1      44.007  27.731  36.394  1.00  0.00     0.031 A 
ATOM     78  C   UNL A   1      45.397  29.371  35.300  1.00  0.00     0.131 A 
ATOM     79  C   UNL A   1      45.132  27.297  37.111  1.00  0.00     0.055 A 
ATOM     80  C   UNL A   1      46.524  28.888  35.962  1.00  0.00     0.041 A 
ATOM     81  F   UNL A   1      45.563  30.401  34.455  1.00  0.00    -0.206 F 
ATOM     82  C   UNL A   1      46.394  27.855  36.885  1.00  0.00     0.022 A 
BRANCH  79  83
ATOM     83  S   UNL A   1      44.905  26.061  38.417  1.00  0.00     0.124 S 
ATOM     84  O   UNL A   1      43.867  26.676  39.238  1.00  0.00    -0.237 OA
ATOM     85  O   UNL A   1      44.503  24.878  37.663  1.00  0.00    -0.237 OA
ATOM     86  O   UNL A   1      46.223  25.978  39.043  1.00  0.00    -0.744 OA
ENDBRANCH  79  83
ENDBRANCH  53  76
ENDBRANCH  27  28
ENDBRANCH  19  22
ENDBRANCH  17  18
ENDBRANCH   1  17
TORSDOF 15
ENDMDL
MODEL 3
REMARK VINA RESULT:     -12.1      5.318     10.566
REMARK SMILES CC1(C)CC[N@H+](CCC(=O)NCCCNC(=O)c2ccc(-c3c4nc(c(-c5cc(S(=O)(=O)[O-])ccc5F)c5ccc([nH]5)c(-c5cc(S(=O)(=O)[O-])ccc5F)c5nc(c(-c6cc(S(=O)(=O)[O-])ccc6F)c6ccc3[nH]6)C=C5)C=C4)cc2)C1
REMARK SMILES IDX 13 1 12 2 11 3 9 4 10 5 8 7 7 8 6 9 1 10 2 11 3 12 4 13
REMARK SMILES IDX 81 14 5 15 14 17 15 18 16 19 17 21 18 22 19 23 80 24 20 25
REMARK SMILES IDX 79 26 21 27 22 28 23 29 73 30 24 31 78 32 72 33 74 34 25 35
REMARK SMILES IDX 77 36 71 37 70 38 26 40 58 41 38 42 57 43 39 44 42 45 56 46
REMARK SMILES IDX 75 47 40 48 41 49 55 51 76 52 43 53 27 54 28 55 36 56 29 57
REMARK SMILES IDX 35 58 37 59 34 60 30 61 31 62 32 63 33 64 59 65 60 66 68 67
REMARK SMILES IDX 61 68 67 69 69 70 66 71 62 72 63 73 64 74 65 75 44 76 45 77
REMARK SMILES IDX 53 78 46 79 52 80 54 81 51 82 47 83 48 84 49 85 50 86
REMARK H PARENT 11 6 6 16 15 20 74 39 42 50
REMARK Flexibility Score: inf
ROOT
ATOM      1  C   UNL A   1      35.603  21.971  25.830  1.00  0.00     0.042 C 
ENDROOT
BRANCH   1   2
ATOM      2  C   UNL A   1      33.572  22.691  25.442  1.00  0.00     0.117 C 
BRANCH   2   3
ATOM      3  N   UNL A   1      32.303  22.827  26.346  1.00  0.00    -0.356 N 
ATOM      4  C   UNL A   1      31.582  23.975  26.526  1.00  0.00     0.225 C 
ATOM      5  O   UNL A   1      30.586  23.979  27.243  1.00  0.00    -0.275 OA
ATOM      6  H   UNL A   1      31.999  22.021  26.825  1.00  0.00     0.163 HD
BRANCH   4   7
ATOM      7  C   UNL A   1      32.051  25.171  25.749  1.00  0.00     0.161 C 
BRANCH   7   8
ATOM      8  C   UNL A   1      31.013  26.289  25.639  1.00  0.00     0.272 C 
BRANCH   8   9
ATOM      9  N   UNL A   1      30.546  26.775  24.333  1.00  0.00    -0.334 N 
ATOM     10  C   UNL A   1      29.861  30.104  21.657  1.00  0.00     0.017 C 
ATOM     11  C   UNL A   1      29.425  29.522  23.096  1.00  0.00     0.019 C 
ATOM     12  C   UNL A   1      29.141  30.929  23.779  1.00  0.00     0.017 C 
ATOM     13  C   UNL A   1      27.867  28.201  23.313  1.00  0.00     0.073 C 
ATOM     14  C   UNL A   1      31.037  28.557  23.836  1.00  0.00     0.268 C 
ATOM     15  C   UNL A   1      28.682  26.453  23.962  1.00  0.00     0.263 C 
ATOM     16  H   UNL A   1      31.095  26.169  23.723  1.00  0.00     0.348 HD
ENDBRANCH   8   9
ENDBRANCH   7   8
ENDBRANCH   4   7
ENDBRANCH   2   3
ENDBRANCH   1   2
BRANCH   1  17
ATOM     17  C   UNL A   1      37.127  22.007  24.970  1.00  0.00     0.118 C 
BRANCH  17  18
ATOM     18  N   UNL A   1      38.206  21.066  25.335  1.00  0.00    -0.352 N 
ATOM     19  C   UNL A   1      39.293  21.179  26.146  1.00  0.00     0.251 C 
ATOM     20  H   UNL A   1      38.120  20.182  24.909  1.00  0.00     0.163 HD
ATOM     21  O   UNL A   1      39.992  20.194  26.363  1.00  0.00    -0.269 OA
BRANCH  19  22
ATOM     22  C   UNL A   1      39.674  22.496  26.641  1.00  0.00     0.039 A 
ATOM     23  C   UNL A   1      40.741  22.543  27.540  1.00  0.00     0.014 A 
ATOM     24  C   UNL A   1      39.065  23.654  26.161  1.00  0.00     0.014 A 
ATOM     25  C   UNL A   1      41.258  23.773  27.905  1.00  0.00     0.010 A 
ATOM     26  C   UNL A   1      39.628  24.880  26.470  1.00  0.00     0.010 A 
ATOM     27  C   UNL A   1      40.733  24.940  27.332  1.00  0.00    -0.014 A 
BRANCH  27  28
ATOM     28  C   UNL A   1      41.353  26.243  27.625  1.00  0.00     0.031 A 
ATOM     29  C   UNL A   1      42.713  26.544  27.082  1.00  0.00     0.074 A 
ATOM     30  C   UNL A   1      40.684  27.112  28.406  1.00  0.00     0.049 A 
ATOM     31  N   UNL A   1      43.448  27.610  27.249  1.00  0.00    -0.248 NA
ATOM     32  C   UNL A   1      43.342  25.493  26.266  1.00  0.00     0.031 C 
ATOM     33  C   UNL A   1      39.363  26.872  28.995  1.00  0.00     0.029 A 
ATOM     34  N   UNL A   1      41.015  28.368  28.835  1.00  0.00    -0.354 N 
ATOM     35  C   UNL A   1      44.631  27.356  26.566  1.00  0.00     0.074 A 
ATOM     36  C   UNL A   1      44.540  26.010  26.044  1.00  0.00     0.031 C 
ATOM     37  C   UNL A   1      38.981  27.964  29.675  1.00  0.00     0.029 A 
ATOM     38  C   UNL A   1      40.048  28.954  29.617  1.00  0.00     0.049 A 
ATOM     39  H   UNL A   1      41.865  28.809  28.607  1.00  0.00     0.167 HD
ATOM     40  C   UNL A   1      45.682  28.188  26.379  1.00  0.00     0.034 A 
ATOM     41  C   UNL A   1      40.039  30.157  30.221  1.00  0.00     0.034 A 
ATOM     42  C   UNL A   1      45.729  29.522  26.923  1.00  0.00     0.049 A 
ATOM     43  C   UNL A   1      41.241  31.046  30.034  1.00  0.00     0.074 A 
ATOM     44  C   UNL A   1      46.716  30.480  26.779  1.00  0.00     0.029 A 
ATOM     45  N   UNL A   1      44.745  30.083  27.732  1.00  0.00    -0.354 N 
ATOM     46  N   UNL A   1      42.336  30.819  29.344  1.00  0.00    -0.248 NA
ATOM     47  C   UNL A   1      41.204  32.353  30.697  1.00  0.00     0.031 C 
ATOM     48  C   UNL A   1      46.367  31.586  27.563  1.00  0.00     0.029 A 
ATOM     49  C   UNL A   1      45.119  31.358  28.125  1.00  0.00     0.049 A 
ATOM     50  H   UNL A   1      43.904  29.639  27.988  1.00  0.00     0.167 HD
ATOM     51  C   UNL A   1      43.106  31.971  29.464  1.00  0.00     0.074 A 
ATOM     52  C   UNL A   1      42.339  32.894  30.279  1.00  0.00     0.031 C 
ATOM     53  C   UNL A   1      44.332  32.248  28.949  1.00  0.00     0.034 A 
BRANCH  40  54
ATOM     54  C   UNL A   1      46.857  27.654  25.597  1.00  0.00     0.023 A 
ATOM     55  C   UNL A   1      47.118  28.068  24.278  1.00  0.00     0.031 A 
ATOM     56  C   UNL A   1      47.696  26.673  26.154  1.00  0.00     0.131 A 
ATOM     57  C   UNL A   1      48.128  27.442  23.532  1.00  0.00     0.055 A 
ATOM     58  C   UNL A   1      48.759  26.119  25.437  1.00  0.00     0.041 A 
ATOM     59  F   UNL A   1      47.482  26.215  27.398  1.00  0.00    -0.206 F 
ATOM     60  C   UNL A   1      48.969  26.489  24.112  1.00  0.00     0.022 A 
BRANCH  57  61
ATOM     61  S   UNL A   1      48.215  27.765  21.750  1.00  0.00     0.124 S 
ATOM     62  O   UNL A   1      46.892  28.328  21.488  1.00  0.00    -0.237 OA
ATOM     63  O   UNL A   1      49.335  28.695  21.652  1.00  0.00    -0.237 OA
ATOM     64  O   UNL A   1      48.446  26.444  21.171  1.00  0.00    -0.744 OA
ENDBRANCH  57  61
ENDBRANCH  40  54
BRANCH  41  65
ATOM     65  C   UNL A   1      38.873  30.586  31.045  1.00  0.00     0.023 A 
ATOM     66  C   UNL A   1      37.886  31.431  30.513  1.00  0.00     0.031 A 
ATOM     67  C   UNL A   1      38.741  30.186  32.387  1.00  0.00     0.131 A 
ATOM     68  C   UNL A   1      36.841  31.888  31.330  1.00  0.00     0.055 A 
ATOM     69  C   UNL A   1      37.667  30.596  33.179  1.00  0.00     0.041 A 
ATOM     70  F   UNL A   1      39.652  29.374  32.947  1.00  0.00    -0.206 F 
ATOM     71  C   UNL A   1      36.716  31.465  32.654  1.00  0.00     0.022 A 
BRANCH  68  72
ATOM     72  S   UNL A   1      35.695  33.124  30.658  1.00  0.00     0.124 S 
ATOM     73  O   UNL A   1      34.402  32.495  30.906  1.00  0.00    -0.237 OA
ATOM     74  O   UNL A   1      36.005  34.296  31.469  1.00  0.00    -0.237 OA
ATOM     75  O   UNL A   1      36.084  33.219  29.253  1.00  0.00    -0.744 OA
ENDBRANCH  68  72
ENDBRANCH  41  65
BRANCH  53  76
ATOM     76  C   UNL A   1      44.888  33.623  29.223  1.00  0.00     0.023 A 
ATOM     77  C   UNL A   1      44.639  34.705  28.363  1.00  0.00     0.031 A 
ATOM     78  C   UNL A   1      45.681  33.850  30.363  1.00  0.00     0.131 A 
ATOM     79  C   UNL A   1      45.226  35.951  28.623  1.00  0.00     0.055 A 
ATOM     80  C   UNL A   1      46.203  35.109  30.654  1.00  0.00     0.041 A 
ATOM     81  F   UNL A   1      45.953  32.848  31.215  1.00  0.00    -0.206 F 
ATOM     82  C   UNL A   1      45.989  36.166  29.775  1.00  0.00     0.022 A 
BRANCH  79  83
ATOM     83  S   UNL A   1      45.062  37.264  27.384  1.00  0.00     0.124 S 
ATOM     84  O   UNL A   1      43.697  37.063  26.909  1.00  0.00    -0.237 OA
ATOM     85  O   UNL A   1      45.292  38.470  28.173  1.00  0.00    -0.237 OA
ATOM     86  O   UNL A   1      46.109  36.951  26.413  1.00  0.00    -0.744 OA
ENDBRANCH  79  83
ENDBRANCH  53  76
ENDBRANCH  27  28
ENDBRANCH  19  22
ENDBRANCH  17  18
ENDBRANCH   1  17
TORSDOF 15
ENDMDL
