MODEL 1
REMARK VINA RESULT:     -11.5      0.000      0.000
REMARK SMILES CN(CCS(C)(=O)=O)S(=O)(=O)c1cc(C(=O)NCCCNC(=O)c2ccc(-c3c4nc(c(-c5cc(S(=O)(=O)[O-])ccc5F)c5ccc([nH]5)c(-c5cc(S(=O)(=O)[O-])ccc5F)c5nc(c(-c6cc(S(=O)(=O)[O-])ccc6F)c6ccc3[nH]6)C=C5)C=C4)cc2)ccc1F
REMARK SMILES IDX 18 1 17 2 15 3 16 4 14 6 12 7 13 8 89 9 88 10 90 11 87 12
REMARK SMILES IDX 9 13 10 14 11 15 2 16 1 17 3 18 4 19 5 20 6 21 7 22 8 23
REMARK SMILES IDX 19 24 20 25 21 26 22 27 23 29 24 30 25 31 86 32 26 33 85 34
REMARK SMILES IDX 27 35 28 36 29 37 79 38 30 39 84 40 78 41 80 42 31 43 83 44
REMARK SMILES IDX 77 45 76 46 32 48 64 49 44 50 63 51 45 52 48 53 62 54 81 55
REMARK SMILES IDX 46 56 47 57 61 59 82 60 49 61 33 62 34 63 42 64 35 65 41 66
REMARK SMILES IDX 43 67 40 68 36 69 37 70 38 71 39 72 65 73 66 74 74 75 67 76
REMARK SMILES IDX 73 77 75 78 72 79 68 80 69 81 70 82 71 83 50 84 51 85 59 86
REMARK SMILES IDX 52 87 58 88 60 89 57 90 53 91 54 92 55 93 56 94
REMARK H PARENT 17 5 21 28 80 47 48 58
REMARK Flexibility Score: inf
ROOT
ATOM      1  C   UNL A   1      32.495  28.358  22.580  1.00  0.00     0.118 C 
ENDROOT
BRANCH   1   2
ATOM      2  N   UNL A   1      32.918  27.299  21.685  1.00  0.00    -0.352 N 
ATOM      3  C   UNL A   1      32.899  25.933  21.730  1.00  0.00     0.251 C 
ATOM      4  O   UNL A   1      33.276  25.353  20.707  1.00  0.00    -0.269 OA
ATOM      5  H   UNL A   1      33.312  27.643  20.851  1.00  0.00     0.163 HD
BRANCH   3   6
ATOM      6  C   UNL A   1      32.426  25.096  22.878  1.00  0.00     0.041 A 
ATOM      7  C   UNL A   1      33.121  23.701  24.776  1.00  0.00     0.119 A 
ATOM      8  C   UNL A   1      33.434  24.545  23.697  1.00  0.00     0.038 A 
ATOM      9  C   UNL A   1      31.798  23.431  25.076  1.00  0.00     0.143 A 
ATOM     10  C   UNL A   1      30.788  23.979  24.292  1.00  0.00     0.041 A 
ATOM     11  F   UNL A   1      31.447  22.667  26.113  1.00  0.00    -0.206 F 
ATOM     12  C   UNL A   1      31.097  24.817  23.209  1.00  0.00     0.017 A 
BRANCH   7  13
ATOM     13  S   UNL A   1      34.423  23.000  25.730  1.00  0.00     0.245 S 
ATOM     14  O   UNL A   1      34.068  22.920  27.123  1.00  0.00    -0.207 OA
ATOM     15  O   UNL A   1      35.643  23.667  25.314  1.00  0.00    -0.207 OA
BRANCH  13  16
ATOM     16  N   UNL A   1      34.537  21.381  25.189  1.00  0.00    -0.200 NA
ATOM     17  C   UNL A   1      35.938  20.925  25.015  1.00  0.00     0.124 C 
BRANCH  16  18
ATOM     18  C   UNL A   1      33.601  20.327  25.670  1.00  0.00     0.118 C 
BRANCH  18  19
ATOM     19  C   UNL A   1      32.533  19.817  24.723  1.00  0.00     0.153 C 
BRANCH  19  20
ATOM     20  S   UNL A   1      32.692  18.144  24.116  1.00  0.00     0.148 S 
ATOM     21  C   UNL A   1      34.396  17.658  24.255  1.00  0.00     0.158 C 
ATOM     22  O   UNL A   1      31.952  17.297  25.036  1.00  0.00    -0.229 OA
ATOM     23  O   UNL A   1      32.369  18.124  22.708  1.00  0.00    -0.229 OA
ENDBRANCH  19  20
ENDBRANCH  18  19
ENDBRANCH  16  18
ENDBRANCH  13  16
ENDBRANCH   7  13
ENDBRANCH   3   6
ENDBRANCH   1   2
BRANCH   1  24
ATOM     24  C   UNL A   1      33.664  28.933  23.376  1.00  0.00     0.042 C 
BRANCH  24  25
ATOM     25  C   UNL A   1      33.441  28.900  24.890  1.00  0.00     0.118 C 
BRANCH  25  26
ATOM     26  N   UNL A   1      32.775  30.107  25.371  1.00  0.00    -0.352 N 
ATOM     27  C   UNL A   1      32.948  30.820  26.531  1.00  0.00     0.251 C 
ATOM     28  H   UNL A   1      32.091  30.468  24.763  1.00  0.00     0.163 HD
ATOM     29  O   UNL A   1      32.096  31.645  26.852  1.00  0.00    -0.269 OA
BRANCH  27  30
ATOM     30  C   UNL A   1      34.134  30.603  27.387  1.00  0.00     0.039 A 
ATOM     31  C   UNL A   1      34.309  29.360  28.001  1.00  0.00     0.014 A 
ATOM     32  C   UNL A   1      35.047  31.635  27.625  1.00  0.00     0.014 A 
ATOM     33  C   UNL A   1      35.432  29.135  28.802  1.00  0.00     0.010 A 
ATOM     34  C   UNL A   1      36.203  31.384  28.358  1.00  0.00     0.010 A 
ATOM     35  C   UNL A   1      36.408  30.133  28.956  1.00  0.00    -0.014 A 
BRANCH  35  36
ATOM     36  C   UNL A   1      37.648  29.888  29.735  1.00  0.00     0.031 A 
ATOM     37  C   UNL A   1      38.750  29.040  29.162  1.00  0.00     0.074 A 
ATOM     38  C   UNL A   1      37.760  30.392  30.981  1.00  0.00     0.049 A 
ATOM     39  N   UNL A   1      39.866  28.649  29.720  1.00  0.00    -0.248 NA
ATOM     40  C   UNL A   1      38.559  28.547  27.789  1.00  0.00     0.031 C 
ATOM     41  C   UNL A   1      36.751  31.215  31.652  1.00  0.00     0.029 A 
ATOM     42  N   UNL A   1      38.771  30.291  31.902  1.00  0.00    -0.354 N 
ATOM     43  C   UNL A   1      40.510  27.865  28.770  1.00  0.00     0.074 A 
ATOM     44  C   UNL A   1      39.626  27.779  27.627  1.00  0.00     0.031 C 
ATOM     45  C   UNL A   1      37.216  31.583  32.855  1.00  0.00     0.029 A 
ATOM     46  C   UNL A   1      38.527  30.980  33.067  1.00  0.00     0.049 A 
ATOM     47  H   UNL A   1      39.594  29.774  31.744  1.00  0.00     0.167 HD
ATOM     48  C   UNL A   1      41.738  27.294  28.833  1.00  0.00     0.034 A 
ATOM     49  C   UNL A   1      39.271  31.108  34.182  1.00  0.00     0.034 A 
ATOM     50  C   UNL A   1      42.612  27.395  29.974  1.00  0.00     0.049 A 
ATOM     51  C   UNL A   1      40.602  30.414  34.258  1.00  0.00     0.074 A 
ATOM     52  C   UNL A   1      43.885  26.873  30.132  1.00  0.00     0.029 A 
ATOM     53  N   UNL A   1      42.306  28.059  31.155  1.00  0.00    -0.354 N 
ATOM     54  N   UNL A   1      41.193  29.669  33.353  1.00  0.00    -0.248 NA
ATOM     55  C   UNL A   1      41.366  30.573  35.503  1.00  0.00     0.031 C 
ATOM     56  C   UNL A   1      44.321  27.169  31.427  1.00  0.00     0.029 A 
ATOM     57  C   UNL A   1      43.353  27.937  32.054  1.00  0.00     0.049 A 
ATOM     58  H   UNL A   1      41.468  28.545  31.327  1.00  0.00     0.167 HD
ATOM     59  C   UNL A   1      42.410  29.288  33.911  1.00  0.00     0.074 A 
ATOM     60  C   UNL A   1      42.468  29.886  35.230  1.00  0.00     0.031 C 
ATOM     61  C   UNL A   1      43.392  28.523  33.373  1.00  0.00     0.034 A 
BRANCH  48  62
ATOM     62  C   UNL A   1      42.199  26.505  27.633  1.00  0.00     0.023 A 
ATOM     63  C   UNL A   1      42.108  25.103  27.601  1.00  0.00     0.031 A 
ATOM     64  C   UNL A   1      42.740  27.157  26.511  1.00  0.00     0.131 A 
ATOM     65  C   UNL A   1      42.606  24.394  26.499  1.00  0.00     0.055 A 
ATOM     66  C   UNL A   1      43.165  26.450  25.384  1.00  0.00     0.041 A 
ATOM     67  F   UNL A   1      42.869  28.493  26.493  1.00  0.00    -0.206 F 
ATOM     68  C   UNL A   1      43.111  25.059  25.379  1.00  0.00     0.022 A 
BRANCH  65  69
ATOM     69  S   UNL A   1      42.687  22.585  26.596  1.00  0.00     0.124 S 
ATOM     70  O   UNL A   1      41.895  22.193  25.433  1.00  0.00    -0.237 OA
ATOM     71  O   UNL A   1      44.120  22.327  26.509  1.00  0.00    -0.237 OA
ATOM     72  O   UNL A   1      42.077  22.284  27.889  1.00  0.00    -0.744 OA
ENDBRANCH  65  69
ENDBRANCH  48  62
BRANCH  49  73
ATOM     73  C   UNL A   1      38.770  31.945  35.306  1.00  0.00     0.023 A 
ATOM     74  C   UNL A   1      38.213  31.348  36.448  1.00  0.00     0.031 A 
ATOM     75  C   UNL A   1      38.880  33.346  35.275  1.00  0.00     0.131 A 
ATOM     76  C   UNL A   1      37.779  32.153  37.512  1.00  0.00     0.055 A 
ATOM     77  C   UNL A   1      38.478  34.139  36.351  1.00  0.00     0.041 A 
ATOM     78  F   UNL A   1      39.422  33.960  34.211  1.00  0.00    -0.206 F 
ATOM     79  C   UNL A   1      37.921  33.542  37.478  1.00  0.00     0.022 A 
BRANCH  76  80
ATOM     80  S   UNL A   1      37.021  31.353  38.954  1.00  0.00     0.124 S 
ATOM     81  O   UNL A   1      38.029  31.582  39.983  1.00  0.00    -0.237 OA
ATOM     82  O   UNL A   1      35.775  32.099  39.097  1.00  0.00    -0.237 OA
ATOM     83  O   UNL A   1      36.865  29.964  38.528  1.00  0.00    -0.744 OA
ENDBRANCH  76  80
ENDBRANCH  49  73
BRANCH  61  84
ATOM     84  C   UNL A   1      44.634  28.303  34.197  1.00  0.00     0.023 A 
ATOM     85  C   UNL A   1      44.775  27.184  35.032  1.00  0.00     0.031 A 
ATOM     86  C   UNL A   1      45.714  29.200  34.095  1.00  0.00     0.131 A 
ATOM     87  C   UNL A   1      45.963  27.000  35.754  1.00  0.00     0.055 A 
ATOM     88  C   UNL A   1      46.910  28.986  34.779  1.00  0.00     0.041 A 
ATOM     89  F   UNL A   1      45.628  30.284  33.308  1.00  0.00    -0.206 F 
ATOM     90  C   UNL A   1      47.038  27.883  35.618  1.00  0.00     0.022 A 
BRANCH  87  91
ATOM     91  S   UNL A   1      46.078  25.603  36.906  1.00  0.00     0.124 S 
ATOM     92  O   UNL A   1      45.763  24.472  36.040  1.00  0.00    -0.237 OA
ATOM     93  O   UNL A   1      47.462  25.688  37.366  1.00  0.00    -0.237 OA
ATOM     94  O   UNL A   1      45.072  25.910  37.920  1.00  0.00    -0.744 OA
ENDBRANCH  87  91
ENDBRANCH  61  84
ENDBRANCH  35  36
ENDBRANCH  27  30
ENDBRANCH  25  26
ENDBRANCH  24  25
ENDBRANCH   1  24
TORSDOF 18
ENDMDL
MODEL 2
REMARK VINA RESULT:     -11.4      2.565      3.550
REMARK SMILES CN(CCS(C)(=O)=O)S(=O)(=O)c1cc(C(=O)NCCCNC(=O)c2ccc(-c3c4nc(c(-c5cc(S(=O)(=O)[O-])ccc5F)c5ccc([nH]5)c(-c5cc(S(=O)(=O)[O-])ccc5F)c5nc(c(-c6cc(S(=O)(=O)[O-])ccc6F)c6ccc3[nH]6)C=C5)C=C4)cc2)ccc1F
REMARK SMILES IDX 18 1 17 2 15 3 16 4 14 6 12 7 13 8 89 9 88 10 90 11 87 12
REMARK SMILES IDX 9 13 10 14 11 15 2 16 1 17 3 18 4 19 5 20 6 21 7 22 8 23
REMARK SMILES IDX 19 24 20 25 21 26 22 27 23 29 24 30 25 31 86 32 26 33 85 34
REMARK SMILES IDX 27 35 28 36 29 37 79 38 30 39 84 40 78 41 80 42 31 43 83 44
REMARK SMILES IDX 77 45 76 46 32 48 64 49 44 50 63 51 45 52 48 53 62 54 81 55
REMARK SMILES IDX 46 56 47 57 61 59 82 60 49 61 33 62 34 63 42 64 35 65 41 66
REMARK SMILES IDX 43 67 40 68 36 69 37 70 38 71 39 72 65 73 66 74 74 75 67 76
REMARK SMILES IDX 73 77 75 78 72 79 68 80 69 81 70 82 71 83 50 84 51 85 59 86
REMARK SMILES IDX 52 87 58 88 60 89 57 90 53 91 54 92 55 93 56 94
REMARK H PARENT 17 5 21 28 80 47 48 58
REMARK Flexibility Score: inf
ROOT
ATOM      1  C   UNL A   1      31.531  30.649  26.381  1.00  0.00     0.118 C 
ENDROOT
BRANCH   1   2
ATOM      2  N   UNL A   1      32.681  30.063  27.043  1.00  0.00    -0.352 N 
ATOM      3  C   UNL A   1      33.457  28.958  26.833  1.00  0.00     0.251 C 
ATOM      4  O   UNL A   1      34.434  28.834  27.576  1.00  0.00    -0.269 OA
ATOM      5  H   UNL A   1      32.970  30.583  27.828  1.00  0.00     0.163 HD
BRANCH   3   6
ATOM      6  C   UNL A   1      33.250  27.927  25.767  1.00  0.00     0.041 A 
ATOM      7  C   UNL A   1      32.389  25.679  25.277  1.00  0.00     0.119 A 
ATOM      8  C   UNL A   1      32.599  26.743  26.172  1.00  0.00     0.038 A 
ATOM      9  C   UNL A   1      32.790  25.801  23.959  1.00  0.00     0.143 A 
ATOM     10  C   UNL A   1      33.418  26.968  23.535  1.00  0.00     0.041 A 
ATOM     11  F   UNL A   1      32.581  24.836  23.061  1.00  0.00    -0.206 F 
ATOM     12  C   UNL A   1      33.634  28.030  24.427  1.00  0.00     0.017 A 
BRANCH   7  13
ATOM     13  S   UNL A   1      31.619  24.205  25.853  1.00  0.00     0.245 S 
ATOM     14  O   UNL A   1      30.483  23.856  25.041  1.00  0.00    -0.207 OA
ATOM     15  O   UNL A   1      31.487  24.345  27.291  1.00  0.00    -0.207 OA
BRANCH  13  16
ATOM     16  N   UNL A   1      32.776  22.975  25.581  1.00  0.00    -0.200 NA
ATOM     17  C   UNL A   1      33.925  23.042  26.517  1.00  0.00     0.124 C 
BRANCH  16  18
ATOM     18  C   UNL A   1      32.374  21.592  25.198  1.00  0.00     0.118 C 
BRANCH  18  19
ATOM     19  C   UNL A   1      33.443  20.634  24.713  1.00  0.00     0.153 C 
BRANCH  19  20
ATOM     20  S   UNL A   1      32.953  18.952  24.360  1.00  0.00     0.148 S 
ATOM     21  C   UNL A   1      34.413  17.938  24.335  1.00  0.00     0.158 C 
ATOM     22  O   UNL A   1      32.166  18.503  25.496  1.00  0.00    -0.229 OA
ATOM     23  O   UNL A   1      32.388  18.897  23.031  1.00  0.00    -0.229 OA
ENDBRANCH  19  20
ENDBRANCH  18  19
ENDBRANCH  16  18
ENDBRANCH  13  16
ENDBRANCH   7  13
ENDBRANCH   3   6
ENDBRANCH   1   2
BRANCH   1  24
ATOM     24  C   UNL A   1      31.513  32.170  26.508  1.00  0.00     0.042 C 
BRANCH  24  25
ATOM     25  C   UNL A   1      32.732  32.732  27.245  1.00  0.00     0.118 C 
BRANCH  25  26
ATOM     26  N   UNL A   1      32.540  34.125  27.635  1.00  0.00    -0.352 N 
ATOM     27  C   UNL A   1      33.072  34.841  28.679  1.00  0.00     0.251 C 
ATOM     28  H   UNL A   1      31.930  34.634  27.055  1.00  0.00     0.163 HD
ATOM     29  O   UNL A   1      32.566  35.921  28.975  1.00  0.00    -0.269 OA
BRANCH  27  30
ATOM     30  C   UNL A   1      34.231  34.327  29.440  1.00  0.00     0.039 A 
ATOM     31  C   UNL A   1      34.010  33.668  30.652  1.00  0.00     0.014 A 
ATOM     32  C   UNL A   1      35.538  34.537  28.987  1.00  0.00     0.014 A 
ATOM     33  C   UNL A   1      35.094  33.165  31.375  1.00  0.00     0.010 A 
ATOM     34  C   UNL A   1      36.609  33.967  29.669  1.00  0.00     0.010 A 
ATOM     35  C   UNL A   1      36.400  33.277  30.872  1.00  0.00    -0.014 A 
BRANCH  35  36
ATOM     36  C   UNL A   1      37.557  32.679  31.583  1.00  0.00     0.031 A 
ATOM     37  C   UNL A   1      38.321  31.540  30.966  1.00  0.00     0.074 A 
ATOM     38  C   UNL A   1      37.891  33.132  32.808  1.00  0.00     0.049 A 
ATOM     39  N   UNL A   1      39.304  30.837  31.467  1.00  0.00    -0.248 NA
ATOM     40  C   UNL A   1      37.909  31.120  29.618  1.00  0.00     0.031 C 
ATOM     41  C   UNL A   1      37.214  34.221  33.517  1.00  0.00     0.029 A 
ATOM     42  N   UNL A   1      38.882  32.740  33.671  1.00  0.00    -0.354 N 
ATOM     43  C   UNL A   1      39.627  29.894  30.500  1.00  0.00     0.074 A 
ATOM     44  C   UNL A   1      38.688  30.069  29.412  1.00  0.00     0.031 C 
ATOM     45  C   UNL A   1      37.840  34.439  34.684  1.00  0.00     0.029 A 
ATOM     46  C   UNL A   1      38.924  33.475  34.833  1.00  0.00     0.049 A 
ATOM     47  H   UNL A   1      39.502  32.001  33.478  1.00  0.00     0.167 HD
ATOM     48  C   UNL A   1      40.633  28.984  30.504  1.00  0.00     0.034 A 
ATOM     49  C   UNL A   1      39.741  33.381  35.900  1.00  0.00     0.034 A 
ATOM     50  C   UNL A   1      41.566  28.826  31.590  1.00  0.00     0.049 A 
ATOM     51  C   UNL A   1      40.809  32.324  35.915  1.00  0.00     0.074 A 
ATOM     52  C   UNL A   1      42.635  27.951  31.686  1.00  0.00     0.029 A 
ATOM     53  N   UNL A   1      41.544  29.557  32.772  1.00  0.00    -0.354 N 
ATOM     54  N   UNL A   1      41.095  31.433  34.994  1.00  0.00    -0.248 NA
ATOM     55  C   UNL A   1      41.660  32.255  37.110  1.00  0.00     0.031 C 
ATOM     56  C   UNL A   1      43.218  28.109  32.947  1.00  0.00     0.029 A 
ATOM     57  C   UNL A   1      42.562  29.133  33.611  1.00  0.00     0.049 A 
ATOM     58  H   UNL A   1      40.900  30.270  32.981  1.00  0.00     0.167 HD
ATOM     59  C   UNL A   1      42.177  30.711  35.489  1.00  0.00     0.074 A 
ATOM     60  C   UNL A   1      42.491  31.270  36.789  1.00  0.00     0.031 C 
ATOM     61  C   UNL A   1      42.854  29.686  34.913  1.00  0.00     0.034 A 
BRANCH  48  62
ATOM     62  C   UNL A   1      40.765  28.089  29.298  1.00  0.00     0.023 A 
ATOM     63  C   UNL A   1      41.758  28.310  28.329  1.00  0.00     0.031 A 
ATOM     64  C   UNL A   1      39.888  27.006  29.109  1.00  0.00     0.131 A 
ATOM     65  C   UNL A   1      41.813  27.501  27.185  1.00  0.00     0.055 A 
ATOM     66  C   UNL A   1      39.997  26.157  28.006  1.00  0.00     0.041 A 
ATOM     67  F   UNL A   1      38.909  26.758  29.993  1.00  0.00    -0.206 F 
ATOM     68  C   UNL A   1      40.956  26.410  27.029  1.00  0.00     0.022 A 
BRANCH  65  69
ATOM     69  S   UNL A   1      42.952  27.962  25.851  1.00  0.00     0.124 S 
ATOM     70  O   UNL A   1      43.036  29.410  26.025  1.00  0.00    -0.237 OA
ATOM     71  O   UNL A   1      44.154  27.208  26.185  1.00  0.00    -0.237 OA
ATOM     72  O   UNL A   1      42.258  27.525  24.642  1.00  0.00    -0.744 OA
ENDBRANCH  65  69
ENDBRANCH  48  62
BRANCH  49  73
ATOM     73  C   UNL A   1      39.580  34.334  37.032  1.00  0.00     0.023 A 
ATOM     74  C   UNL A   1      39.027  33.909  38.250  1.00  0.00     0.031 A 
ATOM     75  C   UNL A   1      40.015  35.667  36.929  1.00  0.00     0.131 A 
ATOM     76  C   UNL A   1      38.917  34.813  39.317  1.00  0.00     0.055 A 
ATOM     77  C   UNL A   1      39.935  36.552  38.005  1.00  0.00     0.041 A 
ATOM     78  F   UNL A   1      40.565  36.113  35.788  1.00  0.00    -0.206 F 
ATOM     79  C   UNL A   1      39.380  36.127  39.208  1.00  0.00     0.022 A 
BRANCH  76  80
ATOM     80  S   UNL A   1      38.156  34.246  40.864  1.00  0.00     0.124 S 
ATOM     81  O   UNL A   1      39.268  33.555  41.505  1.00  0.00    -0.237 OA
ATOM     82  O   UNL A   1      37.738  35.502  41.478  1.00  0.00    -0.237 OA
ATOM     83  O   UNL A   1      37.065  33.387  40.408  1.00  0.00    -0.744 OA
ENDBRANCH  76  80
ENDBRANCH  49  73
BRANCH  61  84
ATOM     84  C   UNL A   1      44.023  29.112  35.668  1.00  0.00     0.023 A 
ATOM     85  C   UNL A   1      43.859  28.078  36.604  1.00  0.00     0.031 A 
ATOM     86  C   UNL A   1      45.327  29.568  35.400  1.00  0.00     0.131 A 
ATOM     87  C   UNL A   1      44.980  27.548  37.259  1.00  0.00     0.055 A 
ATOM     88  C   UNL A   1      46.442  29.004  36.019  1.00  0.00     0.041 A 
ATOM     89  F   UNL A   1      45.536  30.553  34.512  1.00  0.00    -0.206 F 
ATOM     90  C   UNL A   1      46.272  27.990  36.958  1.00  0.00     0.022 A 
BRANCH  87  91
ATOM     91  S   UNL A   1      44.730  26.288  38.539  1.00  0.00     0.124 S 
ATOM     92  O   UNL A   1      43.275  26.247  38.641  1.00  0.00    -0.237 OA
ATOM     93  O   UNL A   1      45.361  25.110  37.949  1.00  0.00    -0.237 OA
ATOM     94  O   UNL A   1      45.420  26.839  39.703  1.00  0.00    -0.744 OA
ENDBRANCH  87  91
ENDBRANCH  61  84
ENDBRANCH  35  36
ENDBRANCH  27  30
ENDBRANCH  25  26
ENDBRANCH  24  25
ENDBRANCH   1  24
TORSDOF 18
ENDMDL
MODEL 3
REMARK VINA RESULT:     -11.2      2.384      8.468
REMARK SMILES CN(CCS(C)(=O)=O)S(=O)(=O)c1cc(C(=O)NCCCNC(=O)c2ccc(-c3c4nc(c(-c5cc(S(=O)(=O)[O-])ccc5F)c5ccc([nH]5)c(-c5cc(S(=O)(=O)[O-])ccc5F)c5nc(c(-c6cc(S(=O)(=O)[O-])ccc6F)c6ccc3[nH]6)C=C5)C=C4)cc2)ccc1F
REMARK SMILES IDX 18 1 17 2 15 3 16 4 14 6 12 7 13 8 89 9 88 10 90 11 87 12
REMARK SMILES IDX 9 13 10 14 11 15 2 16 1 17 3 18 4 19 5 20 6 21 7 22 8 23
REMARK SMILES IDX 19 24 20 25 21 26 22 27 23 29 24 30 25 31 86 32 26 33 85 34
REMARK SMILES IDX 27 35 28 36 29 37 79 38 30 39 84 40 78 41 80 42 31 43 83 44
REMARK SMILES IDX 77 45 76 46 32 48 64 49 44 50 63 51 45 52 48 53 62 54 81 55
REMARK SMILES IDX 46 56 47 57 61 59 82 60 49 61 33 62 34 63 42 64 35 65 41 66
REMARK SMILES IDX 43 67 40 68 36 69 37 70 38 71 39 72 65 73 66 74 74 75 67 76
REMARK SMILES IDX 73 77 75 78 72 79 68 80 69 81 70 82 71 83 50 84 51 85 59 86
REMARK SMILES IDX 52 87 58 88 60 89 57 90 53 91 54 92 55 93 56 94
REMARK H PARENT 17 5 21 28 80 47 48 58
REMARK Flexibility Score: inf
ROOT
ATOM      1  C   UNL A   1      31.278  27.402  26.283  1.00  0.00     0.118 C 
ENDROOT
BRANCH   1   2
ATOM      2  N   UNL A   1      31.153  26.109  26.928  1.00  0.00    -0.352 N 
ATOM      3  C   UNL A   1      31.430  24.820  26.568  1.00  0.00     0.251 C 
ATOM      4  O   UNL A   1      31.269  23.967  27.445  1.00  0.00    -0.269 OA
ATOM      5  H   UNL A   1      30.780  26.174  27.836  1.00  0.00     0.163 HD
BRANCH   3   6
ATOM      6  C   UNL A   1      31.946  24.369  25.236  1.00  0.00     0.041 A 
ATOM      7  C   UNL A   1      32.425  25.048  22.925  1.00  0.00     0.119 A 
ATOM      8  C   UNL A   1      32.005  25.356  24.231  1.00  0.00     0.038 A 
ATOM      9  C   UNL A   1      32.829  23.761  22.619  1.00  0.00     0.143 A 
ATOM     10  C   UNL A   1      32.795  22.777  23.601  1.00  0.00     0.041 A 
ATOM     11  F   UNL A   1      33.272  23.425  21.405  1.00  0.00    -0.206 F 
ATOM     12  C   UNL A   1      32.372  23.079  24.905  1.00  0.00     0.017 A 
BRANCH   7  13
ATOM     13  S   UNL A   1      32.427  26.310  21.698  1.00  0.00     0.245 S 
ATOM     14  O   UNL A   1      31.476  26.028  20.655  1.00  0.00    -0.207 OA
ATOM     15  O   UNL A   1      33.818  26.572  21.381  1.00  0.00    -0.207 OA
BRANCH  13  16
ATOM     16  N   UNL A   1      31.833  27.699  22.501  1.00  0.00    -0.200 NA
ATOM     17  C   UNL A   1      32.905  28.651  22.881  1.00  0.00     0.124 C 
BRANCH  16  18
ATOM     18  C   UNL A   1      30.548  28.342  22.106  1.00  0.00     0.118 C 
BRANCH  18  19
ATOM     19  C   UNL A   1      29.663  28.920  23.192  1.00  0.00     0.153 C 
BRANCH  19  20
ATOM     20  S   UNL A   1      28.056  29.536  22.712  1.00  0.00     0.148 S 
ATOM     21  C   UNL A   1      27.777  31.081  23.547  1.00  0.00     0.158 C 
ATOM     22  O   UNL A   1      28.137  29.849  21.295  1.00  0.00    -0.229 OA
ATOM     23  O   UNL A   1      27.043  28.621  23.186  1.00  0.00    -0.229 OA
ENDBRANCH  19  20
ENDBRANCH  18  19
ENDBRANCH  16  18
ENDBRANCH  13  16
ENDBRANCH   7  13
ENDBRANCH   3   6
ENDBRANCH   1   2
BRANCH   1  24
ATOM     24  C   UNL A   1      31.975  28.422  27.181  1.00  0.00     0.042 C 
BRANCH  24  25
ATOM     25  C   UNL A   1      33.082  29.201  26.468  1.00  0.00     0.118 C 
BRANCH  25  26
ATOM     26  N   UNL A   1      32.983  30.637  26.710  1.00  0.00    -0.352 N 
ATOM     27  C   UNL A   1      33.730  31.460  27.515  1.00  0.00     0.251 C 
ATOM     28  H   UNL A   1      32.262  31.088  26.215  1.00  0.00     0.163 HD
ATOM     29  O   UNL A   1      33.303  32.583  27.774  1.00  0.00    -0.269 OA
BRANCH  27  30
ATOM     30  C   UNL A   1      35.026  31.011  28.067  1.00  0.00     0.039 A 
ATOM     31  C   UNL A   1      36.124  31.874  28.012  1.00  0.00     0.014 A 
ATOM     32  C   UNL A   1      35.175  29.724  28.593  1.00  0.00     0.014 A 
ATOM     33  C   UNL A   1      37.351  31.469  28.542  1.00  0.00     0.010 A 
ATOM     34  C   UNL A   1      36.376  29.352  29.191  1.00  0.00     0.010 A 
ATOM     35  C   UNL A   1      37.478  30.219  29.169  1.00  0.00    -0.014 A 
BRANCH  35  36
ATOM     36  C   UNL A   1      38.750  29.800  29.811  1.00  0.00     0.031 A 
ATOM     37  C   UNL A   1      39.148  30.365  31.147  1.00  0.00     0.074 A 
ATOM     38  C   UNL A   1      39.571  28.947  29.166  1.00  0.00     0.049 A 
ATOM     39  N   UNL A   1      40.253  30.184  31.824  1.00  0.00    -0.248 NA
ATOM     40  C   UNL A   1      38.188  31.272  31.795  1.00  0.00     0.031 C 
ATOM     41  C   UNL A   1      39.302  28.346  27.857  1.00  0.00     0.029 A 
ATOM     42  N   UNL A   1      40.792  28.434  29.521  1.00  0.00    -0.354 N 
ATOM     43  C   UNL A   1      40.122  30.952  32.975  1.00  0.00     0.074 A 
ATOM     44  C   UNL A   1      38.861  31.656  32.869  1.00  0.00     0.031 C 
ATOM     45  C   UNL A   1      40.303  27.510  27.545  1.00  0.00     0.029 A 
ATOM     46  C   UNL A   1      41.311  27.556  28.598  1.00  0.00     0.049 A 
ATOM     47  H   UNL A   1      41.253  28.672  30.357  1.00  0.00     0.167 HD
ATOM     48  C   UNL A   1      40.961  31.040  34.036  1.00  0.00     0.034 A 
ATOM     49  C   UNL A   1      42.470  26.869  28.597  1.00  0.00     0.034 A 
ATOM     50  C   UNL A   1      42.209  30.327  34.132  1.00  0.00     0.049 A 
ATOM     51  C   UNL A   1      43.417  27.029  29.753  1.00  0.00     0.074 A 
ATOM     52  C   UNL A   1      43.123  30.328  35.173  1.00  0.00     0.029 A 
ATOM     53  N   UNL A   1      42.724  29.486  33.153  1.00  0.00    -0.354 N 
ATOM     54  N   UNL A   1      43.282  27.768  30.830  1.00  0.00    -0.248 NA
ATOM     55  C   UNL A   1      44.674  26.270  29.694  1.00  0.00     0.031 C 
ATOM     56  C   UNL A   1      44.215  29.540  34.797  1.00  0.00     0.029 A 
ATOM     57  C   UNL A   1      43.953  28.987  33.553  1.00  0.00     0.049 A 
ATOM     58  H   UNL A   1      42.280  29.277  32.300  1.00  0.00     0.167 HD
ATOM     59  C   UNL A   1      44.426  27.544  31.589  1.00  0.00     0.074 A 
ATOM     60  C   UNL A   1      45.241  26.602  30.847  1.00  0.00     0.031 C 
ATOM     61  C   UNL A   1      44.764  28.063  32.796  1.00  0.00     0.034 A 
BRANCH  48  62
ATOM     62  C   UNL A   1      40.554  31.946  35.171  1.00  0.00     0.023 A 
ATOM     63  C   UNL A   1      39.568  31.561  36.096  1.00  0.00     0.031 A 
ATOM     64  C   UNL A   1      41.150  33.209  35.329  1.00  0.00     0.131 A 
ATOM     65  C   UNL A   1      39.164  32.452  37.100  1.00  0.00     0.055 A 
ATOM     66  C   UNL A   1      40.797  34.062  36.377  1.00  0.00     0.041 A 
ATOM     67  F   UNL A   1      42.083  33.637  34.464  1.00  0.00    -0.206 F 
ATOM     68  C   UNL A   1      39.790  33.690  37.263  1.00  0.00     0.022 A 
BRANCH  65  69
ATOM     69  S   UNL A   1      37.732  32.014  38.123  1.00  0.00     0.124 S 
ATOM     70  O   UNL A   1      38.282  32.146  39.470  1.00  0.00    -0.237 OA
ATOM     71  O   UNL A   1      36.747  33.017  37.734  1.00  0.00    -0.237 OA
ATOM     72  O   UNL A   1      37.424  30.646  37.713  1.00  0.00    -0.744 OA
ENDBRANCH  65  69
ENDBRANCH  48  62
BRANCH  49  73
ATOM     73  C   UNL A   1      42.779  25.955  27.465  1.00  0.00     0.023 A 
ATOM     74  C   UNL A   1      42.328  24.626  27.475  1.00  0.00     0.031 A 
ATOM     75  C   UNL A   1      43.490  26.407  26.339  1.00  0.00     0.131 A 
ATOM     76  C   UNL A   1      42.599  23.791  26.380  1.00  0.00     0.055 A 
ATOM     77  C   UNL A   1      43.727  25.581  25.239  1.00  0.00     0.041 A 
ATOM     78  F   UNL A   1      43.927  27.675  26.278  1.00  0.00    -0.206 F 
ATOM     79  C   UNL A   1      43.282  24.263  25.258  1.00  0.00     0.022 A 
BRANCH  76  80
ATOM     80  S   UNL A   1      42.041  22.065  26.445  1.00  0.00     0.124 S 
ATOM     81  O   UNL A   1      40.606  22.210  26.235  1.00  0.00    -0.237 OA
ATOM     82  O   UNL A   1      42.793  21.460  25.350  1.00  0.00    -0.237 OA
ATOM     83  O   UNL A   1      42.439  21.631  27.782  1.00  0.00    -0.744 OA
ENDBRANCH  76  80
ENDBRANCH  49  73
BRANCH  61  84
ATOM     84  C   UNL A   1      46.062  27.609  33.411  1.00  0.00     0.023 A 
ATOM     85  C   UNL A   1      46.178  26.365  34.051  1.00  0.00     0.031 A 
ATOM     86  C   UNL A   1      47.212  28.412  33.300  1.00  0.00     0.131 A 
ATOM     87  C   UNL A   1      47.415  25.967  34.579  1.00  0.00     0.055 A 
ATOM     88  C   UNL A   1      48.450  27.989  33.784  1.00  0.00     0.041 A 
ATOM     89  F   UNL A   1      47.153  29.609  32.695  1.00  0.00    -0.206 F 
ATOM     90  C   UNL A   1      48.555  26.762  34.432  1.00  0.00     0.022 A 
BRANCH  87  91
ATOM     91  S   UNL A   1      47.512  24.403  35.493  1.00  0.00     0.124 S 
ATOM     92  O   UNL A   1      46.114  23.985  35.525  1.00  0.00    -0.237 OA
ATOM     93  O   UNL A   1      48.398  23.602  34.652  1.00  0.00    -0.237 OA
ATOM     94  O   UNL A   1      48.074  24.794  36.783  1.00  0.00    -0.744 OA
ENDBRANCH  87  91
ENDBRANCH  61  84
ENDBRANCH  35  36
ENDBRANCH  27  30
ENDBRANCH  25  26
ENDBRANCH  24  25
ENDBRANCH   1  24
TORSDOF 18
ENDMDL
