MODEL 1
REMARK VINA RESULT:     -11.0      0.000      0.000
REMARK SMILES C[C@@H](C(=O)NCCCNC(=O)c1ccc(-c2c3nc(c(-c4cc(S(=O)(=O)[O-])ccc4F)c4ccc([nH]4)c(-c4cc(S(=O)(=O)[O-])ccc4F)c4nc(c(-c5cc(S(=O)(=O)[O-])ccc5F)c5ccc2[nH]5)C=C4)C=C3)cc1)c1cccn(C(F)F)c1=O
REMARK SMILES IDX 7 1 6 2 5 3 3 4 4 5 2 7 1 8 75 9 76 10 83 11 77 12 79 13
REMARK SMILES IDX 84 14 78 15 80 16 81 17 82 18 8 19 9 20 10 21 11 23 12 24
REMARK SMILES IDX 13 25 74 26 14 27 73 28 15 29 16 30 17 31 67 32 18 33 72 34
REMARK SMILES IDX 66 35 68 36 19 37 71 38 65 39 64 40 20 42 52 43 32 44 51 45
REMARK SMILES IDX 33 46 36 47 50 48 69 49 34 50 35 51 49 53 70 54 37 55 21 56
REMARK SMILES IDX 22 57 30 58 23 59 29 60 31 61 28 62 24 63 25 64 26 65 27 66
REMARK SMILES IDX 53 67 54 68 62 69 55 70 61 71 63 72 60 73 56 74 57 75 58 76
REMARK SMILES IDX 59 77 38 78 39 79 47 80 40 81 46 82 48 83 45 84 41 85 42 86
REMARK SMILES IDX 43 87 44 88
REMARK H PARENT 5 6 9 22 68 41 36 52
REMARK Flexibility Score: inf
ROOT
ATOM      1  C   UNL A   1      31.263  32.244  26.495  1.00  0.00     0.042 C 
ENDROOT
BRANCH   1   2
ATOM      2  C   UNL A   1      31.190  30.716  26.465  1.00  0.00     0.117 C 
BRANCH   2   3
ATOM      3  N   UNL A   1      31.845  30.178  25.282  1.00  0.00    -0.356 N 
ATOM      4  C   UNL A   1      32.871  29.279  25.175  1.00  0.00     0.227 C 
ATOM      5  O   UNL A   1      33.439  29.181  24.085  1.00  0.00    -0.274 OA
ATOM      6  H   UNL A   1      31.494  30.512  24.424  1.00  0.00     0.163 HD
BRANCH   4   7
ATOM      7  C   UNL A   1      33.293  28.460  26.413  1.00  0.00     0.111 C 
ATOM      8  C   UNL A   1      34.672  28.965  26.859  1.00  0.00     0.023 C 
BRANCH   7   9
ATOM      9  C   UNL A   1      33.265  26.959  26.145  1.00  0.00     0.030 A 
ATOM     10  C   UNL A   1      34.292  26.243  25.641  1.00  0.00     0.012 A 
ATOM     11  C   UNL A   1      31.986  26.213  26.447  1.00  0.00     0.258 A 
ATOM     12  C   UNL A   1      34.170  24.845  25.323  1.00  0.00     0.019 A 
ATOM     13  N   UNL A   1      31.890  24.934  25.920  1.00  0.00    -0.258 N 
ATOM     14  O   UNL A   1      31.107  26.728  27.133  1.00  0.00    -0.269 OA
ATOM     15  C   UNL A   1      32.979  24.250  25.417  1.00  0.00     0.095 A 
BRANCH  13  16
ATOM     16  C   UNL A   1      30.609  24.281  25.979  1.00  0.00     0.451 C 
ATOM     17  F   UNL A   1      30.475  23.439  24.916  1.00  0.00    -0.185 F 
ATOM     18  F   UNL A   1      30.550  23.490  27.086  1.00  0.00    -0.185 F 
ENDBRANCH  13  16
ENDBRANCH   7   9
ENDBRANCH   4   7
ENDBRANCH   2   3
ENDBRANCH   1   2
BRANCH   1  19
ATOM     19  C   UNL A   1      32.631  32.797  26.884  1.00  0.00     0.118 C 
BRANCH  19  20
ATOM     20  N   UNL A   1      32.535  34.013  27.678  1.00  0.00    -0.352 N 
ATOM     21  C   UNL A   1      33.273  34.420  28.762  1.00  0.00     0.251 C 
ATOM     22  H   UNL A   1      31.832  34.642  27.393  1.00  0.00     0.163 HD
ATOM     23  O   UNL A   1      32.896  35.393  29.414  1.00  0.00    -0.269 OA
BRANCH  21  24
ATOM     24  C   UNL A   1      34.491  33.682  29.169  1.00  0.00     0.039 A 
ATOM     25  C   UNL A   1      35.740  34.184  28.794  1.00  0.00     0.014 A 
ATOM     26  C   UNL A   1      34.410  32.500  29.911  1.00  0.00     0.014 A 
ATOM     27  C   UNL A   1      36.906  33.554  29.240  1.00  0.00     0.010 A 
ATOM     28  C   UNL A   1      35.572  31.911  30.410  1.00  0.00     0.010 A 
ATOM     29  C   UNL A   1      36.832  32.445  30.097  1.00  0.00    -0.014 A 
BRANCH  29  30
ATOM     30  C   UNL A   1      38.052  31.872  30.730  1.00  0.00     0.031 A 
ATOM     31  C   UNL A   1      38.849  30.805  30.029  1.00  0.00     0.074 A 
ATOM     32  C   UNL A   1      38.385  32.255  31.980  1.00  0.00     0.049 A 
ATOM     33  N   UNL A   1      39.865  30.111  30.472  1.00  0.00    -0.248 NA
ATOM     34  C   UNL A   1      38.439  30.461  28.659  1.00  0.00     0.031 C 
ATOM     35  C   UNL A   1      37.673  33.264  32.771  1.00  0.00     0.029 A 
ATOM     36  N   UNL A   1      39.389  31.833  32.820  1.00  0.00    -0.354 N 
ATOM     37  C   UNL A   1      40.204  29.233  29.449  1.00  0.00     0.074 A 
ATOM     38  C   UNL A   1      39.267  29.464  28.370  1.00  0.00     0.031 C 
ATOM     39  C   UNL A   1      38.265  33.384  33.970  1.00  0.00     0.029 A 
ATOM     40  C   UNL A   1      39.357  32.422  34.065  1.00  0.00     0.049 A 
ATOM     41  H   UNL A   1      40.068  31.171  32.555  1.00  0.00     0.167 HD
ATOM     42  C   UNL A   1      41.209  28.324  29.414  1.00  0.00     0.034 A 
ATOM     43  C   UNL A   1      40.093  32.188  35.171  1.00  0.00     0.034 A 
ATOM     44  C   UNL A   1      42.146  28.121  30.492  1.00  0.00     0.049 A 
ATOM     45  C   UNL A   1      41.170  31.130  35.116  1.00  0.00     0.074 A 
ATOM     46  C   UNL A   1      43.259  27.297  30.516  1.00  0.00     0.029 A 
ATOM     47  N   UNL A   1      42.072  28.723  31.740  1.00  0.00    -0.354 N 
ATOM     48  N   UNL A   1      41.531  30.373  34.105  1.00  0.00    -0.248 NA
ATOM     49  C   UNL A   1      41.937  30.893  36.346  1.00  0.00     0.031 C 
ATOM     50  C   UNL A   1      43.799  27.327  31.804  1.00  0.00     0.029 A 
ATOM     51  C   UNL A   1      43.081  28.239  32.559  1.00  0.00     0.049 A 
ATOM     52  H   UNL A   1      41.404  29.394  32.004  1.00  0.00     0.167 HD
ATOM     53  C   UNL A   1      42.584  29.592  34.575  1.00  0.00     0.074 A 
ATOM     54  C   UNL A   1      42.815  29.985  35.948  1.00  0.00     0.031 C 
ATOM     55  C   UNL A   1      43.295  28.632  33.931  1.00  0.00     0.034 A 
BRANCH  42  56
ATOM     56  C   UNL A   1      41.336  27.443  28.197  1.00  0.00     0.023 A 
ATOM     57  C   UNL A   1      40.950  26.092  28.208  1.00  0.00     0.031 A 
ATOM     58  C   UNL A   1      41.807  27.985  26.986  1.00  0.00     0.131 A 
ATOM     59  C   UNL A   1      41.074  25.321  27.041  1.00  0.00     0.055 A 
ATOM     60  C   UNL A   1      41.864  27.232  25.813  1.00  0.00     0.041 A 
ATOM     61  F   UNL A   1      42.210  29.265  26.923  1.00  0.00    -0.206 F 
ATOM     62  C   UNL A   1      41.502  25.889  25.838  1.00  0.00     0.022 A 
BRANCH  59  63
ATOM     63  S   UNL A   1      40.754  23.539  27.137  1.00  0.00     0.124 S 
ATOM     64  O   UNL A   1      41.407  23.055  25.922  1.00  0.00    -0.237 OA
ATOM     65  O   UNL A   1      41.394  23.171  28.394  1.00  0.00    -0.237 OA
ATOM     66  O   UNL A   1      39.295  23.451  27.130  1.00  0.00    -0.744 OA
ENDBRANCH  59  63
ENDBRANCH  42  56
BRANCH  43  67
ATOM     67  C   UNL A   1      39.816  32.914  36.447  1.00  0.00     0.023 A 
ATOM     68  C   UNL A   1      38.921  32.392  37.396  1.00  0.00     0.031 A 
ATOM     69  C   UNL A   1      40.367  34.184  36.697  1.00  0.00     0.131 A 
ATOM     70  C   UNL A   1      38.547  33.165  38.506  1.00  0.00     0.055 A 
ATOM     71  C   UNL A   1      40.050  34.917  37.841  1.00  0.00     0.041 A 
ATOM     72  F   UNL A   1      41.225  34.737  35.825  1.00  0.00    -0.206 F 
ATOM     73  C   UNL A   1      39.118  34.417  38.745  1.00  0.00     0.022 A 
BRANCH  70  74
ATOM     74  S   UNL A   1      37.192  32.571  39.556  1.00  0.00     0.124 S 
ATOM     75  O   UNL A   1      36.050  32.691  38.658  1.00  0.00    -0.237 OA
ATOM     76  O   UNL A   1      37.625  31.214  39.869  1.00  0.00    -0.237 OA
ATOM     77  O   UNL A   1      37.202  33.503  40.681  1.00  0.00    -0.744 OA
ENDBRANCH  70  74
ENDBRANCH  43  67
BRANCH  55  78
ATOM     78  C   UNL A   1      44.410  27.966  34.697  1.00  0.00     0.023 A 
ATOM     79  C   UNL A   1      44.209  26.761  35.390  1.00  0.00     0.031 A 
ATOM     80  C   UNL A   1      45.695  28.538  34.721  1.00  0.00     0.131 A 
ATOM     81  C   UNL A   1      45.265  26.186  36.114  1.00  0.00     0.055 A 
ATOM     82  C   UNL A   1      46.757  27.930  35.391  1.00  0.00     0.041 A 
ATOM     83  F   UNL A   1      45.942  29.692  34.081  1.00  0.00    -0.206 F 
ATOM     84  C   UNL A   1      46.543  26.752  36.100  1.00  0.00     0.022 A 
BRANCH  81  85
ATOM     85  S   UNL A   1      44.932  24.723  37.132  1.00  0.00     0.124 S 
ATOM     86  O   UNL A   1      43.690  25.097  37.801  1.00  0.00    -0.237 OA
ATOM     87  O   UNL A   1      44.822  23.664  36.134  1.00  0.00    -0.237 OA
ATOM     88  O   UNL A   1      46.103  24.635  38.001  1.00  0.00    -0.744 OA
ENDBRANCH  81  85
ENDBRANCH  55  78
ENDBRANCH  29  30
ENDBRANCH  21  24
ENDBRANCH  19  20
ENDBRANCH   1  19
TORSDOF 15
ENDMDL
MODEL 2
REMARK VINA RESULT:     -10.9      1.976      2.632
REMARK SMILES C[C@@H](C(=O)NCCCNC(=O)c1ccc(-c2c3nc(c(-c4cc(S(=O)(=O)[O-])ccc4F)c4ccc([nH]4)c(-c4cc(S(=O)(=O)[O-])ccc4F)c4nc(c(-c5cc(S(=O)(=O)[O-])ccc5F)c5ccc2[nH]5)C=C4)C=C3)cc1)c1cccn(C(F)F)c1=O
REMARK SMILES IDX 7 1 6 2 5 3 3 4 4 5 2 7 1 8 75 9 76 10 83 11 77 12 79 13
REMARK SMILES IDX 84 14 78 15 80 16 81 17 82 18 8 19 9 20 10 21 11 23 12 24
REMARK SMILES IDX 13 25 74 26 14 27 73 28 15 29 16 30 17 31 67 32 18 33 72 34
REMARK SMILES IDX 66 35 68 36 19 37 71 38 65 39 64 40 20 42 52 43 32 44 51 45
REMARK SMILES IDX 33 46 36 47 50 48 69 49 34 50 35 51 49 53 70 54 37 55 21 56
REMARK SMILES IDX 22 57 30 58 23 59 29 60 31 61 28 62 24 63 25 64 26 65 27 66
REMARK SMILES IDX 53 67 54 68 62 69 55 70 61 71 63 72 60 73 56 74 57 75 58 76
REMARK SMILES IDX 59 77 38 78 39 79 47 80 40 81 46 82 48 83 45 84 41 85 42 86
REMARK SMILES IDX 43 87 44 88
REMARK H PARENT 5 6 9 22 68 41 36 52
REMARK Flexibility Score: inf
ROOT
ATOM      1  C   UNL A   1      31.200  30.486  25.306  1.00  0.00     0.042 C 
ENDROOT
BRANCH   1   2
ATOM      2  C   UNL A   1      31.514  29.108  24.720  1.00  0.00     0.117 C 
BRANCH   2   3
ATOM      3  N   UNL A   1      31.523  28.082  25.752  1.00  0.00    -0.356 N 
ATOM      4  C   UNL A   1      31.187  26.757  25.680  1.00  0.00     0.227 C 
ATOM      5  O   UNL A   1      31.012  26.150  26.739  1.00  0.00    -0.274 OA
ATOM      6  H   UNL A   1      31.816  28.390  26.641  1.00  0.00     0.163 HD
BRANCH   4   7
ATOM      7  C   UNL A   1      31.012  26.094  24.298  1.00  0.00     0.111 C 
ATOM      8  C   UNL A   1      29.508  26.042  23.993  1.00  0.00     0.023 C 
BRANCH   7   9
ATOM      9  C   UNL A   1      31.683  24.726  24.229  1.00  0.00     0.030 A 
ATOM     10  C   UNL A   1      31.069  23.549  24.467  1.00  0.00     0.012 A 
ATOM     11  C   UNL A   1      33.154  24.680  23.885  1.00  0.00     0.258 A 
ATOM     12  C   UNL A   1      31.781  22.299  24.478  1.00  0.00     0.019 A 
ATOM     13  N   UNL A   1      33.795  23.473  24.122  1.00  0.00    -0.258 N 
ATOM     14  O   UNL A   1      33.718  25.663  23.412  1.00  0.00    -0.269 OA
ATOM     15  C   UNL A   1      33.111  22.299  24.362  1.00  0.00     0.095 A 
BRANCH  13  16
ATOM     16  C   UNL A   1      35.231  23.451  24.036  1.00  0.00     0.451 C 
ATOM     17  F   UNL A   1      35.732  22.583  24.959  1.00  0.00    -0.185 F 
ATOM     18  F   UNL A   1      35.608  22.960  22.823  1.00  0.00    -0.185 F 
ENDBRANCH  13  16
ENDBRANCH   7   9
ENDBRANCH   4   7
ENDBRANCH   2   3
ENDBRANCH   1   2
BRANCH   1  19
ATOM     19  C   UNL A   1      32.053  30.859  26.516  1.00  0.00     0.118 C 
BRANCH  19  20
ATOM     20  N   UNL A   1      32.001  32.282  26.816  1.00  0.00    -0.352 N 
ATOM     21  C   UNL A   1      32.850  33.057  27.567  1.00  0.00     0.251 C 
ATOM     22  H   UNL A   1      31.238  32.764  26.420  1.00  0.00     0.163 HD
ATOM     23  O   UNL A   1      32.513  34.203  27.863  1.00  0.00    -0.269 OA
BRANCH  21  24
ATOM     24  C   UNL A   1      34.143  32.518  28.046  1.00  0.00     0.039 A 
ATOM     25  C   UNL A   1      35.266  33.349  28.034  1.00  0.00     0.014 A 
ATOM     26  C   UNL A   1      34.258  31.200  28.499  1.00  0.00     0.014 A 
ATOM     27  C   UNL A   1      36.478  32.892  28.562  1.00  0.00     0.010 A 
ATOM     28  C   UNL A   1      35.447  30.768  29.086  1.00  0.00     0.010 A 
ATOM     29  C   UNL A   1      36.564  31.617  29.143  1.00  0.00    -0.014 A 
BRANCH  29  30
ATOM     30  C   UNL A   1      37.785  31.178  29.873  1.00  0.00     0.031 A 
ATOM     31  C   UNL A   1      38.705  30.148  29.275  1.00  0.00     0.074 A 
ATOM     32  C   UNL A   1      38.011  31.649  31.117  1.00  0.00     0.049 A 
ATOM     33  N   UNL A   1      39.745  29.563  29.811  1.00  0.00    -0.248 NA
ATOM     34  C   UNL A   1      38.406  29.704  27.905  1.00  0.00     0.031 C 
ATOM     35  C   UNL A   1      37.175  32.632  31.812  1.00  0.00     0.029 A 
ATOM     36  N   UNL A   1      38.994  31.353  32.032  1.00  0.00    -0.354 N 
ATOM     37  C   UNL A   1      40.213  28.667  28.856  1.00  0.00     0.074 A 
ATOM     38  C   UNL A   1      39.327  28.767  27.716  1.00  0.00     0.031 C 
ATOM     39  C   UNL A   1      37.683  32.860  33.034  1.00  0.00     0.029 A 
ATOM     40  C   UNL A   1      38.841  31.997  33.241  1.00  0.00     0.049 A 
ATOM     41  H   UNL A   1      39.738  30.736  31.841  1.00  0.00     0.167 HD
ATOM     42  C   UNL A   1      41.288  27.843  28.926  1.00  0.00     0.034 A 
ATOM     43  C   UNL A   1      39.526  31.879  34.397  1.00  0.00     0.034 A 
ATOM     44  C   UNL A   1      42.172  27.772  30.063  1.00  0.00     0.049 A 
ATOM     45  C   UNL A   1      40.685  30.912  34.458  1.00  0.00     0.074 A 
ATOM     46  C   UNL A   1      43.343  27.044  30.193  1.00  0.00     0.029 A 
ATOM     47  N   UNL A   1      41.976  28.425  31.272  1.00  0.00    -0.354 N 
ATOM     48  N   UNL A   1      41.165  30.139  33.511  1.00  0.00    -0.248 NA
ATOM     49  C   UNL A   1      41.394  30.800  35.740  1.00  0.00     0.031 C 
ATOM     50  C   UNL A   1      43.802  27.182  31.506  1.00  0.00     0.029 A 
ATOM     51  C   UNL A   1      42.970  28.068  32.170  1.00  0.00     0.049 A 
ATOM     52  H   UNL A   1      41.242  29.051  31.462  1.00  0.00     0.167 HD
ATOM     53  C   UNL A   1      42.247  29.472  34.080  1.00  0.00     0.074 A 
ATOM     54  C   UNL A   1      42.364  29.950  35.440  1.00  0.00     0.031 C 
ATOM     55  C   UNL A   1      43.069  28.544  33.529  1.00  0.00     0.034 A 
BRANCH  42  56
ATOM     56  C   UNL A   1      41.557  26.917  27.767  1.00  0.00     0.023 A 
ATOM     57  C   UNL A   1      41.146  25.574  27.772  1.00  0.00     0.031 A 
ATOM     58  C   UNL A   1      42.194  27.409  26.612  1.00  0.00     0.131 A 
ATOM     59  C   UNL A   1      41.408  24.759  26.658  1.00  0.00     0.055 A 
ATOM     60  C   UNL A   1      42.391  26.613  25.483  1.00  0.00     0.041 A 
ATOM     61  F   UNL A   1      42.627  28.679  26.560  1.00  0.00    -0.206 F 
ATOM     62  C   UNL A   1      42.002  25.277  25.504  1.00  0.00     0.022 A 
BRANCH  59  63
ATOM     63  S   UNL A   1      41.043  22.987  26.771  1.00  0.00     0.124 S 
ATOM     64  O   UNL A   1      39.587  22.976  26.648  1.00  0.00    -0.237 OA
ATOM     65  O   UNL A   1      41.783  22.440  25.639  1.00  0.00    -0.237 OA
ATOM     66  O   UNL A   1      41.553  22.614  28.089  1.00  0.00    -0.744 OA
ENDBRANCH  59  63
ENDBRANCH  42  56
BRANCH  43  67
ATOM     67  C   UNL A   1      39.116  32.641  35.614  1.00  0.00     0.023 A 
ATOM     68  C   UNL A   1      39.523  33.971  35.807  1.00  0.00     0.031 A 
ATOM     69  C   UNL A   1      38.389  32.024  36.649  1.00  0.00     0.131 A 
ATOM     70  C   UNL A   1      39.269  34.613  37.029  1.00  0.00     0.055 A 
ATOM     71  C   UNL A   1      38.074  32.691  37.833  1.00  0.00     0.041 A 
ATOM     72  F   UNL A   1      37.976  30.752  36.526  1.00  0.00    -0.206 F 
ATOM     73  C   UNL A   1      38.532  33.989  38.037  1.00  0.00     0.022 A 
BRANCH  70  74
ATOM     74  S   UNL A   1      40.044  36.224  37.337  1.00  0.00     0.124 S 
ATOM     75  O   UNL A   1      41.388  35.831  37.743  1.00  0.00    -0.237 OA
ATOM     76  O   UNL A   1      39.928  36.869  36.034  1.00  0.00    -0.237 OA
ATOM     77  O   UNL A   1      39.216  36.801  38.394  1.00  0.00    -0.744 OA
ENDBRANCH  70  74
ENDBRANCH  43  67
BRANCH  55  78
ATOM     78  C   UNL A   1      44.186  28.010  34.390  1.00  0.00     0.023 A 
ATOM     79  C   UNL A   1      44.046  26.820  35.124  1.00  0.00     0.031 A 
ATOM     80  C   UNL A   1      45.413  28.694  34.466  1.00  0.00     0.131 A 
ATOM     81  C   UNL A   1      45.099  26.371  35.935  1.00  0.00     0.055 A 
ATOM     82  C   UNL A   1      46.478  28.210  35.225  1.00  0.00     0.041 A 
ATOM     83  F   UNL A   1      45.600  29.839  33.790  1.00  0.00    -0.206 F 
ATOM     84  C   UNL A   1      46.321  27.047  35.973  1.00  0.00     0.022 A 
BRANCH  81  85
ATOM     85  S   UNL A   1      44.828  24.926  36.997  1.00  0.00     0.124 S 
ATOM     86  O   UNL A   1      46.194  24.496  37.277  1.00  0.00    -0.237 OA
ATOM     87  O   UNL A   1      44.096  25.497  38.124  1.00  0.00    -0.237 OA
ATOM     88  O   UNL A   1      44.052  24.020  36.152  1.00  0.00    -0.744 OA
ENDBRANCH  81  85
ENDBRANCH  55  78
ENDBRANCH  29  30
ENDBRANCH  21  24
ENDBRANCH  19  20
ENDBRANCH   1  19
TORSDOF 15
ENDMDL
MODEL 3
REMARK VINA RESULT:     -10.8      2.170      3.138
REMARK SMILES C[C@@H](C(=O)NCCCNC(=O)c1ccc(-c2c3nc(c(-c4cc(S(=O)(=O)[O-])ccc4F)c4ccc([nH]4)c(-c4cc(S(=O)(=O)[O-])ccc4F)c4nc(c(-c5cc(S(=O)(=O)[O-])ccc5F)c5ccc2[nH]5)C=C4)C=C3)cc1)c1cccn(C(F)F)c1=O
REMARK SMILES IDX 7 1 6 2 5 3 3 4 4 5 2 7 1 8 75 9 76 10 83 11 77 12 79 13
REMARK SMILES IDX 84 14 78 15 80 16 81 17 82 18 8 19 9 20 10 21 11 23 12 24
REMARK SMILES IDX 13 25 74 26 14 27 73 28 15 29 16 30 17 31 67 32 18 33 72 34
REMARK SMILES IDX 66 35 68 36 19 37 71 38 65 39 64 40 20 42 52 43 32 44 51 45
REMARK SMILES IDX 33 46 36 47 50 48 69 49 34 50 35 51 49 53 70 54 37 55 21 56
REMARK SMILES IDX 22 57 30 58 23 59 29 60 31 61 28 62 24 63 25 64 26 65 27 66
REMARK SMILES IDX 53 67 54 68 62 69 55 70 61 71 63 72 60 73 56 74 57 75 58 76
REMARK SMILES IDX 59 77 38 78 39 79 47 80 40 81 46 82 48 83 45 84 41 85 42 86
REMARK SMILES IDX 43 87 44 88
REMARK H PARENT 5 6 9 22 68 41 36 52
REMARK Flexibility Score: inf
ROOT
ATOM      1  C   UNL A   1      31.853  28.690  27.102  1.00  0.00     0.042 C 
ENDROOT
BRANCH   1   2
ATOM      2  C   UNL A   1      31.388  27.554  26.187  1.00  0.00     0.117 C 
BRANCH   2   3
ATOM      3  N   UNL A   1      31.369  26.281  26.891  1.00  0.00    -0.356 N 
ATOM      4  C   UNL A   1      31.390  25.003  26.400  1.00  0.00     0.227 C 
ATOM      5  O   UNL A   1      31.092  24.087  27.169  1.00  0.00    -0.274 OA
ATOM      6  H   UNL A   1      31.338  26.349  27.873  1.00  0.00     0.163 HD
BRANCH   4   7
ATOM      7  C   UNL A   1      31.747  24.767  24.918  1.00  0.00     0.111 C 
ATOM      8  C   UNL A   1      30.431  24.618  24.139  1.00  0.00     0.023 C 
BRANCH   7   9
ATOM      9  C   UNL A   1      32.685  23.578  24.736  1.00  0.00     0.030 A 
ATOM     10  C   UNL A   1      32.309  22.349  24.328  1.00  0.00     0.012 A 
ATOM     11  C   UNL A   1      34.148  23.782  25.054  1.00  0.00     0.258 A 
ATOM     12  C   UNL A   1      33.228  21.245  24.267  1.00  0.00     0.019 A 
ATOM     13  N   UNL A   1      34.911  22.629  25.170  1.00  0.00    -0.258 N 
ATOM     14  O   UNL A   1      34.611  24.913  25.182  1.00  0.00    -0.269 OA
ATOM     15  C   UNL A   1      34.470  21.396  24.733  1.00  0.00     0.095 A 
BRANCH  13  16
ATOM     16  C   UNL A   1      36.242  22.758  25.699  1.00  0.00     0.451 C 
ATOM     17  F   UNL A   1      36.686  21.541  26.122  1.00  0.00    -0.185 F 
ATOM     18  F   UNL A   1      37.094  23.138  24.708  1.00  0.00    -0.185 F 
ENDBRANCH  13  16
ENDBRANCH   7   9
ENDBRANCH   4   7
ENDBRANCH   2   3
ENDBRANCH   1   2
BRANCH   1  19
ATOM     19  C   UNL A   1      33.087  29.433  26.598  1.00  0.00     0.118 C 
BRANCH  19  20
ATOM     20  N   UNL A   1      33.049  30.853  26.915  1.00  0.00    -0.352 N 
ATOM     21  C   UNL A   1      33.936  31.621  27.628  1.00  0.00     0.251 C 
ATOM     22  H   UNL A   1      32.267  31.338  26.564  1.00  0.00     0.163 HD
ATOM     23  O   UNL A   1      33.615  32.763  27.954  1.00  0.00    -0.269 OA
BRANCH  21  24
ATOM     24  C   UNL A   1      35.253  31.078  28.034  1.00  0.00     0.039 A 
ATOM     25  C   UNL A   1      36.369  31.919  27.997  1.00  0.00     0.014 A 
ATOM     26  C   UNL A   1      35.396  29.749  28.444  1.00  0.00     0.014 A 
ATOM     27  C   UNL A   1      37.605  31.456  28.458  1.00  0.00     0.010 A 
ATOM     28  C   UNL A   1      36.613  29.310  28.964  1.00  0.00     0.010 A 
ATOM     29  C   UNL A   1      37.726  30.165  28.996  1.00  0.00    -0.014 A 
BRANCH  29  30
ATOM     30  C   UNL A   1      38.981  29.715  29.659  1.00  0.00     0.031 A 
ATOM     31  C   UNL A   1      39.806  28.608  29.062  1.00  0.00     0.074 A 
ATOM     32  C   UNL A   1      39.324  30.250  30.849  1.00  0.00     0.049 A 
ATOM     33  N   UNL A   1      40.860  28.008  29.554  1.00  0.00    -0.248 NA
ATOM     34  C   UNL A   1      39.382  28.095  27.750  1.00  0.00     0.031 C 
ATOM     35  C   UNL A   1      38.587  31.313  31.540  1.00  0.00     0.029 A 
ATOM     36  N   UNL A   1      40.362  29.965  31.705  1.00  0.00    -0.354 N 
ATOM     37  C   UNL A   1      41.213  27.034  28.627  1.00  0.00     0.074 A 
ATOM     38  C   UNL A   1      40.244  27.105  27.553  1.00  0.00     0.031 C 
ATOM     39  C   UNL A   1      39.199  31.591  32.703  1.00  0.00     0.029 A 
ATOM     40  C   UNL A   1      40.331  30.689  32.877  1.00  0.00     0.049 A 
ATOM     41  H   UNL A   1      41.062  29.303  31.499  1.00  0.00     0.167 HD
ATOM     42  C   UNL A   1      42.254  26.166  28.669  1.00  0.00     0.034 A 
ATOM     43  C   UNL A   1      41.100  30.610  33.983  1.00  0.00     0.034 A 
ATOM     44  C   UNL A   1      43.221  26.123  29.738  1.00  0.00     0.049 A 
ATOM     45  C   UNL A   1      42.218  29.596  34.019  1.00  0.00     0.074 A 
ATOM     46  C   UNL A   1      44.367  25.351  29.826  1.00  0.00     0.029 A 
ATOM     47  N   UNL A   1      43.149  26.859  30.913  1.00  0.00    -0.354 N 
ATOM     48  N   UNL A   1      42.589  28.744  33.091  1.00  0.00    -0.248 NA
ATOM     49  C   UNL A   1      43.020  29.529  35.248  1.00  0.00     0.031 C 
ATOM     50  C   UNL A   1      44.932  25.547  31.088  1.00  0.00     0.029 A 
ATOM     51  C   UNL A   1      44.194  26.511  31.755  1.00  0.00     0.049 A 
ATOM     52  H   UNL A   1      42.458  27.529  31.117  1.00  0.00     0.167 HD
ATOM     53  C   UNL A   1      43.684  28.062  33.618  1.00  0.00     0.074 A 
ATOM     54  C   UNL A   1      43.927  28.617  34.932  1.00  0.00     0.031 C 
ATOM     55  C   UNL A   1      44.419  27.064  33.068  1.00  0.00     0.034 A 
BRANCH  42  56
ATOM     56  C   UNL A   1      42.392  25.159  27.555  1.00  0.00     0.023 A 
ATOM     57  C   UNL A   1      41.663  23.959  27.539  1.00  0.00     0.031 A 
ATOM     58  C   UNL A   1      43.234  25.435  26.462  1.00  0.00     0.131 A 
ATOM     59  C   UNL A   1      41.817  23.063  26.468  1.00  0.00     0.055 A 
ATOM     60  C   UNL A   1      43.332  24.572  25.370  1.00  0.00     0.041 A 
ATOM     61  F   UNL A   1      43.971  26.558  26.435  1.00  0.00    -0.206 F 
ATOM     62  C   UNL A   1      42.625  23.375  25.371  1.00  0.00     0.022 A 
BRANCH  59  63
ATOM     63  S   UNL A   1      41.015  21.439  26.569  1.00  0.00     0.124 S 
ATOM     64  O   UNL A   1      40.856  21.277  28.013  1.00  0.00    -0.237 OA
ATOM     65  O   UNL A   1      39.786  21.646  25.812  1.00  0.00    -0.237 OA
ATOM     66  O   UNL A   1      41.985  20.538  25.951  1.00  0.00    -0.744 OA
ENDBRANCH  59  63
ENDBRANCH  42  56
BRANCH  43  67
ATOM     67  C   UNL A   1      40.819  31.464  35.176  1.00  0.00     0.023 A 
ATOM     68  C   UNL A   1      39.698  31.228  35.987  1.00  0.00     0.031 A 
ATOM     69  C   UNL A   1      41.615  32.587  35.471  1.00  0.00     0.131 A 
ATOM     70  C   UNL A   1      39.360  32.139  37.000  1.00  0.00     0.055 A 
ATOM     71  C   UNL A   1      41.317  33.448  36.528  1.00  0.00     0.041 A 
ATOM     72  F   UNL A   1      42.698  32.868  34.729  1.00  0.00    -0.206 F 
ATOM     73  C   UNL A   1      40.171  33.238  37.287  1.00  0.00     0.022 A 
BRANCH  70  74
ATOM     74  S   UNL A   1      37.764  31.945  37.840  1.00  0.00     0.124 S 
ATOM     75  O   UNL A   1      37.410  30.575  37.488  1.00  0.00    -0.237 OA
ATOM     76  O   UNL A   1      38.126  32.178  39.233  1.00  0.00    -0.237 OA
ATOM     77  O   UNL A   1      36.932  32.981  37.231  1.00  0.00    -0.744 OA
ENDBRANCH  70  74
ENDBRANCH  43  67
BRANCH  55  78
ATOM     78  C   UNL A   1      45.577  26.533  33.875  1.00  0.00     0.023 A 
ATOM     79  C   UNL A   1      45.441  25.407  34.705  1.00  0.00     0.031 A 
ATOM     80  C   UNL A   1      46.837  27.152  33.802  1.00  0.00     0.131 A 
ATOM     81  C   UNL A   1      46.535  24.959  35.461  1.00  0.00     0.055 A 
ATOM     82  C   UNL A   1      47.937  26.666  34.508  1.00  0.00     0.041 A 
ATOM     83  F   UNL A   1      47.023  28.235  33.029  1.00  0.00    -0.206 F 
ATOM     84  C   UNL A   1      47.788  25.569  35.351  1.00  0.00     0.022 A 
BRANCH  81  85
ATOM     85  S   UNL A   1      46.283  23.609  36.645  1.00  0.00     0.124 S 
ATOM     86  O   UNL A   1      44.968  23.108  36.258  1.00  0.00    -0.237 OA
ATOM     87  O   UNL A   1      47.410  22.727  36.360  1.00  0.00    -0.237 OA
ATOM     88  O   UNL A   1      46.335  24.278  37.944  1.00  0.00    -0.744 OA
ENDBRANCH  81  85
ENDBRANCH  55  78
ENDBRANCH  29  30
ENDBRANCH  21  24
ENDBRANCH  19  20
ENDBRANCH   1  19
TORSDOF 15
ENDMDL
