MODEL 1
REMARK VINA RESULT:     -14.4      0.000      0.000
REMARK SMILES O=C(NCCCNC(=O)c1ccc([C@@H]2CC(O)=Nc3c2ncn3-c2cccc(Cl)c2)cc1)c1ccc(-c2c3nc(c(-c4cc(S(=O)(=O)[O-])ccc4F)c4ccc([nH]4)c(-c4cc(S(=O)(=O)[O-])ccc4F)c4nc(c(-c5cc(S(=O)(=O)[O-])ccc5F)c5ccc2[nH]5)C=C4)C=C3)cc1
REMARK SMILES IDX 4 1 3 2 1 3 2 4 33 6 34 7 95 8 35 9 94 10 36 11 37 12 38 13
REMARK SMILES IDX 88 14 39 15 93 16 87 17 89 18 40 19 92 20 86 21 85 22 41 24
REMARK SMILES IDX 73 25 53 26 72 27 54 28 57 29 71 30 90 31 55 32 56 33 70 35
REMARK SMILES IDX 91 36 58 37 42 38 43 39 51 40 44 41 50 42 52 43 49 44 45 45
REMARK SMILES IDX 46 46 47 47 48 48 74 49 75 50 83 51 76 52 82 53 84 54 81 55
REMARK SMILES IDX 77 56 78 57 79 58 80 59 59 60 60 61 68 62 61 63 67 64 69 65
REMARK SMILES IDX 66 66 62 67 63 68 64 69 65 70 5 71 6 72 7 73 8 74 9 76 10 77
REMARK SMILES IDX 11 78 32 79 12 80 31 81 13 82 14 83 15 84 20 85 16 86 19 87
REMARK SMILES IDX 21 88 18 89 23 90 22 91 17 92 24 94 25 95 30 96 26 97 28 98
REMARK SMILES IDX 27 99 29 100
REMARK H PARENT 3 5 89 23 57 34 7 75 17 93
REMARK Flexibility Score: inf
ROOT
ATOM      1  C   UNL A   1      33.727  29.987  27.643  1.00  0.00     0.118 C 
ENDROOT
BRANCH   1   2
ATOM      2  N   UNL A   1      34.368  31.248  27.952  1.00  0.00    -0.352 N 
ATOM      3  O   UNL A   1      35.842  32.884  28.043  1.00  0.00    -0.269 OA
ATOM      4  C   UNL A   1      35.668  31.662  28.059  1.00  0.00     0.251 C 
ATOM      5  H   UNL A   1      33.724  31.971  28.124  1.00  0.00     0.163 HD
BRANCH   4   6
ATOM      6  C   UNL A   1      36.841  30.771  28.279  1.00  0.00     0.039 A 
ATOM      7  C   UNL A   1      36.902  29.405  28.001  1.00  0.00     0.014 A 
ATOM      8  C   UNL A   1      37.958  31.382  28.882  1.00  0.00     0.014 A 
ATOM      9  C   UNL A   1      38.001  28.650  28.415  1.00  0.00     0.010 A 
ATOM     10  C   UNL A   1      39.060  30.638  29.284  1.00  0.00     0.010 A 
ATOM     11  C   UNL A   1      39.065  29.261  29.085  1.00  0.00    -0.014 A 
BRANCH  11  12
ATOM     12  C   UNL A   1      40.270  28.477  29.367  1.00  0.00     0.031 A 
ATOM     13  C   UNL A   1      40.600  28.398  30.816  1.00  0.00     0.074 A 
ATOM     14  C   UNL A   1      40.928  27.729  28.455  1.00  0.00     0.049 A 
ATOM     15  N   UNL A   1      41.641  28.863  31.425  1.00  0.00    -0.248 NA
ATOM     16  C   UNL A   1      39.567  27.877  31.727  1.00  0.00     0.031 C 
ATOM     17  C   UNL A   1      40.549  27.495  27.060  1.00  0.00     0.029 A 
ATOM     18  N   UNL A   1      42.022  26.923  28.611  1.00  0.00    -0.354 N 
ATOM     19  C   UNL A   1      41.512  28.467  32.756  1.00  0.00     0.074 A 
ATOM     20  C   UNL A   1      40.140  28.073  32.914  1.00  0.00     0.031 C 
ATOM     21  C   UNL A   1      41.252  26.447  26.575  1.00  0.00     0.029 A 
ATOM     22  C   UNL A   1      42.212  26.006  27.576  1.00  0.00     0.049 A 
ATOM     23  H   UNL A   1      42.624  26.985  29.388  1.00  0.00     0.167 HD
ATOM     24  C   UNL A   1      42.608  28.242  33.534  1.00  0.00     0.034 A 
ATOM     25  C   UNL A   1      43.042  24.924  27.560  1.00  0.00     0.034 A 
ATOM     26  C   UNL A   1      43.780  28.883  32.970  1.00  0.00     0.049 A 
ATOM     27  C   UNL A   1      44.089  25.166  28.582  1.00  0.00     0.074 A 
ATOM     28  C   UNL A   1      44.096  30.179  32.605  1.00  0.00     0.029 A 
ATOM     29  N   UNL A   1      44.733  28.095  32.358  1.00  0.00    -0.354 N 
ATOM     30  N   UNL A   1      44.978  26.116  28.485  1.00  0.00    -0.248 NA
ATOM     31  C   UNL A   1      43.858  24.670  29.931  1.00  0.00     0.031 C 
ATOM     32  C   UNL A   1      44.866  30.049  31.410  1.00  0.00     0.029 A 
ATOM     33  C   UNL A   1      45.047  28.688  31.162  1.00  0.00     0.049 A 
ATOM     34  H   UNL A   1      45.116  27.261  32.713  1.00  0.00     0.167 HD
ATOM     35  C   UNL A   1      45.080  26.638  29.764  1.00  0.00     0.074 A 
ATOM     36  C   UNL A   1      44.445  25.645  30.629  1.00  0.00     0.031 C 
ATOM     37  C   UNL A   1      45.412  27.948  29.970  1.00  0.00     0.034 A 
BRANCH  24  38
ATOM     38  C   UNL A   1      42.722  27.097  34.533  1.00  0.00     0.023 A 
ATOM     39  C   UNL A   1      43.587  26.046  34.175  1.00  0.00     0.031 A 
ATOM     40  C   UNL A   1      41.825  26.808  35.586  1.00  0.00     0.131 A 
ATOM     41  C   UNL A   1      43.394  24.749  34.677  1.00  0.00     0.055 A 
ATOM     42  C   UNL A   1      41.692  25.530  36.142  1.00  0.00     0.041 A 
ATOM     43  F   UNL A   1      40.977  27.705  36.097  1.00  0.00    -0.206 F 
ATOM     44  C   UNL A   1      42.441  24.478  35.649  1.00  0.00     0.022 A 
BRANCH  41  45
ATOM     45  S   UNL A   1      44.249  23.393  33.838  1.00  0.00     0.124 S 
ATOM     46  O   UNL A   1      43.228  22.967  32.886  1.00  0.00    -0.237 OA
ATOM     47  O   UNL A   1      45.411  24.075  33.277  1.00  0.00    -0.237 OA
ATOM     48  O   UNL A   1      44.535  22.454  34.919  1.00  0.00    -0.744 OA
ENDBRANCH  41  45
ENDBRANCH  24  38
BRANCH  25  49
ATOM     49  C   UNL A   1      42.793  23.583  26.944  1.00  0.00     0.023 A 
ATOM     50  C   UNL A   1      43.756  22.881  26.179  1.00  0.00     0.031 A 
ATOM     51  C   UNL A   1      41.642  22.854  27.320  1.00  0.00     0.131 A 
ATOM     52  C   UNL A   1      43.537  21.523  25.821  1.00  0.00     0.055 A 
ATOM     53  C   UNL A   1      41.432  21.519  26.962  1.00  0.00     0.041 A 
ATOM     54  F   UNL A   1      40.714  23.386  28.128  1.00  0.00    -0.206 F 
ATOM     55  C   UNL A   1      42.384  20.846  26.218  1.00  0.00     0.022 A 
BRANCH  52  56
ATOM     56  S   UNL A   1      44.798  20.575  24.899  1.00  0.00     0.124 S 
ATOM     57  O   UNL A   1      44.419  19.196  25.180  1.00  0.00    -0.237 OA
ATOM     58  O   UNL A   1      44.605  21.037  23.531  1.00  0.00    -0.237 OA
ATOM     59  O   UNL A   1      46.060  20.999  25.511  1.00  0.00    -0.744 OA
ENDBRANCH  52  56
ENDBRANCH  25  49
BRANCH  37  60
ATOM     60  C   UNL A   1      46.009  28.740  28.826  1.00  0.00     0.023 A 
ATOM     61  C   UNL A   1      47.379  28.769  28.476  1.00  0.00     0.031 A 
ATOM     62  C   UNL A   1      45.106  29.408  27.980  1.00  0.00     0.131 A 
ATOM     63  C   UNL A   1      47.795  29.459  27.318  1.00  0.00     0.055 A 
ATOM     64  C   UNL A   1      45.518  30.075  26.830  1.00  0.00     0.041 A 
ATOM     65  F   UNL A   1      43.787  29.393  28.243  1.00  0.00    -0.206 F 
ATOM     66  C   UNL A   1      46.867  30.109  26.498  1.00  0.00     0.022 A 
BRANCH  63  67
ATOM     67  S   UNL A   1      49.557  29.537  26.853  1.00  0.00     0.124 S 
ATOM     68  O   UNL A   1      50.248  29.053  28.041  1.00  0.00    -0.237 OA
ATOM     69  O   UNL A   1      49.615  28.670  25.678  1.00  0.00    -0.237 OA
ATOM     70  O   UNL A   1      49.775  30.956  26.559  1.00  0.00    -0.744 OA
ENDBRANCH  63  67
ENDBRANCH  37  60
ENDBRANCH  11  12
ENDBRANCH   4   6
ENDBRANCH   1   2
BRANCH   1  71
ATOM     71  C   UNL A   1      32.392  30.082  26.909  1.00  0.00     0.042 C 
BRANCH  71  72
ATOM     72  C   UNL A   1      32.484  30.239  25.396  1.00  0.00     0.118 C 
BRANCH  72  73
ATOM     73  N   UNL A   1      31.290  29.785  24.699  1.00  0.00    -0.352 N 
ATOM     74  C   UNL A   1      30.933  28.530  24.281  1.00  0.00     0.251 C 
ATOM     75  H   UNL A   1      30.635  30.491  24.495  1.00  0.00     0.163 HD
ATOM     76  O   UNL A   1      29.927  28.391  23.579  1.00  0.00    -0.269 OA
BRANCH  74  77
ATOM     77  C   UNL A   1      31.730  27.338  24.646  1.00  0.00     0.039 A 
ATOM     78  C   UNL A   1      31.454  26.702  25.860  1.00  0.00     0.014 A 
ATOM     79  C   UNL A   1      32.788  26.887  23.853  1.00  0.00     0.014 A 
ATOM     80  C   UNL A   1      32.206  25.594  26.254  1.00  0.00     0.005 A 
ATOM     81  C   UNL A   1      33.523  25.763  24.235  1.00  0.00     0.005 A 
ATOM     82  C   UNL A   1      33.250  25.109  25.448  1.00  0.00    -0.038 A 
BRANCH  82  83
ATOM     83  C   UNL A   1      34.110  23.964  25.956  1.00  0.00     0.081 C 
ATOM     84  C   UNL A   1      35.528  24.005  25.344  1.00  0.00     0.111 C 
ATOM     85  C   UNL A   1      33.415  22.691  25.645  1.00  0.00     0.093 A 
ATOM     86  C   UNL A   1      35.868  22.849  24.419  1.00  0.00     0.188 C 
ATOM     87  C   UNL A   1      34.025  21.703  24.903  1.00  0.00     0.164 A 
ATOM     88  N   UNL A   1      32.159  22.324  26.040  1.00  0.00    -0.238 NA
ATOM     89  N   UNL A   1      35.215  21.746  24.256  1.00  0.00    -0.198 NA
ATOM     90  N   UNL A   1      33.105  20.670  24.842  1.00  0.00    -0.283 N 
ATOM     91  C   UNL A   1      31.975  21.140  25.485  1.00  0.00     0.206 A 
BRANCH  86  92
ATOM     92  O   UNL A   1      37.022  23.015  23.740  1.00  0.00    -0.496 OA
ATOM     93  H   UNL A   1      37.195  22.500  22.978  1.00  0.00     0.294 HD
ENDBRANCH  86  92
BRANCH  90  94
ATOM     94  C   UNL A   1      33.295  19.379  24.293  1.00  0.00     0.050 A 
ATOM     95  C   UNL A   1      32.575  18.972  23.165  1.00  0.00     0.027 A 
ATOM     96  C   UNL A   1      34.206  18.502  24.902  1.00  0.00     0.047 A 
ATOM     97  C   UNL A   1      32.801  17.703  22.624  1.00  0.00     0.004 A 
ATOM     98  C   UNL A   1      34.383  17.223  24.382  1.00  0.00     0.043 A 
ATOM     99  C   UNL A   1      33.697  16.824  23.237  1.00  0.00     0.020 A 
ATOM    100  Cl  UNL A   1      35.445  16.122  25.175  1.00  0.00    -0.084 Cl
ENDBRANCH  90  94
ENDBRANCH  82  83
ENDBRANCH  74  77
ENDBRANCH  72  73
ENDBRANCH  71  72
ENDBRANCH   1  71
TORSDOF 16
ENDMDL
MODEL 2
REMARK VINA RESULT:     -14.2      4.275     10.006
REMARK SMILES O=C(NCCCNC(=O)c1ccc([C@@H]2CC(O)=Nc3c2ncn3-c2cccc(Cl)c2)cc1)c1ccc(-c2c3nc(c(-c4cc(S(=O)(=O)[O-])ccc4F)c4ccc([nH]4)c(-c4cc(S(=O)(=O)[O-])ccc4F)c4nc(c(-c5cc(S(=O)(=O)[O-])ccc5F)c5ccc2[nH]5)C=C4)C=C3)cc1
REMARK SMILES IDX 4 1 3 2 1 3 2 4 33 6 34 7 95 8 35 9 94 10 36 11 37 12 38 13
REMARK SMILES IDX 88 14 39 15 93 16 87 17 89 18 40 19 92 20 86 21 85 22 41 24
REMARK SMILES IDX 73 25 53 26 72 27 54 28 57 29 71 30 90 31 55 32 56 33 70 35
REMARK SMILES IDX 91 36 58 37 42 38 43 39 51 40 44 41 50 42 52 43 49 44 45 45
REMARK SMILES IDX 46 46 47 47 48 48 74 49 75 50 83 51 76 52 82 53 84 54 81 55
REMARK SMILES IDX 77 56 78 57 79 58 80 59 59 60 60 61 68 62 61 63 67 64 69 65
REMARK SMILES IDX 66 66 62 67 63 68 64 69 65 70 5 71 6 72 7 73 8 74 9 76 10 77
REMARK SMILES IDX 11 78 32 79 12 80 31 81 13 82 14 83 15 84 20 85 16 86 19 87
REMARK SMILES IDX 21 88 18 89 23 90 22 91 17 92 24 94 25 95 30 96 26 97 28 98
REMARK SMILES IDX 27 99 29 100
REMARK H PARENT 3 5 89 23 57 34 7 75 17 93
REMARK Flexibility Score: inf
ROOT
ATOM      1  C   UNL A   1      38.304  22.591  25.548  1.00  0.00     0.118 C 
ENDROOT
BRANCH   1   2
ATOM      2  N   UNL A   1      39.610  22.221  26.055  1.00  0.00    -0.352 N 
ATOM      3  O   UNL A   1      41.353  21.981  27.381  1.00  0.00    -0.269 OA
ATOM      4  C   UNL A   1      40.452  22.735  27.004  1.00  0.00     0.251 C 
ATOM      5  H   UNL A   1      39.974  21.417  25.618  1.00  0.00     0.163 HD
BRANCH   4   6
ATOM      6  C   UNL A   1      40.411  24.128  27.528  1.00  0.00     0.039 A 
ATOM      7  C   UNL A   1      39.424  25.079  27.266  1.00  0.00     0.014 A 
ATOM      8  C   UNL A   1      41.519  24.511  28.310  1.00  0.00     0.014 A 
ATOM      9  C   UNL A   1      39.592  26.402  27.678  1.00  0.00     0.010 A 
ATOM     10  C   UNL A   1      41.685  25.823  28.734  1.00  0.00     0.010 A 
ATOM     11  C   UNL A   1      40.739  26.781  28.384  1.00  0.00    -0.014 A 
BRANCH  11  12
ATOM     12  C   UNL A   1      40.816  28.134  28.937  1.00  0.00     0.031 A 
ATOM     13  C   UNL A   1      41.926  28.946  28.366  1.00  0.00     0.074 A 
ATOM     14  C   UNL A   1      39.881  28.689  29.739  1.00  0.00     0.049 A 
ATOM     15  N   UNL A   1      42.962  29.423  28.973  1.00  0.00    -0.248 NA
ATOM     16  C   UNL A   1      41.970  29.113  26.904  1.00  0.00     0.031 C 
ATOM     17  C   UNL A   1      38.605  28.101  30.150  1.00  0.00     0.029 A 
ATOM     18  N   UNL A   1      39.820  29.948  30.269  1.00  0.00    -0.354 N 
ATOM     19  C   UNL A   1      43.655  30.165  28.018  1.00  0.00     0.074 A 
ATOM     20  C   UNL A   1      43.127  29.755  26.747  1.00  0.00     0.031 C 
ATOM     21  C   UNL A   1      37.811  29.068  30.663  1.00  0.00     0.029 A 
ATOM     22  C   UNL A   1      38.554  30.318  30.726  1.00  0.00     0.049 A 
ATOM     23  H   UNL A   1      40.604  30.542  30.325  1.00  0.00     0.167 HD
ATOM     24  C   UNL A   1      44.407  31.244  28.374  1.00  0.00     0.034 A 
ATOM     25  C   UNL A   1      38.120  31.565  31.067  1.00  0.00     0.034 A 
ATOM     26  C   UNL A   1      44.732  31.202  29.787  1.00  0.00     0.049 A 
ATOM     27  C   UNL A   1      39.324  32.371  31.385  1.00  0.00     0.074 A 
ATOM     28  C   UNL A   1      45.354  30.284  30.612  1.00  0.00     0.029 A 
ATOM     29  N   UNL A   1      44.078  32.067  30.639  1.00  0.00    -0.354 N 
ATOM     30  N   UNL A   1      40.097  32.129  32.407  1.00  0.00    -0.248 NA
ATOM     31  C   UNL A   1      39.939  33.137  30.311  1.00  0.00     0.031 C 
ATOM     32  C   UNL A   1      44.624  30.336  31.838  1.00  0.00     0.029 A 
ATOM     33  C   UNL A   1      43.659  31.336  31.721  1.00  0.00     0.049 A 
ATOM     34  H   UNL A   1      43.938  33.031  30.498  1.00  0.00     0.167 HD
ATOM     35  C   UNL A   1      41.385  32.307  31.928  1.00  0.00     0.074 A 
ATOM     36  C   UNL A   1      41.222  33.023  30.663  1.00  0.00     0.031 C 
ATOM     37  C   UNL A   1      42.438  31.612  32.452  1.00  0.00     0.034 A 
BRANCH  24  38
ATOM     38  C   UNL A   1      44.469  32.539  27.574  1.00  0.00     0.023 A 
ATOM     39  C   UNL A   1      43.942  33.682  28.205  1.00  0.00     0.031 A 
ATOM     40  C   UNL A   1      44.670  32.659  26.180  1.00  0.00     0.131 A 
ATOM     41  C   UNL A   1      43.443  34.758  27.453  1.00  0.00     0.055 A 
ATOM     42  C   UNL A   1      44.244  33.770  25.443  1.00  0.00     0.041 A 
ATOM     43  F   UNL A   1      45.218  31.697  25.432  1.00  0.00    -0.206 F 
ATOM     44  C   UNL A   1      43.576  34.805  26.072  1.00  0.00     0.022 A 
BRANCH  41  45
ATOM     45  S   UNL A   1      42.396  35.960  28.308  1.00  0.00     0.124 S 
ATOM     46  O   UNL A   1      42.781  35.728  29.696  1.00  0.00    -0.237 OA
ATOM     47  O   UNL A   1      42.842  37.217  27.715  1.00  0.00    -0.237 OA
ATOM     48  O   UNL A   1      41.043  35.544  27.950  1.00  0.00    -0.744 OA
ENDBRANCH  41  45
ENDBRANCH  24  38
BRANCH  25  49
ATOM     49  C   UNL A   1      36.771  32.168  30.825  1.00  0.00     0.023 A 
ATOM     50  C   UNL A   1      35.949  32.687  31.854  1.00  0.00     0.031 A 
ATOM     51  C   UNL A   1      36.374  32.461  29.501  1.00  0.00     0.131 A 
ATOM     52  C   UNL A   1      34.792  33.447  31.534  1.00  0.00     0.055 A 
ATOM     53  C   UNL A   1      35.233  33.208  29.193  1.00  0.00     0.041 A 
ATOM     54  F   UNL A   1      37.131  32.107  28.452  1.00  0.00    -0.206 F 
ATOM     55  C   UNL A   1      34.442  33.711  30.209  1.00  0.00     0.022 A 
BRANCH  52  56
ATOM     56  S   UNL A   1      33.758  34.189  32.845  1.00  0.00     0.124 S 
ATOM     57  O   UNL A   1      34.756  34.703  33.776  1.00  0.00    -0.237 OA
ATOM     58  O   UNL A   1      32.981  35.181  32.112  1.00  0.00    -0.237 OA
ATOM     59  O   UNL A   1      32.978  33.056  33.349  1.00  0.00    -0.744 OA
ENDBRANCH  52  56
ENDBRANCH  25  49
BRANCH  37  60
ATOM     60  C   UNL A   1      42.263  30.913  33.784  1.00  0.00     0.023 A 
ATOM     61  C   UNL A   1      42.057  29.525  33.961  1.00  0.00     0.031 A 
ATOM     62  C   UNL A   1      42.432  31.700  34.938  1.00  0.00     0.131 A 
ATOM     63  C   UNL A   1      42.018  28.979  35.262  1.00  0.00     0.055 A 
ATOM     64  C   UNL A   1      42.409  31.155  36.219  1.00  0.00     0.041 A 
ATOM     65  F   UNL A   1      42.660  33.020  34.835  1.00  0.00    -0.206 F 
ATOM     66  C   UNL A   1      42.196  29.792  36.386  1.00  0.00     0.022 A 
BRANCH  63  67
ATOM     67  S   UNL A   1      41.730  27.198  35.525  1.00  0.00     0.124 S 
ATOM     68  O   UNL A   1      40.789  26.843  34.471  1.00  0.00    -0.237 OA
ATOM     69  O   UNL A   1      43.073  26.636  35.403  1.00  0.00    -0.237 OA
ATOM     70  O   UNL A   1      41.178  27.133  36.881  1.00  0.00    -0.744 OA
ENDBRANCH  63  67
ENDBRANCH  37  60
ENDBRANCH  11  12
ENDBRANCH   4   6
ENDBRANCH   1   2
BRANCH   1  71
ATOM     71  C   UNL A   1      37.462  21.449  24.986  1.00  0.00     0.042 C 
BRANCH  71  72
ATOM     72  C   UNL A   1      36.300  20.997  25.864  1.00  0.00     0.118 C 
BRANCH  72  73
ATOM     73  N   UNL A   1      35.193  20.435  25.104  1.00  0.00    -0.352 N 
ATOM     74  C   UNL A   1      34.065  21.033  24.608  1.00  0.00     0.251 C 
ATOM     75  H   UNL A   1      35.267  19.471  24.916  1.00  0.00     0.163 HD
ATOM     76  O   UNL A   1      33.181  20.333  24.106  1.00  0.00    -0.269 OA
BRANCH  74  77
ATOM     77  C   UNL A   1      33.878  22.500  24.668  1.00  0.00     0.039 A 
ATOM     78  C   UNL A   1      34.581  23.295  23.759  1.00  0.00     0.014 A 
ATOM     79  C   UNL A   1      33.087  23.103  25.649  1.00  0.00     0.014 A 
ATOM     80  C   UNL A   1      34.456  24.685  23.804  1.00  0.00     0.005 A 
ATOM     81  C   UNL A   1      32.942  24.492  25.678  1.00  0.00     0.005 A 
ATOM     82  C   UNL A   1      33.635  25.302  24.764  1.00  0.00    -0.038 A 
BRANCH  82  83
ATOM     83  C   UNL A   1      33.602  26.819  24.846  1.00  0.00     0.081 C 
ATOM     84  C   UNL A   1      33.417  27.304  26.302  1.00  0.00     0.111 C 
ATOM     85  C   UNL A   1      32.515  27.306  23.964  1.00  0.00     0.093 A 
ATOM     86  C   UNL A   1      32.106  28.015  26.586  1.00  0.00     0.188 C 
ATOM     87  C   UNL A   1      31.499  28.101  24.449  1.00  0.00     0.164 A 
ATOM     88  N   UNL A   1      32.380  27.074  22.624  1.00  0.00    -0.238 NA
ATOM     89  N   UNL A   1      31.240  28.451  25.732  1.00  0.00    -0.198 NA
ATOM     90  N   UNL A   1      30.699  28.381  23.354  1.00  0.00    -0.283 N 
ATOM     91  C   UNL A   1      31.246  27.670  22.302  1.00  0.00     0.206 A 
BRANCH  86  92
ATOM     92  O   UNL A   1      31.880  28.239  27.897  1.00  0.00    -0.496 OA
ATOM     93  H   UNL A   1      31.003  28.314  28.215  1.00  0.00     0.294 HD
ENDBRANCH  86  92
BRANCH  90  94
ATOM     94  C   UNL A   1      29.589  29.258  23.300  1.00  0.00     0.050 A 
ATOM     95  C   UNL A   1      28.288  28.755  23.199  1.00  0.00     0.027 A 
ATOM     96  C   UNL A   1      29.808  30.644  23.335  1.00  0.00     0.047 A 
ATOM     97  C   UNL A   1      27.207  29.640  23.177  1.00  0.00     0.004 A 
ATOM     98  C   UNL A   1      28.724  31.515  23.261  1.00  0.00     0.043 A 
ATOM     99  C   UNL A   1      27.423  31.020  23.197  1.00  0.00     0.020 A 
ATOM    100  Cl  UNL A   1      28.999  33.215  23.228  1.00  0.00    -0.084 Cl
ENDBRANCH  90  94
ENDBRANCH  82  83
ENDBRANCH  74  77
ENDBRANCH  72  73
ENDBRANCH  71  72
ENDBRANCH   1  71
TORSDOF 16
ENDMDL
MODEL 3
REMARK VINA RESULT:     -14.2      3.435      8.201
REMARK SMILES O=C(NCCCNC(=O)c1ccc([C@@H]2CC(O)=Nc3c2ncn3-c2cccc(Cl)c2)cc1)c1ccc(-c2c3nc(c(-c4cc(S(=O)(=O)[O-])ccc4F)c4ccc([nH]4)c(-c4cc(S(=O)(=O)[O-])ccc4F)c4nc(c(-c5cc(S(=O)(=O)[O-])ccc5F)c5ccc2[nH]5)C=C4)C=C3)cc1
REMARK SMILES IDX 4 1 3 2 1 3 2 4 33 6 34 7 95 8 35 9 94 10 36 11 37 12 38 13
REMARK SMILES IDX 88 14 39 15 93 16 87 17 89 18 40 19 92 20 86 21 85 22 41 24
REMARK SMILES IDX 73 25 53 26 72 27 54 28 57 29 71 30 90 31 55 32 56 33 70 35
REMARK SMILES IDX 91 36 58 37 42 38 43 39 51 40 44 41 50 42 52 43 49 44 45 45
REMARK SMILES IDX 46 46 47 47 48 48 74 49 75 50 83 51 76 52 82 53 84 54 81 55
REMARK SMILES IDX 77 56 78 57 79 58 80 59 59 60 60 61 68 62 61 63 67 64 69 65
REMARK SMILES IDX 66 66 62 67 63 68 64 69 65 70 5 71 6 72 7 73 8 74 9 76 10 77
REMARK SMILES IDX 11 78 32 79 12 80 31 81 13 82 14 83 15 84 20 85 16 86 19 87
REMARK SMILES IDX 21 88 18 89 23 90 22 91 17 92 24 94 25 95 30 96 26 97 28 98
REMARK SMILES IDX 27 99 29 100
REMARK H PARENT 3 5 89 23 57 34 7 75 17 93
REMARK Flexibility Score: inf
ROOT
ATOM      1  C   UNL A   1      38.739  19.148  25.823  1.00  0.00     0.118 C 
ENDROOT
BRANCH   1   2
ATOM      2  N   UNL A   1      40.113  18.840  25.483  1.00  0.00    -0.352 N 
ATOM      3  O   UNL A   1      42.294  18.563  25.620  1.00  0.00    -0.269 OA
ATOM      4  C   UNL A   1      41.331  19.267  25.937  1.00  0.00     0.251 C 
ATOM      5  H   UNL A   1      40.187  18.173  24.764  1.00  0.00     0.163 HD
BRANCH   4   6
ATOM      6  C   UNL A   1      41.578  20.531  26.684  1.00  0.00     0.039 A 
ATOM      7  C   UNL A   1      41.179  20.807  27.992  1.00  0.00     0.014 A 
ATOM      8  C   UNL A   1      42.224  21.548  25.953  1.00  0.00     0.014 A 
ATOM      9  C   UNL A   1      41.321  22.093  28.516  1.00  0.00     0.010 A 
ATOM     10  C   UNL A   1      42.379  22.826  26.474  1.00  0.00     0.010 A 
ATOM     11  C   UNL A   1      41.891  23.111  27.745  1.00  0.00    -0.014 A 
BRANCH  11  12
ATOM     12  C   UNL A   1      42.169  24.405  28.372  1.00  0.00     0.031 A 
ATOM     13  C   UNL A   1      41.106  25.419  28.134  1.00  0.00     0.074 A 
ATOM     14  C   UNL A   1      43.176  24.634  29.242  1.00  0.00     0.049 A 
ATOM     15  N   UNL A   1      41.195  26.534  27.486  1.00  0.00    -0.248 NA
ATOM     16  C   UNL A   1      39.729  25.075  28.530  1.00  0.00     0.031 C 
ATOM     17  C   UNL A   1      44.124  23.656  29.778  1.00  0.00     0.029 A 
ATOM     18  N   UNL A   1      43.499  25.775  29.924  1.00  0.00    -0.354 N 
ATOM     19  C   UNL A   1      39.950  27.149  27.613  1.00  0.00     0.074 A 
ATOM     20  C   UNL A   1      39.052  26.121  28.060  1.00  0.00     0.031 C 
ATOM     21  C   UNL A   1      44.753  24.184  30.852  1.00  0.00     0.029 A 
ATOM     22  C   UNL A   1      44.345  25.571  31.015  1.00  0.00     0.049 A 
ATOM     23  H   UNL A   1      43.165  26.664  29.665  1.00  0.00     0.167 HD
ATOM     24  C   UNL A   1      39.831  28.507  27.602  1.00  0.00     0.034 A 
ATOM     25  C   UNL A   1      44.639  26.447  32.020  1.00  0.00     0.034 A 
ATOM     26  C   UNL A   1      41.003  29.122  27.009  1.00  0.00     0.049 A 
ATOM     27  C   UNL A   1      44.352  27.808  31.505  1.00  0.00     0.074 A 
ATOM     28  C   UNL A   1      41.652  29.000  25.795  1.00  0.00     0.029 A 
ATOM     29  N   UNL A   1      41.904  29.757  27.838  1.00  0.00    -0.354 N 
ATOM     30  N   UNL A   1      45.026  28.363  30.536  1.00  0.00    -0.248 NA
ATOM     31  C   UNL A   1      43.025  28.361  31.733  1.00  0.00     0.031 C 
ATOM     32  C   UNL A   1      43.042  29.083  26.111  1.00  0.00     0.029 A 
ATOM     33  C   UNL A   1      43.158  29.335  27.478  1.00  0.00     0.049 A 
ATOM     34  H   UNL A   1      41.687  30.396  28.554  1.00  0.00     0.167 HD
ATOM     35  C   UNL A   1      44.072  29.001  29.761  1.00  0.00     0.074 A 
ATOM     36  C   UNL A   1      42.875  29.050  30.600  1.00  0.00     0.031 C 
ATOM     37  C   UNL A   1      44.250  29.174  28.417  1.00  0.00     0.034 A 
BRANCH  24  38
ATOM     38  C   UNL A   1      38.888  29.285  28.511  1.00  0.00     0.023 A 
ATOM     39  C   UNL A   1      39.179  29.243  29.887  1.00  0.00     0.031 A 
ATOM     40  C   UNL A   1      37.593  29.747  28.183  1.00  0.00     0.131 A 
ATOM     41  C   UNL A   1      38.169  29.423  30.846  1.00  0.00     0.055 A 
ATOM     42  C   UNL A   1      36.611  30.005  29.146  1.00  0.00     0.041 A 
ATOM     43  F   UNL A   1      37.167  29.910  26.926  1.00  0.00    -0.206 F 
ATOM     44  C   UNL A   1      36.880  29.790  30.485  1.00  0.00     0.022 A 
BRANCH  41  45
ATOM     45  S   UNL A   1      38.530  28.917  32.544  1.00  0.00     0.124 S 
ATOM     46  O   UNL A   1      39.446  27.805  32.315  1.00  0.00    -0.237 OA
ATOM     47  O   UNL A   1      39.116  30.133  33.099  1.00  0.00    -0.237 OA
ATOM     48  O   UNL A   1      37.218  28.555  33.075  1.00  0.00    -0.744 OA
ENDBRANCH  41  45
ENDBRANCH  24  38
BRANCH  25  49
ATOM     49  C   UNL A   1      44.845  26.145  33.471  1.00  0.00     0.023 A 
ATOM     50  C   UNL A   1      43.838  26.300  34.454  1.00  0.00     0.031 A 
ATOM     51  C   UNL A   1      46.009  25.452  33.873  1.00  0.00     0.131 A 
ATOM     52  C   UNL A   1      44.028  25.781  35.763  1.00  0.00     0.055 A 
ATOM     53  C   UNL A   1      46.190  24.946  35.163  1.00  0.00     0.041 A 
ATOM     54  F   UNL A   1      46.983  25.160  32.998  1.00  0.00    -0.206 F 
ATOM     55  C   UNL A   1      45.196  25.101  36.112  1.00  0.00     0.022 A 
BRANCH  52  56
ATOM     56  S   UNL A   1      42.712  25.902  37.026  1.00  0.00     0.124 S 
ATOM     57  O   UNL A   1      43.425  25.565  38.252  1.00  0.00    -0.237 OA
ATOM     58  O   UNL A   1      42.269  27.283  36.890  1.00  0.00    -0.237 OA
ATOM     59  O   UNL A   1      41.732  24.903  36.595  1.00  0.00    -0.744 OA
ENDBRANCH  52  56
ENDBRANCH  25  49
BRANCH  37  60
ATOM     60  C   UNL A   1      45.635  28.987  27.834  1.00  0.00     0.023 A 
ATOM     61  C   UNL A   1      46.174  27.763  27.374  1.00  0.00     0.031 A 
ATOM     62  C   UNL A   1      46.398  30.152  27.632  1.00  0.00     0.131 A 
ATOM     63  C   UNL A   1      47.438  27.740  26.748  1.00  0.00     0.055 A 
ATOM     64  C   UNL A   1      47.638  30.128  26.999  1.00  0.00     0.041 A 
ATOM     65  F   UNL A   1      45.929  31.350  28.020  1.00  0.00    -0.206 F 
ATOM     66  C   UNL A   1      48.166  28.920  26.561  1.00  0.00     0.022 A 
BRANCH  63  67
ATOM     67  S   UNL A   1      48.171  26.175  26.168  1.00  0.00     0.124 S 
ATOM     68  O   UNL A   1      47.439  25.157  26.909  1.00  0.00    -0.237 OA
ATOM     69  O   UNL A   1      47.926  26.223  24.728  1.00  0.00    -0.237 OA
ATOM     70  O   UNL A   1      49.584  26.297  26.536  1.00  0.00    -0.744 OA
ENDBRANCH  63  67
ENDBRANCH  37  60
ENDBRANCH  11  12
ENDBRANCH   4   6
ENDBRANCH   1   2
BRANCH   1  71
ATOM     71  C   UNL A   1      37.854  19.603  24.665  1.00  0.00     0.042 C 
BRANCH  71  72
ATOM     72  C   UNL A   1      36.859  20.711  24.996  1.00  0.00     0.118 C 
BRANCH  72  73
ATOM     73  N   UNL A   1      35.486  20.239  25.087  1.00  0.00    -0.352 N 
ATOM     74  C   UNL A   1      34.313  20.940  25.180  1.00  0.00     0.251 C 
ATOM     75  H   UNL A   1      35.383  19.259  25.080  1.00  0.00     0.163 HD
ATOM     76  O   UNL A   1      33.260  20.330  25.387  1.00  0.00    -0.269 OA
BRANCH  74  77
ATOM     77  C   UNL A   1      34.281  22.414  25.045  1.00  0.00     0.039 A 
ATOM     78  C   UNL A   1      34.036  23.178  26.189  1.00  0.00     0.014 A 
ATOM     79  C   UNL A   1      34.412  23.043  23.805  1.00  0.00     0.014 A 
ATOM     80  C   UNL A   1      33.966  24.569  26.096  1.00  0.00     0.005 A 
ATOM     81  C   UNL A   1      34.367  24.436  23.717  1.00  0.00     0.005 A 
ATOM     82  C   UNL A   1      34.131  25.218  24.860  1.00  0.00    -0.038 A 
BRANCH  82  83
ATOM     83  C   UNL A   1      33.950  26.724  24.782  1.00  0.00     0.081 C 
ATOM     84  C   UNL A   1      33.805  27.351  26.188  1.00  0.00     0.111 C 
ATOM     85  C   UNL A   1      32.768  27.004  23.933  1.00  0.00     0.093 A 
ATOM     86  C   UNL A   1      32.448  27.964  26.487  1.00  0.00     0.188 C 
ATOM     87  C   UNL A   1      31.708  27.750  24.401  1.00  0.00     0.164 A 
ATOM     88  N   UNL A   1      32.576  26.610  22.638  1.00  0.00    -0.238 NA
ATOM     89  N   UNL A   1      31.493  28.217  25.655  1.00  0.00    -0.198 NA
ATOM     90  N   UNL A   1      30.819  27.828  23.342  1.00  0.00    -0.283 N 
ATOM     91  C   UNL A   1      31.371  27.057  22.336  1.00  0.00     0.206 A 
BRANCH  86  92
ATOM     92  O   UNL A   1      32.281  28.313  27.779  1.00  0.00    -0.496 OA
ATOM     93  H   UNL A   1      31.535  28.817  28.034  1.00  0.00     0.294 HD
ENDBRANCH  86  92
BRANCH  90  94
ATOM     94  C   UNL A   1      29.625  28.586  23.275  1.00  0.00     0.050 A 
ATOM     95  C   UNL A   1      28.380  27.950  23.246  1.00  0.00     0.027 A 
ATOM     96  C   UNL A   1      29.703  29.986  23.222  1.00  0.00     0.047 A 
ATOM     97  C   UNL A   1      27.214  28.720  23.208  1.00  0.00     0.004 A 
ATOM     98  C   UNL A   1      28.535  30.738  23.133  1.00  0.00     0.043 A 
ATOM     99  C   UNL A   1      27.290  30.113  23.141  1.00  0.00     0.020 A 
ATOM    100  Cl  UNL A   1      28.636  32.453  22.992  1.00  0.00    -0.084 Cl
ENDBRANCH  90  94
ENDBRANCH  82  83
ENDBRANCH  74  77
ENDBRANCH  72  73
ENDBRANCH  71  72
ENDBRANCH   1  71
TORSDOF 16
ENDMDL
