MODEL 1
REMARK VINA RESULT:     -12.6      0.000      0.000
REMARK SMILES Cc1ccccc1CN1C(=O)[C@H](CC(=O)NCCCNC(=O)c2ccc(-c3c4nc(c(-c5cc(S(=O)(=O)[O-])ccc5F)c5ccc([nH]5)c(-c5cc(S(=O)(=O)[O-])ccc5F)c5nc(c(-c6cc(S(=O)(=O)[O-])ccc6F)c6ccc3[nH]6)C=C5)C=C4)cc2)n2c(nc3ccccc32)[C@H]1C
REMARK SMILES IDX 18 1 17 2 16 3 14 4 15 5 13 7 12 8 9 9 10 10 95 11 11 12
REMARK SMILES IDX 87 13 96 14 86 15 88 16 94 17 89 18 93 19 90 20 92 21 91 22
REMARK SMILES IDX 8 23 7 24 1 25 2 26 3 27 4 28 6 29 5 30 19 31 20 32 21 33
REMARK SMILES IDX 22 35 23 36 24 37 85 38 25 39 84 40 26 41 27 42 28 43 78 44
REMARK SMILES IDX 29 45 83 46 77 47 79 48 30 49 82 50 76 51 75 52 31 54 63 55
REMARK SMILES IDX 43 56 62 57 44 58 47 59 61 60 80 61 45 62 46 63 60 65 81 66
REMARK SMILES IDX 48 67 32 68 33 69 41 70 34 71 40 72 42 73 39 74 35 75 36 76
REMARK SMILES IDX 37 77 38 78 64 79 65 80 73 81 66 82 72 83 74 84 71 85 67 86
REMARK SMILES IDX 68 87 69 88 70 89 49 90 50 91 58 92 51 93 57 94 59 95 56 96
REMARK SMILES IDX 52 97 53 98 54 99 55 100
REMARK H PARENT 16 6 20 34 79 53 47 64
REMARK Flexibility Score: inf
ROOT
ATOM      1  C   UNL A   1      35.405  30.803  28.131  1.00  0.00     0.042 C 
ENDROOT
BRANCH   1   2
ATOM      2  C   UNL A   1      34.438  30.208  27.092  1.00  0.00     0.117 C 
BRANCH   2   3
ATOM      3  N   UNL A   1      33.368  29.466  27.748  1.00  0.00    -0.356 N 
ATOM      4  C   UNL A   1      32.790  28.275  27.431  1.00  0.00     0.222 C 
ATOM      5  O   UNL A   1      31.705  27.996  27.945  1.00  0.00    -0.275 OA
ATOM      6  H   UNL A   1      33.003  29.899  28.552  1.00  0.00     0.163 HD
BRANCH   4   7
ATOM      7  C   UNL A   1      33.426  27.300  26.461  1.00  0.00     0.135 C 
BRANCH   7   8
ATOM      8  C   UNL A   1      32.423  26.934  25.360  1.00  0.00     0.187 C 
ATOM      9  N   UNL A   1      31.818  27.596  23.097  1.00  0.00    -0.327 N 
ATOM     10  C   UNL A   1      32.537  27.954  24.227  1.00  0.00     0.247 C 
ATOM     11  C   UNL A   1      32.583  26.548  22.416  1.00  0.00     0.149 C 
ATOM     12  O   UNL A   1      33.372  28.843  24.149  1.00  0.00    -0.272 OA
ATOM     13  C   UNL A   1      32.691  25.399  23.395  1.00  0.00     0.133 A 
ATOM     14  C   UNL A   1      32.126  26.080  21.048  1.00  0.00     0.040 C 
ATOM     15  N   UNL A   1      32.609  25.605  24.766  1.00  0.00    -0.313 N 
ATOM     16  N   UNL A   1      32.881  24.128  23.117  1.00  0.00    -0.231 NA
ATOM     17  C   UNL A   1      32.576  24.373  25.370  1.00  0.00     0.069 A 
ATOM     18  C   UNL A   1      32.792  23.479  24.320  1.00  0.00     0.089 A 
ATOM     19  C   UNL A   1      32.383  23.939  26.688  1.00  0.00     0.028 A 
ATOM     20  C   UNL A   1      32.868  22.103  24.578  1.00  0.00     0.030 A 
ATOM     21  C   UNL A   1      32.460  22.559  26.924  1.00  0.00     0.002 A 
ATOM     22  C   UNL A   1      32.706  21.654  25.890  1.00  0.00     0.002 A 
BRANCH   9  23
ATOM     23  C   UNL A   1      31.076  28.651  22.398  1.00  0.00     0.156 C 
BRANCH  23  24
ATOM     24  C   UNL A   1      29.582  28.490  22.621  1.00  0.00    -0.026 A 
ATOM     25  C   UNL A   1      28.855  30.665  21.422  1.00  0.00     0.044 C 
ATOM     26  C   UNL A   1      28.619  29.477  22.319  1.00  0.00    -0.046 A 
ATOM     27  C   UNL A   1      27.308  29.330  22.820  1.00  0.00     0.004 A 
ATOM     28  C   UNL A   1      26.942  28.223  23.581  1.00  0.00     0.000 A 
ATOM     29  C   UNL A   1      29.147  27.325  23.279  1.00  0.00     0.006 A 
ATOM     30  C   UNL A   1      27.855  27.202  23.784  1.00  0.00     0.000 A 
ENDBRANCH  23  24
ENDBRANCH   9  23
ENDBRANCH   7   8
ENDBRANCH   4   7
ENDBRANCH   2   3
ENDBRANCH   1   2
BRANCH   1  31
ATOM     31  C   UNL A   1      36.505  29.851  28.579  1.00  0.00     0.118 C 
BRANCH  31  32
ATOM     32  N   UNL A   1      36.654  29.905  30.022  1.00  0.00    -0.352 N 
ATOM     33  C   UNL A   1      37.516  29.232  30.848  1.00  0.00     0.251 C 
ATOM     34  H   UNL A   1      36.040  30.523  30.480  1.00  0.00     0.163 HD
ATOM     35  O   UNL A   1      37.024  28.821  31.904  1.00  0.00    -0.269 OA
BRANCH  33  36
ATOM     36  C   UNL A   1      38.985  29.067  30.605  1.00  0.00     0.039 A 
ATOM     37  C   UNL A   1      39.739  30.253  30.575  1.00  0.00     0.014 A 
ATOM     38  C   UNL A   1      39.658  27.875  30.336  1.00  0.00     0.014 A 
ATOM     39  C   UNL A   1      41.118  30.241  30.300  1.00  0.00     0.010 A 
ATOM     40  C   UNL A   1      41.046  27.864  30.061  1.00  0.00     0.010 A 
ATOM     41  C   UNL A   1      41.804  29.039  30.056  1.00  0.00    -0.014 A 
BRANCH  41  42
ATOM     42  C   UNL A   1      43.291  29.064  30.264  1.00  0.00     0.031 A 
ATOM     43  C   UNL A   1      43.562  28.171  31.486  1.00  0.00     0.074 A 
ATOM     44  C   UNL A   1      44.349  29.061  29.381  1.00  0.00     0.049 A 
ATOM     45  N   UNL A   1      43.417  26.882  31.401  1.00  0.00    -0.248 NA
ATOM     46  C   UNL A   1      43.718  28.582  32.889  1.00  0.00     0.031 C 
ATOM     47  C   UNL A   1      45.617  29.718  29.743  1.00  0.00     0.029 A 
ATOM     48  N   UNL A   1      44.616  28.629  28.054  1.00  0.00    -0.354 N 
ATOM     49  C   UNL A   1      43.875  26.306  32.581  1.00  0.00     0.074 A 
ATOM     50  C   UNL A   1      43.854  27.395  33.531  1.00  0.00     0.031 C 
ATOM     51  C   UNL A   1      46.554  29.520  28.790  1.00  0.00     0.029 A 
ATOM     52  C   UNL A   1      46.030  28.642  27.747  1.00  0.00     0.049 A 
ATOM     53  H   UNL A   1      43.918  28.352  27.417  1.00  0.00     0.167 HD
ATOM     54  C   UNL A   1      44.492  25.076  32.518  1.00  0.00     0.034 A 
ATOM     55  C   UNL A   1      46.832  27.845  26.938  1.00  0.00     0.034 A 
ATOM     56  C   UNL A   1      44.868  24.890  31.146  1.00  0.00     0.049 A 
ATOM     57  C   UNL A   1      46.076  26.703  26.289  1.00  0.00     0.074 A 
ATOM     58  C   UNL A   1      45.881  25.628  30.603  1.00  0.00     0.029 A 
ATOM     59  N   UNL A   1      44.194  24.210  30.148  1.00  0.00    -0.354 N 
ATOM     60  N   UNL A   1      46.040  25.519  26.823  1.00  0.00    -0.248 NA
ATOM     61  C   UNL A   1      45.152  26.799  25.158  1.00  0.00     0.031 C 
ATOM     62  C   UNL A   1      45.420  25.785  29.328  1.00  0.00     0.029 A 
ATOM     63  C   UNL A   1      44.538  24.798  28.939  1.00  0.00     0.049 A 
ATOM     64  H   UNL A   1      43.582  23.449  30.273  1.00  0.00     0.167 HD
ATOM     65  C   UNL A   1      44.764  25.057  26.592  1.00  0.00     0.074 A 
ATOM     66  C   UNL A   1      44.403  25.692  25.336  1.00  0.00     0.031 C 
ATOM     67  C   UNL A   1      43.970  24.560  27.610  1.00  0.00     0.034 A 
BRANCH  54  68
ATOM     68  C   UNL A   1      45.310  24.241  33.470  1.00  0.00     0.023 A 
ATOM     69  C   UNL A   1      46.624  24.716  33.770  1.00  0.00     0.031 A 
ATOM     70  C   UNL A   1      44.994  22.986  33.971  1.00  0.00     0.131 A 
ATOM     71  C   UNL A   1      47.577  23.971  34.454  1.00  0.00     0.055 A 
ATOM     72  C   UNL A   1      45.949  22.232  34.690  1.00  0.00     0.041 A 
ATOM     73  F   UNL A   1      43.789  22.440  33.746  1.00  0.00    -0.206 F 
ATOM     74  C   UNL A   1      47.248  22.712  34.919  1.00  0.00     0.022 A 
BRANCH  71  75
ATOM     75  S   UNL A   1      49.247  24.672  34.604  1.00  0.00     0.124 S 
ATOM     76  O   UNL A   1      48.987  26.105  34.503  1.00  0.00    -0.237 OA
ATOM     77  O   UNL A   1      49.674  24.181  35.910  1.00  0.00    -0.237 OA
ATOM     78  O   UNL A   1      49.954  24.094  33.463  1.00  0.00    -0.744 OA
ENDBRANCH  71  75
ENDBRANCH  54  68
BRANCH  55  79
ATOM     79  C   UNL A   1      48.326  27.546  27.229  1.00  0.00     0.023 A 
ATOM     80  C   UNL A   1      48.839  27.043  28.439  1.00  0.00     0.031 A 
ATOM     81  C   UNL A   1      49.324  27.899  26.277  1.00  0.00     0.131 A 
ATOM     82  C   UNL A   1      50.255  26.966  28.646  1.00  0.00     0.055 A 
ATOM     83  C   UNL A   1      50.701  27.833  26.481  1.00  0.00     0.041 A 
ATOM     84  F   UNL A   1      49.014  28.347  25.070  1.00  0.00    -0.206 F 
ATOM     85  C   UNL A   1      51.180  27.374  27.681  1.00  0.00     0.022 A 
BRANCH  82  86
ATOM     86  S   UNL A   1      50.943  26.288  30.188  1.00  0.00     0.124 S 
ATOM     87  O   UNL A   1      50.396  24.936  30.201  1.00  0.00    -0.237 OA
ATOM     88  O   UNL A   1      52.382  26.390  29.965  1.00  0.00    -0.237 OA
ATOM     89  O   UNL A   1      50.423  27.178  31.226  1.00  0.00    -0.744 OA
ENDBRANCH  82  86
ENDBRANCH  55  79
BRANCH  67  90
ATOM     90  C   UNL A   1      42.556  24.113  27.367  1.00  0.00     0.023 A 
ATOM     91  C   UNL A   1      42.259  22.749  27.222  1.00  0.00     0.031 A 
ATOM     92  C   UNL A   1      41.459  24.995  27.299  1.00  0.00     0.131 A 
ATOM     93  C   UNL A   1      40.959  22.321  26.907  1.00  0.00     0.055 A 
ATOM     94  C   UNL A   1      40.150  24.562  27.056  1.00  0.00     0.041 A 
ATOM     95  F   UNL A   1      41.601  26.316  27.464  1.00  0.00    -0.206 F 
ATOM     96  C   UNL A   1      39.896  23.217  26.839  1.00  0.00     0.022 A 
BRANCH  93  97
ATOM     97  S   UNL A   1      40.702  20.567  26.542  1.00  0.00     0.124 S 
ATOM     98  O   UNL A   1      40.757  19.983  27.879  1.00  0.00    -0.237 OA
ATOM     99  O   UNL A   1      39.400  20.559  25.894  1.00  0.00    -0.237 OA
ATOM    100  O   UNL A   1      41.835  20.235  25.673  1.00  0.00    -0.744 OA
ENDBRANCH  93  97
ENDBRANCH  67  90
ENDBRANCH  41  42
ENDBRANCH  33  36
ENDBRANCH  31  32
ENDBRANCH   1  31
TORSDOF 16
ENDMDL
MODEL 2
REMARK VINA RESULT:     -12.6      3.079      5.341
REMARK SMILES Cc1ccccc1CN1C(=O)[C@H](CC(=O)NCCCNC(=O)c2ccc(-c3c4nc(c(-c5cc(S(=O)(=O)[O-])ccc5F)c5ccc([nH]5)c(-c5cc(S(=O)(=O)[O-])ccc5F)c5nc(c(-c6cc(S(=O)(=O)[O-])ccc6F)c6ccc3[nH]6)C=C5)C=C4)cc2)n2c(nc3ccccc32)[C@H]1C
REMARK SMILES IDX 18 1 17 2 16 3 14 4 15 5 13 7 12 8 9 9 10 10 95 11 11 12
REMARK SMILES IDX 87 13 96 14 86 15 88 16 94 17 89 18 93 19 90 20 92 21 91 22
REMARK SMILES IDX 8 23 7 24 1 25 2 26 3 27 4 28 6 29 5 30 19 31 20 32 21 33
REMARK SMILES IDX 22 35 23 36 24 37 85 38 25 39 84 40 26 41 27 42 28 43 78 44
REMARK SMILES IDX 29 45 83 46 77 47 79 48 30 49 82 50 76 51 75 52 31 54 63 55
REMARK SMILES IDX 43 56 62 57 44 58 47 59 61 60 80 61 45 62 46 63 60 65 81 66
REMARK SMILES IDX 48 67 32 68 33 69 41 70 34 71 40 72 42 73 39 74 35 75 36 76
REMARK SMILES IDX 37 77 38 78 64 79 65 80 73 81 66 82 72 83 74 84 71 85 67 86
REMARK SMILES IDX 68 87 69 88 70 89 49 90 50 91 58 92 51 93 57 94 59 95 56 96
REMARK SMILES IDX 52 97 53 98 54 99 55 100
REMARK H PARENT 16 6 20 34 79 53 47 64
REMARK Flexibility Score: inf
ROOT
ATOM      1  C   UNL A   1      39.172  21.043  25.688  1.00  0.00     0.042 C 
ENDROOT
BRANCH   1   2
ATOM      2  C   UNL A   1      37.691  21.135  25.283  1.00  0.00     0.117 C 
BRANCH   2   3
ATOM      3  N   UNL A   1      37.544  21.844  24.018  1.00  0.00    -0.356 N 
ATOM      4  C   UNL A   1      36.612  22.750  23.611  1.00  0.00     0.222 C 
ATOM      5  O   UNL A   1      36.509  22.980  22.404  1.00  0.00    -0.275 OA
ATOM      6  H   UNL A   1      38.232  21.634  23.348  1.00  0.00     0.163 HD
BRANCH   4   7
ATOM      7  C   UNL A   1      35.696  23.462  24.585  1.00  0.00     0.135 C 
BRANCH   7   8
ATOM      8  C   UNL A   1      34.249  23.000  24.369  1.00  0.00     0.187 C 
ATOM      9  N   UNL A   1      32.544  21.648  25.460  1.00  0.00    -0.327 N 
ATOM     10  C   UNL A   1      33.891  21.975  25.445  1.00  0.00     0.247 C 
ATOM     11  C   UNL A   1      31.840  22.765  26.095  1.00  0.00     0.149 C 
ATOM     12  O   UNL A   1      34.594  21.662  26.395  1.00  0.00    -0.272 OA
ATOM     13  C   UNL A   1      32.109  23.981  25.234  1.00  0.00     0.133 A 
ATOM     14  C   UNL A   1      30.364  22.616  26.409  1.00  0.00     0.040 C 
ATOM     15  N   UNL A   1      33.241  24.064  24.433  1.00  0.00    -0.313 N 
ATOM     16  N   UNL A   1      31.375  25.067  25.134  1.00  0.00    -0.231 NA
ATOM     17  C   UNL A   1      33.120  25.193  23.661  1.00  0.00     0.069 A 
ATOM     18  C   UNL A   1      31.973  25.815  24.154  1.00  0.00     0.089 A 
ATOM     19  C   UNL A   1      33.865  25.734  22.605  1.00  0.00     0.028 A 
ATOM     20  C   UNL A   1      31.560  27.044  23.621  1.00  0.00     0.030 A 
ATOM     21  C   UNL A   1      33.434  26.962  22.084  1.00  0.00     0.002 A 
ATOM     22  C   UNL A   1      32.306  27.614  22.586  1.00  0.00     0.002 A 
BRANCH   9  23
ATOM     23  C   UNL A   1      32.185  20.239  25.655  1.00  0.00     0.156 C 
BRANCH  23  24
ATOM     24  C   UNL A   1      32.701  19.393  24.503  1.00  0.00    -0.026 A 
ATOM     25  C   UNL A   1      31.775  20.873  22.593  1.00  0.00     0.044 C 
ATOM     26  C   UNL A   1      32.373  19.605  23.147  1.00  0.00    -0.046 A 
ATOM     27  C   UNL A   1      32.680  18.601  22.203  1.00  0.00     0.004 A 
ATOM     28  C   UNL A   1      33.321  17.424  22.579  1.00  0.00     0.000 A 
ATOM     29  C   UNL A   1      33.463  18.255  24.826  1.00  0.00     0.006 A 
ATOM     30  C   UNL A   1      33.742  17.264  23.888  1.00  0.00     0.000 A 
ENDBRANCH  23  24
ENDBRANCH   9  23
ENDBRANCH   7   8
ENDBRANCH   4   7
ENDBRANCH   2   3
ENDBRANCH   1   2
BRANCH   1  31
ATOM     31  C   UNL A   1      39.729  22.312  26.317  1.00  0.00     0.118 C 
BRANCH  31  32
ATOM     32  N   UNL A   1      38.787  23.404  26.156  1.00  0.00    -0.352 N 
ATOM     33  C   UNL A   1      38.778  24.655  26.716  1.00  0.00     0.251 C 
ATOM     34  H   UNL A   1      38.036  23.218  25.549  1.00  0.00     0.163 HD
ATOM     35  O   UNL A   1      37.672  25.062  27.086  1.00  0.00    -0.269 OA
BRANCH  33  36
ATOM     36  C   UNL A   1      39.966  25.564  26.803  1.00  0.00     0.039 A 
ATOM     37  C   UNL A   1      39.915  26.547  27.807  1.00  0.00     0.014 A 
ATOM     38  C   UNL A   1      41.072  25.578  25.951  1.00  0.00     0.014 A 
ATOM     39  C   UNL A   1      40.940  27.498  27.959  1.00  0.00     0.010 A 
ATOM     40  C   UNL A   1      42.103  26.533  26.106  1.00  0.00     0.010 A 
ATOM     41  C   UNL A   1      42.067  27.497  27.120  1.00  0.00    -0.014 A 
BRANCH  41  42
ATOM     42  C   UNL A   1      43.292  28.189  27.645  1.00  0.00     0.031 A 
ATOM     43  C   UNL A   1      43.399  27.793  29.128  1.00  0.00     0.074 A 
ATOM     44  C   UNL A   1      44.529  28.431  27.087  1.00  0.00     0.049 A 
ATOM     45  N   UNL A   1      43.725  26.580  29.459  1.00  0.00    -0.248 NA
ATOM     46  C   UNL A   1      42.912  28.536  30.299  1.00  0.00     0.031 C 
ATOM     47  C   UNL A   1      45.300  29.622  27.485  1.00  0.00     0.029 A 
ATOM     48  N   UNL A   1      45.367  27.863  26.091  1.00  0.00    -0.354 N 
ATOM     49  C   UNL A   1      43.906  26.532  30.837  1.00  0.00     0.074 A 
ATOM     50  C   UNL A   1      43.198  27.695  31.323  1.00  0.00     0.031 C 
ATOM     51  C   UNL A   1      46.519  29.626  26.903  1.00  0.00     0.029 A 
ATOM     52  C   UNL A   1      46.710  28.398  26.135  1.00  0.00     0.049 A 
ATOM     53  H   UNL A   1      45.068  27.183  25.446  1.00  0.00     0.167 HD
ATOM     54  C   UNL A   1      44.874  25.694  31.346  1.00  0.00     0.034 A 
ATOM     55  C   UNL A   1      47.959  27.851  25.859  1.00  0.00     0.034 A 
ATOM     56  C   UNL A   1      45.743  25.379  30.250  1.00  0.00     0.049 A 
ATOM     57  C   UNL A   1      47.897  26.384  25.485  1.00  0.00     0.074 A 
ATOM     58  C   UNL A   1      46.578  26.330  29.736  1.00  0.00     0.029 A 
ATOM     59  N   UNL A   1      45.723  24.273  29.419  1.00  0.00    -0.354 N 
ATOM     60  N   UNL A   1      48.069  25.448  26.370  1.00  0.00    -0.248 NA
ATOM     61  C   UNL A   1      47.449  25.825  24.210  1.00  0.00     0.031 C 
ATOM     62  C   UNL A   1      46.565  25.987  28.415  1.00  0.00     0.029 A 
ATOM     63  C   UNL A   1      46.252  24.662  28.196  1.00  0.00     0.049 A 
ATOM     64  H   UNL A   1      45.393  23.375  29.653  1.00  0.00     0.167 HD
ATOM     65  C   UNL A   1      47.182  24.454  26.024  1.00  0.00     0.074 A 
ATOM     66  C   UNL A   1      47.093  24.578  24.579  1.00  0.00     0.031 C 
ATOM     67  C   UNL A   1      46.294  23.914  26.937  1.00  0.00     0.034 A 
BRANCH  54  68
ATOM     68  C   UNL A   1      45.536  25.518  32.690  1.00  0.00     0.023 A 
ATOM     69  C   UNL A   1      45.409  24.231  33.301  1.00  0.00     0.031 A 
ATOM     70  C   UNL A   1      46.124  26.501  33.472  1.00  0.00     0.131 A 
ATOM     71  C   UNL A   1      45.773  23.962  34.615  1.00  0.00     0.055 A 
ATOM     72  C   UNL A   1      46.522  26.228  34.800  1.00  0.00     0.041 A 
ATOM     73  F   UNL A   1      46.289  27.746  33.000  1.00  0.00    -0.206 F 
ATOM     74  C   UNL A   1      46.331  24.966  35.383  1.00  0.00     0.022 A 
BRANCH  71  75
ATOM     75  S   UNL A   1      45.391  22.312  35.274  1.00  0.00     0.124 S 
ATOM     76  O   UNL A   1      46.431  21.490  34.663  1.00  0.00    -0.237 OA
ATOM     77  O   UNL A   1      45.493  22.522  36.714  1.00  0.00    -0.237 OA
ATOM     78  O   UNL A   1      44.039  22.061  34.778  1.00  0.00    -0.744 OA
ENDBRANCH  71  75
ENDBRANCH  54  68
BRANCH  55  79
ATOM     79  C   UNL A   1      49.267  28.280  26.573  1.00  0.00     0.023 A 
ATOM     80  C   UNL A   1      49.403  28.530  27.951  1.00  0.00     0.031 A 
ATOM     81  C   UNL A   1      50.432  28.577  25.811  1.00  0.00     0.131 A 
ATOM     82  C   UNL A   1      50.620  29.083  28.468  1.00  0.00     0.055 A 
ATOM     83  C   UNL A   1      51.613  29.124  26.311  1.00  0.00     0.041 A 
ATOM     84  F   UNL A   1      50.491  28.359  24.506  1.00  0.00    -0.206 F 
ATOM     85  C   UNL A   1      51.712  29.393  27.652  1.00  0.00     0.022 A 
BRANCH  82  86
ATOM     86  S   UNL A   1      50.833  29.383  30.250  1.00  0.00     0.124 S 
ATOM     87  O   UNL A   1      52.135  30.041  30.298  1.00  0.00    -0.237 OA
ATOM     88  O   UNL A   1      49.683  30.223  30.570  1.00  0.00    -0.237 OA
ATOM     89  O   UNL A   1      50.793  28.044  30.839  1.00  0.00    -0.744 OA
ENDBRANCH  82  86
ENDBRANCH  55  79
BRANCH  67  90
ATOM     90  C   UNL A   1      45.285  22.873  26.543  1.00  0.00     0.023 A 
ATOM     91  C   UNL A   1      45.692  21.708  25.874  1.00  0.00     0.031 A 
ATOM     92  C   UNL A   1      43.908  22.972  26.830  1.00  0.00     0.131 A 
ATOM     93  C   UNL A   1      44.752  20.769  25.421  1.00  0.00     0.055 A 
ATOM     94  C   UNL A   1      42.980  22.000  26.440  1.00  0.00     0.041 A 
ATOM     95  F   UNL A   1      43.397  24.013  27.500  1.00  0.00    -0.206 F 
ATOM     96  C   UNL A   1      43.398  20.897  25.713  1.00  0.00     0.022 A 
BRANCH  93  97
ATOM     97  S   UNL A   1      45.342  19.398  24.397  1.00  0.00     0.124 S 
ATOM     98  O   UNL A   1      44.591  19.615  23.164  1.00  0.00    -0.237 OA
ATOM     99  O   UNL A   1      46.775  19.641  24.325  1.00  0.00    -0.237 OA
ATOM    100  O   UNL A   1      44.948  18.212  25.162  1.00  0.00    -0.744 OA
ENDBRANCH  93  97
ENDBRANCH  67  90
ENDBRANCH  41  42
ENDBRANCH  33  36
ENDBRANCH  31  32
ENDBRANCH   1  31
TORSDOF 16
ENDMDL
MODEL 3
REMARK VINA RESULT:     -12.5      3.937      8.459
REMARK SMILES Cc1ccccc1CN1C(=O)[C@H](CC(=O)NCCCNC(=O)c2ccc(-c3c4nc(c(-c5cc(S(=O)(=O)[O-])ccc5F)c5ccc([nH]5)c(-c5cc(S(=O)(=O)[O-])ccc5F)c5nc(c(-c6cc(S(=O)(=O)[O-])ccc6F)c6ccc3[nH]6)C=C5)C=C4)cc2)n2c(nc3ccccc32)[C@H]1C
REMARK SMILES IDX 18 1 17 2 16 3 14 4 15 5 13 7 12 8 9 9 10 10 95 11 11 12
REMARK SMILES IDX 87 13 96 14 86 15 88 16 94 17 89 18 93 19 90 20 92 21 91 22
REMARK SMILES IDX 8 23 7 24 1 25 2 26 3 27 4 28 6 29 5 30 19 31 20 32 21 33
REMARK SMILES IDX 22 35 23 36 24 37 85 38 25 39 84 40 26 41 27 42 28 43 78 44
REMARK SMILES IDX 29 45 83 46 77 47 79 48 30 49 82 50 76 51 75 52 31 54 63 55
REMARK SMILES IDX 43 56 62 57 44 58 47 59 61 60 80 61 45 62 46 63 60 65 81 66
REMARK SMILES IDX 48 67 32 68 33 69 41 70 34 71 40 72 42 73 39 74 35 75 36 76
REMARK SMILES IDX 37 77 38 78 64 79 65 80 73 81 66 82 72 83 74 84 71 85 67 86
REMARK SMILES IDX 68 87 69 88 70 89 49 90 50 91 58 92 51 93 57 94 59 95 56 96
REMARK SMILES IDX 52 97 53 98 54 99 55 100
REMARK H PARENT 16 6 20 34 79 53 47 64
REMARK Flexibility Score: inf
ROOT
ATOM      1  C   UNL A   1      39.355  21.557  26.112  1.00  0.00     0.042 C 
ENDROOT
BRANCH   1   2
ATOM      2  C   UNL A   1      38.141  22.487  25.951  1.00  0.00     0.117 C 
BRANCH   2   3
ATOM      3  N   UNL A   1      37.843  22.708  24.541  1.00  0.00    -0.356 N 
ATOM      4  C   UNL A   1      36.720  23.185  23.935  1.00  0.00     0.222 C 
ATOM      5  O   UNL A   1      36.584  22.996  22.725  1.00  0.00    -0.275 OA
ATOM      6  H   UNL A   1      38.573  22.474  23.926  1.00  0.00     0.163 HD
BRANCH   4   7
ATOM      7  C   UNL A   1      35.638  23.918  24.700  1.00  0.00     0.135 C 
BRANCH   7   8
ATOM      8  C   UNL A   1      34.289  23.217  24.492  1.00  0.00     0.187 C 
ATOM      9  N   UNL A   1      32.794  21.676  25.640  1.00  0.00    -0.327 N 
ATOM     10  C   UNL A   1      34.072  22.214  25.625  1.00  0.00     0.247 C 
ATOM     11  C   UNL A   1      31.905  22.702  26.191  1.00  0.00     0.149 C 
ATOM     12  O   UNL A   1      34.791  22.078  26.605  1.00  0.00    -0.272 OA
ATOM     13  C   UNL A   1      31.998  23.890  25.258  1.00  0.00     0.133 A 
ATOM     14  C   UNL A   1      30.464  22.335  26.491  1.00  0.00     0.040 C 
ATOM     15  N   UNL A   1      33.122  24.106  24.471  1.00  0.00    -0.313 N 
ATOM     16  N   UNL A   1      31.103  24.836  25.076  1.00  0.00    -0.231 NA
ATOM     17  C   UNL A   1      32.843  25.151  23.626  1.00  0.00     0.069 A 
ATOM     18  C   UNL A   1      31.598  25.609  24.060  1.00  0.00     0.089 A 
ATOM     19  C   UNL A   1      33.519  25.740  22.549  1.00  0.00     0.028 A 
ATOM     20  C   UNL A   1      31.008  26.721  23.442  1.00  0.00     0.030 A 
ATOM     21  C   UNL A   1      32.910  26.849  21.944  1.00  0.00     0.002 A 
ATOM     22  C   UNL A   1      31.680  27.339  22.385  1.00  0.00     0.002 A 
BRANCH   9  23
ATOM     23  C   UNL A   1      32.661  20.243  25.919  1.00  0.00     0.156 C 
BRANCH  23  24
ATOM     24  C   UNL A   1      32.460  19.464  24.631  1.00  0.00    -0.026 A 
ATOM     25  C   UNL A   1      32.788  17.104  25.641  1.00  0.00     0.044 C 
ATOM     26  C   UNL A   1      32.678  18.076  24.494  1.00  0.00    -0.046 A 
ATOM     27  C   UNL A   1      32.731  17.515  23.200  1.00  0.00     0.004 A 
ATOM     28  C   UNL A   1      32.546  18.297  22.062  1.00  0.00     0.000 A 
ATOM     29  C   UNL A   1      32.149  20.199  23.471  1.00  0.00     0.006 A 
ATOM     30  C   UNL A   1      32.223  19.636  22.200  1.00  0.00     0.000 A 
ENDBRANCH  23  24
ENDBRANCH   9  23
ENDBRANCH   7   8
ENDBRANCH   4   7
ENDBRANCH   2   3
ENDBRANCH   1   2
BRANCH   1  31
ATOM     31  C   UNL A   1      40.440  22.097  27.033  1.00  0.00     0.118 C 
BRANCH  31  32
ATOM     32  N   UNL A   1      41.745  21.935  26.417  1.00  0.00    -0.352 N 
ATOM     33  C   UNL A   1      42.513  22.832  25.722  1.00  0.00     0.251 C 
ATOM     34  H   UNL A   1      42.141  21.039  26.514  1.00  0.00     0.163 HD
ATOM     35  O   UNL A   1      43.079  22.381  24.721  1.00  0.00    -0.269 OA
BRANCH  33  36
ATOM     36  C   UNL A   1      42.782  24.243  26.149  1.00  0.00     0.039 A 
ATOM     37  C   UNL A   1      42.802  25.203  25.122  1.00  0.00     0.014 A 
ATOM     38  C   UNL A   1      43.083  24.682  27.439  1.00  0.00     0.014 A 
ATOM     39  C   UNL A   1      43.098  26.552  25.382  1.00  0.00     0.010 A 
ATOM     40  C   UNL A   1      43.379  26.040  27.700  1.00  0.00     0.010 A 
ATOM     41  C   UNL A   1      43.375  27.002  26.684  1.00  0.00    -0.014 A 
BRANCH  41  42
ATOM     42  C   UNL A   1      43.189  28.470  26.938  1.00  0.00     0.031 A 
ATOM     43  C   UNL A   1      41.731  28.639  27.398  1.00  0.00     0.074 A 
ATOM     44  C   UNL A   1      44.016  29.426  27.488  1.00  0.00     0.049 A 
ATOM     45  N   UNL A   1      41.360  28.210  28.567  1.00  0.00    -0.248 NA
ATOM     46  C   UNL A   1      40.561  28.996  26.582  1.00  0.00     0.031 C 
ATOM     47  C   UNL A   1      43.907  30.832  27.063  1.00  0.00     0.029 A 
ATOM     48  N   UNL A   1      45.106  29.482  28.396  1.00  0.00    -0.354 N 
ATOM     49  C   UNL A   1      40.053  28.626  28.796  1.00  0.00     0.074 A 
ATOM     50  C   UNL A   1      39.544  28.922  27.476  1.00  0.00     0.031 C 
ATOM     51  C   UNL A   1      44.731  31.622  27.786  1.00  0.00     0.029 A 
ATOM     52  C   UNL A   1      45.399  30.834  28.818  1.00  0.00     0.049 A 
ATOM     53  H   UNL A   1      45.605  28.691  28.703  1.00  0.00     0.167 HD
ATOM     54  C   UNL A   1      39.680  28.952  30.082  1.00  0.00     0.034 A 
ATOM     55  C   UNL A   1      45.878  31.374  30.008  1.00  0.00     0.034 A 
ATOM     56  C   UNL A   1      40.900  29.165  30.807  1.00  0.00     0.049 A 
ATOM     57  C   UNL A   1      46.086  30.336  31.092  1.00  0.00     0.074 A 
ATOM     58  C   UNL A   1      41.668  30.266  30.555  1.00  0.00     0.029 A 
ATOM     59  N   UNL A   1      41.596  28.279  31.609  1.00  0.00    -0.354 N 
ATOM     60  N   UNL A   1      45.170  30.086  31.980  1.00  0.00    -0.248 NA
ATOM     61  C   UNL A   1      47.178  29.366  31.175  1.00  0.00     0.031 C 
ATOM     62  C   UNL A   1      42.917  29.747  30.739  1.00  0.00     0.029 A 
ATOM     63  C   UNL A   1      42.935  28.643  31.565  1.00  0.00     0.049 A 
ATOM     64  H   UNL A   1      41.212  27.527  32.117  1.00  0.00     0.167 HD
ATOM     65  C   UNL A   1      45.224  28.726  32.182  1.00  0.00     0.074 A 
ATOM     66  C   UNL A   1      46.622  28.410  31.947  1.00  0.00     0.031 C 
ATOM     67  C   UNL A   1      44.096  27.929  32.103  1.00  0.00     0.034 A 
BRANCH  54  68
ATOM     68  C   UNL A   1      38.496  29.643  30.709  1.00  0.00     0.023 A 
ATOM     69  C   UNL A   1      38.199  30.959  30.235  1.00  0.00     0.031 A 
ATOM     70  C   UNL A   1      37.753  29.213  31.799  1.00  0.00     0.131 A 
ATOM     71  C   UNL A   1      37.284  31.810  30.843  1.00  0.00     0.055 A 
ATOM     72  C   UNL A   1      36.801  30.063  32.407  1.00  0.00     0.041 A 
ATOM     73  F   UNL A   1      37.951  27.997  32.329  1.00  0.00    -0.206 F 
ATOM     74  C   UNL A   1      36.576  31.369  31.944  1.00  0.00     0.022 A 
BRANCH  71  75
ATOM     75  S   UNL A   1      37.153  33.505  30.199  1.00  0.00     0.124 S 
ATOM     76  O   UNL A   1      37.606  33.344  28.821  1.00  0.00    -0.237 OA
ATOM     77  O   UNL A   1      35.736  33.799  30.386  1.00  0.00    -0.237 OA
ATOM     78  O   UNL A   1      38.062  34.258  31.061  1.00  0.00    -0.744 OA
ENDBRANCH  71  75
ENDBRANCH  54  68
BRANCH  55  79
ATOM     79  C   UNL A   1      45.501  32.785  30.529  1.00  0.00     0.023 A 
ATOM     80  C   UNL A   1      44.546  33.061  31.524  1.00  0.00     0.031 A 
ATOM     81  C   UNL A   1      46.044  33.945  29.908  1.00  0.00     0.131 A 
ATOM     82  C   UNL A   1      44.164  34.415  31.803  1.00  0.00     0.055 A 
ATOM     83  C   UNL A   1      45.667  35.261  30.172  1.00  0.00     0.041 A 
ATOM     84  F   UNL A   1      46.987  33.867  28.982  1.00  0.00    -0.206 F 
ATOM     85  C   UNL A   1      44.708  35.506  31.121  1.00  0.00     0.022 A 
BRANCH  82  86
ATOM     86  S   UNL A   1      42.957  34.800  33.109  1.00  0.00     0.124 S 
ATOM     87  O   UNL A   1      42.897  33.547  33.853  1.00  0.00    -0.237 OA
ATOM     88  O   UNL A   1      43.584  35.922  33.801  1.00  0.00    -0.237 OA
ATOM     89  O   UNL A   1      41.740  35.143  32.372  1.00  0.00    -0.744 OA
ENDBRANCH  82  86
ENDBRANCH  55  79
BRANCH  67  90
ATOM     90  C   UNL A   1      44.166  26.436  32.262  1.00  0.00     0.023 A 
ATOM     91  C   UNL A   1      43.788  25.834  33.472  1.00  0.00     0.031 A 
ATOM     92  C   UNL A   1      44.574  25.559  31.237  1.00  0.00     0.131 A 
ATOM     93  C   UNL A   1      43.930  24.452  33.668  1.00  0.00     0.055 A 
ATOM     94  C   UNL A   1      44.648  24.172  31.409  1.00  0.00     0.041 A 
ATOM     95  F   UNL A   1      44.919  26.002  30.021  1.00  0.00    -0.206 F 
ATOM     96  C   UNL A   1      44.343  23.611  32.639  1.00  0.00     0.022 A 
BRANCH  93  97
ATOM     97  S   UNL A   1      43.608  23.785  35.320  1.00  0.00     0.124 S 
ATOM     98  O   UNL A   1      44.327  24.738  36.161  1.00  0.00    -0.237 OA
ATOM     99  O   UNL A   1      42.155  23.825  35.406  1.00  0.00    -0.237 OA
ATOM    100  O   UNL A   1      44.193  22.443  35.262  1.00  0.00    -0.744 OA
ENDBRANCH  93  97
ENDBRANCH  67  90
ENDBRANCH  41  42
ENDBRANCH  33  36
ENDBRANCH  31  32
ENDBRANCH   1  31
TORSDOF 16
ENDMDL
