MODEL 1
REMARK VINA RESULT:     -12.1      0.000      0.000
REMARK SMILES C[C@@H](NC(=O)CCCN1C(=O)/C(=C/c2c3ccccc3cc3ccccc23)SC1=S)C(=O)NCCCNC(=O)c1ccc(-c2c3nc(c(-c4cc(S(=O)(=O)[O-])ccc4F)c4ccc([nH]4)c(-c4cc(S(=O)(=O)[O-])ccc4F)c4nc(c(-c5cc(S(=O)(=O)[O-])ccc5F)c5ccc2[nH]5)C=C4)C=C3)cc1
REMARK SMILES IDX 31 1 32 2 33 3 2 5 1 6 3 7 4 8 5 10 6 11 7 12 8 13 9 14
REMARK SMILES IDX 10 15 29 16 11 17 12 18 28 19 30 20 13 21 14 22 15 23 27 24
REMARK SMILES IDX 16 25 20 26 22 27 26 28 17 29 19 30 21 31 23 32 25 33 18 34
REMARK SMILES IDX 24 35 34 36 35 37 36 38 37 39 38 40 39 42 40 43 41 44 102 45
REMARK SMILES IDX 42 46 101 47 43 48 44 49 45 50 95 51 46 52 100 53 94 54
REMARK SMILES IDX 96 55 47 56 99 57 93 58 92 59 48 61 80 62 60 63 79 64 61 65
REMARK SMILES IDX 64 66 78 67 97 68 62 69 63 70 77 72 98 73 65 74 49 75 50 76
REMARK SMILES IDX 58 77 51 78 57 79 59 80 56 81 52 82 53 83 54 84 55 85 81 86
REMARK SMILES IDX 82 87 90 88 83 89 89 90 91 91 88 92 84 93 85 94 86 95 87 96
REMARK SMILES IDX 66 97 67 98 75 99 68 100 74 101 76 102 73 103 69 104 70 105
REMARK SMILES IDX 71 106 72 107
REMARK H PARENT 33 4 3 9 37 41 96 60 64 71
REMARK Flexibility Score: inf
ROOT
ATOM      1  C   UNL A   1      41.976  35.596  28.790  1.00  0.00     0.242 C 
ATOM      2  O   UNL A   1      40.886  34.977  28.733  1.00  0.00    -0.273 OA
ATOM      3  N   UNL A   1      42.356  35.721  30.114  1.00  0.00    -0.354 N 
ATOM      4  H   UNL A   1      41.514  35.566  30.601  1.00  0.00     0.163 HD
ENDROOT
BRANCH   1   5
ATOM      5  C   UNL A   1      42.567  35.984  27.252  1.00  0.00     0.168 C 
ATOM      6  C   UNL A   1      43.163  35.208  26.042  1.00  0.00     0.041 C 
BRANCH   5   7
ATOM      7  N   UNL A   1      41.832  37.078  26.679  1.00  0.00    -0.345 N 
ATOM      8  C   UNL A   1      42.233  38.355  26.841  1.00  0.00     0.220 C 
ATOM      9  H   UNL A   1      41.020  36.890  26.157  1.00  0.00     0.164 HD
ATOM     10  O   UNL A   1      41.530  39.287  26.439  1.00  0.00    -0.275 OA
BRANCH   8  11
ATOM     11  C   UNL A   1      43.627  38.527  27.389  1.00  0.00     0.102 C 
BRANCH  11  12
ATOM     12  C   UNL A   1      44.052  39.959  27.981  1.00  0.00     0.032 C 
BRANCH  12  13
ATOM     13  C   UNL A   1      44.480  41.557  27.435  1.00  0.00     0.128 C 
BRANCH  13  14
ATOM     14  N   UNL A   1      45.147  42.253  26.137  1.00  0.00    -0.293 N 
ATOM     15  C   UNL A   1      45.365  43.596  25.783  1.00  0.00     0.266 C 
ATOM     16  C   UNL A   1      46.064  41.538  25.361  1.00  0.00     0.148 C 
ATOM     17  O   UNL A   1      45.626  44.549  26.510  1.00  0.00    -0.268 OA
ATOM     18  C   UNL A   1      45.509  43.746  24.278  1.00  0.00     0.081 C 
ATOM     19  S   UNL A   1      46.458  42.393  23.839  1.00  0.00    -0.054 SA
ATOM     20  S   UNL A   1      46.774  40.061  25.689  1.00  0.00    -0.052 S 
ATOM     21  C   UNL A   1      44.957  44.726  23.513  1.00  0.00     0.030 C 
BRANCH  21  22
ATOM     22  C   UNL A   1      44.980  45.014  22.012  1.00  0.00    -0.009 A 
ATOM     23  C   UNL A   1      45.909  45.942  21.438  1.00  0.00    -0.010 A 
ATOM     24  C   UNL A   1      44.076  44.312  21.115  1.00  0.00    -0.010 A 
ATOM     25  C   UNL A   1      47.052  46.447  22.098  1.00  0.00     0.009 A 
ATOM     26  C   UNL A   1      45.726  46.380  20.100  1.00  0.00    -0.017 A 
ATOM     27  C   UNL A   1      43.966  44.744  19.761  1.00  0.00    -0.017 A 
ATOM     28  C   UNL A   1      43.279  43.182  21.446  1.00  0.00     0.009 A 
ATOM     29  C   UNL A   1      47.867  47.437  21.541  1.00  0.00     0.001 A 
ATOM     30  C   UNL A   1      46.540  47.385  19.549  1.00  0.00     0.009 A 
ATOM     31  C   UNL A   1      44.744  45.800  19.298  1.00  0.00     0.017 A 
ATOM     32  C   UNL A   1      43.086  44.125  18.850  1.00  0.00     0.009 A 
ATOM     33  C   UNL A   1      42.434  42.545  20.518  1.00  0.00     0.001 A 
ATOM     34  C   UNL A   1      47.590  47.931  20.277  1.00  0.00     0.001 A 
ATOM     35  C   UNL A   1      42.324  43.027  19.224  1.00  0.00     0.001 A 
ENDBRANCH  21  22
ENDBRANCH  13  14
ENDBRANCH  12  13
ENDBRANCH  11  12
ENDBRANCH   8  11
ENDBRANCH   5   7
ENDBRANCH   1   5
BRANCH   3  36
ATOM     36  C   UNL A   1      43.380  35.973  31.260  1.00  0.00     0.117 C 
BRANCH  36  37
ATOM     37  C   UNL A   1      44.334  37.204  31.298  1.00  0.00     0.042 C 
BRANCH  37  38
ATOM     38  C   UNL A   1      45.617  37.113  32.121  1.00  0.00     0.118 C 
BRANCH  38  39
ATOM     39  N   UNL A   1      46.815  37.062  31.304  1.00  0.00    -0.352 N 
ATOM     40  C   UNL A   1      47.425  36.026  30.641  1.00  0.00     0.251 C 
ATOM     41  H   UNL A   1      47.275  37.927  31.209  1.00  0.00     0.163 HD
ATOM     42  O   UNL A   1      48.619  36.133  30.371  1.00  0.00    -0.269 OA
BRANCH  40  43
ATOM     43  C   UNL A   1      46.674  34.814  30.236  1.00  0.00     0.039 A 
ATOM     44  C   UNL A   1      46.683  33.686  31.064  1.00  0.00     0.014 A 
ATOM     45  C   UNL A   1      46.024  34.749  29.004  1.00  0.00     0.014 A 
ATOM     46  C   UNL A   1      46.018  32.524  30.663  1.00  0.00     0.010 A 
ATOM     47  C   UNL A   1      45.220  33.664  28.692  1.00  0.00     0.010 A 
ATOM     48  C   UNL A   1      45.252  32.515  29.486  1.00  0.00    -0.014 A 
BRANCH  48  49
ATOM     49  C   UNL A   1      44.528  31.302  29.031  1.00  0.00     0.031 A 
ATOM     50  C   UNL A   1      45.208  30.318  28.109  1.00  0.00     0.074 A 
ATOM     51  C   UNL A   1      43.249  31.120  29.415  1.00  0.00     0.049 A 
ATOM     52  N   UNL A   1      44.740  29.215  27.583  1.00  0.00    -0.248 NA
ATOM     53  C   UNL A   1      46.579  30.641  27.674  1.00  0.00     0.031 C 
ATOM     54  C   UNL A   1      42.474  32.053  30.239  1.00  0.00     0.029 A 
ATOM     55  N   UNL A   1      42.377  30.090  29.179  1.00  0.00    -0.354 N 
ATOM     56  C   UNL A   1      45.747  28.733  26.751  1.00  0.00     0.074 A 
ATOM     57  C   UNL A   1      46.806  29.715  26.758  1.00  0.00     0.031 C 
ATOM     58  C   UNL A   1      41.273  31.519  30.502  1.00  0.00     0.029 A 
ATOM     59  C   UNL A   1      41.168  30.236  29.818  1.00  0.00     0.049 A 
ATOM     60  H   UNL A   1      42.596  29.319  28.607  1.00  0.00     0.167 HD
ATOM     61  C   UNL A   1      45.805  27.558  26.079  1.00  0.00     0.034 A 
ATOM     62  C   UNL A   1      40.099  29.418  29.852  1.00  0.00     0.034 A 
ATOM     63  C   UNL A   1      44.740  26.588  26.111  1.00  0.00     0.049 A 
ATOM     64  C   UNL A   1      40.188  28.112  29.106  1.00  0.00     0.074 A 
ATOM     65  C   UNL A   1      44.690  25.339  25.521  1.00  0.00     0.029 A 
ATOM     66  N   UNL A   1      43.530  26.766  26.775  1.00  0.00    -0.354 N 
ATOM     67  N   UNL A   1      41.176  27.639  28.379  1.00  0.00    -0.248 NA
ATOM     68  C   UNL A   1      39.029  27.221  29.206  1.00  0.00     0.031 C 
ATOM     69  C   UNL A   1      43.421  24.798  25.757  1.00  0.00     0.029 A 
ATOM     70  C   UNL A   1      42.715  25.663  26.580  1.00  0.00     0.049 A 
ATOM     71  H   UNL A   1      43.289  27.560  27.305  1.00  0.00     0.167 HD
ATOM     72  C   UNL A   1      40.766  26.377  27.959  1.00  0.00     0.074 A 
ATOM     73  C   UNL A   1      39.458  26.158  28.546  1.00  0.00     0.031 C 
ATOM     74  C   UNL A   1      41.406  25.479  27.163  1.00  0.00     0.034 A 
BRANCH  61  75
ATOM     75  C   UNL A   1      47.042  27.280  25.254  1.00  0.00     0.023 A 
ATOM     76  C   UNL A   1      47.200  27.796  23.953  1.00  0.00     0.031 A 
ATOM     77  C   UNL A   1      48.064  26.456  25.757  1.00  0.00     0.131 A 
ATOM     78  C   UNL A   1      48.305  27.418  23.175  1.00  0.00     0.055 A 
ATOM     79  C   UNL A   1      49.208  26.159  25.011  1.00  0.00     0.041 A 
ATOM     80  F   UNL A   1      47.962  25.908  26.978  1.00  0.00    -0.206 F 
ATOM     81  C   UNL A   1      49.326  26.628  23.706  1.00  0.00     0.022 A 
BRANCH  78  82
ATOM     82  S   UNL A   1      48.308  27.839  21.409  1.00  0.00     0.124 S 
ATOM     83  O   UNL A   1      49.309  28.901  21.361  1.00  0.00    -0.237 OA
ATOM     84  O   UNL A   1      48.686  26.576  20.785  1.00  0.00    -0.237 OA
ATOM     85  O   UNL A   1      46.936  28.274  21.159  1.00  0.00    -0.744 OA
ENDBRANCH  78  82
ENDBRANCH  61  75
BRANCH  62  86
ATOM     86  C   UNL A   1      38.879  29.794  30.624  1.00  0.00     0.023 A 
ATOM     87  C   UNL A   1      37.870  30.583  30.048  1.00  0.00     0.031 A 
ATOM     88  C   UNL A   1      38.718  29.397  31.964  1.00  0.00     0.131 A 
ATOM     89  C   UNL A   1      36.776  30.997  30.824  1.00  0.00     0.055 A 
ATOM     90  C   UNL A   1      37.595  29.755  32.710  1.00  0.00     0.041 A 
ATOM     91  F   UNL A   1      39.647  28.636  32.563  1.00  0.00    -0.206 F 
ATOM     92  C   UNL A   1      36.622  30.575  32.146  1.00  0.00     0.022 A 
BRANCH  89  93
ATOM     93  S   UNL A   1      35.606  32.185  30.110  1.00  0.00     0.124 S 
ATOM     94  O   UNL A   1      34.668  32.375  31.210  1.00  0.00    -0.237 OA
ATOM     95  O   UNL A   1      36.473  33.316  29.800  1.00  0.00    -0.237 OA
ATOM     96  O   UNL A   1      35.070  31.477  28.948  1.00  0.00    -0.744 OA
ENDBRANCH  89  93
ENDBRANCH  62  86
BRANCH  74  97
ATOM     97  C   UNL A   1      40.700  24.166  26.927  1.00  0.00     0.023 A 
ATOM     98  C   UNL A   1      39.517  24.091  26.173  1.00  0.00     0.031 A 
ATOM     99  C   UNL A   1      41.190  22.984  27.510  1.00  0.00     0.131 A 
ATOM    100  C   UNL A   1      38.807  22.885  26.112  1.00  0.00     0.055 A 
ATOM    101  C   UNL A   1      40.528  21.766  27.364  1.00  0.00     0.041 A 
ATOM    102  F   UNL A   1      42.315  22.995  28.242  1.00  0.00    -0.206 F 
ATOM    103  C   UNL A   1      39.315  21.716  26.682  1.00  0.00     0.022 A 
BRANCH 100 104
ATOM    104  S   UNL A   1      37.129  22.909  25.425  1.00  0.00     0.124 S 
ATOM    105  O   UNL A   1      36.731  21.511  25.556  1.00  0.00    -0.237 OA
ATOM    106  O   UNL A   1      36.446  23.852  26.305  1.00  0.00    -0.237 OA
ATOM    107  O   UNL A   1      37.328  23.373  24.053  1.00  0.00    -0.744 OA
ENDBRANCH 100 104
ENDBRANCH  74  97
ENDBRANCH  48  49
ENDBRANCH  40  43
ENDBRANCH  38  39
ENDBRANCH  37  38
ENDBRANCH  36  37
ENDBRANCH   3  36
TORSDOF 19
ENDMDL
MODEL 2
REMARK VINA RESULT:     -11.5      1.815      2.946
REMARK SMILES C[C@@H](NC(=O)CCCN1C(=O)/C(=C/c2c3ccccc3cc3ccccc23)SC1=S)C(=O)NCCCNC(=O)c1ccc(-c2c3nc(c(-c4cc(S(=O)(=O)[O-])ccc4F)c4ccc([nH]4)c(-c4cc(S(=O)(=O)[O-])ccc4F)c4nc(c(-c5cc(S(=O)(=O)[O-])ccc5F)c5ccc2[nH]5)C=C4)C=C3)cc1
REMARK SMILES IDX 31 1 32 2 33 3 2 5 1 6 3 7 4 8 5 10 6 11 7 12 8 13 9 14
REMARK SMILES IDX 10 15 29 16 11 17 12 18 28 19 30 20 13 21 14 22 15 23 27 24
REMARK SMILES IDX 16 25 20 26 22 27 26 28 17 29 19 30 21 31 23 32 25 33 18 34
REMARK SMILES IDX 24 35 34 36 35 37 36 38 37 39 38 40 39 42 40 43 41 44 102 45
REMARK SMILES IDX 42 46 101 47 43 48 44 49 45 50 95 51 46 52 100 53 94 54
REMARK SMILES IDX 96 55 47 56 99 57 93 58 92 59 48 61 80 62 60 63 79 64 61 65
REMARK SMILES IDX 64 66 78 67 97 68 62 69 63 70 77 72 98 73 65 74 49 75 50 76
REMARK SMILES IDX 58 77 51 78 57 79 59 80 56 81 52 82 53 83 54 84 55 85 81 86
REMARK SMILES IDX 82 87 90 88 83 89 89 90 91 91 88 92 84 93 85 94 86 95 87 96
REMARK SMILES IDX 66 97 67 98 75 99 68 100 74 101 76 102 73 103 69 104 70 105
REMARK SMILES IDX 71 106 72 107
REMARK H PARENT 33 4 3 9 37 41 96 60 64 71
REMARK Flexibility Score: inf
ROOT
ATOM      1  C   UNL A   1      45.138  42.251  32.900  1.00  0.00     0.242 C 
ATOM      2  O   UNL A   1      45.576  42.784  33.948  1.00  0.00    -0.273 OA
ATOM      3  N   UNL A   1      45.081  40.881  33.079  1.00  0.00    -0.354 N 
ATOM      4  H   UNL A   1      45.685  40.733  33.843  1.00  0.00     0.163 HD
ENDROOT
BRANCH   1   5
ATOM      5  C   UNL A   1      44.750  43.398  31.717  1.00  0.00     0.168 C 
ATOM      6  C   UNL A   1      43.849  44.664  31.623  1.00  0.00     0.041 C 
BRANCH   5   7
ATOM      7  N   UNL A   1      45.882  43.674  30.876  1.00  0.00    -0.345 N 
ATOM      8  C   UNL A   1      46.263  42.817  29.907  1.00  0.00     0.220 C 
ATOM      9  H   UNL A   1      46.390  44.506  31.010  1.00  0.00     0.164 HD
ATOM     10  O   UNL A   1      47.302  43.015  29.270  1.00  0.00    -0.275 OA
BRANCH   8  11
ATOM     11  C   UNL A   1      45.266  41.734  29.578  1.00  0.00     0.102 C 
BRANCH  11  12
ATOM     12  C   UNL A   1      44.516  41.781  28.159  1.00  0.00     0.032 C 
BRANCH  12  13
ATOM     13  C   UNL A   1      44.881  41.874  26.457  1.00  0.00     0.128 C 
BRANCH  13  14
ATOM     14  N   UNL A   1      44.513  42.810  25.192  1.00  0.00    -0.293 N 
ATOM     15  C   UNL A   1      43.510  42.732  24.209  1.00  0.00     0.266 C 
ATOM     16  C   UNL A   1      44.894  44.156  25.190  1.00  0.00     0.148 C 
ATOM     17  O   UNL A   1      42.364  42.310  24.314  1.00  0.00    -0.268 OA
ATOM     18  C   UNL A   1      43.908  43.504  22.962  1.00  0.00     0.081 C 
ATOM     19  S   UNL A   1      44.631  44.920  23.593  1.00  0.00    -0.054 SA
ATOM     20  S   UNL A   1      45.536  45.056  26.442  1.00  0.00    -0.052 S 
ATOM     21  C   UNL A   1      43.736  43.095  21.677  1.00  0.00     0.030 C 
BRANCH  21  22
ATOM     22  C   UNL A   1      44.089  43.721  20.328  1.00  0.00    -0.009 A 
ATOM     23  C   UNL A   1      45.450  43.926  19.927  1.00  0.00    -0.010 A 
ATOM     24  C   UNL A   1      43.040  44.089  19.390  1.00  0.00    -0.010 A 
ATOM     25  C   UNL A   1      46.570  43.333  20.552  1.00  0.00     0.009 A 
ATOM     26  C   UNL A   1      45.733  44.743  18.801  1.00  0.00    -0.017 A 
ATOM     27  C   UNL A   1      43.375  44.860  18.239  1.00  0.00    -0.017 A 
ATOM     28  C   UNL A   1      41.667  43.729  19.487  1.00  0.00     0.009 A 
ATOM     29  C   UNL A   1      47.885  43.651  20.199  1.00  0.00     0.001 A 
ATOM     30  C   UNL A   1      47.057  45.071  18.458  1.00  0.00     0.009 A 
ATOM     31  C   UNL A   1      44.698  45.219  17.999  1.00  0.00     0.017 A 
ATOM     32  C   UNL A   1      42.400  45.273  17.309  1.00  0.00     0.009 A 
ATOM     33  C   UNL A   1      40.709  44.112  18.531  1.00  0.00     0.001 A 
ATOM     34  C   UNL A   1      48.128  44.548  19.172  1.00  0.00     0.001 A 
ATOM     35  C   UNL A   1      41.071  44.900  17.450  1.00  0.00     0.001 A 
ENDBRANCH  21  22
ENDBRANCH  13  14
ENDBRANCH  12  13
ENDBRANCH  11  12
ENDBRANCH   8  11
ENDBRANCH   5   7
ENDBRANCH   1   5
BRANCH   3  36
ATOM     36  C   UNL A   1      44.589  39.443  32.741  1.00  0.00     0.117 C 
BRANCH  36  37
ATOM     37  C   UNL A   1      45.345  38.156  33.187  1.00  0.00     0.042 C 
BRANCH  37  38
ATOM     38  C   UNL A   1      45.391  36.964  32.234  1.00  0.00     0.118 C 
BRANCH  38  39
ATOM     39  N   UNL A   1      46.565  36.960  31.381  1.00  0.00    -0.352 N 
ATOM     40  C   UNL A   1      47.173  35.957  30.667  1.00  0.00     0.251 C 
ATOM     41  H   UNL A   1      47.007  37.836  31.301  1.00  0.00     0.163 HD
ATOM     42  O   UNL A   1      48.357  36.094  30.366  1.00  0.00    -0.269 OA
BRANCH  40  43
ATOM     43  C   UNL A   1      46.431  34.745  30.245  1.00  0.00     0.039 A 
ATOM     44  C   UNL A   1      46.426  33.615  31.071  1.00  0.00     0.014 A 
ATOM     45  C   UNL A   1      45.804  34.682  29.002  1.00  0.00     0.014 A 
ATOM     46  C   UNL A   1      45.770  32.453  30.655  1.00  0.00     0.010 A 
ATOM     47  C   UNL A   1      45.008  33.596  28.672  1.00  0.00     0.010 A 
ATOM     48  C   UNL A   1      45.027  32.446  29.463  1.00  0.00    -0.014 A 
BRANCH  48  49
ATOM     49  C   UNL A   1      44.313  31.233  28.992  1.00  0.00     0.031 A 
ATOM     50  C   UNL A   1      45.015  30.248  28.087  1.00  0.00     0.074 A 
ATOM     51  C   UNL A   1      43.025  31.052  29.345  1.00  0.00     0.049 A 
ATOM     52  N   UNL A   1      44.558  29.145  27.551  1.00  0.00    -0.248 NA
ATOM     53  C   UNL A   1      46.395  30.569  27.685  1.00  0.00     0.031 C 
ATOM     54  C   UNL A   1      42.232  31.986  30.150  1.00  0.00     0.029 A 
ATOM     55  N   UNL A   1      42.159  30.023  29.090  1.00  0.00    -0.354 N 
ATOM     56  C   UNL A   1      45.584  28.662  26.744  1.00  0.00     0.074 A 
ATOM     57  C   UNL A   1      46.643  29.643  26.776  1.00  0.00     0.031 C 
ATOM     58  C   UNL A   1      41.024  31.453  30.384  1.00  0.00     0.029 A 
ATOM     59  C   UNL A   1      40.934  30.170  29.699  1.00  0.00     0.049 A 
ATOM     60  H   UNL A   1      42.390  29.251  28.523  1.00  0.00     0.167 HD
ATOM     61  C   UNL A   1      45.658  27.486  26.074  1.00  0.00     0.034 A 
ATOM     62  C   UNL A   1      39.864  29.353  29.708  1.00  0.00     0.034 A 
ATOM     63  C   UNL A   1      44.592  26.517  26.082  1.00  0.00     0.049 A 
ATOM     64  C   UNL A   1      39.970  28.046  28.965  1.00  0.00     0.074 A 
ATOM     65  C   UNL A   1      44.555  25.268  25.491  1.00  0.00     0.029 A 
ATOM     66  N   UNL A   1      43.366  26.696  26.716  1.00  0.00    -0.354 N 
ATOM     67  N   UNL A   1      40.975  27.572  28.262  1.00  0.00    -0.248 NA
ATOM     68  C   UNL A   1      38.808  27.156  29.038  1.00  0.00     0.031 C 
ATOM     69  C   UNL A   1      43.280  24.728  25.697  1.00  0.00     0.029 A 
ATOM     70  C   UNL A   1      42.555  25.593  26.502  1.00  0.00     0.049 A 
ATOM     71  H   UNL A   1      43.113  27.490  27.239  1.00  0.00     0.167 HD
ATOM     72  C   UNL A   1      40.575  26.310  27.834  1.00  0.00     0.074 A 
ATOM     73  C   UNL A   1      39.253  26.092  28.389  1.00  0.00     0.031 C 
ATOM     74  C   UNL A   1      41.233  25.411  27.054  1.00  0.00     0.034 A 
BRANCH  61  75
ATOM     75  C   UNL A   1      46.914  27.207  25.279  1.00  0.00     0.023 A 
ATOM     76  C   UNL A   1      47.124  27.759  24.001  1.00  0.00     0.031 A 
ATOM     77  C   UNL A   1      47.902  26.346  25.787  1.00  0.00     0.131 A 
ATOM     78  C   UNL A   1      48.245  27.382  23.246  1.00  0.00     0.055 A 
ATOM     79  C   UNL A   1      49.062  26.047  25.068  1.00  0.00     0.041 A 
ATOM     80  F   UNL A   1      47.751  25.761  26.986  1.00  0.00    -0.206 F 
ATOM     81  C   UNL A   1      49.232  26.553  23.782  1.00  0.00     0.022 A 
BRANCH  78  82
ATOM     82  S   UNL A   1      48.312  27.857  21.495  1.00  0.00     0.124 S 
ATOM     83  O   UNL A   1      46.959  28.361  21.274  1.00  0.00    -0.237 OA
ATOM     84  O   UNL A   1      49.375  28.855  21.480  1.00  0.00    -0.237 OA
ATOM     85  O   UNL A   1      48.622  26.603  20.811  1.00  0.00    -0.744 OA
ENDBRANCH  78  82
ENDBRANCH  61  75
BRANCH  62  86
ATOM     86  C   UNL A   1      38.627  29.730  30.450  1.00  0.00     0.023 A 
ATOM     87  C   UNL A   1      37.648  30.549  29.862  1.00  0.00     0.031 A 
ATOM     88  C   UNL A   1      38.416  29.304  31.774  1.00  0.00     0.131 A 
ATOM     89  C   UNL A   1      36.537  30.961  30.613  1.00  0.00     0.055 A 
ATOM     90  C   UNL A   1      37.276  29.662  32.494  1.00  0.00     0.041 A 
ATOM     91  F   UNL A   1      39.314  28.514  32.384  1.00  0.00    -0.206 F 
ATOM     92  C   UNL A   1      36.335  30.511  31.919  1.00  0.00     0.022 A 
BRANCH  89  93
ATOM     93  S   UNL A   1      35.408  32.185  29.891  1.00  0.00     0.124 S 
ATOM     94  O   UNL A   1      34.810  31.429  28.798  1.00  0.00    -0.237 OA
ATOM     95  O   UNL A   1      34.532  32.490  31.017  1.00  0.00    -0.237 OA
ATOM     96  O   UNL A   1      36.299  33.271  29.486  1.00  0.00    -0.744 OA
ENDBRANCH  89  93
ENDBRANCH  62  86
BRANCH  74  97
ATOM     97  C   UNL A   1      40.532  24.098  26.801  1.00  0.00     0.023 A 
ATOM     98  C   UNL A   1      39.342  24.030  26.057  1.00  0.00     0.031 A 
ATOM     99  C   UNL A   1      41.034  22.910  27.359  1.00  0.00     0.131 A 
ATOM    100  C   UNL A   1      38.638  22.821  25.982  1.00  0.00     0.055 A 
ATOM    101  C   UNL A   1      40.377  21.690  27.198  1.00  0.00     0.041 A 
ATOM    102  F   UNL A   1      42.166  22.914  28.081  1.00  0.00    -0.206 F 
ATOM    103  C   UNL A   1      39.158  21.645  26.528  1.00  0.00     0.022 A 
BRANCH 100 104
ATOM    104  S   UNL A   1      36.954  22.847  25.312  1.00  0.00     0.124 S 
ATOM    105  O   UNL A   1      37.184  22.523  23.908  1.00  0.00    -0.237 OA
ATOM    106  O   UNL A   1      36.287  21.818  26.102  1.00  0.00    -0.237 OA
ATOM    107  O   UNL A   1      36.506  24.215  25.568  1.00  0.00    -0.744 OA
ENDBRANCH 100 104
ENDBRANCH  74  97
ENDBRANCH  48  49
ENDBRANCH  40  43
ENDBRANCH  38  39
ENDBRANCH  37  38
ENDBRANCH  36  37
ENDBRANCH   3  36
TORSDOF 19
ENDMDL
MODEL 3
REMARK VINA RESULT:     -11.3      2.374      7.892
REMARK SMILES C[C@@H](NC(=O)CCCN1C(=O)/C(=C/c2c3ccccc3cc3ccccc23)SC1=S)C(=O)NCCCNC(=O)c1ccc(-c2c3nc(c(-c4cc(S(=O)(=O)[O-])ccc4F)c4ccc([nH]4)c(-c4cc(S(=O)(=O)[O-])ccc4F)c4nc(c(-c5cc(S(=O)(=O)[O-])ccc5F)c5ccc2[nH]5)C=C4)C=C3)cc1
REMARK SMILES IDX 31 1 32 2 33 3 2 5 1 6 3 7 4 8 5 10 6 11 7 12 8 13 9 14
REMARK SMILES IDX 10 15 29 16 11 17 12 18 28 19 30 20 13 21 14 22 15 23 27 24
REMARK SMILES IDX 16 25 20 26 22 27 26 28 17 29 19 30 21 31 23 32 25 33 18 34
REMARK SMILES IDX 24 35 34 36 35 37 36 38 37 39 38 40 39 42 40 43 41 44 102 45
REMARK SMILES IDX 42 46 101 47 43 48 44 49 45 50 95 51 46 52 100 53 94 54
REMARK SMILES IDX 96 55 47 56 99 57 93 58 92 59 48 61 80 62 60 63 79 64 61 65
REMARK SMILES IDX 64 66 78 67 97 68 62 69 63 70 77 72 98 73 65 74 49 75 50 76
REMARK SMILES IDX 58 77 51 78 57 79 59 80 56 81 52 82 53 83 54 84 55 85 81 86
REMARK SMILES IDX 82 87 90 88 83 89 89 90 91 91 88 92 84 93 85 94 86 95 87 96
REMARK SMILES IDX 66 97 67 98 75 99 68 100 74 101 76 102 73 103 69 104 70 105
REMARK SMILES IDX 71 106 72 107
REMARK H PARENT 33 4 3 9 37 41 96 60 64 71
REMARK Flexibility Score: inf
ROOT
ATOM      1  C   UNL A   1      45.582  42.708  29.815  1.00  0.00     0.242 C 
ATOM      2  O   UNL A   1      45.181  43.747  30.392  1.00  0.00    -0.273 OA
ATOM      3  N   UNL A   1      44.649  41.702  29.992  1.00  0.00    -0.354 N 
ATOM      4  H   UNL A   1      44.126  42.020  30.764  1.00  0.00     0.163 HD
ENDROOT
BRANCH   1   5
ATOM      5  C   UNL A   1      47.056  42.951  29.019  1.00  0.00     0.168 C 
ATOM      6  C   UNL A   1      48.476  43.462  29.400  1.00  0.00     0.041 C 
BRANCH   5   7
ATOM      7  N   UNL A   1      47.271  41.945  28.015  1.00  0.00    -0.345 N 
ATOM      8  C   UNL A   1      46.794  42.090  26.762  1.00  0.00     0.220 C 
ATOM      9  H   UNL A   1      47.777  41.134  28.247  1.00  0.00     0.164 HD
ATOM     10  O   UNL A   1      46.890  41.169  25.946  1.00  0.00    -0.275 OA
BRANCH   8  11
ATOM     11  C   UNL A   1      46.301  43.473  26.417  1.00  0.00     0.102 C 
BRANCH  11  12
ATOM     12  C   UNL A   1      45.985  43.819  24.881  1.00  0.00     0.032 C 
BRANCH  12  13
ATOM     13  C   UNL A   1      46.747  43.761  23.314  1.00  0.00     0.128 C 
BRANCH  13  14
ATOM     14  N   UNL A   1      46.738  44.601  21.934  1.00  0.00    -0.293 N 
ATOM     15  C   UNL A   1      46.801  45.978  21.657  1.00  0.00     0.266 C 
ATOM     16  C   UNL A   1      47.154  43.991  20.747  1.00  0.00     0.148 C 
ATOM     17  O   UNL A   1      47.405  46.856  22.264  1.00  0.00    -0.268 OA
ATOM     18  C   UNL A   1      46.217  46.287  20.288  1.00  0.00     0.081 C 
ATOM     19  S   UNL A   1      46.803  45.007  19.316  1.00  0.00    -0.054 SA
ATOM     20  S   UNL A   1      47.890  42.504  20.546  1.00  0.00    -0.052 S 
ATOM     21  C   UNL A   1      45.399  47.328  19.982  1.00  0.00     0.030 C 
BRANCH  21  22
ATOM     22  C   UNL A   1      44.714  47.770  18.689  1.00  0.00    -0.009 A 
ATOM     23  C   UNL A   1      45.078  48.986  18.022  1.00  0.00    -0.010 A 
ATOM     24  C   UNL A   1      43.694  46.936  18.074  1.00  0.00    -0.010 A 
ATOM     25  C   UNL A   1      46.252  49.728  18.289  1.00  0.00     0.009 A 
ATOM     26  C   UNL A   1      44.251  49.493  16.987  1.00  0.00    -0.017 A 
ATOM     27  C   UNL A   1      42.924  47.461  16.995  1.00  0.00    -0.017 A 
ATOM     28  C   UNL A   1      43.385  45.593  18.428  1.00  0.00     0.009 A 
ATOM     29  C   UNL A   1      46.509  50.967  17.695  1.00  0.00     0.001 A 
ATOM     30  C   UNL A   1      44.506  50.745  16.402  1.00  0.00     0.009 A 
ATOM     31  C   UNL A   1      43.176  48.742  16.514  1.00  0.00     0.017 A 
ATOM     32  C   UNL A   1      41.901  46.714  16.377  1.00  0.00     0.009 A 
ATOM     33  C   UNL A   1      42.390  44.842  17.777  1.00  0.00     0.001 A 
ATOM     34  C   UNL A   1      45.617  51.492  16.775  1.00  0.00     0.001 A 
ATOM     35  C   UNL A   1      41.634  45.408  16.763  1.00  0.00     0.001 A 
ENDBRANCH  21  22
ENDBRANCH  13  14
ENDBRANCH  12  13
ENDBRANCH  11  12
ENDBRANCH   8  11
ENDBRANCH   5   7
ENDBRANCH   1   5
BRANCH   3  36
ATOM     36  C   UNL A   1      43.967  40.345  29.647  1.00  0.00     0.117 C 
BRANCH  36  37
ATOM     37  C   UNL A   1      43.689  39.236  30.705  1.00  0.00     0.042 C 
BRANCH  37  38
ATOM     38  C   UNL A   1      44.325  37.861  30.511  1.00  0.00     0.118 C 
BRANCH  38  39
ATOM     39  N   UNL A   1      45.435  37.873  29.577  1.00  0.00    -0.352 N 
ATOM     40  C   UNL A   1      46.165  36.856  29.013  1.00  0.00     0.251 C 
ATOM     41  H   UNL A   1      45.717  38.774  29.297  1.00  0.00     0.163 HD
ATOM     42  O   UNL A   1      47.291  37.115  28.591  1.00  0.00    -0.269 OA
BRANCH  40  43
ATOM     43  C   UNL A   1      45.620  35.484  28.890  1.00  0.00     0.039 A 
ATOM     44  C   UNL A   1      45.888  34.541  29.889  1.00  0.00     0.014 A 
ATOM     45  C   UNL A   1      44.909  35.091  27.756  1.00  0.00     0.014 A 
ATOM     46  C   UNL A   1      45.418  33.231  29.752  1.00  0.00     0.010 A 
ATOM     47  C   UNL A   1      44.295  33.849  27.708  1.00  0.00     0.010 A 
ATOM     48  C   UNL A   1      44.588  32.884  28.674  1.00  0.00    -0.014 A 
BRANCH  48  49
ATOM     49  C   UNL A   1      44.065  31.505  28.500  1.00  0.00     0.031 A 
ATOM     50  C   UNL A   1      42.733  31.122  29.100  1.00  0.00     0.074 A 
ATOM     51  C   UNL A   1      44.815  30.599  27.843  1.00  0.00     0.049 A 
ATOM     52  N   UNL A   1      42.118  29.967  29.080  1.00  0.00    -0.248 NA
ATOM     53  C   UNL A   1      42.021  32.155  29.873  1.00  0.00     0.031 C 
ATOM     54  C   UNL A   1      46.152  30.847  27.295  1.00  0.00     0.029 A 
ATOM     55  N   UNL A   1      44.563  29.295  27.511  1.00  0.00    -0.354 N 
ATOM     56  C   UNL A   1      40.968  30.137  29.846  1.00  0.00     0.074 A 
ATOM     57  C   UNL A   1      41.024  31.468  30.404  1.00  0.00     0.031 C 
ATOM     58  C   UNL A   1      46.567  29.759  26.632  1.00  0.00     0.029 A 
ATOM     59  C   UNL A   1      45.557  28.716  26.757  1.00  0.00     0.049 A 
ATOM     60  H   UNL A   1      43.747  28.816  27.786  1.00  0.00     0.167 HD
ATOM     61  C   UNL A   1      39.935  29.280  30.031  1.00  0.00     0.034 A 
ATOM     62  C   UNL A   1      45.636  27.483  26.221  1.00  0.00     0.034 A 
ATOM     63  C   UNL A   1      39.897  27.966  29.442  1.00  0.00     0.049 A 
ATOM     64  C   UNL A   1      44.473  26.549  26.430  1.00  0.00     0.074 A 
ATOM     65  C   UNL A   1      38.893  27.018  29.505  1.00  0.00     0.029 A 
ATOM     66  N   UNL A   1      40.920  27.414  28.677  1.00  0.00    -0.354 N 
ATOM     67  N   UNL A   1      43.360  26.749  27.101  1.00  0.00    -0.248 NA
ATOM     68  C   UNL A   1      44.566  25.234  25.790  1.00  0.00     0.031 C 
ATOM     69  C   UNL A   1      39.342  25.865  28.850  1.00  0.00     0.029 A 
ATOM     70  C   UNL A   1      40.584  26.127  28.291  1.00  0.00     0.049 A 
ATOM     71  H   UNL A   1      41.761  27.872  28.445  1.00  0.00     0.167 HD
ATOM     72  C   UNL A   1      42.606  25.591  26.937  1.00  0.00     0.074 A 
ATOM     73  C   UNL A   1      43.381  24.719  26.076  1.00  0.00     0.031 C 
ATOM     74  C   UNL A   1      41.386  25.272  27.447  1.00  0.00     0.034 A 
BRANCH  61  75
ATOM     75  C   UNL A   1      38.791  29.735  30.911  1.00  0.00     0.023 A 
ATOM     76  C   UNL A   1      37.731  30.514  30.408  1.00  0.00     0.031 A 
ATOM     77  C   UNL A   1      38.776  29.421  32.280  1.00  0.00     0.131 A 
ATOM     78  C   UNL A   1      36.752  31.018  31.278  1.00  0.00     0.055 A 
ATOM     79  C   UNL A   1      37.748  29.847  33.125  1.00  0.00     0.041 A 
ATOM     80  F   UNL A   1      39.771  28.708  32.830  1.00  0.00    -0.206 F 
ATOM     81  C   UNL A   1      36.735  30.665  32.629  1.00  0.00     0.022 A 
BRANCH  78  82
ATOM     82  S   UNL A   1      35.598  32.272  30.654  1.00  0.00     0.124 S 
ATOM     83  O   UNL A   1      36.436  33.468  30.649  1.00  0.00    -0.237 OA
ATOM     84  O   UNL A   1      35.233  31.742  29.346  1.00  0.00    -0.237 OA
ATOM     85  O   UNL A   1      34.526  32.275  31.648  1.00  0.00    -0.744 OA
ENDBRANCH  78  82
ENDBRANCH  61  75
BRANCH  62  86
ATOM     86  C   UNL A   1      46.832  27.074  25.430  1.00  0.00     0.023 A 
ATOM     87  C   UNL A   1      47.074  27.604  24.151  1.00  0.00     0.031 A 
ATOM     88  C   UNL A   1      47.740  26.120  25.926  1.00  0.00     0.131 A 
ATOM     89  C   UNL A   1      48.157  27.137  23.393  1.00  0.00     0.055 A 
ATOM     90  C   UNL A   1      48.854  25.709  25.195  1.00  0.00     0.041 A 
ATOM     91  F   UNL A   1      47.563  25.585  27.145  1.00  0.00    -0.206 F 
ATOM     92  C   UNL A   1      49.059  26.206  23.911  1.00  0.00     0.022 A 
BRANCH  89  93
ATOM     93  S   UNL A   1      48.313  27.688  21.671  1.00  0.00     0.124 S 
ATOM     94  O   UNL A   1      46.996  28.264  21.424  1.00  0.00    -0.237 OA
ATOM     95  O   UNL A   1      49.422  28.632  21.753  1.00  0.00    -0.237 OA
ATOM     96  O   UNL A   1      48.601  26.453  20.944  1.00  0.00    -0.744 OA
ENDBRANCH  89  93
ENDBRANCH  62  86
BRANCH  74  97
ATOM     97  C   UNL A   1      40.815  23.935  27.041  1.00  0.00     0.023 A 
ATOM     98  C   UNL A   1      41.563  22.751  27.152  1.00  0.00     0.031 A 
ATOM     99  C   UNL A   1      39.526  23.856  26.485  1.00  0.00     0.131 A 
ATOM    100  C   UNL A   1      41.059  21.558  26.617  1.00  0.00     0.055 A 
ATOM    101  C   UNL A   1      38.993  22.646  26.042  1.00  0.00     0.041 A 
ATOM    102  F   UNL A   1      38.766  24.954  26.353  1.00  0.00    -0.206 F 
ATOM    103  C   UNL A   1      39.770  21.492  26.083  1.00  0.00     0.022 A 
BRANCH 100 104
ATOM    104  S   UNL A   1      42.179  20.140  26.473  1.00  0.00     0.124 S 
ATOM    105  O   UNL A   1      42.186  19.622  27.837  1.00  0.00    -0.237 OA
ATOM    106  O   UNL A   1      41.506  19.310  25.480  1.00  0.00    -0.237 OA
ATOM    107  O   UNL A   1      43.436  20.741  26.030  1.00  0.00    -0.744 OA
ENDBRANCH 100 104
ENDBRANCH  74  97
ENDBRANCH  48  49
ENDBRANCH  40  43
ENDBRANCH  38  39
ENDBRANCH  37  38
ENDBRANCH  36  37
ENDBRANCH   3  36
TORSDOF 19
ENDMDL
