MODEL 1
REMARK VINA RESULT:     -12.3      0.000      0.000
REMARK SMILES Cc1cccc(OCC(=O)Nc2cc(C(=O)NCCCNC(=O)c3ccc(-c4c5nc(c(-c6cc(S(=O)(=O)[O-])ccc6F)c6ccc([nH]6)c(-c6cc(S(=O)(=O)[O-])ccc6F)c6nc(c(-c7cc(S(=O)(=O)[O-])ccc7F)c7ccc4[nH]7)C=C6)C=C5)cc3)c(Cl)cc2Cl)c1
REMARK SMILES IDX 18 1 17 2 15 3 16 4 14 6 12 7 13 8 90 9 89 10 91 11 87 12
REMARK SMILES IDX 88 13 11 14 9 15 10 16 8 18 7 19 6 20 1 21 2 22 3 23 92 24
REMARK SMILES IDX 4 25 5 26 19 27 20 28 21 29 22 30 23 32 24 33 25 34 86 35
REMARK SMILES IDX 26 36 85 37 27 38 28 39 29 40 79 41 30 42 84 43 78 44 80 45
REMARK SMILES IDX 31 46 83 47 77 48 76 49 32 51 64 52 44 53 63 54 45 55 48 56
REMARK SMILES IDX 62 57 81 58 46 59 47 60 61 62 82 63 49 64 33 65 34 66 42 67
REMARK SMILES IDX 35 68 41 69 43 70 40 71 36 72 37 73 38 74 39 75 65 76 66 77
REMARK SMILES IDX 74 78 67 79 73 80 75 81 72 82 68 83 69 84 70 85 71 86 50 87
REMARK SMILES IDX 51 88 59 89 52 90 58 91 60 92 57 93 53 94 54 95 55 96 56 97
REMARK H PARENT 17 5 11 17 21 31 80 50 48 61
REMARK Flexibility Score: inf
ROOT
ATOM      1  C   UNL A   1      32.172  30.444  26.907  1.00  0.00     0.118 C 
ENDROOT
BRANCH   1   2
ATOM      2  N   UNL A   1      31.639  30.290  25.567  1.00  0.00    -0.352 N 
ATOM      3  C   UNL A   1      31.461  29.172  24.791  1.00  0.00     0.252 C 
ATOM      4  O   UNL A   1      30.850  29.297  23.726  1.00  0.00    -0.269 OA
ATOM      5  H   UNL A   1      31.357  31.131  25.140  1.00  0.00     0.163 HD
BRANCH   3   6
ATOM      6  C   UNL A   1      32.001  27.832  25.173  1.00  0.00     0.060 A 
ATOM      7  C   UNL A   1      31.689  25.636  26.216  1.00  0.00     0.061 A 
ATOM      8  C   UNL A   1      31.157  26.824  25.708  1.00  0.00     0.043 A 
ATOM      9  C   UNL A   1      33.067  25.394  26.029  1.00  0.00     0.066 A 
ATOM     10  C   UNL A   1      33.889  26.320  25.394  1.00  0.00     0.044 A 
ATOM     11  Cl  UNL A   1      33.803  23.923  26.582  1.00  0.00    -0.082 Cl
ATOM     12  C   UNL A   1      33.370  27.551  24.995  1.00  0.00     0.055 A 
ATOM     13  Cl  UNL A   1      34.530  28.661  24.344  1.00  0.00    -0.083 Cl
BRANCH   7  14
ATOM     14  N   UNL A   1      30.989  24.687  26.991  1.00  0.00    -0.322 N 
ATOM     15  C   UNL A   1      30.500  23.428  26.841  1.00  0.00     0.262 C 
ATOM     16  O   UNL A   1      29.801  23.007  27.775  1.00  0.00    -0.271 OA
ATOM     17  H   UNL A   1      30.804  25.034  27.892  1.00  0.00     0.170 HD
BRANCH  15  18
ATOM     18  C   UNL A   1      30.846  22.507  25.678  1.00  0.00     0.329 C 
BRANCH  18  19
ATOM     19  O   UNL A   1      30.538  22.934  24.377  1.00  0.00    -0.484 OA
BRANCH  19  20
ATOM     20  C   UNL A   1      31.500  23.440  23.558  1.00  0.00     0.120 A 
ATOM     21  C   UNL A   1      32.739  26.193  21.238  1.00  0.00     0.044 C 
ATOM     22  C   UNL A   1      32.691  24.991  22.127  1.00  0.00    -0.047 A 
ATOM     23  C   UNL A   1      33.847  24.211  22.211  1.00  0.00     0.003 A 
ATOM     24  C   UNL A   1      31.522  24.618  22.827  1.00  0.00     0.049 A 
ATOM     25  C   UNL A   1      33.802  23.015  22.888  1.00  0.00     0.004 A 
ATOM     26  C   UNL A   1      32.616  22.621  23.492  1.00  0.00     0.046 A 
ENDBRANCH  19  20
ENDBRANCH  18  19
ENDBRANCH  15  18
ENDBRANCH   7  14
ENDBRANCH   3   6
ENDBRANCH   1   2
BRANCH   1  27
ATOM     27  C   UNL A   1      33.557  31.066  26.960  1.00  0.00     0.042 C 
BRANCH  27  28
ATOM     28  C   UNL A   1      33.789  32.034  28.123  1.00  0.00     0.118 C 
BRANCH  28  29
ATOM     29  N   UNL A   1      35.205  32.287  28.455  1.00  0.00    -0.352 N 
ATOM     30  C   UNL A   1      36.364  31.531  28.588  1.00  0.00     0.251 C 
ATOM     31  H   UNL A   1      35.373  33.242  28.626  1.00  0.00     0.163 HD
ATOM     32  O   UNL A   1      37.385  32.025  29.066  1.00  0.00    -0.269 OA
BRANCH  30  33
ATOM     33  C   UNL A   1      36.504  30.148  28.053  1.00  0.00     0.039 A 
ATOM     34  C   UNL A   1      36.361  29.224  29.104  1.00  0.00     0.014 A 
ATOM     35  C   UNL A   1      37.469  29.953  27.090  1.00  0.00     0.014 A 
ATOM     36  C   UNL A   1      37.510  28.626  29.576  1.00  0.00     0.010 A 
ATOM     37  C   UNL A   1      38.630  29.407  27.570  1.00  0.00     0.010 A 
ATOM     38  C   UNL A   1      38.670  28.898  28.880  1.00  0.00    -0.014 A 
BRANCH  38  39
ATOM     39  C   UNL A   1      40.004  28.738  29.406  1.00  0.00     0.031 A 
ATOM     40  C   UNL A   1      40.736  27.575  28.899  1.00  0.00     0.074 A 
ATOM     41  C   UNL A   1      40.583  29.737  30.114  1.00  0.00     0.049 A 
ATOM     42  N   UNL A   1      41.852  27.168  29.364  1.00  0.00    -0.248 NA
ATOM     43  C   UNL A   1      40.228  26.731  27.816  1.00  0.00     0.031 C 
ATOM     44  C   UNL A   1      42.007  29.944  30.372  1.00  0.00     0.029 A 
ATOM     45  N   UNL A   1      39.955  30.668  30.944  1.00  0.00    -0.354 N 
ATOM     46  C   UNL A   1      42.361  26.254  28.474  1.00  0.00     0.074 A 
ATOM     47  C   UNL A   1      41.281  25.952  27.577  1.00  0.00     0.031 C 
ATOM     48  C   UNL A   1      42.152  30.715  31.464  1.00  0.00     0.029 A 
ATOM     49  C   UNL A   1      40.830  30.905  32.029  1.00  0.00     0.049 A 
ATOM     50  H   UNL A   1      39.072  31.081  30.801  1.00  0.00     0.167 HD
ATOM     51  C   UNL A   1      43.690  25.990  28.554  1.00  0.00     0.034 A 
ATOM     52  C   UNL A   1      40.465  30.540  33.296  1.00  0.00     0.034 A 
ATOM     53  C   UNL A   1      44.241  26.607  29.764  1.00  0.00     0.049 A 
ATOM     54  C   UNL A   1      41.326  29.416  33.842  1.00  0.00     0.074 A 
ATOM     55  C   UNL A   1      44.962  27.763  30.008  1.00  0.00     0.029 A 
ATOM     56  N   UNL A   1      43.736  26.191  30.989  1.00  0.00    -0.354 N 
ATOM     57  N   UNL A   1      42.062  28.633  33.098  1.00  0.00    -0.248 NA
ATOM     58  C   UNL A   1      41.467  29.114  35.262  1.00  0.00     0.031 C 
ATOM     59  C   UNL A   1      44.821  28.075  31.391  1.00  0.00     0.029 A 
ATOM     60  C   UNL A   1      44.050  27.089  31.986  1.00  0.00     0.049 A 
ATOM     61  H   UNL A   1      43.222  25.364  31.128  1.00  0.00     0.167 HD
ATOM     62  C   UNL A   1      42.766  27.756  33.886  1.00  0.00     0.074 A 
ATOM     63  C   UNL A   1      42.357  28.103  35.236  1.00  0.00     0.031 C 
ATOM     64  C   UNL A   1      43.623  26.827  33.353  1.00  0.00     0.034 A 
BRANCH  51  65
ATOM     65  C   UNL A   1      44.546  25.388  27.473  1.00  0.00     0.023 A 
ATOM     66  C   UNL A   1      43.992  24.322  26.737  1.00  0.00     0.031 A 
ATOM     67  C   UNL A   1      45.875  25.717  27.141  1.00  0.00     0.131 A 
ATOM     68  C   UNL A   1      44.739  23.616  25.783  1.00  0.00     0.055 A 
ATOM     69  C   UNL A   1      46.625  25.010  26.192  1.00  0.00     0.041 A 
ATOM     70  F   UNL A   1      46.528  26.743  27.693  1.00  0.00    -0.206 F 
ATOM     71  C   UNL A   1      46.060  23.949  25.508  1.00  0.00     0.022 A 
BRANCH  68  72
ATOM     72  S   UNL A   1      43.945  22.241  24.917  1.00  0.00     0.124 S 
ATOM     73  O   UNL A   1      44.343  22.483  23.534  1.00  0.00    -0.237 OA
ATOM     74  O   UNL A   1      44.539  21.080  25.568  1.00  0.00    -0.237 OA
ATOM     75  O   UNL A   1      42.525  22.445  25.196  1.00  0.00    -0.744 OA
ENDBRANCH  68  72
ENDBRANCH  51  65
BRANCH  52  76
ATOM     76  C   UNL A   1      39.005  30.778  33.527  1.00  0.00     0.023 A 
ATOM     77  C   UNL A   1      38.630  32.132  33.695  1.00  0.00     0.031 A 
ATOM     78  C   UNL A   1      38.036  29.888  33.043  1.00  0.00     0.131 A 
ATOM     79  C   UNL A   1      37.429  32.599  33.138  1.00  0.00     0.055 A 
ATOM     80  C   UNL A   1      36.793  30.351  32.584  1.00  0.00     0.041 A 
ATOM     81  F   UNL A   1      38.335  28.594  32.845  1.00  0.00    -0.206 F 
ATOM     82  C   UNL A   1      36.509  31.719  32.571  1.00  0.00     0.022 A 
BRANCH  79  83
ATOM     83  S   UNL A   1      37.241  34.394  32.922  1.00  0.00     0.124 S 
ATOM     84  O   UNL A   1      37.737  34.598  31.566  1.00  0.00    -0.237 OA
ATOM     85  O   UNL A   1      35.799  34.566  33.114  1.00  0.00    -0.237 OA
ATOM     86  O   UNL A   1      38.069  34.970  33.975  1.00  0.00    -0.744 OA
ENDBRANCH  79  83
ENDBRANCH  52  76
BRANCH  64  87
ATOM     87  C   UNL A   1      44.197  25.608  34.060  1.00  0.00     0.023 A 
ATOM     88  C   UNL A   1      45.568  25.368  34.192  1.00  0.00     0.031 A 
ATOM     89  C   UNL A   1      43.359  24.663  34.719  1.00  0.00     0.131 A 
ATOM     90  C   UNL A   1      46.053  24.226  34.856  1.00  0.00     0.055 A 
ATOM     91  C   UNL A   1      43.845  23.587  35.466  1.00  0.00     0.041 A 
ATOM     92  F   UNL A   1      42.022  24.739  34.681  1.00  0.00    -0.206 F 
ATOM     93  C   UNL A   1      45.205  23.349  35.522  1.00  0.00     0.022 A 
BRANCH  90  94
ATOM     94  S   UNL A   1      47.823  23.871  34.739  1.00  0.00     0.124 S 
ATOM     95  O   UNL A   1      47.830  22.413  34.650  1.00  0.00    -0.237 OA
ATOM     96  O   UNL A   1      48.204  24.580  33.522  1.00  0.00    -0.237 OA
ATOM     97  O   UNL A   1      48.367  24.419  35.978  1.00  0.00    -0.744 OA
ENDBRANCH  90  94
ENDBRANCH  64  87
ENDBRANCH  38  39
ENDBRANCH  30  33
ENDBRANCH  28  29
ENDBRANCH  27  28
ENDBRANCH   1  27
TORSDOF 17
ENDMDL
MODEL 2
REMARK VINA RESULT:     -12.3      4.017      9.932
REMARK SMILES Cc1cccc(OCC(=O)Nc2cc(C(=O)NCCCNC(=O)c3ccc(-c4c5nc(c(-c6cc(S(=O)(=O)[O-])ccc6F)c6ccc([nH]6)c(-c6cc(S(=O)(=O)[O-])ccc6F)c6nc(c(-c7cc(S(=O)(=O)[O-])ccc7F)c7ccc4[nH]7)C=C6)C=C5)cc3)c(Cl)cc2Cl)c1
REMARK SMILES IDX 18 1 17 2 15 3 16 4 14 6 12 7 13 8 90 9 89 10 91 11 87 12
REMARK SMILES IDX 88 13 11 14 9 15 10 16 8 18 7 19 6 20 1 21 2 22 3 23 92 24
REMARK SMILES IDX 4 25 5 26 19 27 20 28 21 29 22 30 23 32 24 33 25 34 86 35
REMARK SMILES IDX 26 36 85 37 27 38 28 39 29 40 79 41 30 42 84 43 78 44 80 45
REMARK SMILES IDX 31 46 83 47 77 48 76 49 32 51 64 52 44 53 63 54 45 55 48 56
REMARK SMILES IDX 62 57 81 58 46 59 47 60 61 62 82 63 49 64 33 65 34 66 42 67
REMARK SMILES IDX 35 68 41 69 43 70 40 71 36 72 37 73 38 74 39 75 65 76 66 77
REMARK SMILES IDX 74 78 67 79 73 80 75 81 72 82 68 83 69 84 70 85 71 86 50 87
REMARK SMILES IDX 51 88 59 89 52 90 58 91 60 92 57 93 53 94 54 95 55 96 56 97
REMARK H PARENT 17 5 11 17 21 31 80 50 48 61
REMARK Flexibility Score: inf
ROOT
ATOM      1  C   UNL A   1      38.176  22.670  26.041  1.00  0.00     0.118 C 
ENDROOT
BRANCH   1   2
ATOM      2  N   UNL A   1      37.861  22.573  24.628  1.00  0.00    -0.352 N 
ATOM      3  C   UNL A   1      36.727  22.908  23.933  1.00  0.00     0.252 C 
ATOM      4  O   UNL A   1      36.766  22.856  22.700  1.00  0.00    -0.269 OA
ATOM      5  H   UNL A   1      38.585  22.202  24.073  1.00  0.00     0.163 HD
BRANCH   3   6
ATOM      6  C   UNL A   1      35.453  23.301  24.609  1.00  0.00     0.060 A 
ATOM      7  C   UNL A   1      33.962  25.039  25.482  1.00  0.00     0.061 A 
ATOM      8  C   UNL A   1      35.062  24.662  24.709  1.00  0.00     0.043 A 
ATOM      9  C   UNL A   1      33.150  24.018  26.021  1.00  0.00     0.066 A 
ATOM     10  C   UNL A   1      33.449  22.673  25.829  1.00  0.00     0.044 A 
ATOM     11  Cl  UNL A   1      31.734  24.394  26.951  1.00  0.00    -0.082 Cl
ATOM     12  C   UNL A   1      34.615  22.310  25.154  1.00  0.00     0.055 A 
ATOM     13  Cl  UNL A   1      34.935  20.608  25.106  1.00  0.00    -0.083 Cl
BRANCH   7  14
ATOM     14  N   UNL A   1      33.634  26.359  25.857  1.00  0.00    -0.322 N 
ATOM     15  C   UNL A   1      33.087  27.463  25.284  1.00  0.00     0.262 C 
ATOM     16  O   UNL A   1      33.112  28.495  25.971  1.00  0.00    -0.271 OA
ATOM     17  H   UNL A   1      33.866  26.527  26.799  1.00  0.00     0.170 HD
BRANCH  15  18
ATOM     18  C   UNL A   1      32.375  27.465  23.938  1.00  0.00     0.329 C 
BRANCH  18  19
ATOM     19  O   UNL A   1      31.004  27.162  23.909  1.00  0.00    -0.484 OA
BRANCH  19  20
ATOM     20  C   UNL A   1      30.074  28.139  23.728  1.00  0.00     0.120 A 
ATOM     21  C   UNL A   1      29.141  31.830  23.672  1.00  0.00     0.044 C 
ATOM     22  C   UNL A   1      29.105  30.347  23.483  1.00  0.00    -0.047 A 
ATOM     23  C   UNL A   1      27.923  29.794  22.985  1.00  0.00     0.003 A 
ATOM     24  C   UNL A   1      30.195  29.517  23.829  1.00  0.00     0.049 A 
ATOM     25  C   UNL A   1      27.788  28.426  22.944  1.00  0.00     0.004 A 
ATOM     26  C   UNL A   1      28.837  27.626  23.375  1.00  0.00     0.046 A 
ENDBRANCH  19  20
ENDBRANCH  18  19
ENDBRANCH  15  18
ENDBRANCH   7  14
ENDBRANCH   3   6
ENDBRANCH   1   2
BRANCH   1  27
ATOM     27  C   UNL A   1      39.330  21.788  26.485  1.00  0.00     0.042 C 
BRANCH  27  28
ATOM     28  C   UNL A   1      40.724  22.365  26.224  1.00  0.00     0.118 C 
BRANCH  28  29
ATOM     29  N   UNL A   1      41.216  23.305  27.251  1.00  0.00    -0.352 N 
ATOM     30  C   UNL A   1      41.061  24.655  27.544  1.00  0.00     0.251 C 
ATOM     31  H   UNL A   1      41.808  22.860  27.898  1.00  0.00     0.163 HD
ATOM     32  O   UNL A   1      41.768  25.200  28.391  1.00  0.00    -0.269 OA
BRANCH  30  33
ATOM     33  C   UNL A   1      39.969  25.495  26.976  1.00  0.00     0.039 A 
ATOM     34  C   UNL A   1      40.523  26.472  26.129  1.00  0.00     0.014 A 
ATOM     35  C   UNL A   1      38.937  25.825  27.827  1.00  0.00     0.014 A 
ATOM     36  C   UNL A   1      40.589  27.761  26.614  1.00  0.00     0.010 A 
ATOM     37  C   UNL A   1      39.031  27.087  28.349  1.00  0.00     0.010 A 
ATOM     38  C   UNL A   1      39.982  27.986  27.833  1.00  0.00    -0.014 A 
BRANCH  38  39
ATOM     39  C   UNL A   1      40.269  29.100  28.704  1.00  0.00     0.031 A 
ATOM     40  C   UNL A   1      39.231  30.131  28.756  1.00  0.00     0.074 A 
ATOM     41  C   UNL A   1      41.308  29.037  29.572  1.00  0.00     0.049 A 
ATOM     42  N   UNL A   1      39.369  31.263  29.328  1.00  0.00    -0.248 NA
ATOM     43  C   UNL A   1      37.926  29.973  28.112  1.00  0.00     0.031 C 
ATOM     44  C   UNL A   1      41.518  29.838  30.777  1.00  0.00     0.029 A 
ATOM     45  N   UNL A   1      42.518  28.361  29.405  1.00  0.00    -0.354 N 
ATOM     46  C   UNL A   1      38.122  31.832  29.422  1.00  0.00     0.074 A 
ATOM     47  C   UNL A   1      37.275  31.038  28.578  1.00  0.00     0.031 C 
ATOM     48  C   UNL A   1      42.827  29.837  31.086  1.00  0.00     0.029 A 
ATOM     49  C   UNL A   1      43.519  29.158  30.008  1.00  0.00     0.049 A 
ATOM     50  H   UNL A   1      42.650  27.494  28.955  1.00  0.00     0.167 HD
ATOM     51  C   UNL A   1      37.968  32.832  30.326  1.00  0.00     0.034 A 
ATOM     52  C   UNL A   1      44.502  29.718  29.240  1.00  0.00     0.034 A 
ATOM     53  C   UNL A   1      39.278  33.226  30.852  1.00  0.00     0.049 A 
ATOM     54  C   UNL A   1      44.405  31.231  29.192  1.00  0.00     0.074 A 
ATOM     55  C   UNL A   1      39.965  32.947  32.020  1.00  0.00     0.029 A 
ATOM     56  N   UNL A   1      40.213  33.721  29.953  1.00  0.00    -0.354 N 
ATOM     57  N   UNL A   1      43.330  31.904  29.509  1.00  0.00    -0.248 NA
ATOM     58  C   UNL A   1      45.514  32.108  28.833  1.00  0.00     0.031 C 
ATOM     59  C   UNL A   1      41.345  33.216  31.783  1.00  0.00     0.029 A 
ATOM     60  C   UNL A   1      41.482  33.691  30.490  1.00  0.00     0.049 A 
ATOM     61  H   UNL A   1      39.999  34.050  29.051  1.00  0.00     0.167 HD
ATOM     62  C   UNL A   1      43.571  33.252  29.419  1.00  0.00     0.074 A 
ATOM     63  C   UNL A   1      44.959  33.325  28.994  1.00  0.00     0.031 C 
ATOM     64  C   UNL A   1      42.607  34.185  29.708  1.00  0.00     0.034 A 
BRANCH  51  65
ATOM     65  C   UNL A   1      36.667  33.310  30.912  1.00  0.00     0.023 A 
ATOM     66  C   UNL A   1      35.774  33.964  30.040  1.00  0.00     0.031 A 
ATOM     67  C   UNL A   1      36.251  33.245  32.257  1.00  0.00     0.131 A 
ATOM     68  C   UNL A   1      34.584  34.547  30.502  1.00  0.00     0.055 A 
ATOM     69  C   UNL A   1      35.065  33.830  32.721  1.00  0.00     0.041 A 
ATOM     70  F   UNL A   1      36.944  32.604  33.201  1.00  0.00    -0.206 F 
ATOM     71  C   UNL A   1      34.224  34.490  31.842  1.00  0.00     0.022 A 
BRANCH  68  72
ATOM     72  S   UNL A   1      33.523  35.392  29.306  1.00  0.00     0.124 S 
ATOM     73  O   UNL A   1      34.479  35.786  28.277  1.00  0.00    -0.237 OA
ATOM     74  O   UNL A   1      32.574  34.346  28.943  1.00  0.00    -0.237 OA
ATOM     75  O   UNL A   1      32.957  36.495  30.081  1.00  0.00    -0.744 OA
ENDBRANCH  68  72
ENDBRANCH  51  65
BRANCH  52  76
ATOM     76  C   UNL A   1      44.932  28.787  28.148  1.00  0.00     0.023 A 
ATOM     77  C   UNL A   1      45.679  27.662  28.570  1.00  0.00     0.031 A 
ATOM     78  C   UNL A   1      44.202  28.677  26.957  1.00  0.00     0.131 A 
ATOM     79  C   UNL A   1      45.469  26.415  27.960  1.00  0.00     0.055 A 
ATOM     80  C   UNL A   1      44.083  27.445  26.293  1.00  0.00     0.041 A 
ATOM     81  F   UNL A   1      43.459  29.703  26.513  1.00  0.00    -0.206 F 
ATOM     82  C   UNL A   1      44.665  26.294  26.829  1.00  0.00     0.022 A 
BRANCH  79  83
ATOM     83  S   UNL A   1      46.037  24.934  28.848  1.00  0.00     0.124 S 
ATOM     84  O   UNL A   1      47.393  24.766  28.336  1.00  0.00    -0.237 OA
ATOM     85  O   UNL A   1      45.924  25.364  30.244  1.00  0.00    -0.237 OA
ATOM     86  O   UNL A   1      45.095  23.895  28.451  1.00  0.00    -0.744 OA
ENDBRANCH  79  83
ENDBRANCH  52  76
BRANCH  64  87
ATOM     87  C   UNL A   1      42.631  35.662  29.341  1.00  0.00     0.023 A 
ATOM     88  C   UNL A   1      43.390  36.613  30.028  1.00  0.00     0.031 A 
ATOM     89  C   UNL A   1      41.937  36.160  28.202  1.00  0.00     0.131 A 
ATOM     90  C   UNL A   1      43.382  37.969  29.652  1.00  0.00     0.055 A 
ATOM     91  C   UNL A   1      42.013  37.486  27.768  1.00  0.00     0.041 A 
ATOM     92  F   UNL A   1      41.155  35.383  27.440  1.00  0.00    -0.206 F 
ATOM     93  C   UNL A   1      42.725  38.409  28.509  1.00  0.00     0.022 A 
BRANCH  90  94
ATOM     94  S   UNL A   1      44.178  39.156  30.761  1.00  0.00     0.124 S 
ATOM     95  O   UNL A   1      45.592  38.931  30.475  1.00  0.00    -0.237 OA
ATOM     96  O   UNL A   1      43.634  40.429  30.299  1.00  0.00    -0.237 OA
ATOM     97  O   UNL A   1      43.739  38.736  32.089  1.00  0.00    -0.744 OA
ENDBRANCH  90  94
ENDBRANCH  64  87
ENDBRANCH  38  39
ENDBRANCH  30  33
ENDBRANCH  28  29
ENDBRANCH  27  28
ENDBRANCH   1  27
TORSDOF 17
ENDMDL
MODEL 3
REMARK VINA RESULT:     -12.2      3.893      9.510
REMARK SMILES Cc1cccc(OCC(=O)Nc2cc(C(=O)NCCCNC(=O)c3ccc(-c4c5nc(c(-c6cc(S(=O)(=O)[O-])ccc6F)c6ccc([nH]6)c(-c6cc(S(=O)(=O)[O-])ccc6F)c6nc(c(-c7cc(S(=O)(=O)[O-])ccc7F)c7ccc4[nH]7)C=C6)C=C5)cc3)c(Cl)cc2Cl)c1
REMARK SMILES IDX 18 1 17 2 15 3 16 4 14 6 12 7 13 8 90 9 89 10 91 11 87 12
REMARK SMILES IDX 88 13 11 14 9 15 10 16 8 18 7 19 6 20 1 21 2 22 3 23 92 24
REMARK SMILES IDX 4 25 5 26 19 27 20 28 21 29 22 30 23 32 24 33 25 34 86 35
REMARK SMILES IDX 26 36 85 37 27 38 28 39 29 40 79 41 30 42 84 43 78 44 80 45
REMARK SMILES IDX 31 46 83 47 77 48 76 49 32 51 64 52 44 53 63 54 45 55 48 56
REMARK SMILES IDX 62 57 81 58 46 59 47 60 61 62 82 63 49 64 33 65 34 66 42 67
REMARK SMILES IDX 35 68 41 69 43 70 40 71 36 72 37 73 38 74 39 75 65 76 66 77
REMARK SMILES IDX 74 78 67 79 73 80 75 81 72 82 68 83 69 84 70 85 71 86 50 87
REMARK SMILES IDX 51 88 59 89 52 90 58 91 60 92 57 93 53 94 54 95 55 96 56 97
REMARK H PARENT 17 5 11 17 21 31 80 50 48 61
REMARK Flexibility Score: inf
ROOT
ATOM      1  C   UNL A   1      38.077  22.235  25.815  1.00  0.00     0.118 C 
ENDROOT
BRANCH   1   2
ATOM      2  N   UNL A   1      37.760  22.372  24.406  1.00  0.00    -0.352 N 
ATOM      3  C   UNL A   1      36.617  22.796  23.777  1.00  0.00     0.252 C 
ATOM      4  O   UNL A   1      36.653  22.953  22.554  1.00  0.00    -0.269 OA
ATOM      5  H   UNL A   1      38.490  22.116  23.796  1.00  0.00     0.163 HD
BRANCH   3   6
ATOM      6  C   UNL A   1      35.338  23.041  24.510  1.00  0.00     0.060 A 
ATOM      7  C   UNL A   1      33.702  24.597  25.464  1.00  0.00     0.061 A 
ATOM      8  C   UNL A   1      34.804  24.350  24.642  1.00  0.00     0.043 A 
ATOM      9  C   UNL A   1      33.031  23.490  26.024  1.00  0.00     0.066 A 
ATOM     10  C   UNL A   1      33.468  22.187  25.804  1.00  0.00     0.044 A 
ATOM     11  Cl  UNL A   1      31.623  23.701  27.016  1.00  0.00    -0.082 Cl
ATOM     12  C   UNL A   1      34.637  21.959  25.078  1.00  0.00     0.055 A 
ATOM     13  Cl  UNL A   1      35.140  20.304  24.996  1.00  0.00    -0.083 Cl
BRANCH   7  14
ATOM     14  N   UNL A   1      33.247  25.871  25.868  1.00  0.00    -0.322 N 
ATOM     15  C   UNL A   1      32.349  26.799  25.448  1.00  0.00     0.262 C 
ATOM     16  O   UNL A   1      32.373  27.883  26.050  1.00  0.00    -0.271 OA
ATOM     17  H   UNL A   1      33.710  26.169  26.683  1.00  0.00     0.170 HD
BRANCH  15  18
ATOM     18  C   UNL A   1      31.284  26.543  24.390  1.00  0.00     0.329 C 
BRANCH  18  19
ATOM     19  O   UNL A   1      31.113  27.496  23.373  1.00  0.00    -0.484 OA
BRANCH  19  20
ATOM     20  C   UNL A   1      30.067  28.366  23.397  1.00  0.00     0.120 A 
ATOM     21  C   UNL A   1      28.756  31.939  23.529  1.00  0.00     0.044 C 
ATOM     22  C   UNL A   1      28.838  30.455  23.360  1.00  0.00    -0.047 A 
ATOM     23  C   UNL A   1      27.641  29.769  23.137  1.00  0.00     0.003 A 
ATOM     24  C   UNL A   1      30.060  29.751  23.461  1.00  0.00     0.049 A 
ATOM     25  C   UNL A   1      27.647  28.394  23.134  1.00  0.00     0.004 A 
ATOM     26  C   UNL A   1      28.844  27.718  23.328  1.00  0.00     0.046 A 
ENDBRANCH  19  20
ENDBRANCH  18  19
ENDBRANCH  15  18
ENDBRANCH   7  14
ENDBRANCH   3   6
ENDBRANCH   1   2
BRANCH   1  27
ATOM     27  C   UNL A   1      39.088  21.143  26.124  1.00  0.00     0.042 C 
BRANCH  27  28
ATOM     28  C   UNL A   1      40.555  21.560  25.986  1.00  0.00     0.118 C 
BRANCH  28  29
ATOM     29  N   UNL A   1      41.069  22.415  27.075  1.00  0.00    -0.352 N 
ATOM     30  C   UNL A   1      41.010  23.760  27.418  1.00  0.00     0.251 C 
ATOM     31  H   UNL A   1      41.590  21.896  27.729  1.00  0.00     0.163 HD
ATOM     32  O   UNL A   1      41.715  24.211  28.321  1.00  0.00    -0.269 OA
BRANCH  30  33
ATOM     33  C   UNL A   1      40.019  24.710  26.837  1.00  0.00     0.039 A 
ATOM     34  C   UNL A   1      40.698  25.713  26.122  1.00  0.00     0.014 A 
ATOM     35  C   UNL A   1      38.940  25.037  27.628  1.00  0.00     0.014 A 
ATOM     36  C   UNL A   1      40.795  26.953  26.716  1.00  0.00     0.010 A 
ATOM     37  C   UNL A   1      39.060  26.246  28.259  1.00  0.00     0.010 A 
ATOM     38  C   UNL A   1      40.102  27.120  27.897  1.00  0.00    -0.014 A 
BRANCH  38  39
ATOM     39  C   UNL A   1      40.378  28.142  28.878  1.00  0.00     0.031 A 
ATOM     40  C   UNL A   1      39.473  29.293  28.846  1.00  0.00     0.074 A 
ATOM     41  C   UNL A   1      41.251  27.902  29.886  1.00  0.00     0.049 A 
ATOM     42  N   UNL A   1      39.652  30.368  29.511  1.00  0.00    -0.248 NA
ATOM     43  C   UNL A   1      38.278  29.337  28.003  1.00  0.00     0.031 C 
ATOM     44  C   UNL A   1      41.361  28.607  31.162  1.00  0.00     0.029 A 
ATOM     45  N   UNL A   1      42.384  27.086  29.856  1.00  0.00    -0.354 N 
ATOM     46  C   UNL A   1      38.483  31.086  29.455  1.00  0.00     0.074 A 
ATOM     47  C   UNL A   1      37.692  30.451  28.439  1.00  0.00     0.031 C 
ATOM     48  C   UNL A   1      42.595  28.422  31.664  1.00  0.00     0.029 A 
ATOM     49  C   UNL A   1      43.363  27.716  30.657  1.00  0.00     0.049 A 
ATOM     50  H   UNL A   1      42.481  26.234  29.371  1.00  0.00     0.167 HD
ATOM     51  C   UNL A   1      38.307  32.049  30.395  1.00  0.00     0.034 A 
ATOM     52  C   UNL A   1      44.516  28.185  30.088  1.00  0.00     0.034 A 
ATOM     53  C   UNL A   1      39.555  32.244  31.138  1.00  0.00     0.049 A 
ATOM     54  C   UNL A   1      44.607  29.698  30.132  1.00  0.00     0.074 A 
ATOM     55  C   UNL A   1      40.011  31.820  32.374  1.00  0.00     0.029 A 
ATOM     56  N   UNL A   1      40.673  32.662  30.427  1.00  0.00    -0.354 N 
ATOM     57  N   UNL A   1      43.583  30.486  30.331  1.00  0.00    -0.248 NA
ATOM     58  C   UNL A   1      45.854  30.444  30.008  1.00  0.00     0.031 C 
ATOM     59  C   UNL A   1      41.432  31.922  32.367  1.00  0.00     0.029 A 
ATOM     60  C   UNL A   1      41.827  32.442  31.146  1.00  0.00     0.049 A 
ATOM     61  H   UNL A   1      40.644  33.062  29.529  1.00  0.00     0.167 HD
ATOM     62  C   UNL A   1      43.993  31.795  30.374  1.00  0.00     0.074 A 
ATOM     63  C   UNL A   1      45.429  31.711  30.169  1.00  0.00     0.031 C 
ATOM     64  C   UNL A   1      43.113  32.827  30.579  1.00  0.00     0.034 A 
BRANCH  51  65
ATOM     65  C   UNL A   1      36.995  32.660  30.810  1.00  0.00     0.023 A 
ATOM     66  C   UNL A   1      36.117  33.051  29.781  1.00  0.00     0.031 A 
ATOM     67  C   UNL A   1      36.556  32.954  32.116  1.00  0.00     0.131 A 
ATOM     68  C   UNL A   1      34.919  33.730  30.051  1.00  0.00     0.055 A 
ATOM     69  C   UNL A   1      35.363  33.635  32.388  1.00  0.00     0.041 A 
ATOM     70  F   UNL A   1      37.234  32.592  33.208  1.00  0.00    -0.206 F 
ATOM     71  C   UNL A   1      34.536  34.031  31.351  1.00  0.00     0.022 A 
BRANCH  68  72
ATOM     72  S   UNL A   1      33.877  34.218  28.656  1.00  0.00     0.124 S 
ATOM     73  O   UNL A   1      34.747  35.140  27.934  1.00  0.00    -0.237 OA
ATOM     74  O   UNL A   1      33.608  32.939  28.008  1.00  0.00    -0.237 OA
ATOM     75  O   UNL A   1      32.720  34.836  29.302  1.00  0.00    -0.744 OA
ENDBRANCH  68  72
ENDBRANCH  51  65
BRANCH  52  76
ATOM     76  C   UNL A   1      44.999  27.264  29.010  1.00  0.00     0.023 A 
ATOM     77  C   UNL A   1      45.143  27.850  27.731  1.00  0.00     0.031 A 
ATOM     78  C   UNL A   1      45.791  26.147  29.309  1.00  0.00     0.131 A 
ATOM     79  C   UNL A   1      46.226  27.489  26.914  1.00  0.00     0.055 A 
ATOM     80  C   UNL A   1      46.806  25.725  28.435  1.00  0.00     0.041 A 
ATOM     81  F   UNL A   1      45.714  25.556  30.511  1.00  0.00    -0.206 F 
ATOM     82  C   UNL A   1      47.069  26.436  27.262  1.00  0.00     0.022 A 
BRANCH  79  83
ATOM     83  S   UNL A   1      46.663  28.607  25.549  1.00  0.00     0.124 S 
ATOM     84  O   UNL A   1      45.626  28.318  24.564  1.00  0.00    -0.237 OA
ATOM     85  O   UNL A   1      46.585  29.916  26.201  1.00  0.00    -0.237 OA
ATOM     86  O   UNL A   1      48.009  28.196  25.166  1.00  0.00    -0.744 OA
ENDBRANCH  79  83
ENDBRANCH  52  76
BRANCH  64  87
ATOM     87  C   UNL A   1      43.369  34.306  30.326  1.00  0.00     0.023 A 
ATOM     88  C   UNL A   1      43.288  34.895  29.061  1.00  0.00     0.031 A 
ATOM     89  C   UNL A   1      43.628  35.212  31.392  1.00  0.00     0.131 A 
ATOM     90  C   UNL A   1      43.533  36.269  28.875  1.00  0.00     0.055 A 
ATOM     91  C   UNL A   1      43.768  36.592  31.219  1.00  0.00     0.041 A 
ATOM     92  F   UNL A   1      43.750  34.810  32.665  1.00  0.00    -0.206 F 
ATOM     93  C   UNL A   1      43.741  37.129  29.947  1.00  0.00     0.022 A 
BRANCH  90  94
ATOM     94  S   UNL A   1      43.667  36.878  27.177  1.00  0.00     0.124 S 
ATOM     95  O   UNL A   1      44.599  35.920  26.588  1.00  0.00    -0.237 OA
ATOM     96  O   UNL A   1      42.289  36.792  26.704  1.00  0.00    -0.237 OA
ATOM     97  O   UNL A   1      44.188  38.233  27.337  1.00  0.00    -0.744 OA
ENDBRANCH  90  94
ENDBRANCH  64  87
ENDBRANCH  38  39
ENDBRANCH  30  33
ENDBRANCH  28  29
ENDBRANCH  27  28
ENDBRANCH   1  27
TORSDOF 17
ENDMDL
