MODEL 1
REMARK VINA RESULT:     -11.5      0.000      0.000
REMARK SMILES CC(C)[C@H](NC(=O)[C@H](C)NC(=O)CNC(=O)OCc1ccccc1)C(=O)NCCCNC(=O)c1ccc(-c2c3nc(c(-c4cc(S(=O)(=O)[O-])ccc4F)c4ccc([nH]4)c(-c4cc(S(=O)(=O)[O-])ccc4F)c4nc(c(-c5cc(S(=O)(=O)[O-])ccc5F)c5ccc2[nH]5)C=C4)C=C3)cc1
REMARK SMILES IDX 25 1 26 2 27 3 4 5 2 6 1 7 3 8 5 9 6 10 7 12 8 13 9 14 10 15
REMARK SMILES IDX 11 16 12 18 13 19 14 20 15 21 16 23 17 24 18 25 19 26 20 27
REMARK SMILES IDX 24 28 21 29 23 30 22 31 28 32 29 33 30 34 31 35 32 36 33 38
REMARK SMILES IDX 34 39 35 40 96 41 36 42 95 43 37 44 38 45 39 46 89 47 40 48
REMARK SMILES IDX 94 49 88 50 90 51 41 52 93 53 87 54 86 55 42 57 74 58 54 59
REMARK SMILES IDX 73 60 55 61 58 62 72 63 91 64 56 65 57 66 71 68 92 69 59 70
REMARK SMILES IDX 43 71 44 72 52 73 45 74 51 75 53 76 50 77 46 78 47 79 48 80
REMARK SMILES IDX 49 81 75 82 76 83 84 84 77 85 83 86 85 87 82 88 78 89 79 90
REMARK SMILES IDX 80 91 81 92 60 93 61 94 69 95 62 96 68 97 70 98 67 99 63 100
REMARK SMILES IDX 64 101 65 102 66 103
REMARK H PARENT 27 4 5 11 10 17 14 22 31 37 90 56 58 67
REMARK Flexibility Score: inf
ROOT
ATOM      1  C   UNL A   1      31.721  28.359  26.695  1.00  0.00     0.242 C 
ATOM      2  O   UNL A   1      31.947  27.686  27.704  1.00  0.00    -0.273 OA
ATOM      3  N   UNL A   1      31.419  29.680  26.857  1.00  0.00    -0.354 N 
ATOM      4  H   UNL A   1      31.157  29.939  27.770  1.00  0.00     0.163 HD
ENDROOT
BRANCH   1   5
ATOM      5  C   UNL A   1      31.935  27.750  25.292  1.00  0.00     0.173 C 
BRANCH   5   6
ATOM      6  C   UNL A   1      33.017  28.576  24.544  1.00  0.00     0.015 C 
ATOM      7  C   UNL A   1      34.377  27.874  24.666  1.00  0.00     0.010 C 
ATOM      8  C   UNL A   1      32.712  28.839  23.070  1.00  0.00     0.010 C 
ENDBRANCH   5   6
BRANCH   5   9
ATOM      9  N   UNL A   1      30.654  27.615  24.600  1.00  0.00    -0.342 N 
ATOM     10  C   UNL A   1      29.923  26.477  24.384  1.00  0.00     0.242 C 
ATOM     11  H   UNL A   1      30.267  28.447  24.243  1.00  0.00     0.164 HD
ATOM     12  O   UNL A   1      28.799  26.608  23.897  1.00  0.00    -0.273 OA
BRANCH  10  13
ATOM     13  C   UNL A   1      30.511  25.101  24.763  1.00  0.00     0.168 C 
ATOM     14  C   UNL A   1      30.401  24.124  23.591  1.00  0.00     0.041 C 
BRANCH  13  15
ATOM     15  N   UNL A   1      29.821  24.534  25.919  1.00  0.00    -0.343 N 
ATOM     16  C   UNL A   1      30.244  23.571  26.793  1.00  0.00     0.240 C 
ATOM     17  H   UNL A   1      28.923  24.897  26.093  1.00  0.00     0.164 HD
ATOM     18  O   UNL A   1      29.419  23.075  27.563  1.00  0.00    -0.273 OA
BRANCH  16  19
ATOM     19  C   UNL A   1      31.710  23.122  26.802  1.00  0.00     0.219 C 
BRANCH  19  20
ATOM     20  N   UNL A   1      31.853  21.853  26.112  1.00  0.00    -0.312 N 
ATOM     21  C   UNL A   1      32.584  21.616  24.991  1.00  0.00     0.407 C 
ATOM     22  H   UNL A   1      31.370  21.086  26.495  1.00  0.00     0.167 HD
ATOM     23  O   UNL A   1      32.428  20.593  24.340  1.00  0.00    -0.225 OA
BRANCH  21  24
ATOM     24  O   UNL A   1      33.436  22.623  24.680  1.00  0.00    -0.445 OA
BRANCH  24  25
ATOM     25  C   UNL A   1      34.619  22.242  23.959  1.00  0.00     0.270 C 
BRANCH  25  26
ATOM     26  C   UNL A   1      35.906  22.381  24.743  1.00  0.00    -0.011 A 
ATOM     27  C   UNL A   1      36.203  23.601  25.373  1.00  0.00     0.007 A 
ATOM     28  C   UNL A   1      36.874  21.368  24.768  1.00  0.00     0.007 A 
ATOM     29  C   UNL A   1      37.428  23.794  26.017  1.00  0.00     0.000 A 
ATOM     30  C   UNL A   1      38.099  21.562  25.408  1.00  0.00     0.000 A 
ATOM     31  C   UNL A   1      38.377  22.774  26.031  1.00  0.00     0.000 A 
ENDBRANCH  25  26
ENDBRANCH  24  25
ENDBRANCH  21  24
ENDBRANCH  19  20
ENDBRANCH  16  19
ENDBRANCH  13  15
ENDBRANCH  10  13
ENDBRANCH   5   9
ENDBRANCH   1   5
BRANCH   3  32
ATOM     32  C   UNL A   1      31.427  30.764  25.888  1.00  0.00     0.117 C 
BRANCH  32  33
ATOM     33  C   UNL A   1      31.341  32.147  26.520  1.00  0.00     0.042 C 
BRANCH  33  34
ATOM     34  C   UNL A   1      32.664  32.668  27.068  1.00  0.00     0.118 C 
BRANCH  34  35
ATOM     35  N   UNL A   1      32.545  34.003  27.640  1.00  0.00    -0.352 N 
ATOM     36  C   UNL A   1      33.183  34.583  28.707  1.00  0.00     0.251 C 
ATOM     37  H   UNL A   1      31.897  34.587  27.184  1.00  0.00     0.163 HD
ATOM     38  O   UNL A   1      32.750  35.644  29.150  1.00  0.00    -0.269 OA
BRANCH  36  39
ATOM     39  C   UNL A   1      34.362  33.943  29.331  1.00  0.00     0.039 A 
ATOM     40  C   UNL A   1      35.641  34.382  28.972  1.00  0.00     0.014 A 
ATOM     41  C   UNL A   1      34.219  32.886  30.233  1.00  0.00     0.014 A 
ATOM     42  C   UNL A   1      36.768  33.812  29.571  1.00  0.00     0.010 A 
ATOM     43  C   UNL A   1      35.337  32.375  30.889  1.00  0.00     0.010 A 
ATOM     44  C   UNL A   1      36.623  32.829  30.563  1.00  0.00    -0.014 A 
BRANCH  44  45
ATOM     45  C   UNL A   1      37.798  32.250  31.265  1.00  0.00     0.031 A 
ATOM     46  C   UNL A   1      38.563  31.116  30.638  1.00  0.00     0.074 A 
ATOM     47  C   UNL A   1      38.126  32.692  32.496  1.00  0.00     0.049 A 
ATOM     48  N   UNL A   1      39.528  30.389  31.140  1.00  0.00    -0.248 NA
ATOM     49  C   UNL A   1      38.163  30.727  29.277  1.00  0.00     0.031 C 
ATOM     50  C   UNL A   1      37.436  33.761  33.224  1.00  0.00     0.029 A 
ATOM     51  N   UNL A   1      39.112  32.287  33.361  1.00  0.00    -0.354 N 
ATOM     52  C   UNL A   1      39.835  29.442  30.168  1.00  0.00     0.074 A 
ATOM     53  C   UNL A   1      38.916  29.656  29.071  1.00  0.00     0.031 C 
ATOM     54  C   UNL A   1      38.031  33.937  34.415  1.00  0.00     0.029 A 
ATOM     55  C   UNL A   1      39.111  32.966  34.557  1.00  0.00     0.049 A 
ATOM     56  H   UNL A   1      39.758  31.577  33.146  1.00  0.00     0.167 HD
ATOM     57  C   UNL A   1      40.807  28.496  30.180  1.00  0.00     0.034 A 
ATOM     58  C   UNL A   1      39.883  32.813  35.651  1.00  0.00     0.034 A 
ATOM     59  C   UNL A   1      41.731  28.311  31.272  1.00  0.00     0.049 A 
ATOM     60  C   UNL A   1      40.955  31.753  35.643  1.00  0.00     0.074 A 
ATOM     61  C   UNL A   1      42.784  27.416  31.371  1.00  0.00     0.029 A 
ATOM     62  N   UNL A   1      41.717  29.037  32.455  1.00  0.00    -0.354 N 
ATOM     63  N   UNL A   1      41.252  30.887  34.702  1.00  0.00    -0.248 NA
ATOM     64  C   UNL A   1      41.801  31.659  36.839  1.00  0.00     0.031 C 
ATOM     65  C   UNL A   1      43.372  27.568  32.632  1.00  0.00     0.029 A 
ATOM     66  C   UNL A   1      42.729  28.599  33.296  1.00  0.00     0.049 A 
ATOM     67  H   UNL A   1      41.081  29.758  32.668  1.00  0.00     0.167 HD
ATOM     68  C   UNL A   1      42.341  30.166  35.182  1.00  0.00     0.074 A 
ATOM     69  C   UNL A   1      42.654  30.707  36.489  1.00  0.00     0.031 C 
ATOM     70  C   UNL A   1      43.024  29.150  34.597  1.00  0.00     0.034 A 
BRANCH  57  71
ATOM     71  C   UNL A   1      40.899  27.580  28.984  1.00  0.00     0.023 A 
ATOM     72  C   UNL A   1      41.849  27.789  27.969  1.00  0.00     0.031 A 
ATOM     73  C   UNL A   1      40.010  26.501  28.841  1.00  0.00     0.131 A 
ATOM     74  C   UNL A   1      41.839  26.980  26.823  1.00  0.00     0.055 A 
ATOM     75  C   UNL A   1      40.056  25.650  27.735  1.00  0.00     0.041 A 
ATOM     76  F   UNL A   1      39.068  26.263  29.769  1.00  0.00    -0.206 F 
ATOM     77  C   UNL A   1      40.966  25.896  26.710  1.00  0.00     0.022 A 
BRANCH  74  78
ATOM     78  S   UNL A   1      42.896  27.446  25.425  1.00  0.00     0.124 S 
ATOM     79  O   UNL A   1      42.961  26.193  24.676  1.00  0.00    -0.237 OA
ATOM     80  O   UNL A   1      42.141  28.526  24.802  1.00  0.00    -0.237 OA
ATOM     81  O   UNL A   1      44.149  27.847  26.063  1.00  0.00    -0.744 OA
ENDBRANCH  74  78
ENDBRANCH  57  71
BRANCH  58  82
ATOM     82  C   UNL A   1      39.673  33.669  36.854  1.00  0.00     0.023 A 
ATOM     83  C   UNL A   1      39.088  33.144  38.017  1.00  0.00     0.031 A 
ATOM     84  C   UNL A   1      40.011  35.033  36.841  1.00  0.00     0.131 A 
ATOM     85  C   UNL A   1      38.810  33.990  39.102  1.00  0.00     0.055 A 
ATOM     86  C   UNL A   1      39.778  35.859  37.943  1.00  0.00     0.041 A 
ATOM     87  F   UNL A   1      40.582  35.583  35.757  1.00  0.00    -0.206 F 
ATOM     88  C   UNL A   1      39.162  35.341  39.077  1.00  0.00     0.022 A 
BRANCH  85  89
ATOM     89  S   UNL A   1      37.899  33.312  40.516  1.00  0.00     0.124 S 
ATOM     90  O   UNL A   1      38.651  32.095  40.801  1.00  0.00    -0.237 OA
ATOM     91  O   UNL A   1      38.022  34.387  41.497  1.00  0.00    -0.237 OA
ATOM     92  O   UNL A   1      36.552  33.105  39.987  1.00  0.00    -0.744 OA
ENDBRANCH  85  89
ENDBRANCH  58  82
BRANCH  70  93
ATOM     93  C   UNL A   1      44.208  28.603  35.351  1.00  0.00     0.023 A 
ATOM     94  C   UNL A   1      44.074  27.558  36.281  1.00  0.00     0.031 A 
ATOM     95  C   UNL A   1      45.487  29.149  35.145  1.00  0.00     0.131 A 
ATOM     96  C   UNL A   1      45.192  27.125  37.010  1.00  0.00     0.055 A 
ATOM     97  C   UNL A   1      46.605  28.678  35.833  1.00  0.00     0.041 A 
ATOM     98  F   UNL A   1      45.669  30.149  34.267  1.00  0.00    -0.206 F 
ATOM     99  C   UNL A   1      46.459  27.669  36.781  1.00  0.00     0.022 A 
BRANCH  96 100
ATOM    100  S   UNL A   1      44.955  25.895  38.321  1.00  0.00     0.124 S 
ATOM    101  O   UNL A   1      44.612  26.733  39.466  1.00  0.00    -0.237 OA
ATOM    102  O   UNL A   1      43.873  25.073  37.786  1.00  0.00    -0.237 OA
ATOM    103  O   UNL A   1      46.254  25.228  38.406  1.00  0.00    -0.744 OA
ENDBRANCH  96 100
ENDBRANCH  70  93
ENDBRANCH  44  45
ENDBRANCH  36  39
ENDBRANCH  34  35
ENDBRANCH  33  34
ENDBRANCH  32  33
ENDBRANCH   3  32
TORSDOF 22
ENDMDL
MODEL 2
REMARK VINA RESULT:     -11.3      5.139      8.247
REMARK SMILES CC(C)[C@H](NC(=O)[C@H](C)NC(=O)CNC(=O)OCc1ccccc1)C(=O)NCCCNC(=O)c1ccc(-c2c3nc(c(-c4cc(S(=O)(=O)[O-])ccc4F)c4ccc([nH]4)c(-c4cc(S(=O)(=O)[O-])ccc4F)c4nc(c(-c5cc(S(=O)(=O)[O-])ccc5F)c5ccc2[nH]5)C=C4)C=C3)cc1
REMARK SMILES IDX 25 1 26 2 27 3 4 5 2 6 1 7 3 8 5 9 6 10 7 12 8 13 9 14 10 15
REMARK SMILES IDX 11 16 12 18 13 19 14 20 15 21 16 23 17 24 18 25 19 26 20 27
REMARK SMILES IDX 24 28 21 29 23 30 22 31 28 32 29 33 30 34 31 35 32 36 33 38
REMARK SMILES IDX 34 39 35 40 96 41 36 42 95 43 37 44 38 45 39 46 89 47 40 48
REMARK SMILES IDX 94 49 88 50 90 51 41 52 93 53 87 54 86 55 42 57 74 58 54 59
REMARK SMILES IDX 73 60 55 61 58 62 72 63 91 64 56 65 57 66 71 68 92 69 59 70
REMARK SMILES IDX 43 71 44 72 52 73 45 74 51 75 53 76 50 77 46 78 47 79 48 80
REMARK SMILES IDX 49 81 75 82 76 83 84 84 77 85 83 86 85 87 82 88 78 89 79 90
REMARK SMILES IDX 80 91 81 92 60 93 61 94 69 95 62 96 68 97 70 98 67 99 63 100
REMARK SMILES IDX 64 101 65 102 66 103
REMARK H PARENT 27 4 5 11 10 17 14 22 31 37 90 56 58 67
REMARK Flexibility Score: inf
ROOT
ATOM      1  C   UNL A   1      33.681  23.927  23.015  1.00  0.00     0.242 C 
ATOM      2  O   UNL A   1      33.716  23.279  21.965  1.00  0.00    -0.273 OA
ATOM      3  N   UNL A   1      34.663  23.711  23.938  1.00  0.00    -0.354 N 
ATOM      4  H   UNL A   1      35.178  22.882  23.811  1.00  0.00     0.163 HD
ENDROOT
BRANCH   1   5
ATOM      5  C   UNL A   1      32.643  25.057  23.195  1.00  0.00     0.173 C 
BRANCH   5   6
ATOM      6  C   UNL A   1      32.764  26.046  22.003  1.00  0.00     0.015 C 
ATOM      7  C   UNL A   1      31.364  26.501  21.568  1.00  0.00     0.010 C 
ATOM      8  C   UNL A   1      33.635  27.271  22.277  1.00  0.00     0.010 C 
ENDBRANCH   5   6
BRANCH   5   9
ATOM      9  N   UNL A   1      32.771  25.652  24.525  1.00  0.00    -0.342 N 
ATOM     10  C   UNL A   1      31.850  25.668  25.538  1.00  0.00     0.242 C 
ATOM     11  H   UNL A   1      33.626  26.100  24.715  1.00  0.00     0.164 HD
ATOM     12  O   UNL A   1      32.216  26.106  26.630  1.00  0.00    -0.273 OA
BRANCH  10  13
ATOM     13  C   UNL A   1      30.423  25.135  25.291  1.00  0.00     0.168 C 
ATOM     14  C   UNL A   1      29.484  26.270  24.883  1.00  0.00     0.041 C 
BRANCH  13  15
ATOM     15  N   UNL A   1      29.890  24.485  26.486  1.00  0.00    -0.343 N 
ATOM     16  C   UNL A   1      30.012  23.185  26.891  1.00  0.00     0.240 C 
ATOM     17  H   UNL A   1      29.368  25.066  27.084  1.00  0.00     0.164 HD
ATOM     18  O   UNL A   1      29.296  22.788  27.813  1.00  0.00    -0.273 OA
BRANCH  16  19
ATOM     19  C   UNL A   1      31.014  22.249  26.205  1.00  0.00     0.219 C 
BRANCH  19  20
ATOM     20  N   UNL A   1      32.278  22.253  26.917  1.00  0.00    -0.312 N 
ATOM     21  C   UNL A   1      33.416  21.600  26.559  1.00  0.00     0.407 C 
ATOM     22  H   UNL A   1      32.315  22.782  27.747  1.00  0.00     0.167 HD
ATOM     23  O   UNL A   1      34.333  21.446  27.352  1.00  0.00    -0.225 OA
BRANCH  21  24
ATOM     24  O   UNL A   1      33.389  21.130  25.287  1.00  0.00    -0.445 OA
BRANCH  24  25
ATOM     25  C   UNL A   1      34.430  20.203  24.941  1.00  0.00     0.270 C 
BRANCH  25  26
ATOM     26  C   UNL A   1      33.972  18.770  24.787  1.00  0.00    -0.011 A 
ATOM     27  C   UNL A   1      32.763  18.364  25.376  1.00  0.00     0.007 A 
ATOM     28  C   UNL A   1      34.770  17.796  24.173  1.00  0.00     0.007 A 
ATOM     29  C   UNL A   1      32.363  17.026  25.340  1.00  0.00     0.000 A 
ATOM     30  C   UNL A   1      34.372  16.458  24.140  1.00  0.00     0.000 A 
ATOM     31  C   UNL A   1      33.170  16.072  24.724  1.00  0.00     0.000 A 
ENDBRANCH  25  26
ENDBRANCH  24  25
ENDBRANCH  21  24
ENDBRANCH  19  20
ENDBRANCH  16  19
ENDBRANCH  13  15
ENDBRANCH  10  13
ENDBRANCH   5   9
ENDBRANCH   1   5
BRANCH   3  32
ATOM     32  C   UNL A   1      35.064  24.518  25.078  1.00  0.00     0.117 C 
BRANCH  32  33
ATOM     33  C   UNL A   1      36.277  23.969  25.817  1.00  0.00     0.042 C 
BRANCH  33  34
ATOM     34  C   UNL A   1      37.346  23.373  24.909  1.00  0.00     0.118 C 
BRANCH  34  35
ATOM     35  N   UNL A   1      38.156  22.368  25.584  1.00  0.00    -0.352 N 
ATOM     36  C   UNL A   1      39.298  22.490  26.334  1.00  0.00     0.251 C 
ATOM     37  H   UNL A   1      37.829  21.445  25.485  1.00  0.00     0.163 HD
ATOM     38  O   UNL A   1      39.939  21.477  26.606  1.00  0.00    -0.269 OA
BRANCH  36  39
ATOM     39  C   UNL A   1      39.771  23.814  26.795  1.00  0.00     0.039 A 
ATOM     40  C   UNL A   1      40.461  24.637  25.900  1.00  0.00     0.014 A 
ATOM     41  C   UNL A   1      39.578  24.232  28.114  1.00  0.00     0.014 A 
ATOM     42  C   UNL A   1      40.892  25.904  26.306  1.00  0.00     0.010 A 
ATOM     43  C   UNL A   1      39.933  25.524  28.494  1.00  0.00     0.010 A 
ATOM     44  C   UNL A   1      40.597  26.372  27.596  1.00  0.00    -0.014 A 
BRANCH  44  45
ATOM     45  C   UNL A   1      40.983  27.739  28.036  1.00  0.00     0.031 A 
ATOM     46  C   UNL A   1      42.435  28.136  28.067  1.00  0.00     0.074 A 
ATOM     47  C   UNL A   1      40.037  28.590  28.481  1.00  0.00     0.049 A 
ATOM     48  N   UNL A   1      42.987  29.224  28.538  1.00  0.00    -0.248 NA
ATOM     49  C   UNL A   1      43.393  27.161  27.525  1.00  0.00     0.031 C 
ATOM     50  C   UNL A   1      38.600  28.306  28.535  1.00  0.00     0.029 A 
ATOM     51  N   UNL A   1      40.141  29.861  28.987  1.00  0.00    -0.354 N 
ATOM     52  C   UNL A   1      44.359  29.055  28.372  1.00  0.00     0.074 A 
ATOM     53  C   UNL A   1      44.553  27.737  27.806  1.00  0.00     0.031 C 
ATOM     54  C   UNL A   1      37.958  29.377  29.029  1.00  0.00     0.029 A 
ATOM     55  C   UNL A   1      38.937  30.404  29.371  1.00  0.00     0.049 A 
ATOM     56  H   UNL A   1      40.997  30.340  29.068  1.00  0.00     0.167 HD
ATOM     57  C   UNL A   1      45.361  29.927  28.647  1.00  0.00     0.034 A 
ATOM     58  C   UNL A   1      38.654  31.589  29.947  1.00  0.00     0.034 A 
ATOM     59  C   UNL A   1      45.149  31.247  29.189  1.00  0.00     0.049 A 
ATOM     60  C   UNL A   1      39.785  32.541  30.245  1.00  0.00     0.074 A 
ATOM     61  C   UNL A   1      46.085  32.229  29.462  1.00  0.00     0.029 A 
ATOM     62  N   UNL A   1      43.912  31.772  29.539  1.00  0.00    -0.354 N 
ATOM     63  N   UNL A   1      41.073  32.378  30.053  1.00  0.00    -0.248 NA
ATOM     64  C   UNL A   1      39.421  33.839  30.828  1.00  0.00     0.031 C 
ATOM     65  C   UNL A   1      45.421  33.327  30.022  1.00  0.00     0.029 A 
ATOM     66  C   UNL A   1      44.063  33.055  30.040  1.00  0.00     0.049 A 
ATOM     67  H   UNL A   1      43.051  31.301  29.444  1.00  0.00     0.167 HD
ATOM     68  C   UNL A   1      41.670  33.566  30.462  1.00  0.00     0.074 A 
ATOM     69  C   UNL A   1      40.600  34.440  30.900  1.00  0.00     0.031 C 
ATOM     70  C   UNL A   1      42.983  33.909  30.474  1.00  0.00     0.034 A 
BRANCH  57  71
ATOM     71  C   UNL A   1      46.773  29.465  28.383  1.00  0.00     0.023 A 
ATOM     72  C   UNL A   1      47.516  28.778  29.359  1.00  0.00     0.031 A 
ATOM     73  C   UNL A   1      47.396  29.737  27.153  1.00  0.00     0.131 A 
ATOM     74  C   UNL A   1      48.860  28.453  29.117  1.00  0.00     0.055 A 
ATOM     75  C   UNL A   1      48.708  29.342  26.889  1.00  0.00     0.041 A 
ATOM     76  F   UNL A   1      46.743  30.408  26.190  1.00  0.00    -0.206 F 
ATOM     77  C   UNL A   1      49.454  28.708  27.879  1.00  0.00     0.022 A 
BRANCH  74  78
ATOM     78  S   UNL A   1      49.856  27.812  30.490  1.00  0.00     0.124 S 
ATOM     79  O   UNL A   1      49.623  28.824  31.519  1.00  0.00    -0.237 OA
ATOM     80  O   UNL A   1      49.258  26.505  30.732  1.00  0.00    -0.237 OA
ATOM     81  O   UNL A   1      51.212  27.788  29.947  1.00  0.00    -0.744 OA
ENDBRANCH  74  78
ENDBRANCH  57  71
BRANCH  58  82
ATOM     82  C   UNL A   1      37.250  31.949  30.295  1.00  0.00     0.023 A 
ATOM     83  C   UNL A   1      36.356  32.393  29.308  1.00  0.00     0.031 A 
ATOM     84  C   UNL A   1      36.796  31.898  31.624  1.00  0.00     0.131 A 
ATOM     85  C   UNL A   1      35.069  32.819  29.672  1.00  0.00     0.055 A 
ATOM     86  C   UNL A   1      35.498  32.276  31.973  1.00  0.00     0.041 A 
ATOM     87  F   UNL A   1      37.609  31.472  32.604  1.00  0.00    -0.206 F 
ATOM     88  C   UNL A   1      34.630  32.752  30.996  1.00  0.00     0.022 A 
BRANCH  85  89
ATOM     89  S   UNL A   1      34.004  33.545  28.396  1.00  0.00     0.124 S 
ATOM     90  O   UNL A   1      33.077  34.337  29.196  1.00  0.00    -0.237 OA
ATOM     91  O   UNL A   1      34.965  34.297  27.594  1.00  0.00    -0.237 OA
ATOM     92  O   UNL A   1      33.421  32.379  27.735  1.00  0.00    -0.744 OA
ENDBRANCH  85  89
ENDBRANCH  58  82
BRANCH  70  93
ATOM     93  C   UNL A   1      43.317  35.307  30.926  1.00  0.00     0.023 A 
ATOM     94  C   UNL A   1      43.458  36.366  30.013  1.00  0.00     0.031 A 
ATOM     95  C   UNL A   1      43.514  35.577  32.292  1.00  0.00     0.131 A 
ATOM     96  C   UNL A   1      43.836  37.637  30.471  1.00  0.00     0.055 A 
ATOM     97  C   UNL A   1      43.837  36.855  32.748  1.00  0.00     0.041 A 
ATOM     98  F   UNL A   1      43.392  34.601  33.206  1.00  0.00    -0.206 F 
ATOM     99  C   UNL A   1      44.013  37.891  31.834  1.00  0.00     0.022 A 
BRANCH  96 100
ATOM    100  S   UNL A   1      44.174  38.937  29.254  1.00  0.00     0.124 S 
ATOM    101  O   UNL A   1      45.024  39.850  30.012  1.00  0.00    -0.237 OA
ATOM    102  O   UNL A   1      44.831  38.198  28.181  1.00  0.00    -0.237 OA
ATOM    103  O   UNL A   1      42.846  39.454  28.925  1.00  0.00    -0.744 OA
ENDBRANCH  96 100
ENDBRANCH  70  93
ENDBRANCH  44  45
ENDBRANCH  36  39
ENDBRANCH  34  35
ENDBRANCH  33  34
ENDBRANCH  32  33
ENDBRANCH   3  32
TORSDOF 22
ENDMDL
MODEL 3
REMARK VINA RESULT:     -11.3      1.676      2.225
REMARK SMILES CC(C)[C@H](NC(=O)[C@H](C)NC(=O)CNC(=O)OCc1ccccc1)C(=O)NCCCNC(=O)c1ccc(-c2c3nc(c(-c4cc(S(=O)(=O)[O-])ccc4F)c4ccc([nH]4)c(-c4cc(S(=O)(=O)[O-])ccc4F)c4nc(c(-c5cc(S(=O)(=O)[O-])ccc5F)c5ccc2[nH]5)C=C4)C=C3)cc1
REMARK SMILES IDX 25 1 26 2 27 3 4 5 2 6 1 7 3 8 5 9 6 10 7 12 8 13 9 14 10 15
REMARK SMILES IDX 11 16 12 18 13 19 14 20 15 21 16 23 17 24 18 25 19 26 20 27
REMARK SMILES IDX 24 28 21 29 23 30 22 31 28 32 29 33 30 34 31 35 32 36 33 38
REMARK SMILES IDX 34 39 35 40 96 41 36 42 95 43 37 44 38 45 39 46 89 47 40 48
REMARK SMILES IDX 94 49 88 50 90 51 41 52 93 53 87 54 86 55 42 57 74 58 54 59
REMARK SMILES IDX 73 60 55 61 58 62 72 63 91 64 56 65 57 66 71 68 92 69 59 70
REMARK SMILES IDX 43 71 44 72 52 73 45 74 51 75 53 76 50 77 46 78 47 79 48 80
REMARK SMILES IDX 49 81 75 82 76 83 84 84 77 85 83 86 85 87 82 88 78 89 79 90
REMARK SMILES IDX 80 91 81 92 60 93 61 94 69 95 62 96 68 97 70 98 67 99 63 100
REMARK SMILES IDX 64 101 65 102 66 103
REMARK H PARENT 27 4 5 11 10 17 14 22 31 37 90 56 58 67
REMARK Flexibility Score: inf
ROOT
ATOM      1  C   UNL A   1      32.753  28.561  26.210  1.00  0.00     0.242 C 
ATOM      2  O   UNL A   1      33.689  28.104  26.873  1.00  0.00    -0.273 OA
ATOM      3  N   UNL A   1      32.214  29.754  26.595  1.00  0.00    -0.354 N 
ATOM      4  H   UNL A   1      32.438  30.036  27.511  1.00  0.00     0.163 HD
ENDROOT
BRANCH   1   5
ATOM      5  C   UNL A   1      32.324  27.872  24.895  1.00  0.00     0.173 C 
BRANCH   5   6
ATOM      6  C   UNL A   1      32.723  28.779  23.699  1.00  0.00     0.015 C 
ATOM      7  C   UNL A   1      34.050  28.291  23.102  1.00  0.00     0.010 C 
ATOM      8  C   UNL A   1      31.672  28.872  22.593  1.00  0.00     0.010 C 
ENDBRANCH   5   6
BRANCH   5   9
ATOM      9  N   UNL A   1      30.913  27.495  24.960  1.00  0.00    -0.342 N 
ATOM     10  C   UNL A   1      30.358  26.257  24.778  1.00  0.00     0.242 C 
ATOM     11  H   UNL A   1      30.282  28.223  25.158  1.00  0.00     0.164 HD
ATOM     12  O   UNL A   1      29.155  26.134  25.014  1.00  0.00    -0.273 OA
BRANCH  10  13
ATOM     13  C   UNL A   1      31.238  25.079  24.309  1.00  0.00     0.168 C 
ATOM     14  C   UNL A   1      31.380  25.082  22.786  1.00  0.00     0.041 C 
BRANCH  13  15
ATOM     15  N   UNL A   1      30.673  23.799  24.729  1.00  0.00    -0.343 N 
ATOM     16  C   UNL A   1      31.085  22.957  25.724  1.00  0.00     0.240 C 
ATOM     17  H   UNL A   1      29.882  23.501  24.224  1.00  0.00     0.164 HD
ATOM     18  O   UNL A   1      30.607  21.820  25.766  1.00  0.00    -0.273 OA
BRANCH  16  19
ATOM     19  C   UNL A   1      32.121  23.420  26.755  1.00  0.00     0.219 C 
BRANCH  19  20
ATOM     20  N   UNL A   1      33.386  23.705  26.104  1.00  0.00    -0.312 N 
ATOM     21  C   UNL A   1      34.380  22.817  25.834  1.00  0.00     0.407 C 
ATOM     22  H   UNL A   1      33.542  24.638  25.830  1.00  0.00     0.167 HD
ATOM     23  O   UNL A   1      35.502  23.196  25.533  1.00  0.00    -0.225 OA
BRANCH  21  24
ATOM     24  O   UNL A   1      33.999  21.523  25.974  1.00  0.00    -0.445 OA
BRANCH  24  25
ATOM     25  C   UNL A   1      34.923  20.542  25.480  1.00  0.00     0.270 C 
BRANCH  25  26
ATOM     26  C   UNL A   1      34.300  19.467  24.618  1.00  0.00    -0.011 A 
ATOM     27  C   UNL A   1      33.016  19.668  24.083  1.00  0.00     0.007 A 
ATOM     28  C   UNL A   1      34.911  18.221  24.424  1.00  0.00     0.007 A 
ATOM     29  C   UNL A   1      32.371  18.655  23.369  1.00  0.00     0.000 A 
ATOM     30  C   UNL A   1      34.265  17.207  23.714  1.00  0.00     0.000 A 
ATOM     31  C   UNL A   1      32.996  17.423  23.187  1.00  0.00     0.000 A 
ENDBRANCH  25  26
ENDBRANCH  24  25
ENDBRANCH  21  24
ENDBRANCH  19  20
ENDBRANCH  16  19
ENDBRANCH  13  15
ENDBRANCH  10  13
ENDBRANCH   5   9
ENDBRANCH   1   5
BRANCH   3  32
ATOM     32  C   UNL A   1      31.360  30.672  25.859  1.00  0.00     0.117 C 
BRANCH  32  33
ATOM     33  C   UNL A   1      31.316  32.073  26.454  1.00  0.00     0.042 C 
BRANCH  33  34
ATOM     34  C   UNL A   1      32.603  32.498  27.149  1.00  0.00     0.118 C 
BRANCH  34  35
ATOM     35  N   UNL A   1      32.558  33.879  27.612  1.00  0.00    -0.352 N 
ATOM     36  C   UNL A   1      33.254  34.516  28.608  1.00  0.00     0.251 C 
ATOM     37  H   UNL A   1      31.920  34.452  27.128  1.00  0.00     0.163 HD
ATOM     38  O   UNL A   1      32.879  35.627  28.976  1.00  0.00    -0.269 OA
BRANCH  36  39
ATOM     39  C   UNL A   1      34.425  33.878  29.250  1.00  0.00     0.039 A 
ATOM     40  C   UNL A   1      35.707  34.322  28.914  1.00  0.00     0.014 A 
ATOM     41  C   UNL A   1      34.270  32.816  30.145  1.00  0.00     0.014 A 
ATOM     42  C   UNL A   1      36.827  33.753  29.529  1.00  0.00     0.010 A 
ATOM     43  C   UNL A   1      35.379  32.306  30.817  1.00  0.00     0.010 A 
ATOM     44  C   UNL A   1      36.669  32.766  30.514  1.00  0.00    -0.014 A 
BRANCH  44  45
ATOM     45  C   UNL A   1      37.834  32.189  31.234  1.00  0.00     0.031 A 
ATOM     46  C   UNL A   1      38.629  31.077  30.603  1.00  0.00     0.074 A 
ATOM     47  C   UNL A   1      38.126  32.610  32.480  1.00  0.00     0.049 A 
ATOM     48  N   UNL A   1      39.591  30.352  31.114  1.00  0.00    -0.248 NA
ATOM     49  C   UNL A   1      38.268  30.710  29.225  1.00  0.00     0.031 C 
ATOM     50  C   UNL A   1      37.405  33.654  33.212  1.00  0.00     0.029 A 
ATOM     51  N   UNL A   1      39.096  32.200  33.361  1.00  0.00    -0.354 N 
ATOM     52  C   UNL A   1      39.934  29.429  30.131  1.00  0.00     0.074 A 
ATOM     53  C   UNL A   1      39.039  29.654  29.016  1.00  0.00     0.031 C 
ATOM     54  C   UNL A   1      37.968  33.814  34.421  1.00  0.00     0.029 A 
ATOM     55  C   UNL A   1      39.057  32.855  34.571  1.00  0.00     0.049 A 
ATOM     56  H   UNL A   1      39.757  31.503  33.148  1.00  0.00     0.167 HD
ATOM     57  C   UNL A   1      40.919  28.496  30.149  1.00  0.00     0.034 A 
ATOM     58  C   UNL A   1      39.804  32.690  35.680  1.00  0.00     0.034 A 
ATOM     59  C   UNL A   1      41.818  28.301  31.259  1.00  0.00     0.049 A 
ATOM     60  C   UNL A   1      40.890  31.644  35.677  1.00  0.00     0.074 A 
ATOM     61  C   UNL A   1      42.880  27.418  31.366  1.00  0.00     0.029 A 
ATOM     62  N   UNL A   1      41.766  29.003  32.456  1.00  0.00    -0.354 N 
ATOM     63  N   UNL A   1      41.221  30.801  34.727  1.00  0.00    -0.248 NA
ATOM     64  C   UNL A   1      41.709  31.537  36.891  1.00  0.00     0.031 C 
ATOM     65  C   UNL A   1      43.436  27.552  32.644  1.00  0.00     0.029 A 
ATOM     66  C   UNL A   1      42.762  28.561  33.312  1.00  0.00     0.049 A 
ATOM     67  H   UNL A   1      41.115  29.712  32.667  1.00  0.00     0.167 HD
ATOM     68  C   UNL A   1      42.308  30.085  35.219  1.00  0.00     0.074 A 
ATOM     69  C   UNL A   1      42.582  30.604  36.544  1.00  0.00     0.031 C 
ATOM     70  C   UNL A   1      43.018  29.089  34.631  1.00  0.00     0.034 A 
BRANCH  57  71
ATOM     71  C   UNL A   1      41.051  27.606  28.937  1.00  0.00     0.023 A 
ATOM     72  C   UNL A   1      42.055  27.817  27.976  1.00  0.00     0.031 A 
ATOM     73  C   UNL A   1      40.150  26.549  28.726  1.00  0.00     0.131 A 
ATOM     74  C   UNL A   1      42.086  27.035  26.811  1.00  0.00     0.055 A 
ATOM     75  C   UNL A   1      40.234  25.722  27.603  1.00  0.00     0.041 A 
ATOM     76  F   UNL A   1      39.159  26.310  29.599  1.00  0.00    -0.206 F 
ATOM     77  C   UNL A   1      41.198  25.972  26.630  1.00  0.00     0.022 A 
BRANCH  74  78
ATOM     78  S   UNL A   1      43.220  27.510  25.479  1.00  0.00     0.124 S 
ATOM     79  O   UNL A   1      42.315  28.183  24.549  1.00  0.00    -0.237 OA
ATOM     80  O   UNL A   1      44.180  28.364  26.168  1.00  0.00    -0.237 OA
ATOM     81  O   UNL A   1      43.749  26.232  25.007  1.00  0.00    -0.744 OA
ENDBRANCH  74  78
ENDBRANCH  57  71
BRANCH  58  82
ATOM     82  C   UNL A   1      39.554  33.519  36.893  1.00  0.00     0.023 A 
ATOM     83  C   UNL A   1      40.339  34.650  37.167  1.00  0.00     0.031 A 
ATOM     84  C   UNL A   1      38.557  33.166  37.820  1.00  0.00     0.131 A 
ATOM     85  C   UNL A   1      40.151  35.358  38.364  1.00  0.00     0.055 A 
ATOM     86  C   UNL A   1      38.341  33.904  38.985  1.00  0.00     0.041 A 
ATOM     87  F   UNL A   1      37.772  32.098  37.601  1.00  0.00    -0.206 F 
ATOM     88  C   UNL A   1      39.149  35.000  39.269  1.00  0.00     0.022 A 
BRANCH  85  89
ATOM     89  S   UNL A   1      41.297  36.707  38.761  1.00  0.00     0.124 S 
ATOM     90  O   UNL A   1      41.955  36.927  37.479  1.00  0.00    -0.237 OA
ATOM     91  O   UNL A   1      40.384  37.757  39.203  1.00  0.00    -0.237 OA
ATOM     92  O   UNL A   1      42.142  36.137  39.809  1.00  0.00    -0.744 OA
ENDBRANCH  85  89
ENDBRANCH  58  82
BRANCH  70  93
ATOM     93  C   UNL A   1      44.191  28.543  35.403  1.00  0.00     0.023 A 
ATOM     94  C   UNL A   1      44.044  27.495  36.327  1.00  0.00     0.031 A 
ATOM     95  C   UNL A   1      45.473  29.092  35.219  1.00  0.00     0.131 A 
ATOM     96  C   UNL A   1      45.151  27.062  37.073  1.00  0.00     0.055 A 
ATOM     97  C   UNL A   1      46.580  28.622  35.924  1.00  0.00     0.041 A 
ATOM     98  F   UNL A   1      45.667  30.095  34.347  1.00  0.00    -0.206 F 
ATOM     99  C   UNL A   1      46.420  27.610  36.867  1.00  0.00     0.022 A 
BRANCH  96 100
ATOM    100  S   UNL A   1      44.895  25.828  38.376  1.00  0.00     0.124 S 
ATOM    101  O   UNL A   1      44.035  26.547  39.311  1.00  0.00    -0.237 OA
ATOM    102  O   UNL A   1      44.267  24.730  37.648  1.00  0.00    -0.237 OA
ATOM    103  O   UNL A   1      46.247  25.555  38.861  1.00  0.00    -0.744 OA
ENDBRANCH  96 100
ENDBRANCH  70  93
ENDBRANCH  44  45
ENDBRANCH  36  39
ENDBRANCH  34  35
ENDBRANCH  33  34
ENDBRANCH  32  33
ENDBRANCH   3  32
TORSDOF 22
ENDMDL
