MODEL 1
REMARK VINA RESULT:     -13.0      0.000      0.000
REMARK SMILES Cc1nnc(SCC2=C(C(=O)NCCCNC(=O)c3ccc(-c4c5nc(c(-c6cc(S(=O)(=O)[O-])ccc6F)c6ccc([nH]6)c(-c6cc(S(=O)(=O)[O-])ccc6F)c6nc(c(-c7cc(S(=O)(=O)[O-])ccc7F)c7ccc4[nH]7)C=C6)C=C5)cc3)N3C(=O)[C@H](NC(=O)c4ccc(F)cc4F)[C@H]3SC2)s1
REMARK SMILES IDX 14 1 13 2 12 3 10 4 11 5 9 7 8 8 99 9 82 10 98 11 83 12
REMARK SMILES IDX 97 13 84 14 85 15 7 16 6 17 5 18 1 19 2 20 3 21 100 22 4 23
REMARK SMILES IDX 86 24 87 25 88 27 89 28 90 29 95 30 91 31 94 32 96 33 92 34
REMARK SMILES IDX 93 35 15 36 16 37 17 38 18 40 19 41 20 42 81 43 21 44 80 45
REMARK SMILES IDX 22 46 23 47 24 48 74 49 25 50 79 51 73 52 75 53 26 54 78 55
REMARK SMILES IDX 72 56 71 57 27 59 59 60 39 61 58 62 40 63 43 64 57 65 76 66
REMARK SMILES IDX 41 67 42 68 56 70 77 71 44 72 28 73 29 74 37 75 30 76 36 77
REMARK SMILES IDX 38 78 35 79 31 80 32 81 33 82 34 83 60 84 61 85 69 86 62 87
REMARK SMILES IDX 68 88 70 89 67 90 63 91 64 92 65 93 66 94 45 95 46 96 54 97
REMARK SMILES IDX 47 98 53 99 55 100 52 101 48 102 49 103 50 104 51 105
REMARK H PARENT 12 6 86 26 16 39 75 58 43 69
REMARK Flexibility Score: inf
ROOT
ATOM      1  C   UNL A   1      38.116  19.899  25.069  1.00  0.00     0.042 C 
ENDROOT
BRANCH   1   2
ATOM      2  C   UNL A   1      37.166  21.041  24.735  1.00  0.00     0.118 C 
BRANCH   2   3
ATOM      3  N   UNL A   1      36.182  21.268  25.764  1.00  0.00    -0.351 N 
ATOM      4  C   UNL A   1      34.867  21.536  25.869  1.00  0.00     0.268 C 
ATOM      5  O   UNL A   1      34.437  21.153  26.967  1.00  0.00    -0.268 OA
ATOM      6  H   UNL A   1      36.594  21.210  26.655  1.00  0.00     0.163 HD
BRANCH   4   7
ATOM      7  C   UNL A   1      33.886  22.226  24.898  1.00  0.00     0.111 C 
ATOM      8  C   UNL A   1      32.757  21.799  24.239  1.00  0.00    -0.020 C 
ATOM      9  C   UNL A   1      31.943  22.651  23.237  1.00  0.00     0.106 C 
ATOM     10  N   UNL A   1      34.167  23.579  24.763  1.00  0.00    -0.290 N 
ATOM     11  S   UNL A   1      32.564  24.290  22.847  1.00  0.00    -0.129 SA
ATOM     12  C   UNL A   1      35.117  24.513  25.025  1.00  0.00     0.253 C 
ATOM     13  C   UNL A   1      33.098  24.515  24.544  1.00  0.00     0.181 C 
ATOM     14  O   UNL A   1      36.298  24.506  25.291  1.00  0.00    -0.272 OA
ATOM     15  C   UNL A   1      34.087  25.668  24.763  1.00  0.00     0.206 C 
BRANCH   8  16
ATOM     16  C   UNL A   1      32.080  20.457  24.290  1.00  0.00     0.111 C 
BRANCH  16  17
ATOM     17  S   UNL A   1      32.292  19.448  22.794  1.00  0.00    -0.089 SA
BRANCH  17  18
ATOM     18  C   UNL A   1      33.218  18.071  23.326  1.00  0.00     0.174 A 
ATOM     19  C   UNL A   1      35.472  15.692  25.325  1.00  0.00     0.081 C 
ATOM     20  C   UNL A   1      34.587  16.460  24.413  1.00  0.00     0.115 A 
ATOM     21  N   UNL A   1      34.238  16.081  23.203  1.00  0.00    -0.143 NA
ATOM     22  S   UNL A   1      33.945  17.985  24.880  1.00  0.00    -0.091 S 
ATOM     23  N   UNL A   1      33.462  17.028  22.566  1.00  0.00    -0.132 NA
ENDBRANCH  17  18
ENDBRANCH  16  17
ENDBRANCH   8  16
BRANCH  15  24
ATOM     24  N   UNL A   1      33.824  26.584  25.917  1.00  0.00    -0.338 N 
ATOM     25  C   UNL A   1      32.951  27.647  26.020  1.00  0.00     0.254 C 
ATOM     26  H   UNL A   1      34.356  26.400  26.725  1.00  0.00     0.164 HD
ATOM     27  O   UNL A   1      33.002  28.419  26.971  1.00  0.00    -0.269 OA
BRANCH  25  28
ATOM     28  C   UNL A   1      31.954  27.901  24.969  1.00  0.00     0.075 A 
ATOM     29  C   UNL A   1      30.730  27.229  24.986  1.00  0.00     0.020 A 
ATOM     30  C   UNL A   1      32.261  28.754  23.907  1.00  0.00     0.138 A 
ATOM     31  C   UNL A   1      29.786  27.500  23.988  1.00  0.00     0.040 A 
ATOM     32  C   UNL A   1      31.307  29.070  22.946  1.00  0.00     0.079 A 
ATOM     33  F   UNL A   1      33.467  29.334  23.822  1.00  0.00    -0.206 F 
ATOM     34  C   UNL A   1      30.073  28.441  23.000  1.00  0.00     0.126 A 
ATOM     35  F   UNL A   1      29.147  28.730  22.077  1.00  0.00    -0.207 F 
ENDBRANCH  25  28
ENDBRANCH  15  24
ENDBRANCH   4   7
ENDBRANCH   2   3
ENDBRANCH   1   2
BRANCH   1  36
ATOM     36  C   UNL A   1      39.241  20.347  25.983  1.00  0.00     0.118 C 
BRANCH  36  37
ATOM     37  N   UNL A   1      40.296  19.340  26.045  1.00  0.00    -0.352 N 
ATOM     38  C   UNL A   1      41.659  19.500  26.088  1.00  0.00     0.251 C 
ATOM     39  H   UNL A   1      39.984  18.407  26.058  1.00  0.00     0.163 HD
ATOM     40  O   UNL A   1      42.383  18.531  25.881  1.00  0.00    -0.269 OA
BRANCH  38  41
ATOM     41  C   UNL A   1      42.238  20.833  26.359  1.00  0.00     0.039 A 
ATOM     42  C   UNL A   1      42.495  21.692  25.288  1.00  0.00     0.014 A 
ATOM     43  C   UNL A   1      42.532  21.233  27.665  1.00  0.00     0.014 A 
ATOM     44  C   UNL A   1      42.996  22.972  25.537  1.00  0.00     0.010 A 
ATOM     45  C   UNL A   1      42.925  22.540  27.917  1.00  0.00     0.010 A 
ATOM     46  C   UNL A   1      43.180  23.418  26.855  1.00  0.00    -0.014 A 
BRANCH  46  47
ATOM     47  C   UNL A   1      43.676  24.785  27.150  1.00  0.00     0.031 A 
ATOM     48  C   UNL A   1      42.725  25.814  27.704  1.00  0.00     0.074 A 
ATOM     49  C   UNL A   1      44.950  25.110  26.855  1.00  0.00     0.049 A 
ATOM     50  N   UNL A   1      42.929  27.084  27.942  1.00  0.00    -0.248 NA
ATOM     51  C   UNL A   1      41.353  25.367  27.996  1.00  0.00     0.031 C 
ATOM     52  C   UNL A   1      45.942  24.203  26.271  1.00  0.00     0.029 A 
ATOM     53  N   UNL A   1      45.631  26.293  26.996  1.00  0.00    -0.354 N 
ATOM     54  C   UNL A   1      41.710  27.588  28.384  1.00  0.00     0.074 A 
ATOM     55  C   UNL A   1      40.758  26.502  28.328  1.00  0.00     0.031 C 
ATOM     56  C   UNL A   1      47.106  24.856  26.125  1.00  0.00     0.029 A 
ATOM     57  C   UNL A   1      46.934  26.240  26.554  1.00  0.00     0.049 A 
ATOM     58  H   UNL A   1      45.226  27.105  27.377  1.00  0.00     0.167 HD
ATOM     59  C   UNL A   1      41.420  28.838  28.816  1.00  0.00     0.034 A 
ATOM     60  C   UNL A   1      47.875  27.202  26.486  1.00  0.00     0.034 A 
ATOM     61  C   UNL A   1      42.396  29.895  28.898  1.00  0.00     0.049 A 
ATOM     62  C   UNL A   1      47.523  28.585  26.980  1.00  0.00     0.074 A 
ATOM     63  C   UNL A   1      42.236  31.176  29.397  1.00  0.00     0.029 A 
ATOM     64  N   UNL A   1      43.712  29.798  28.466  1.00  0.00    -0.354 N 
ATOM     65  N   UNL A   1      46.383  29.025  27.464  1.00  0.00    -0.248 NA
ATOM     66  C   UNL A   1      48.585  29.597  26.934  1.00  0.00     0.031 C 
ATOM     67  C   UNL A   1      43.429  31.875  29.196  1.00  0.00     0.029 A 
ATOM     68  C   UNL A   1      44.363  31.006  28.654  1.00  0.00     0.049 A 
ATOM     69  H   UNL A   1      44.122  28.990  28.082  1.00  0.00     0.167 HD
ATOM     70  C   UNL A   1      46.606  30.354  27.813  1.00  0.00     0.074 A 
ATOM     71  C   UNL A   1      47.993  30.636  27.504  1.00  0.00     0.031 C 
ATOM     72  C   UNL A   1      45.748  31.262  28.341  1.00  0.00     0.034 A 
BRANCH  59  73
ATOM     73  C   UNL A   1      39.996  29.140  29.213  1.00  0.00     0.023 A 
ATOM     74  C   UNL A   1      39.589  29.176  30.558  1.00  0.00     0.031 A 
ATOM     75  C   UNL A   1      39.032  29.413  28.226  1.00  0.00     0.131 A 
ATOM     76  C   UNL A   1      38.247  29.432  30.877  1.00  0.00     0.055 A 
ATOM     77  C   UNL A   1      37.715  29.739  28.553  1.00  0.00     0.041 A 
ATOM     78  F   UNL A   1      39.357  29.367  26.924  1.00  0.00    -0.206 F 
ATOM     79  C   UNL A   1      37.313  29.741  29.885  1.00  0.00     0.022 A 
BRANCH  76  80
ATOM     80  S   UNL A   1      37.713  29.252  32.600  1.00  0.00     0.124 S 
ATOM     81  O   UNL A   1      36.383  29.855  32.561  1.00  0.00    -0.237 OA
ATOM     82  O   UNL A   1      37.753  27.807  32.794  1.00  0.00    -0.237 OA
ATOM     83  O   UNL A   1      38.712  30.010  33.351  1.00  0.00    -0.744 OA
ENDBRANCH  76  80
ENDBRANCH  59  73
BRANCH  60  84
ATOM     84  C   UNL A   1      49.226  26.918  25.917  1.00  0.00     0.023 A 
ATOM     85  C   UNL A   1      50.315  26.615  26.749  1.00  0.00     0.031 A 
ATOM     86  C   UNL A   1      49.467  27.020  24.534  1.00  0.00     0.131 A 
ATOM     87  C   UNL A   1      51.604  26.500  26.206  1.00  0.00     0.055 A 
ATOM     88  C   UNL A   1      50.740  26.837  23.990  1.00  0.00     0.041 A 
ATOM     89  F   UNL A   1      48.465  27.303  23.688  1.00  0.00    -0.206 F 
ATOM     90  C   UNL A   1      51.822  26.595  24.831  1.00  0.00     0.022 A 
BRANCH  87  91
ATOM     91  S   UNL A   1      53.012  26.360  27.341  1.00  0.00     0.124 S 
ATOM     92  O   UNL A   1      53.708  25.195  26.806  1.00  0.00    -0.237 OA
ATOM     93  O   UNL A   1      53.678  27.645  27.157  1.00  0.00    -0.237 OA
ATOM     94  O   UNL A   1      52.379  26.167  28.644  1.00  0.00    -0.744 OA
ENDBRANCH  87  91
ENDBRANCH  60  84
BRANCH  72  95
ATOM     95  C   UNL A   1      46.306  32.625  28.668  1.00  0.00     0.023 A 
ATOM     96  C   UNL A   1      46.254  33.688  27.750  1.00  0.00     0.031 A 
ATOM     97  C   UNL A   1      46.905  32.859  29.919  1.00  0.00     0.131 A 
ATOM     98  C   UNL A   1      46.843  34.918  28.073  1.00  0.00     0.055 A 
ATOM     99  C   UNL A   1      47.428  34.106  30.261  1.00  0.00     0.041 A 
ATOM    100  F   UNL A   1      46.983  31.880  30.833  1.00  0.00    -0.206 F 
ATOM    101  C   UNL A   1      47.412  35.140  29.329  1.00  0.00     0.022 A 
BRANCH  98 102
ATOM    102  S   UNL A   1      46.947  36.195  26.790  1.00  0.00     0.124 S 
ATOM    103  O   UNL A   1      45.945  37.157  27.238  1.00  0.00    -0.237 OA
ATOM    104  O   UNL A   1      48.336  36.628  26.891  1.00  0.00    -0.237 OA
ATOM    105  O   UNL A   1      46.610  35.475  25.562  1.00  0.00    -0.744 OA
ENDBRANCH  98 102
ENDBRANCH  72  95
ENDBRANCH  46  47
ENDBRANCH  38  41
ENDBRANCH  36  37
ENDBRANCH   1  36
TORSDOF 18
ENDMDL
MODEL 2
REMARK VINA RESULT:     -12.7      5.378      9.278
REMARK SMILES Cc1nnc(SCC2=C(C(=O)NCCCNC(=O)c3ccc(-c4c5nc(c(-c6cc(S(=O)(=O)[O-])ccc6F)c6ccc([nH]6)c(-c6cc(S(=O)(=O)[O-])ccc6F)c6nc(c(-c7cc(S(=O)(=O)[O-])ccc7F)c7ccc4[nH]7)C=C6)C=C5)cc3)N3C(=O)[C@H](NC(=O)c4ccc(F)cc4F)[C@H]3SC2)s1
REMARK SMILES IDX 14 1 13 2 12 3 10 4 11 5 9 7 8 8 99 9 82 10 98 11 83 12
REMARK SMILES IDX 97 13 84 14 85 15 7 16 6 17 5 18 1 19 2 20 3 21 100 22 4 23
REMARK SMILES IDX 86 24 87 25 88 27 89 28 90 29 95 30 91 31 94 32 96 33 92 34
REMARK SMILES IDX 93 35 15 36 16 37 17 38 18 40 19 41 20 42 81 43 21 44 80 45
REMARK SMILES IDX 22 46 23 47 24 48 74 49 25 50 79 51 73 52 75 53 26 54 78 55
REMARK SMILES IDX 72 56 71 57 27 59 59 60 39 61 58 62 40 63 43 64 57 65 76 66
REMARK SMILES IDX 41 67 42 68 56 70 77 71 44 72 28 73 29 74 37 75 30 76 36 77
REMARK SMILES IDX 38 78 35 79 31 80 32 81 33 82 34 83 60 84 61 85 69 86 62 87
REMARK SMILES IDX 68 88 70 89 67 90 63 91 64 92 65 93 66 94 45 95 46 96 54 97
REMARK SMILES IDX 47 98 53 99 55 100 52 101 48 102 49 103 50 104 51 105
REMARK H PARENT 12 6 86 26 16 39 75 58 43 69
REMARK Flexibility Score: inf
ROOT
ATOM      1  C   UNL A   1      33.428  28.049  27.157  1.00  0.00     0.042 C 
ENDROOT
BRANCH   1   2
ATOM      2  C   UNL A   1      32.005  28.335  27.618  1.00  0.00     0.118 C 
BRANCH   2   3
ATOM      3  N   UNL A   1      31.050  27.385  27.105  1.00  0.00    -0.351 N 
ATOM      4  C   UNL A   1      30.953  26.477  26.115  1.00  0.00     0.268 C 
ATOM      5  O   UNL A   1      30.128  25.602  26.416  1.00  0.00    -0.268 OA
ATOM      6  H   UNL A   1      30.222  27.406  27.635  1.00  0.00     0.163 HD
BRANCH   4   7
ATOM      7  C   UNL A   1      31.654  26.385  24.744  1.00  0.00     0.111 C 
ATOM      8  C   UNL A   1      31.594  27.150  23.603  1.00  0.00    -0.020 C 
ATOM      9  C   UNL A   1      32.343  26.836  22.287  1.00  0.00     0.106 C 
ATOM     10  N   UNL A   1      32.608  25.376  24.724  1.00  0.00    -0.290 N 
ATOM     11  S   UNL A   1      33.299  25.318  22.221  1.00  0.00    -0.129 SA
ATOM     12  C   UNL A   1      33.041  24.290  25.413  1.00  0.00     0.253 C 
ATOM     13  C   UNL A   1      33.797  25.531  23.930  1.00  0.00     0.181 C 
ATOM     14  O   UNL A   1      32.590  23.561  26.268  1.00  0.00    -0.272 OA
ATOM     15  C   UNL A   1      34.382  24.277  24.595  1.00  0.00     0.206 C 
BRANCH   8  16
ATOM     16  C   UNL A   1      30.799  28.400  23.341  1.00  0.00     0.111 C 
BRANCH  16  17
ATOM     17  S   UNL A   1      29.013  28.131  23.144  1.00  0.00    -0.089 SA
BRANCH  17  18
ATOM     18  C   UNL A   1      28.383  29.698  22.713  1.00  0.00     0.174 A 
ATOM     19  C   UNL A   1      27.701  33.043  20.958  1.00  0.00     0.081 C 
ATOM     20  C   UNL A   1      27.823  31.809  21.774  1.00  0.00     0.115 A 
ATOM     21  N   UNL A   1      27.257  31.620  22.947  1.00  0.00    -0.143 NA
ATOM     22  S   UNL A   1      28.779  30.485  21.239  1.00  0.00    -0.091 S 
ATOM     23  N   UNL A   1      27.602  30.403  23.499  1.00  0.00    -0.132 NA
ENDBRANCH  17  18
ENDBRANCH  16  17
ENDBRANCH   8  16
BRANCH  15  24
ATOM     24  N   UNL A   1      35.636  24.448  25.392  1.00  0.00    -0.338 N 
ATOM     25  C   UNL A   1      36.486  23.497  25.917  1.00  0.00     0.254 C 
ATOM     26  H   UNL A   1      35.894  25.381  25.570  1.00  0.00     0.164 HD
ATOM     27  O   UNL A   1      37.364  23.802  26.717  1.00  0.00    -0.269 OA
BRANCH  25  28
ATOM     28  C   UNL A   1      36.337  22.079  25.554  1.00  0.00     0.075 A 
ATOM     29  C   UNL A   1      35.089  21.458  25.644  1.00  0.00     0.020 A 
ATOM     30  C   UNL A   1      37.459  21.328  25.196  1.00  0.00     0.138 A 
ATOM     31  C   UNL A   1      34.965  20.114  25.275  1.00  0.00     0.040 A 
ATOM     32  C   UNL A   1      37.332  20.010  24.774  1.00  0.00     0.079 A 
ATOM     33  F   UNL A   1      38.681  21.883  25.197  1.00  0.00    -0.206 F 
ATOM     34  C   UNL A   1      36.081  19.416  24.813  1.00  0.00     0.126 A 
ATOM     35  F   UNL A   1      35.944  18.144  24.415  1.00  0.00    -0.207 F 
ENDBRANCH  25  28
ENDBRANCH  15  24
ENDBRANCH   4   7
ENDBRANCH   2   3
ENDBRANCH   1   2
BRANCH   1  36
ATOM     36  C   UNL A   1      33.914  29.074  26.151  1.00  0.00     0.118 C 
BRANCH  36  37
ATOM     37  N   UNL A   1      33.835  30.424  26.700  1.00  0.00    -0.352 N 
ATOM     38  C   UNL A   1      34.581  31.013  27.691  1.00  0.00     0.251 C 
ATOM     39  H   UNL A   1      33.142  30.999  26.301  1.00  0.00     0.163 HD
ATOM     40  O   UNL A   1      34.196  32.068  28.186  1.00  0.00    -0.269 OA
BRANCH  38  41
ATOM     41  C   UNL A   1      35.821  30.362  28.166  1.00  0.00     0.039 A 
ATOM     42  C   UNL A   1      36.970  30.431  27.374  1.00  0.00     0.014 A 
ATOM     43  C   UNL A   1      35.850  29.683  29.386  1.00  0.00     0.014 A 
ATOM     44  C   UNL A   1      38.159  29.863  27.837  1.00  0.00     0.010 A 
ATOM     45  C   UNL A   1      37.056  29.216  29.891  1.00  0.00     0.010 A 
ATOM     46  C   UNL A   1      38.220  29.283  29.113  1.00  0.00    -0.014 A 
BRANCH  46  47
ATOM     47  C   UNL A   1      39.479  28.705  29.645  1.00  0.00     0.031 A 
ATOM     48  C   UNL A   1      40.178  29.383  30.794  1.00  0.00     0.074 A 
ATOM     49  C   UNL A   1      40.018  27.622  29.051  1.00  0.00     0.049 A 
ATOM     50  N   UNL A   1      41.330  29.098  31.344  1.00  0.00    -0.248 NA
ATOM     51  C   UNL A   1      39.513  30.560  31.380  1.00  0.00     0.031 C 
ATOM     52  C   UNL A   1      39.448  26.916  27.900  1.00  0.00     0.029 A 
ATOM     53  N   UNL A   1      41.171  26.929  29.323  1.00  0.00    -0.354 N 
ATOM     54  C   UNL A   1      41.537  30.071  32.317  1.00  0.00     0.074 A 
ATOM     55  C   UNL A   1      40.420  30.986  32.246  1.00  0.00     0.031 C 
ATOM     56  C   UNL A   1      40.240  25.880  27.581  1.00  0.00     0.029 A 
ATOM     57  C   UNL A   1      41.399  25.875  28.466  1.00  0.00     0.049 A 
ATOM     58  H   UNL A   1      41.778  27.163  30.061  1.00  0.00     0.167 HD
ATOM     59  C   UNL A   1      42.556  30.176  33.203  1.00  0.00     0.034 A 
ATOM     60  C   UNL A   1      42.436  25.016  28.393  1.00  0.00     0.034 A 
ATOM     61  C   UNL A   1      43.640  29.230  33.280  1.00  0.00     0.049 A 
ATOM     62  C   UNL A   1      43.555  25.155  29.397  1.00  0.00     0.074 A 
ATOM     63  C   UNL A   1      44.682  29.190  34.190  1.00  0.00     0.029 A 
ATOM     64  N   UNL A   1      43.826  28.161  32.414  1.00  0.00    -0.354 N 
ATOM     65  N   UNL A   1      43.696  26.039  30.360  1.00  0.00    -0.248 NA
ATOM     66  C   UNL A   1      44.645  24.176  29.318  1.00  0.00     0.031 C 
ATOM     67  C   UNL A   1      45.537  28.145  33.828  1.00  0.00     0.029 A 
ATOM     68  C   UNL A   1      44.984  27.477  32.747  1.00  0.00     0.049 A 
ATOM     69  H   UNL A   1      43.223  27.923  31.672  1.00  0.00     0.167 HD
ATOM     70  C   UNL A   1      44.872  25.696  31.021  1.00  0.00     0.074 A 
ATOM     71  C   UNL A   1      45.388  24.514  30.361  1.00  0.00     0.031 C 
ATOM     72  C   UNL A   1      45.476  26.299  32.076  1.00  0.00     0.034 A 
BRANCH  59  73
ATOM     73  C   UNL A   1      42.562  31.357  34.142  1.00  0.00     0.023 A 
ATOM     74  C   UNL A   1      41.739  31.408  35.280  1.00  0.00     0.031 A 
ATOM     75  C   UNL A   1      43.421  32.444  33.901  1.00  0.00     0.131 A 
ATOM     76  C   UNL A   1      41.758  32.541  36.107  1.00  0.00     0.055 A 
ATOM     77  C   UNL A   1      43.488  33.536  34.768  1.00  0.00     0.041 A 
ATOM     78  F   UNL A   1      44.211  32.462  32.816  1.00  0.00    -0.206 F 
ATOM     79  C   UNL A   1      42.647  33.594  35.875  1.00  0.00     0.022 A 
BRANCH  76  80
ATOM     80  S   UNL A   1      40.529  32.670  37.434  1.00  0.00     0.124 S 
ATOM     81  O   UNL A   1      39.607  31.591  37.089  1.00  0.00    -0.237 OA
ATOM     82  O   UNL A   1      41.335  32.462  38.632  1.00  0.00    -0.237 OA
ATOM     83  O   UNL A   1      39.989  34.018  37.274  1.00  0.00    -0.744 OA
ENDBRANCH  76  80
ENDBRANCH  59  73
BRANCH  60  84
ATOM     84  C   UNL A   1      42.490  23.966  27.333  1.00  0.00     0.023 A 
ATOM     85  C   UNL A   1      41.895  22.709  27.527  1.00  0.00     0.031 A 
ATOM     86  C   UNL A   1      43.205  24.175  26.140  1.00  0.00     0.131 A 
ATOM     87  C   UNL A   1      42.087  21.688  26.582  1.00  0.00     0.055 A 
ATOM     88  C   UNL A   1      43.336  23.177  25.171  1.00  0.00     0.041 A 
ATOM     89  F   UNL A   1      43.792  25.357  25.896  1.00  0.00    -0.206 F 
ATOM     90  C   UNL A   1      42.792  21.918  25.400  1.00  0.00     0.022 A 
BRANCH  87  91
ATOM     91  S   UNL A   1      41.517  20.014  26.989  1.00  0.00     0.124 S 
ATOM     92  O   UNL A   1      42.771  19.345  27.313  1.00  0.00    -0.237 OA
ATOM     93  O   UNL A   1      40.615  20.266  28.108  1.00  0.00    -0.237 OA
ATOM     94  O   UNL A   1      40.869  19.568  25.757  1.00  0.00    -0.744 OA
ENDBRANCH  87  91
ENDBRANCH  60  84
BRANCH  72  95
ATOM     95  C   UNL A   1      46.728  25.651  32.613  1.00  0.00     0.023 A 
ATOM     96  C   UNL A   1      46.685  24.695  33.643  1.00  0.00     0.031 A 
ATOM     97  C   UNL A   1      47.984  26.001  32.086  1.00  0.00     0.131 A 
ATOM     98  C   UNL A   1      47.879  24.168  34.155  1.00  0.00     0.055 A 
ATOM     99  C   UNL A   1      49.164  25.420  32.551  1.00  0.00     0.041 A 
ATOM    100  F   UNL A   1      48.083  26.908  31.102  1.00  0.00    -0.206 F 
ATOM    101  C   UNL A   1      49.116  24.509  33.602  1.00  0.00     0.022 A 
BRANCH  98 102
ATOM    102  S   UNL A   1      47.800  23.105  35.621  1.00  0.00     0.124 S 
ATOM    103  O   UNL A   1      48.512  21.913  35.171  1.00  0.00    -0.237 OA
ATOM    104  O   UNL A   1      48.482  23.910  36.629  1.00  0.00    -0.237 OA
ATOM    105  O   UNL A   1      46.366  22.925  35.838  1.00  0.00    -0.744 OA
ENDBRANCH  98 102
ENDBRANCH  72  95
ENDBRANCH  46  47
ENDBRANCH  38  41
ENDBRANCH  36  37
ENDBRANCH   1  36
TORSDOF 18
ENDMDL
MODEL 3
REMARK VINA RESULT:     -12.6      1.818      2.166
REMARK SMILES Cc1nnc(SCC2=C(C(=O)NCCCNC(=O)c3ccc(-c4c5nc(c(-c6cc(S(=O)(=O)[O-])ccc6F)c6ccc([nH]6)c(-c6cc(S(=O)(=O)[O-])ccc6F)c6nc(c(-c7cc(S(=O)(=O)[O-])ccc7F)c7ccc4[nH]7)C=C6)C=C5)cc3)N3C(=O)[C@H](NC(=O)c4ccc(F)cc4F)[C@H]3SC2)s1
REMARK SMILES IDX 14 1 13 2 12 3 10 4 11 5 9 7 8 8 99 9 82 10 98 11 83 12
REMARK SMILES IDX 97 13 84 14 85 15 7 16 6 17 5 18 1 19 2 20 3 21 100 22 4 23
REMARK SMILES IDX 86 24 87 25 88 27 89 28 90 29 95 30 91 31 94 32 96 33 92 34
REMARK SMILES IDX 93 35 15 36 16 37 17 38 18 40 19 41 20 42 81 43 21 44 80 45
REMARK SMILES IDX 22 46 23 47 24 48 74 49 25 50 79 51 73 52 75 53 26 54 78 55
REMARK SMILES IDX 72 56 71 57 27 59 59 60 39 61 58 62 40 63 43 64 57 65 76 66
REMARK SMILES IDX 41 67 42 68 56 70 77 71 44 72 28 73 29 74 37 75 30 76 36 77
REMARK SMILES IDX 38 78 35 79 31 80 32 81 33 82 34 83 60 84 61 85 69 86 62 87
REMARK SMILES IDX 68 88 70 89 67 90 63 91 64 92 65 93 66 94 45 95 46 96 54 97
REMARK SMILES IDX 47 98 53 99 55 100 52 101 48 102 49 103 50 104 51 105
REMARK H PARENT 12 6 86 26 16 39 75 58 43 69
REMARK Flexibility Score: inf
ROOT
ATOM      1  C   UNL A   1      37.978  19.518  25.023  1.00  0.00     0.042 C 
ENDROOT
BRANCH   1   2
ATOM      2  C   UNL A   1      36.972  20.568  24.570  1.00  0.00     0.118 C 
BRANCH   2   3
ATOM      3  N   UNL A   1      36.142  21.048  25.646  1.00  0.00    -0.351 N 
ATOM      4  C   UNL A   1      34.891  21.510  25.834  1.00  0.00     0.268 C 
ATOM      5  O   UNL A   1      34.536  21.319  27.006  1.00  0.00    -0.268 OA
ATOM      6  H   UNL A   1      36.635  21.034  26.497  1.00  0.00     0.163 HD
BRANCH   4   7
ATOM      7  C   UNL A   1      33.910  22.217  24.876  1.00  0.00     0.111 C 
ATOM      8  C   UNL A   1      32.782  21.801  24.208  1.00  0.00    -0.020 C 
ATOM      9  C   UNL A   1      31.967  22.671  23.222  1.00  0.00     0.106 C 
ATOM     10  N   UNL A   1      34.189  23.573  24.767  1.00  0.00    -0.290 N 
ATOM     11  S   UNL A   1      32.586  24.318  22.864  1.00  0.00    -0.129 SA
ATOM     12  C   UNL A   1      35.137  24.503  25.048  1.00  0.00     0.253 C 
ATOM     13  C   UNL A   1      33.119  24.511  24.566  1.00  0.00     0.181 C 
ATOM     14  O   UNL A   1      36.318  24.493  25.315  1.00  0.00    -0.272 OA
ATOM     15  C   UNL A   1      34.106  25.662  24.808  1.00  0.00     0.206 C 
BRANCH   8  16
ATOM     16  C   UNL A   1      32.108  20.458  24.233  1.00  0.00     0.111 C 
BRANCH  16  17
ATOM     17  S   UNL A   1      32.377  19.451  22.744  1.00  0.00    -0.089 SA
BRANCH  17  18
ATOM     18  C   UNL A   1      32.838  17.885  23.357  1.00  0.00     0.174 A 
ATOM     19  C   UNL A   1      33.372  14.810  25.591  1.00  0.00     0.081 C 
ATOM     20  C   UNL A   1      33.267  15.894  24.582  1.00  0.00     0.115 A 
ATOM     21  N   UNL A   1      33.883  15.905  23.420  1.00  0.00    -0.143 NA
ATOM     22  S   UNL A   1      32.315  17.293  24.882  1.00  0.00    -0.091 S 
ATOM     23  N   UNL A   1      33.650  17.072  22.720  1.00  0.00    -0.132 NA
ENDBRANCH  17  18
ENDBRANCH  16  17
ENDBRANCH   8  16
BRANCH  15  24
ATOM     24  N   UNL A   1      33.841  26.554  25.979  1.00  0.00    -0.338 N 
ATOM     25  C   UNL A   1      32.951  27.601  26.109  1.00  0.00     0.254 C 
ATOM     26  H   UNL A   1      34.384  26.366  26.778  1.00  0.00     0.164 HD
ATOM     27  O   UNL A   1      33.000  28.359  27.072  1.00  0.00    -0.269 OA
BRANCH  25  28
ATOM     28  C   UNL A   1      31.939  27.855  25.073  1.00  0.00     0.075 A 
ATOM     29  C   UNL A   1      30.783  27.073  25.015  1.00  0.00     0.020 A 
ATOM     30  C   UNL A   1      32.168  28.825  24.095  1.00  0.00     0.138 A 
ATOM     31  C   UNL A   1      29.822  27.344  24.034  1.00  0.00     0.040 A 
ATOM     32  C   UNL A   1      31.193  29.136  23.155  1.00  0.00     0.079 A 
ATOM     33  F   UNL A   1      33.315  29.520  24.077  1.00  0.00    -0.206 F 
ATOM     34  C   UNL A   1      30.023  28.393  23.137  1.00  0.00     0.126 A 
ATOM     35  F   UNL A   1      29.077  28.677  22.232  1.00  0.00    -0.207 F 
ENDBRANCH  25  28
ENDBRANCH  15  24
ENDBRANCH   4   7
ENDBRANCH   2   3
ENDBRANCH   1   2
BRANCH   1  36
ATOM     36  C   UNL A   1      39.012  20.096  25.969  1.00  0.00     0.118 C 
BRANCH  36  37
ATOM     37  N   UNL A   1      40.197  19.246  26.030  1.00  0.00    -0.352 N 
ATOM     38  C   UNL A   1      41.522  19.594  26.124  1.00  0.00     0.251 C 
ATOM     39  H   UNL A   1      40.020  18.278  25.998  1.00  0.00     0.163 HD
ATOM     40  O   UNL A   1      42.382  18.746  25.906  1.00  0.00    -0.269 OA
BRANCH  38  41
ATOM     41  C   UNL A   1      41.898  20.983  26.463  1.00  0.00     0.039 A 
ATOM     42  C   UNL A   1      42.289  21.282  27.771  1.00  0.00     0.014 A 
ATOM     43  C   UNL A   1      41.861  21.990  25.496  1.00  0.00     0.014 A 
ATOM     44  C   UNL A   1      42.693  22.580  28.089  1.00  0.00     0.010 A 
ATOM     45  C   UNL A   1      42.366  23.250  25.787  1.00  0.00     0.010 A 
ATOM     46  C   UNL A   1      42.769  23.564  27.092  1.00  0.00    -0.014 A 
BRANCH  46  47
ATOM     47  C   UNL A   1      43.231  24.942  27.394  1.00  0.00     0.031 A 
ATOM     48  C   UNL A   1      42.279  25.918  28.034  1.00  0.00     0.074 A 
ATOM     49  C   UNL A   1      44.471  25.324  27.030  1.00  0.00     0.049 A 
ATOM     50  N   UNL A   1      42.451  27.189  28.295  1.00  0.00    -0.248 NA
ATOM     51  C   UNL A   1      40.946  25.410  28.398  1.00  0.00     0.031 C 
ATOM     52  C   UNL A   1      45.457  24.471  26.360  1.00  0.00     0.029 A 
ATOM     53  N   UNL A   1      45.115  26.528  27.162  1.00  0.00    -0.354 N 
ATOM     54  C   UNL A   1      41.244  27.634  28.826  1.00  0.00     0.074 A 
ATOM     55  C   UNL A   1      40.331  26.513  28.798  1.00  0.00     0.031 C 
ATOM     56  C   UNL A   1      46.585  25.172  26.161  1.00  0.00     0.029 A 
ATOM     57  C   UNL A   1      46.389  26.537  26.639  1.00  0.00     0.049 A 
ATOM     58  H   UNL A   1      44.705  27.313  27.590  1.00  0.00     0.167 HD
ATOM     59  C   UNL A   1      40.936  28.860  29.311  1.00  0.00     0.034 A 
ATOM     60  C   UNL A   1      47.288  27.536  26.540  1.00  0.00     0.034 A 
ATOM     61  C   UNL A   1      41.875  29.951  29.361  1.00  0.00     0.049 A 
ATOM     62  C   UNL A   1      46.917  28.891  27.093  1.00  0.00     0.074 A 
ATOM     63  C   UNL A   1      41.699  31.212  29.906  1.00  0.00     0.029 A 
ATOM     64  N   UNL A   1      43.164  29.917  28.846  1.00  0.00    -0.354 N 
ATOM     65  N   UNL A   1      45.794  29.274  27.660  1.00  0.00    -0.248 NA
ATOM     66  C   UNL A   1      47.935  29.945  27.011  1.00  0.00     0.031 C 
ATOM     67  C   UNL A   1      42.851  31.961  29.651  1.00  0.00     0.029 A 
ATOM     68  C   UNL A   1      43.780  31.144  29.028  1.00  0.00     0.049 A 
ATOM     69  H   UNL A   1      43.579  29.135  28.415  1.00  0.00     0.167 HD
ATOM     70  C   UNL A   1      45.989  30.601  28.032  1.00  0.00     0.074 A 
ATOM     71  C   UNL A   1      47.341  30.944  27.646  1.00  0.00     0.031 C 
ATOM     72  C   UNL A   1      45.132  31.461  28.637  1.00  0.00     0.034 A 
BRANCH  59  73
ATOM     73  C   UNL A   1      39.530  29.095  29.803  1.00  0.00     0.023 A 
ATOM     74  C   UNL A   1      38.575  29.782  29.033  1.00  0.00     0.031 A 
ATOM     75  C   UNL A   1      39.133  28.606  31.061  1.00  0.00     0.131 A 
ATOM     76  C   UNL A   1      37.289  30.003  29.547  1.00  0.00     0.055 A 
ATOM     77  C   UNL A   1      37.829  28.765  31.535  1.00  0.00     0.041 A 
ATOM     78  F   UNL A   1      40.008  27.965  31.851  1.00  0.00    -0.206 F 
ATOM     79  C   UNL A   1      36.900  29.474  30.781  1.00  0.00     0.022 A 
BRANCH  76  80
ATOM     80  S   UNL A   1      36.157  31.080  28.626  1.00  0.00     0.124 S 
ATOM     81  O   UNL A   1      37.026  32.206  28.295  1.00  0.00    -0.237 OA
ATOM     82  O   UNL A   1      35.756  30.234  27.507  1.00  0.00    -0.237 OA
ATOM     83  O   UNL A   1      35.102  31.377  29.592  1.00  0.00    -0.744 OA
ENDBRANCH  76  80
ENDBRANCH  59  73
BRANCH  60  84
ATOM     84  C   UNL A   1      48.609  27.319  25.880  1.00  0.00     0.023 A 
ATOM     85  C   UNL A   1      48.781  27.554  24.506  1.00  0.00     0.031 A 
ATOM     86  C   UNL A   1      49.702  26.798  26.597  1.00  0.00     0.131 A 
ATOM     87  C   UNL A   1      49.986  27.200  23.878  1.00  0.00     0.055 A 
ATOM     88  C   UNL A   1      50.922  26.512  25.980  1.00  0.00     0.041 A 
ATOM     89  F   UNL A   1      49.600  26.558  27.913  1.00  0.00    -0.206 F 
ATOM     90  C   UNL A   1      51.062  26.694  24.608  1.00  0.00     0.022 A 
BRANCH  87  91
ATOM     91  S   UNL A   1      50.075  27.285  22.068  1.00  0.00     0.124 S 
ATOM     92  O   UNL A   1      51.407  26.748  21.812  1.00  0.00    -0.237 OA
ATOM     93  O   UNL A   1      48.955  26.439  21.670  1.00  0.00    -0.237 OA
ATOM     94  O   UNL A   1      49.910  28.710  21.787  1.00  0.00    -0.744 OA
ENDBRANCH  87  91
ENDBRANCH  60  84
BRANCH  72  95
ATOM     95  C   UNL A   1      45.659  32.835  28.968  1.00  0.00     0.023 A 
ATOM     96  C   UNL A   1      45.628  33.886  28.034  1.00  0.00     0.031 A 
ATOM     97  C   UNL A   1      46.204  33.094  30.238  1.00  0.00     0.131 A 
ATOM     98  C   UNL A   1      46.189  35.128  28.363  1.00  0.00     0.055 A 
ATOM     99  C   UNL A   1      46.697  34.353  30.584  1.00  0.00     0.041 A 
ATOM    100  F   UNL A   1      46.260  32.128  31.168  1.00  0.00    -0.206 F 
ATOM    101  C   UNL A   1      46.705  35.374  29.638  1.00  0.00     0.022 A 
BRANCH  98 102
ATOM    102  S   UNL A   1      46.326  36.389  27.068  1.00  0.00     0.124 S 
ATOM    103  O   UNL A   1      46.246  35.586  25.852  1.00  0.00    -0.237 OA
ATOM    104  O   UNL A   1      45.175  37.245  27.341  1.00  0.00    -0.237 OA
ATOM    105  O   UNL A   1      47.628  37.002  27.322  1.00  0.00    -0.744 OA
ENDBRANCH  98 102
ENDBRANCH  72  95
ENDBRANCH  46  47
ENDBRANCH  38  41
ENDBRANCH  36  37
ENDBRANCH   1  36
TORSDOF 18
ENDMDL
