MODEL 1
REMARK VINA RESULT:     -11.8      0.000      0.000
REMARK SMILES C=C[C@@H](C)Oc1cnc2ccccc2c1C(=O)NCCCNC(=O)c1ccc(-c2c3nc(c(-c4cc(S(=O)(=O)[O-])ccc4F)c4ccc([nH]4)c(-c4cc(S(=O)(=O)[O-])ccc4F)c4nc(c(-c5cc(S(=O)(=O)[O-])ccc5F)c5ccc2[nH]5)C=C4)C=C3)cc1
REMARK SMILES IDX 20 1 19 2 18 3 16 4 17 5 15 7 6 8 7 9 8 10 14 11 9 12 13 13
REMARK SMILES IDX 10 14 12 15 11 16 5 17 3 18 4 19 2 20 1 21 21 22 22 23 23 24
REMARK SMILES IDX 24 26 25 27 26 28 87 29 27 30 86 31 28 32 29 33 30 34 80 35
REMARK SMILES IDX 31 36 85 37 79 38 81 39 32 40 84 41 78 42 77 43 33 45 65 46
REMARK SMILES IDX 45 47 64 48 46 49 49 50 63 51 82 52 47 53 48 54 62 56 83 57
REMARK SMILES IDX 50 58 34 59 35 60 43 61 36 62 42 63 44 64 41 65 37 66 38 67
REMARK SMILES IDX 39 68 40 69 66 70 67 71 75 72 68 73 74 74 76 75 73 76 69 77
REMARK SMILES IDX 70 78 71 79 72 80 51 81 52 82 60 83 53 84 59 85 61 86 58 87
REMARK SMILES IDX 54 88 55 89 56 90 57 91
REMARK H PARENT 18 6 22 25 81 44 49 55
REMARK Flexibility Score: inf
ROOT
ATOM      1  C   UNL A   1      31.443  32.240  26.715  1.00  0.00     0.042 C 
ENDROOT
BRANCH   1   2
ATOM      2  C   UNL A   1      31.428  30.711  26.552  1.00  0.00     0.118 C 
BRANCH   2   3
ATOM      3  N   UNL A   1      32.211  30.332  25.385  1.00  0.00    -0.352 N 
ATOM      4  C   UNL A   1      32.360  29.225  24.581  1.00  0.00     0.255 C 
ATOM      5  O   UNL A   1      33.322  29.320  23.812  1.00  0.00    -0.269 OA
ATOM      6  H   UNL A   1      32.795  31.069  25.091  1.00  0.00     0.163 HD
BRANCH   4   7
ATOM      7  C   UNL A   1      31.444  28.023  24.490  1.00  0.00     0.092 A 
ATOM      8  C   UNL A   1      30.245  28.204  23.757  1.00  0.00     0.151 A 
ATOM      9  C   UNL A   1      29.350  27.149  23.705  1.00  0.00     0.159 A 
ATOM     10  N   UNL A   1      29.481  25.998  24.386  1.00  0.00    -0.252 NA
ATOM     11  C   UNL A   1      31.687  26.728  25.049  1.00  0.00     0.017 A 
ATOM     12  C   UNL A   1      30.629  25.789  25.027  1.00  0.00     0.071 A 
ATOM     13  C   UNL A   1      32.913  26.243  25.553  1.00  0.00     0.011 A 
ATOM     14  C   UNL A   1      30.766  24.554  25.646  1.00  0.00     0.029 A 
ATOM     15  C   UNL A   1      33.044  25.007  26.190  1.00  0.00     0.001 A 
ATOM     16  C   UNL A   1      31.952  24.166  26.260  1.00  0.00     0.002 A 
BRANCH   8  17
ATOM     17  O   UNL A   1      30.045  29.315  22.988  1.00  0.00    -0.484 OA
BRANCH  17  18
ATOM     18  C   UNL A   1      28.828  30.071  23.068  1.00  0.00     0.192 C 
ATOM     19  C   UNL A   1      28.065  30.157  21.747  1.00  0.00     0.057 C 
BRANCH  18  20
ATOM     20  C   UNL A   1      29.028  31.420  23.720  1.00  0.00     0.009 C 
ATOM     21  C   UNL A   1      28.740  32.594  23.141  1.00  0.00     0.008 C 
ENDBRANCH  18  20
ENDBRANCH  17  18
ENDBRANCH   8  17
ENDBRANCH   4   7
ENDBRANCH   2   3
ENDBRANCH   1   2
BRANCH   1  22
ATOM     22  C   UNL A   1      32.775  32.828  27.166  1.00  0.00     0.118 C 
BRANCH  22  23
ATOM     23  N   UNL A   1      32.625  34.182  27.671  1.00  0.00    -0.352 N 
ATOM     24  C   UNL A   1      33.170  34.786  28.779  1.00  0.00     0.251 C 
ATOM     25  H   UNL A   1      32.039  34.761  27.132  1.00  0.00     0.163 HD
ATOM     26  O   UNL A   1      32.686  35.858  29.153  1.00  0.00    -0.269 OA
BRANCH  24  27
ATOM     27  C   UNL A   1      34.300  34.186  29.536  1.00  0.00     0.039 A 
ATOM     28  C   UNL A   1      35.608  34.448  29.111  1.00  0.00     0.014 A 
ATOM     29  C   UNL A   1      34.098  33.311  30.607  1.00  0.00     0.014 A 
ATOM     30  C   UNL A   1      36.698  33.874  29.778  1.00  0.00     0.010 A 
ATOM     31  C   UNL A   1      35.186  32.814  31.328  1.00  0.00     0.010 A 
ATOM     32  C   UNL A   1      36.500  33.071  30.911  1.00  0.00    -0.014 A 
BRANCH  32  33
ATOM     33  C   UNL A   1      37.646  32.454  31.639  1.00  0.00     0.031 A 
ATOM     34  C   UNL A   1      38.418  31.320  31.012  1.00  0.00     0.074 A 
ATOM     35  C   UNL A   1      37.965  32.879  32.878  1.00  0.00     0.049 A 
ATOM     36  N   UNL A   1      39.392  30.600  31.510  1.00  0.00    -0.248 NA
ATOM     37  C   UNL A   1      38.015  30.921  29.655  1.00  0.00     0.031 C 
ATOM     38  C   UNL A   1      37.274  33.941  33.612  1.00  0.00     0.029 A 
ATOM     39  N   UNL A   1      38.947  32.466  33.747  1.00  0.00    -0.354 N 
ATOM     40  C   UNL A   1      39.703  29.652  30.538  1.00  0.00     0.074 A 
ATOM     41  C   UNL A   1      38.767  29.849  29.451  1.00  0.00     0.031 C 
ATOM     42  C   UNL A   1      37.870  34.117  34.802  1.00  0.00     0.029 A 
ATOM     43  C   UNL A   1      38.957  33.152  34.940  1.00  0.00     0.049 A 
ATOM     44  H   UNL A   1      39.585  31.747  33.534  1.00  0.00     0.167 HD
ATOM     45  C   UNL A   1      40.691  28.722  30.538  1.00  0.00     0.034 A 
ATOM     46  C   UNL A   1      39.745  33.015  36.025  1.00  0.00     0.034 A 
ATOM     47  C   UNL A   1      41.630  28.552  31.620  1.00  0.00     0.049 A 
ATOM     48  C   UNL A   1      40.837  31.974  36.004  1.00  0.00     0.074 A 
ATOM     49  C   UNL A   1      42.695  27.671  31.711  1.00  0.00     0.029 A 
ATOM     50  N   UNL A   1      41.619  29.280  32.804  1.00  0.00    -0.354 N 
ATOM     51  N   UNL A   1      41.138  31.110  35.061  1.00  0.00    -0.248 NA
ATOM     52  C   UNL A   1      41.703  31.901  37.187  1.00  0.00     0.031 C 
ATOM     53  C   UNL A   1      43.289  27.826  32.968  1.00  0.00     0.029 A 
ATOM     54  C   UNL A   1      42.645  28.856  33.635  1.00  0.00     0.049 A 
ATOM     55  H   UNL A   1      40.976  29.993  33.021  1.00  0.00     0.167 HD
ATOM     56  C   UNL A   1      42.256  30.420  35.523  1.00  0.00     0.074 A 
ATOM     57  C   UNL A   1      42.579  30.976  36.821  1.00  0.00     0.031 C 
ATOM     58  C   UNL A   1      42.956  29.420  34.927  1.00  0.00     0.034 A 
BRANCH  45  59
ATOM     59  C   UNL A   1      40.785  27.808  29.336  1.00  0.00     0.023 A 
ATOM     60  C   UNL A   1      41.747  28.008  28.330  1.00  0.00     0.031 A 
ATOM     61  C   UNL A   1      39.883  26.742  29.176  1.00  0.00     0.131 A 
ATOM     62  C   UNL A   1      41.731  27.212  27.173  1.00  0.00     0.055 A 
ATOM     63  C   UNL A   1      39.928  25.898  28.063  1.00  0.00     0.041 A 
ATOM     64  F   UNL A   1      38.929  26.509  30.092  1.00  0.00    -0.206 F 
ATOM     65  C   UNL A   1      40.844  26.142  27.045  1.00  0.00     0.022 A 
BRANCH  62  66
ATOM     66  S   UNL A   1      42.779  27.694  25.774  1.00  0.00     0.124 S 
ATOM     67  O   UNL A   1      42.493  29.124  25.672  1.00  0.00    -0.237 OA
ATOM     68  O   UNL A   1      44.117  27.345  26.248  1.00  0.00    -0.237 OA
ATOM     69  O   UNL A   1      42.277  26.883  24.672  1.00  0.00    -0.744 OA
ENDBRANCH  62  66
ENDBRANCH  45  59
BRANCH  46  70
ATOM     70  C   UNL A   1      39.546  33.883  37.222  1.00  0.00     0.023 A 
ATOM     71  C   UNL A   1      38.897  33.396  38.368  1.00  0.00     0.031 A 
ATOM     72  C   UNL A   1      39.962  35.227  37.222  1.00  0.00     0.131 A 
ATOM     73  C   UNL A   1      38.638  34.257  39.446  1.00  0.00     0.055 A 
ATOM     74  C   UNL A   1      39.750  36.064  38.318  1.00  0.00     0.041 A 
ATOM     75  F   UNL A   1      40.593  35.742  36.156  1.00  0.00    -0.206 F 
ATOM     76  C   UNL A   1      39.071  35.585  39.434  1.00  0.00     0.022 A 
BRANCH  73  77
ATOM     77  S   UNL A   1      37.644  33.638  40.831  1.00  0.00     0.124 S 
ATOM     78  O   UNL A   1      38.572  32.718  41.477  1.00  0.00    -0.237 OA
ATOM     79  O   UNL A   1      37.346  34.867  41.560  1.00  0.00    -0.237 OA
ATOM     80  O   UNL A   1      36.497  33.013  40.174  1.00  0.00    -0.744 OA
ENDBRANCH  73  77
ENDBRANCH  46  70
BRANCH  58  81
ATOM     81  C   UNL A   1      44.177  28.913  35.653  1.00  0.00     0.023 A 
ATOM     82  C   UNL A   1      44.115  27.832  36.550  1.00  0.00     0.031 A 
ATOM     83  C   UNL A   1      45.422  29.539  35.457  1.00  0.00     0.131 A 
ATOM     84  C   UNL A   1      45.262  27.451  37.265  1.00  0.00     0.055 A 
ATOM     85  C   UNL A   1      46.572  29.115  36.123  1.00  0.00     0.041 A 
ATOM     86  F   UNL A   1      45.539  30.577  34.612  1.00  0.00    -0.206 F 
ATOM     87  C   UNL A   1      46.493  28.075  37.045  1.00  0.00     0.022 A 
BRANCH  84  88
ATOM     88  S   UNL A   1      45.100  26.196  38.565  1.00  0.00     0.124 S 
ATOM     89  O   UNL A   1      44.251  26.875  39.538  1.00  0.00    -0.237 OA
ATOM     90  O   UNL A   1      44.484  25.084  37.849  1.00  0.00    -0.237 OA
ATOM     91  O   UNL A   1      46.478  25.969  38.995  1.00  0.00    -0.744 OA
ENDBRANCH  84  88
ENDBRANCH  58  81
ENDBRANCH  32  33
ENDBRANCH  24  27
ENDBRANCH  22  23
ENDBRANCH   1  22
TORSDOF 16
ENDMDL
MODEL 2
REMARK VINA RESULT:     -11.6      3.785      8.593
REMARK SMILES C=C[C@@H](C)Oc1cnc2ccccc2c1C(=O)NCCCNC(=O)c1ccc(-c2c3nc(c(-c4cc(S(=O)(=O)[O-])ccc4F)c4ccc([nH]4)c(-c4cc(S(=O)(=O)[O-])ccc4F)c4nc(c(-c5cc(S(=O)(=O)[O-])ccc5F)c5ccc2[nH]5)C=C4)C=C3)cc1
REMARK SMILES IDX 20 1 19 2 18 3 16 4 17 5 15 7 6 8 7 9 8 10 14 11 9 12 13 13
REMARK SMILES IDX 10 14 12 15 11 16 5 17 3 18 4 19 2 20 1 21 21 22 22 23 23 24
REMARK SMILES IDX 24 26 25 27 26 28 87 29 27 30 86 31 28 32 29 33 30 34 80 35
REMARK SMILES IDX 31 36 85 37 79 38 81 39 32 40 84 41 78 42 77 43 33 45 65 46
REMARK SMILES IDX 45 47 64 48 46 49 49 50 63 51 82 52 47 53 48 54 62 56 83 57
REMARK SMILES IDX 50 58 34 59 35 60 43 61 36 62 42 63 44 64 41 65 37 66 38 67
REMARK SMILES IDX 39 68 40 69 66 70 67 71 75 72 68 73 74 74 76 75 73 76 69 77
REMARK SMILES IDX 70 78 71 79 72 80 51 81 52 82 60 83 53 84 59 85 61 86 58 87
REMARK SMILES IDX 54 88 55 89 56 90 57 91
REMARK H PARENT 18 6 22 25 81 44 49 55
REMARK Flexibility Score: inf
ROOT
ATOM      1  C   UNL A   1      33.208  28.191  26.902  1.00  0.00     0.042 C 
ENDROOT
BRANCH   1   2
ATOM      2  C   UNL A   1      31.687  28.348  27.066  1.00  0.00     0.118 C 
BRANCH   2   3
ATOM      3  N   UNL A   1      31.054  27.037  27.069  1.00  0.00    -0.352 N 
ATOM      4  C   UNL A   1      30.841  26.013  26.173  1.00  0.00     0.255 C 
ATOM      5  O   UNL A   1      30.056  25.161  26.601  1.00  0.00    -0.269 OA
ATOM      6  H   UNL A   1      30.675  26.824  27.952  1.00  0.00     0.163 HD
BRANCH   4   7
ATOM      7  C   UNL A   1      31.523  25.801  24.838  1.00  0.00     0.092 A 
ATOM      8  C   UNL A   1      30.850  26.317  23.703  1.00  0.00     0.151 A 
ATOM      9  C   UNL A   1      31.408  26.087  22.457  1.00  0.00     0.159 A 
ATOM     10  N   UNL A   1      32.487  25.320  22.230  1.00  0.00    -0.252 NA
ATOM     11  C   UNL A   1      32.783  25.156  24.623  1.00  0.00     0.017 A 
ATOM     12  C   UNL A   1      33.164  24.881  23.288  1.00  0.00     0.071 A 
ATOM     13  C   UNL A   1      33.745  24.835  25.604  1.00  0.00     0.011 A 
ATOM     14  C   UNL A   1      34.322  24.164  23.018  1.00  0.00     0.029 A 
ATOM     15  C   UNL A   1      34.901  24.101  25.331  1.00  0.00     0.001 A 
ATOM     16  C   UNL A   1      35.178  23.739  24.028  1.00  0.00     0.002 A 
BRANCH   8  17
ATOM     17  O   UNL A   1      29.779  27.154  23.834  1.00  0.00    -0.484 OA
BRANCH  17  18
ATOM     18  C   UNL A   1      29.713  28.400  23.124  1.00  0.00     0.192 C 
ATOM     19  C   UNL A   1      30.428  29.552  23.827  1.00  0.00     0.057 C 
BRANCH  18  20
ATOM     20  C   UNL A   1      28.303  28.751  22.705  1.00  0.00     0.009 C 
ATOM     21  C   UNL A   1      27.671  29.885  23.039  1.00  0.00     0.008 C 
ENDBRANCH  18  20
ENDBRANCH  17  18
ENDBRANCH   8  17
ENDBRANCH   4   7
ENDBRANCH   2   3
ENDBRANCH   1   2
BRANCH   1  22
ATOM     22  C   UNL A   1      33.885  29.280  26.078  1.00  0.00     0.118 C 
BRANCH  22  23
ATOM     23  N   UNL A   1      33.736  30.591  26.686  1.00  0.00    -0.352 N 
ATOM     24  C   UNL A   1      34.399  31.163  27.746  1.00  0.00     0.251 C 
ATOM     25  H   UNL A   1      33.049  31.162  26.273  1.00  0.00     0.163 HD
ATOM     26  O   UNL A   1      33.915  32.179  28.253  1.00  0.00    -0.269 OA
BRANCH  24  27
ATOM     27  C   UNL A   1      35.654  30.592  28.299  1.00  0.00     0.039 A 
ATOM     28  C   UNL A   1      36.866  30.888  27.661  1.00  0.00     0.014 A 
ATOM     29  C   UNL A   1      35.659  29.712  29.385  1.00  0.00     0.014 A 
ATOM     30  C   UNL A   1      38.067  30.342  28.131  1.00  0.00     0.010 A 
ATOM     31  C   UNL A   1      36.865  29.243  29.910  1.00  0.00     0.010 A 
ATOM     32  C   UNL A   1      38.082  29.534  29.279  1.00  0.00    -0.014 A 
BRANCH  32  33
ATOM     33  C   UNL A   1      39.350  28.947  29.800  1.00  0.00     0.031 A 
ATOM     34  C   UNL A   1      40.017  29.545  31.014  1.00  0.00     0.074 A 
ATOM     35  C   UNL A   1      39.926  27.909  29.161  1.00  0.00     0.049 A 
ATOM     36  N   UNL A   1      41.158  29.233  31.576  1.00  0.00    -0.248 NA
ATOM     37  C   UNL A   1      39.322  30.668  31.661  1.00  0.00     0.031 C 
ATOM     38  C   UNL A   1      39.402  27.264  27.955  1.00  0.00     0.029 A 
ATOM     39  N   UNL A   1      41.083  27.217  29.427  1.00  0.00    -0.354 N 
ATOM     40  C   UNL A   1      41.326  30.131  32.626  1.00  0.00     0.074 A 
ATOM     41  C   UNL A   1      40.202  31.042  32.577  1.00  0.00     0.031 C 
ATOM     42  C   UNL A   1      40.216  26.254  27.606  1.00  0.00     0.029 A 
ATOM     43  C   UNL A   1      41.343  26.205  28.531  1.00  0.00     0.049 A 
ATOM     44  H   UNL A   1      41.669  27.424  30.190  1.00  0.00     0.167 HD
ATOM     45  C   UNL A   1      42.311  30.180  33.558  1.00  0.00     0.034 A 
ATOM     46  C   UNL A   1      42.376  25.341  28.458  1.00  0.00     0.034 A 
ATOM     47  C   UNL A   1      43.414  29.252  33.606  1.00  0.00     0.049 A 
ATOM     48  C   UNL A   1      43.460  25.413  29.505  1.00  0.00     0.074 A 
ATOM     49  C   UNL A   1      44.446  29.180  34.528  1.00  0.00     0.029 A 
ATOM     50  N   UNL A   1      43.633  28.228  32.692  1.00  0.00    -0.354 N 
ATOM     51  N   UNL A   1      43.584  26.248  30.511  1.00  0.00    -0.248 NA
ATOM     52  C   UNL A   1      44.533  24.416  29.414  1.00  0.00     0.031 C 
ATOM     53  C   UNL A   1      45.316  28.155  34.139  1.00  0.00     0.029 A 
ATOM     54  C   UNL A   1      44.788  27.535  33.017  1.00  0.00     0.049 A 
ATOM     55  H   UNL A   1      43.051  28.025  31.924  1.00  0.00     0.167 HD
ATOM     56  C   UNL A   1      44.729  25.848  31.197  1.00  0.00     0.074 A 
ATOM     57  C   UNL A   1      45.249  24.693  30.495  1.00  0.00     0.031 C 
ATOM     58  C   UNL A   1      45.296  26.384  32.308  1.00  0.00     0.034 A 
BRANCH  45  59
ATOM     59  C   UNL A   1      42.241  31.288  34.586  1.00  0.00     0.023 A 
ATOM     60  C   UNL A   1      42.849  32.537  34.368  1.00  0.00     0.031 A 
ATOM     61  C   UNL A   1      41.586  31.084  35.814  1.00  0.00     0.131 A 
ATOM     62  C   UNL A   1      42.865  33.500  35.390  1.00  0.00     0.055 A 
ATOM     63  C   UNL A   1      41.530  32.080  36.793  1.00  0.00     0.041 A 
ATOM     64  F   UNL A   1      41.002  29.908  36.091  1.00  0.00    -0.206 F 
ATOM     65  C   UNL A   1      42.186  33.289  36.591  1.00  0.00     0.022 A 
BRANCH  62  66
ATOM     66  S   UNL A   1      43.914  34.964  35.185  1.00  0.00     0.124 S 
ATOM     67  O   UNL A   1      44.096  34.995  33.735  1.00  0.00    -0.237 OA
ATOM     68  O   UNL A   1      43.084  36.028  35.745  1.00  0.00    -0.237 OA
ATOM     69  O   UNL A   1      45.112  34.640  35.950  1.00  0.00    -0.744 OA
ENDBRANCH  62  66
ENDBRANCH  45  59
BRANCH  46  70
ATOM     70  C   UNL A   1      42.441  24.328  27.365  1.00  0.00     0.023 A 
ATOM     71  C   UNL A   1      41.658  23.163  27.412  1.00  0.00     0.031 A 
ATOM     72  C   UNL A   1      43.319  24.488  26.278  1.00  0.00     0.131 A 
ATOM     73  C   UNL A   1      41.804  22.181  26.420  1.00  0.00     0.055 A 
ATOM     74  C   UNL A   1      43.421  23.533  25.266  1.00  0.00     0.041 A 
ATOM     75  F   UNL A   1      44.085  25.585  26.180  1.00  0.00    -0.206 F 
ATOM     76  C   UNL A   1      42.671  22.363  25.340  1.00  0.00     0.022 A 
BRANCH  73  77
ATOM     77  S   UNL A   1      40.907  20.616  26.610  1.00  0.00     0.124 S 
ATOM     78  O   UNL A   1      41.745  19.697  25.849  1.00  0.00    -0.237 OA
ATOM     79  O   UNL A   1      40.912  20.440  28.059  1.00  0.00    -0.237 OA
ATOM     80  O   UNL A   1      39.598  20.901  26.024  1.00  0.00    -0.744 OA
ENDBRANCH  73  77
ENDBRANCH  46  70
BRANCH  58  81
ATOM     81  C   UNL A   1      46.510  25.680  32.863  1.00  0.00     0.023 A 
ATOM     82  C   UNL A   1      46.401  24.630  33.792  1.00  0.00     0.031 A 
ATOM     83  C   UNL A   1      47.798  26.083  32.468  1.00  0.00     0.131 A 
ATOM     84  C   UNL A   1      47.561  24.063  34.343  1.00  0.00     0.055 A 
ATOM     85  C   UNL A   1      48.947  25.473  32.972  1.00  0.00     0.041 A 
ATOM     86  F   UNL A   1      47.961  27.082  31.584  1.00  0.00    -0.206 F 
ATOM     87  C   UNL A   1      48.833  24.466  33.928  1.00  0.00     0.022 A 
BRANCH  84  88
ATOM     88  S   UNL A   1      47.386  22.860  35.690  1.00  0.00     0.124 S 
ATOM     89  O   UNL A   1      47.126  21.623  34.961  1.00  0.00    -0.237 OA
ATOM     90  O   UNL A   1      48.681  22.948  36.355  1.00  0.00    -0.237 OA
ATOM     91  O   UNL A   1      46.257  23.374  36.463  1.00  0.00    -0.744 OA
ENDBRANCH  84  88
ENDBRANCH  58  81
ENDBRANCH  32  33
ENDBRANCH  24  27
ENDBRANCH  22  23
ENDBRANCH   1  22
TORSDOF 16
ENDMDL
MODEL 3
REMARK VINA RESULT:     -11.4      0.763      2.524
REMARK SMILES C=C[C@@H](C)Oc1cnc2ccccc2c1C(=O)NCCCNC(=O)c1ccc(-c2c3nc(c(-c4cc(S(=O)(=O)[O-])ccc4F)c4ccc([nH]4)c(-c4cc(S(=O)(=O)[O-])ccc4F)c4nc(c(-c5cc(S(=O)(=O)[O-])ccc5F)c5ccc2[nH]5)C=C4)C=C3)cc1
REMARK SMILES IDX 20 1 19 2 18 3 16 4 17 5 15 7 6 8 7 9 8 10 14 11 9 12 13 13
REMARK SMILES IDX 10 14 12 15 11 16 5 17 3 18 4 19 2 20 1 21 21 22 22 23 23 24
REMARK SMILES IDX 24 26 25 27 26 28 87 29 27 30 86 31 28 32 29 33 30 34 80 35
REMARK SMILES IDX 31 36 85 37 79 38 81 39 32 40 84 41 78 42 77 43 33 45 65 46
REMARK SMILES IDX 45 47 64 48 46 49 49 50 63 51 82 52 47 53 48 54 62 56 83 57
REMARK SMILES IDX 50 58 34 59 35 60 43 61 36 62 42 63 44 64 41 65 37 66 38 67
REMARK SMILES IDX 39 68 40 69 66 70 67 71 75 72 68 73 74 74 76 75 73 76 69 77
REMARK SMILES IDX 70 78 71 79 72 80 51 81 52 82 60 83 53 84 59 85 61 86 58 87
REMARK SMILES IDX 54 88 55 89 56 90 57 91
REMARK H PARENT 18 6 22 25 81 44 49 55
REMARK Flexibility Score: inf
ROOT
ATOM      1  C   UNL A   1      31.632  32.161  26.923  1.00  0.00     0.042 C 
ENDROOT
BRANCH   1   2
ATOM      2  C   UNL A   1      31.788  30.631  26.935  1.00  0.00     0.118 C 
BRANCH   2   3
ATOM      3  N   UNL A   1      32.472  30.196  25.726  1.00  0.00    -0.352 N 
ATOM      4  C   UNL A   1      32.191  29.409  24.632  1.00  0.00     0.255 C 
ATOM      5  O   UNL A   1      33.192  29.171  23.948  1.00  0.00    -0.269 OA
ATOM      6  H   UNL A   1      33.383  30.565  25.678  1.00  0.00     0.163 HD
BRANCH   4   7
ATOM      7  C   UNL A   1      30.833  28.928  24.167  1.00  0.00     0.092 A 
ATOM      8  C   UNL A   1      30.610  27.531  24.225  1.00  0.00     0.151 A 
ATOM      9  C   UNL A   1      29.405  27.044  23.748  1.00  0.00     0.159 A 
ATOM     10  N   UNL A   1      28.468  27.787  23.134  1.00  0.00    -0.252 NA
ATOM     11  C   UNL A   1      29.758  29.750  23.702  1.00  0.00     0.017 A 
ATOM     12  C   UNL A   1      28.635  29.107  23.127  1.00  0.00     0.071 A 
ATOM     13  C   UNL A   1      29.649  31.151  23.832  1.00  0.00     0.011 A 
ATOM     14  C   UNL A   1      27.607  29.850  22.563  1.00  0.00     0.029 A 
ATOM     15  C   UNL A   1      28.622  31.897  23.250  1.00  0.00     0.001 A 
ATOM     16  C   UNL A   1      27.605  31.240  22.585  1.00  0.00     0.002 A 
BRANCH   8  17
ATOM     17  O   UNL A   1      31.477  26.702  24.879  1.00  0.00    -0.484 OA
BRANCH  17  18
ATOM     18  C   UNL A   1      31.952  25.490  24.275  1.00  0.00     0.192 C 
ATOM     19  C   UNL A   1      31.854  24.265  25.183  1.00  0.00     0.057 C 
BRANCH  18  20
ATOM     20  C   UNL A   1      33.320  25.652  23.653  1.00  0.00     0.009 C 
ATOM     21  C   UNL A   1      33.582  25.517  22.345  1.00  0.00     0.008 C 
ENDBRANCH  18  20
ENDBRANCH  17  18
ENDBRANCH   8  17
ENDBRANCH   4   7
ENDBRANCH   2   3
ENDBRANCH   1   2
BRANCH   1  22
ATOM     22  C   UNL A   1      32.924  32.944  27.126  1.00  0.00     0.118 C 
BRANCH  22  23
ATOM     23  N   UNL A   1      32.685  34.229  27.758  1.00  0.00    -0.352 N 
ATOM     24  C   UNL A   1      33.172  34.749  28.934  1.00  0.00     0.251 C 
ATOM     25  H   UNL A   1      32.075  34.825  27.265  1.00  0.00     0.163 HD
ATOM     26  O   UNL A   1      32.617  35.749  29.400  1.00  0.00    -0.269 OA
BRANCH  24  27
ATOM     27  C   UNL A   1      34.320  34.142  29.656  1.00  0.00     0.039 A 
ATOM     28  C   UNL A   1      35.619  34.437  29.221  1.00  0.00     0.014 A 
ATOM     29  C   UNL A   1      34.147  33.230  30.701  1.00  0.00     0.014 A 
ATOM     30  C   UNL A   1      36.726  33.858  29.853  1.00  0.00     0.010 A 
ATOM     31  C   UNL A   1      35.252  32.727  31.390  1.00  0.00     0.010 A 
ATOM     32  C   UNL A   1      36.556  33.016  30.963  1.00  0.00    -0.014 A 
BRANCH  32  33
ATOM     33  C   UNL A   1      37.721  32.394  31.655  1.00  0.00     0.031 A 
ATOM     34  C   UNL A   1      38.475  31.264  30.998  1.00  0.00     0.074 A 
ATOM     35  C   UNL A   1      38.074  32.809  32.888  1.00  0.00     0.049 A 
ATOM     36  N   UNL A   1      39.462  30.540  31.464  1.00  0.00    -0.248 NA
ATOM     37  C   UNL A   1      38.035  30.876  29.650  1.00  0.00     0.031 C 
ATOM     38  C   UNL A   1      37.404  33.866  33.648  1.00  0.00     0.029 A 
ATOM     39  N   UNL A   1      39.079  32.389  33.726  1.00  0.00    -0.354 N 
ATOM     40  C   UNL A   1      39.746  29.600  30.476  1.00  0.00     0.074 A 
ATOM     41  C   UNL A   1      38.780  29.806  29.417  1.00  0.00     0.031 C 
ATOM     42  C   UNL A   1      38.033  34.032  34.823  1.00  0.00     0.029 A 
ATOM     43  C   UNL A   1      39.122  33.066  34.924  1.00  0.00     0.049 A 
ATOM     44  H   UNL A   1      39.710  31.672  33.490  1.00  0.00     0.167 HD
ATOM     45  C   UNL A   1      40.733  28.670  30.442  1.00  0.00     0.034 A 
ATOM     46  C   UNL A   1      39.940  32.920  35.986  1.00  0.00     0.034 A 
ATOM     47  C   UNL A   1      41.701  28.491  31.497  1.00  0.00     0.049 A 
ATOM     48  C   UNL A   1      41.030  31.879  35.928  1.00  0.00     0.074 A 
ATOM     49  C   UNL A   1      42.768  27.609  31.552  1.00  0.00     0.029 A 
ATOM     50  N   UNL A   1      41.723  29.210  32.686  1.00  0.00    -0.354 N 
ATOM     51  N   UNL A   1      41.305  31.023  34.970  1.00  0.00    -0.248 NA
ATOM     52  C   UNL A   1      41.928  31.797  37.085  1.00  0.00     0.031 C 
ATOM     53  C   UNL A   1      43.396  27.754  32.794  1.00  0.00     0.029 A 
ATOM     54  C   UNL A   1      42.771  28.779  33.486  1.00  0.00     0.049 A 
ATOM     55  H   UNL A   1      41.087  29.922  32.927  1.00  0.00     0.167 HD
ATOM     56  C   UNL A   1      42.435  30.328  35.396  1.00  0.00     0.074 A 
ATOM     57  C   UNL A   1      42.793  30.875  36.688  1.00  0.00     0.031 C 
ATOM     58  C   UNL A   1      43.117  29.333  34.773  1.00  0.00     0.034 A 
BRANCH  45  59
ATOM     59  C   UNL A   1      40.794  27.765  29.232  1.00  0.00     0.023 A 
ATOM     60  C   UNL A   1      41.729  27.971  28.201  1.00  0.00     0.031 A 
ATOM     61  C   UNL A   1      39.887  26.700  29.088  1.00  0.00     0.131 A 
ATOM     62  C   UNL A   1      41.680  27.185  27.039  1.00  0.00     0.055 A 
ATOM     63  C   UNL A   1      39.901  25.865  27.967  1.00  0.00     0.041 A 
ATOM     64  F   UNL A   1      38.958  26.461  30.027  1.00  0.00    -0.206 F 
ATOM     65  C   UNL A   1      40.790  26.116  26.927  1.00  0.00     0.022 A 
BRANCH  62  66
ATOM     66  S   UNL A   1      42.691  27.677  25.616  1.00  0.00     0.124 S 
ATOM     67  O   UNL A   1      43.966  27.994  26.257  1.00  0.00    -0.237 OA
ATOM     68  O   UNL A   1      42.677  26.473  24.788  1.00  0.00    -0.237 OA
ATOM     69  O   UNL A   1      41.976  28.822  25.066  1.00  0.00    -0.744 OA
ENDBRANCH  62  66
ENDBRANCH  45  59
BRANCH  46  70
ATOM     70  C   UNL A   1      39.773  33.779  37.194  1.00  0.00     0.023 A 
ATOM     71  C   UNL A   1      39.113  33.299  38.337  1.00  0.00     0.031 A 
ATOM     72  C   UNL A   1      40.233  35.109  37.209  1.00  0.00     0.131 A 
ATOM     73  C   UNL A   1      38.887  34.154  39.427  1.00  0.00     0.055 A 
ATOM     74  C   UNL A   1      40.053  35.938  38.317  1.00  0.00     0.041 A 
ATOM     75  F   UNL A   1      40.876  35.616  36.147  1.00  0.00    -0.206 F 
ATOM     76  C   UNL A   1      39.363  35.467  39.430  1.00  0.00     0.022 A 
BRANCH  73  77
ATOM     77  S   UNL A   1      37.879  33.551  40.809  1.00  0.00     0.124 S 
ATOM     78  O   UNL A   1      38.875  32.880  41.634  1.00  0.00    -0.237 OA
ATOM     79  O   UNL A   1      37.330  34.792  41.346  1.00  0.00    -0.237 OA
ATOM     80  O   UNL A   1      36.906  32.672  40.162  1.00  0.00    -0.744 OA
ENDBRANCH  73  77
ENDBRANCH  46  70
BRANCH  58  81
ATOM     81  C   UNL A   1      44.358  28.821  35.462  1.00  0.00     0.023 A 
ATOM     82  C   UNL A   1      44.310  27.776  36.402  1.00  0.00     0.031 A 
ATOM     83  C   UNL A   1      45.608  29.404  35.184  1.00  0.00     0.131 A 
ATOM     84  C   UNL A   1      45.478  27.391  37.078  1.00  0.00     0.055 A 
ATOM     85  C   UNL A   1      46.776  28.973  35.813  1.00  0.00     0.041 A 
ATOM     86  F   UNL A   1      45.712  30.405  34.295  1.00  0.00    -0.206 F 
ATOM     87  C   UNL A   1      46.713  27.971  36.778  1.00  0.00     0.022 A 
BRANCH  84  88
ATOM     88  S   UNL A   1      45.345  26.190  38.432  1.00  0.00     0.124 S 
ATOM     89  O   UNL A   1      45.223  24.929  37.709  1.00  0.00    -0.237 OA
ATOM     90  O   UNL A   1      46.596  26.394  39.153  1.00  0.00    -0.237 OA
ATOM     91  O   UNL A   1      44.142  26.614  39.147  1.00  0.00    -0.744 OA
ENDBRANCH  84  88
ENDBRANCH  58  81
ENDBRANCH  32  33
ENDBRANCH  24  27
ENDBRANCH  22  23
ENDBRANCH   1  22
TORSDOF 16
ENDMDL
