MODEL 1
REMARK VINA RESULT:     -12.7      0.000      0.000
REMARK SMILES C#Cc1cc(Cl)c2c(c1)C=C(C(=O)NCCCNC(=O)c1ccc(-c3c4nc(c(-c5cc(S(=O)(=O)[O-])ccc5F)c5ccc([nH]5)c(-c5cc(S(=O)(=O)[O-])ccc5F)c5nc(c(-c6cc(S(=O)(=O)[O-])ccc6F)c6ccc3[nH]6)C=C5)C=C4)cc1)[C@@H](C(F)(F)F)O2
REMARK SMILES IDX 17 1 16 2 15 3 14 4 12 5 13 6 11 8 3 9 4 10 9 11 5 12 8 13
REMARK SMILES IDX 6 14 7 15 10 16 89 17 84 18 2 19 1 20 85 21 86 22 87 23
REMARK SMILES IDX 88 24 18 25 19 26 20 28 21 29 22 30 83 31 23 32 82 33 24 34
REMARK SMILES IDX 25 35 26 36 76 37 27 38 81 39 75 40 77 41 28 42 80 43 74 44
REMARK SMILES IDX 73 45 29 47 61 48 41 49 60 50 42 51 45 52 59 53 78 54 43 55
REMARK SMILES IDX 44 56 58 58 79 59 46 60 30 61 31 62 39 63 32 64 38 65 40 66
REMARK SMILES IDX 37 67 33 68 34 69 35 70 36 71 62 72 63 73 71 74 64 75 70 76
REMARK SMILES IDX 72 77 69 78 65 79 66 80 67 81 68 82 47 83 48 84 56 85 49 86
REMARK SMILES IDX 55 87 57 88 54 89 50 90 51 91 52 92 53 93
REMARK H PARENT 14 7 18 27 77 46 45 57
REMARK Flexibility Score: inf
ROOT
ATOM      1  C   UNL A   1      33.264  28.998  25.101  1.00  0.00     0.118 C 
ENDROOT
BRANCH   1   2
ATOM      2  C   UNL A   1      33.230  28.928  23.583  1.00  0.00     0.042 C 
BRANCH   2   3
ATOM      3  C   UNL A   1      32.082  28.064  23.089  1.00  0.00     0.118 C 
BRANCH   3   4
ATOM      4  N   UNL A   1      32.489  27.183  22.003  1.00  0.00    -0.352 N 
ATOM      5  C   UNL A   1      32.944  25.914  21.874  1.00  0.00     0.251 C 
ATOM      6  O   UNL A   1      33.142  25.532  20.718  1.00  0.00    -0.270 OA
ATOM      7  H   UNL A   1      32.410  27.629  21.129  1.00  0.00     0.163 HD
BRANCH   5   8
ATOM      8  C   UNL A   1      33.209  24.988  23.014  1.00  0.00     0.067 C 
ATOM      9  C   UNL A   1      36.006  21.583  25.008  1.00  0.00     0.027 A 
ATOM     10  C   UNL A   1      35.243  21.628  26.176  1.00  0.00     0.041 A 
ATOM     11  C   UNL A   1      35.708  22.433  23.937  1.00  0.00     0.029 A 
ATOM     12  C   UNL A   1      34.185  22.526  26.275  1.00  0.00     0.084 A 
ATOM     13  C   UNL A   1      34.642  23.334  24.033  1.00  0.00     0.020 A 
ATOM     14  Cl  UNL A   1      33.262  22.559  27.733  1.00  0.00    -0.080 Cl
ATOM     15  C   UNL A   1      33.881  23.374  25.205  1.00  0.00     0.146 A 
ATOM     16  C   UNL A   1      34.339  24.263  22.948  1.00  0.00     0.025 C 
ATOM     17  O   UNL A   1      32.861  24.265  25.371  1.00  0.00    -0.474 OA
ATOM     18  C   UNL A   1      32.272  24.823  24.173  1.00  0.00     0.314 C 
BRANCH   9  19
ATOM     19  C   UNL A   1      37.102  20.671  24.927  1.00  0.00    -0.070 C 
ATOM     20  C   UNL A   1      38.008  19.882  24.881  1.00  0.00     0.010 C 
ENDBRANCH   9  19
BRANCH  18  21
ATOM     21  C   UNL A   1      31.014  24.011  23.799  1.00  0.00     0.429 C 
ATOM     22  F   UNL A   1      30.062  24.822  23.276  1.00  0.00    -0.167 F 
ATOM     23  F   UNL A   1      31.261  23.058  22.870  1.00  0.00    -0.167 F 
ATOM     24  F   UNL A   1      30.472  23.380  24.865  1.00  0.00    -0.167 F 
ENDBRANCH  18  21
ENDBRANCH   5   8
ENDBRANCH   3   4
ENDBRANCH   2   3
ENDBRANCH   1   2
BRANCH   1  25
ATOM     25  N   UNL A   1      32.725  30.265  25.595  1.00  0.00    -0.352 N 
ATOM     26  C   UNL A   1      33.055  30.990  26.712  1.00  0.00     0.251 C 
ATOM     27  H   UNL A   1      32.015  30.659  25.038  1.00  0.00     0.163 HD
ATOM     28  O   UNL A   1      32.295  31.865  27.114  1.00  0.00    -0.269 OA
BRANCH  26  29
ATOM     29  C   UNL A   1      34.314  30.699  27.419  1.00  0.00     0.039 A 
ATOM     30  C   UNL A   1      35.234  31.724  27.639  1.00  0.00     0.014 A 
ATOM     31  C   UNL A   1      34.579  29.401  27.865  1.00  0.00     0.014 A 
ATOM     32  C   UNL A   1      36.390  31.456  28.372  1.00  0.00     0.010 A 
ATOM     33  C   UNL A   1      35.664  29.166  28.693  1.00  0.00     0.010 A 
ATOM     34  C   UNL A   1      36.592  30.185  28.937  1.00  0.00    -0.014 A 
BRANCH  34  35
ATOM     35  C   UNL A   1      37.792  29.886  29.751  1.00  0.00     0.031 A 
ATOM     36  C   UNL A   1      38.868  29.001  29.184  1.00  0.00     0.074 A 
ATOM     37  C   UNL A   1      37.890  30.379  31.000  1.00  0.00     0.049 A 
ATOM     38  N   UNL A   1      39.969  28.580  29.750  1.00  0.00    -0.248 NA
ATOM     39  C   UNL A   1      38.673  28.503  27.811  1.00  0.00     0.031 C 
ATOM     40  C   UNL A   1      36.891  31.226  31.657  1.00  0.00     0.029 A 
ATOM     41  N   UNL A   1      38.882  30.251  31.939  1.00  0.00    -0.354 N 
ATOM     42  C   UNL A   1      40.593  27.777  28.805  1.00  0.00     0.074 A 
ATOM     43  C   UNL A   1      39.716  27.702  27.659  1.00  0.00     0.031 C 
ATOM     44  C   UNL A   1      37.346  31.584  32.868  1.00  0.00     0.029 A 
ATOM     45  C   UNL A   1      38.639  30.949  33.098  1.00  0.00     0.049 A 
ATOM     46  H   UNL A   1      39.692  29.709  31.796  1.00  0.00     0.167 HD
ATOM     47  C   UNL A   1      41.809  27.186  28.871  1.00  0.00     0.034 A 
ATOM     48  C   UNL A   1      39.376  31.062  34.221  1.00  0.00     0.034 A 
ATOM     49  C   UNL A   1      42.681  27.288  30.011  1.00  0.00     0.049 A 
ATOM     50  C   UNL A   1      40.698  30.344  34.295  1.00  0.00     0.074 A 
ATOM     51  C   UNL A   1      43.947  26.756  30.169  1.00  0.00     0.029 A 
ATOM     52  N   UNL A   1      42.380  27.966  31.184  1.00  0.00    -0.354 N 
ATOM     53  N   UNL A   1      41.284  29.604  33.382  1.00  0.00    -0.248 NA
ATOM     54  C   UNL A   1      41.456  30.472  35.545  1.00  0.00     0.031 C 
ATOM     55  C   UNL A   1      44.381  27.049  31.464  1.00  0.00     0.029 A 
ATOM     56  C   UNL A   1      43.422  27.833  32.085  1.00  0.00     0.049 A 
ATOM     57  H   UNL A   1      41.549  28.467  31.350  1.00  0.00     0.167 HD
ATOM     58  C   UNL A   1      42.491  29.198  33.940  1.00  0.00     0.074 A 
ATOM     59  C   UNL A   1      42.554  29.783  35.264  1.00  0.00     0.031 C 
ATOM     60  C   UNL A   1      43.462  28.416  33.404  1.00  0.00     0.034 A 
BRANCH  47  61
ATOM     61  C   UNL A   1      42.265  26.382  27.683  1.00  0.00     0.023 A 
ATOM     62  C   UNL A   1      41.931  25.024  27.548  1.00  0.00     0.031 A 
ATOM     63  C   UNL A   1      43.012  26.987  26.658  1.00  0.00     0.131 A 
ATOM     64  C   UNL A   1      42.373  24.305  26.428  1.00  0.00     0.055 A 
ATOM     65  C   UNL A   1      43.394  26.283  25.516  1.00  0.00     0.041 A 
ATOM     66  F   UNL A   1      43.378  28.275  26.749  1.00  0.00    -0.206 F 
ATOM     67  C   UNL A   1      43.079  24.932  25.399  1.00  0.00     0.022 A 
BRANCH  64  68
ATOM     68  S   UNL A   1      42.078  22.517  26.374  1.00  0.00     0.124 S 
ATOM     69  O   UNL A   1      42.693  22.079  27.624  1.00  0.00    -0.237 OA
ATOM     70  O   UNL A   1      40.623  22.438  26.315  1.00  0.00    -0.237 OA
ATOM     71  O   UNL A   1      42.774  22.093  25.161  1.00  0.00    -0.744 OA
ENDBRANCH  64  68
ENDBRANCH  47  61
BRANCH  48  72
ATOM     72  C   UNL A   1      38.883  31.890  35.357  1.00  0.00     0.023 A 
ATOM     73  C   UNL A   1      38.279  31.293  36.474  1.00  0.00     0.031 A 
ATOM     74  C   UNL A   1      39.020  33.290  35.348  1.00  0.00     0.131 A 
ATOM     75  C   UNL A   1      37.812  32.096  37.528  1.00  0.00     0.055 A 
ATOM     76  C   UNL A   1      38.594  34.080  36.417  1.00  0.00     0.041 A 
ATOM     77  F   UNL A   1      39.598  33.908  34.307  1.00  0.00    -0.206 F 
ATOM     78  C   UNL A   1      37.979  33.482  37.513  1.00  0.00     0.022 A 
BRANCH  75  79
ATOM     79  S   UNL A   1      36.947  31.301  38.908  1.00  0.00     0.124 S 
ATOM     80  O   UNL A   1      37.904  31.474  39.996  1.00  0.00    -0.237 OA
ATOM     81  O   UNL A   1      35.724  32.091  38.997  1.00  0.00    -0.237 OA
ATOM     82  O   UNL A   1      36.765  29.926  38.448  1.00  0.00    -0.744 OA
ENDBRANCH  75  79
ENDBRANCH  48  72
BRANCH  60  83
ATOM     83  C   UNL A   1      44.687  28.154  34.238  1.00  0.00     0.023 A 
ATOM     84  C   UNL A   1      44.780  27.026  35.067  1.00  0.00     0.031 A 
ATOM     85  C   UNL A   1      45.802  29.007  34.146  1.00  0.00     0.131 A 
ATOM     86  C   UNL A   1      45.954  26.790  35.794  1.00  0.00     0.055 A 
ATOM     87  C   UNL A   1      46.988  28.738  34.829  1.00  0.00     0.041 A 
ATOM     88  F   UNL A   1      45.766  30.097  33.362  1.00  0.00    -0.206 F 
ATOM     89  C   UNL A   1      47.066  27.628  35.664  1.00  0.00     0.022 A 
BRANCH  86  90
ATOM     90  S   UNL A   1      46.000  25.390  36.943  1.00  0.00     0.124 S 
ATOM     91  O   UNL A   1      46.604  24.345  36.121  1.00  0.00    -0.237 OA
ATOM     92  O   UNL A   1      46.827  25.900  38.031  1.00  0.00    -0.237 OA
ATOM     93  O   UNL A   1      44.594  25.177  37.281  1.00  0.00    -0.744 OA
ENDBRANCH  86  90
ENDBRANCH  60  83
ENDBRANCH  34  35
ENDBRANCH  26  29
ENDBRANCH   1  25
TORSDOF 15
ENDMDL
MODEL 2
REMARK VINA RESULT:     -12.7      2.469      3.325
REMARK SMILES C#Cc1cc(Cl)c2c(c1)C=C(C(=O)NCCCNC(=O)c1ccc(-c3c4nc(c(-c5cc(S(=O)(=O)[O-])ccc5F)c5ccc([nH]5)c(-c5cc(S(=O)(=O)[O-])ccc5F)c5nc(c(-c6cc(S(=O)(=O)[O-])ccc6F)c6ccc3[nH]6)C=C5)C=C4)cc1)[C@@H](C(F)(F)F)O2
REMARK SMILES IDX 17 1 16 2 15 3 14 4 12 5 13 6 11 8 3 9 4 10 9 11 5 12 8 13
REMARK SMILES IDX 6 14 7 15 10 16 89 17 84 18 2 19 1 20 85 21 86 22 87 23
REMARK SMILES IDX 88 24 18 25 19 26 20 28 21 29 22 30 83 31 23 32 82 33 24 34
REMARK SMILES IDX 25 35 26 36 76 37 27 38 81 39 75 40 77 41 28 42 80 43 74 44
REMARK SMILES IDX 73 45 29 47 61 48 41 49 60 50 42 51 45 52 59 53 78 54 43 55
REMARK SMILES IDX 44 56 58 58 79 59 46 60 30 61 31 62 39 63 32 64 38 65 40 66
REMARK SMILES IDX 37 67 33 68 34 69 35 70 36 71 62 72 63 73 71 74 64 75 70 76
REMARK SMILES IDX 72 77 69 78 65 79 66 80 67 81 68 82 47 83 48 84 56 85 49 86
REMARK SMILES IDX 55 87 57 88 54 89 50 90 51 91 52 92 53 93
REMARK H PARENT 14 7 18 27 77 46 45 57
REMARK Flexibility Score: inf
ROOT
ATOM      1  C   UNL A   1      32.804  32.708  27.280  1.00  0.00     0.118 C 
ENDROOT
BRANCH   1   2
ATOM      2  C   UNL A   1      31.524  32.102  26.729  1.00  0.00     0.042 C 
BRANCH   2   3
ATOM      3  C   UNL A   1      31.693  30.626  26.416  1.00  0.00     0.118 C 
BRANCH   3   4
ATOM      4  N   UNL A   1      31.361  30.319  25.032  1.00  0.00    -0.352 N 
ATOM      5  C   UNL A   1      31.261  29.211  24.260  1.00  0.00     0.251 C 
ATOM      6  O   UNL A   1      30.900  29.402  23.095  1.00  0.00    -0.270 OA
ATOM      7  H   UNL A   1      31.152  31.134  24.522  1.00  0.00     0.163 HD
BRANCH   5   8
ATOM      8  C   UNL A   1      31.551  27.823  24.725  1.00  0.00     0.067 C 
ATOM      9  C   UNL A   1      34.816  24.398  25.726  1.00  0.00     0.027 A 
ATOM     10  C   UNL A   1      33.808  23.572  26.225  1.00  0.00     0.041 A 
ATOM     11  C   UNL A   1      34.509  25.680  25.256  1.00  0.00     0.029 A 
ATOM     12  C   UNL A   1      32.494  24.027  26.258  1.00  0.00     0.084 A 
ATOM     13  C   UNL A   1      33.188  26.139  25.283  1.00  0.00     0.020 A 
ATOM     14  Cl  UNL A   1      31.271  22.981  26.882  1.00  0.00    -0.080 Cl
ATOM     15  C   UNL A   1      32.183  25.305  25.783  1.00  0.00     0.146 A 
ATOM     16  C   UNL A   1      32.848  27.488  24.840  1.00  0.00     0.025 C 
ATOM     17  O   UNL A   1      30.885  25.718  25.878  1.00  0.00    -0.474 OA
ATOM     18  C   UNL A   1      30.481  26.817  25.028  1.00  0.00     0.314 C 
BRANCH   9  19
ATOM     19  C   UNL A   1      36.164  23.927  25.719  1.00  0.00    -0.070 C 
ATOM     20  C   UNL A   1      37.309  23.561  25.697  1.00  0.00     0.010 C 
ENDBRANCH   9  19
BRANCH  18  21
ATOM     21  C   UNL A   1      29.825  26.256  23.749  1.00  0.00     0.429 C 
ATOM     22  F   UNL A   1      28.638  26.867  23.513  1.00  0.00    -0.167 F 
ATOM     23  F   UNL A   1      30.583  26.449  22.643  1.00  0.00    -0.167 F 
ATOM     24  F   UNL A   1      29.590  24.927  23.830  1.00  0.00    -0.167 F 
ENDBRANCH  18  21
ENDBRANCH   5   8
ENDBRANCH   3   4
ENDBRANCH   2   3
ENDBRANCH   1   2
BRANCH   1  25
ATOM     25  N   UNL A   1      32.627  34.115  27.635  1.00  0.00    -0.352 N 
ATOM     26  C   UNL A   1      33.126  34.828  28.696  1.00  0.00     0.251 C 
ATOM     27  H   UNL A   1      32.062  34.631  27.016  1.00  0.00     0.163 HD
ATOM     28  O   UNL A   1      32.630  35.912  28.985  1.00  0.00    -0.269 OA
BRANCH  26  29
ATOM     29  C   UNL A   1      34.244  34.275  29.479  1.00  0.00     0.039 A 
ATOM     30  C   UNL A   1      33.979  33.514  30.618  1.00  0.00     0.014 A 
ATOM     31  C   UNL A   1      35.561  34.513  29.077  1.00  0.00     0.014 A 
ATOM     32  C   UNL A   1      35.041  32.935  31.311  1.00  0.00     0.010 A 
ATOM     33  C   UNL A   1      36.602  33.840  29.694  1.00  0.00     0.010 A 
ATOM     34  C   UNL A   1      36.355  33.061  30.830  1.00  0.00    -0.014 A 
BRANCH  34  35
ATOM     35  C   UNL A   1      37.496  32.423  31.527  1.00  0.00     0.031 A 
ATOM     36  C   UNL A   1      38.213  31.274  30.873  1.00  0.00     0.074 A 
ATOM     37  C   UNL A   1      37.854  32.854  32.751  1.00  0.00     0.049 A 
ATOM     38  N   UNL A   1      39.199  30.551  31.335  1.00  0.00    -0.248 NA
ATOM     39  C   UNL A   1      37.748  30.867  29.536  1.00  0.00     0.031 C 
ATOM     40  C   UNL A   1      37.208  33.944  33.487  1.00  0.00     0.029 A 
ATOM     41  N   UNL A   1      38.857  32.439  33.589  1.00  0.00    -0.354 N 
ATOM     42  C   UNL A   1      39.471  29.613  30.348  1.00  0.00     0.074 A 
ATOM     43  C   UNL A   1      38.499  29.804  29.296  1.00  0.00     0.031 C 
ATOM     44  C   UNL A   1      37.865  34.145  34.640  1.00  0.00     0.029 A 
ATOM     45  C   UNL A   1      38.940  33.166  34.754  1.00  0.00     0.049 A 
ATOM     46  H   UNL A   1      39.461  31.690  33.378  1.00  0.00     0.167 HD
ATOM     47  C   UNL A   1      40.469  28.699  30.305  1.00  0.00     0.034 A 
ATOM     48  C   UNL A   1      39.786  33.052  35.797  1.00  0.00     0.034 A 
ATOM     49  C   UNL A   1      41.443  28.537  31.351  1.00  0.00     0.049 A 
ATOM     50  C   UNL A   1      40.850  31.986  35.752  1.00  0.00     0.074 A 
ATOM     51  C   UNL A   1      42.514  27.664  31.394  1.00  0.00     0.029 A 
ATOM     52  N   UNL A   1      41.466  29.259  32.535  1.00  0.00    -0.354 N 
ATOM     53  N   UNL A   1      41.107  31.119  34.800  1.00  0.00    -0.248 NA
ATOM     54  C   UNL A   1      41.734  31.879  36.919  1.00  0.00     0.031 C 
ATOM     55  C   UNL A   1      43.141  27.807  32.634  1.00  0.00     0.029 A 
ATOM     56  C   UNL A   1      42.511  28.826  33.332  1.00  0.00     0.049 A 
ATOM     57  H   UNL A   1      40.833  29.975  32.773  1.00  0.00     0.167 HD
ATOM     58  C   UNL A   1      42.198  30.380  35.244  1.00  0.00     0.074 A 
ATOM     59  C   UNL A   1      42.556  30.908  36.544  1.00  0.00     0.031 C 
ATOM     60  C   UNL A   1      42.847  29.360  34.630  1.00  0.00     0.034 A 
BRANCH  47  61
ATOM     61  C   UNL A   1      40.556  27.811  29.093  1.00  0.00     0.023 A 
ATOM     62  C   UNL A   1      41.460  28.080  28.052  1.00  0.00     0.031 A 
ATOM     63  C   UNL A   1      39.753  26.662  28.994  1.00  0.00     0.131 A 
ATOM     64  C   UNL A   1      41.514  27.232  26.937  1.00  0.00     0.055 A 
ATOM     65  C   UNL A   1      39.857  25.786  27.913  1.00  0.00     0.041 A 
ATOM     66  F   UNL A   1      38.857  26.370  29.950  1.00  0.00    -0.206 F 
ATOM     67  C   UNL A   1      40.738  26.072  26.873  1.00  0.00     0.022 A 
BRANCH  64  68
ATOM     68  S   UNL A   1      42.559  27.707  25.534  1.00  0.00     0.124 S 
ATOM     69  O   UNL A   1      43.838  27.960  26.193  1.00  0.00    -0.237 OA
ATOM     70  O   UNL A   1      42.501  26.526  24.682  1.00  0.00    -0.237 OA
ATOM     71  O   UNL A   1      41.894  28.894  25.000  1.00  0.00    -0.744 OA
ENDBRANCH  64  68
ENDBRANCH  47  61
BRANCH  48  72
ATOM     72  C   UNL A   1      39.666  33.974  36.960  1.00  0.00     0.023 A 
ATOM     73  C   UNL A   1      39.067  33.550  38.156  1.00  0.00     0.031 A 
ATOM     74  C   UNL A   1      40.158  35.290  36.897  1.00  0.00     0.131 A 
ATOM     75  C   UNL A   1      38.954  34.441  39.235  1.00  0.00     0.055 A 
ATOM     76  C   UNL A   1      40.084  36.158  37.988  1.00  0.00     0.041 A 
ATOM     77  F   UNL A   1      40.748  35.741  35.779  1.00  0.00    -0.206 F 
ATOM     78  C   UNL A   1      39.472  35.736  39.164  1.00  0.00     0.022 A 
BRANCH  75  79
ATOM     79  S   UNL A   1      38.086  33.892  40.729  1.00  0.00     0.124 S 
ATOM     80  O   UNL A   1      37.835  35.159  41.408  1.00  0.00    -0.237 OA
ATOM     81  O   UNL A   1      36.917  33.219  40.172  1.00  0.00    -0.237 OA
ATOM     82  O   UNL A   1      39.054  33.014  41.382  1.00  0.00    -0.744 OA
ENDBRANCH  75  79
ENDBRANCH  48  72
BRANCH  60  83
ATOM     83  C   UNL A   1      44.024  28.750  35.344  1.00  0.00     0.023 A 
ATOM     84  C   UNL A   1      43.852  27.765  36.328  1.00  0.00     0.031 A 
ATOM     85  C   UNL A   1      45.335  29.109  34.982  1.00  0.00     0.131 A 
ATOM     86  C   UNL A   1      44.973  27.188  36.939  1.00  0.00     0.055 A 
ATOM     87  C   UNL A   1      46.448  28.492  35.553  1.00  0.00     0.041 A 
ATOM     88  F   UNL A   1      45.553  30.042  34.040  1.00  0.00    -0.206 F 
ATOM     89  C   UNL A   1      46.270  27.530  36.542  1.00  0.00     0.022 A 
BRANCH  86  90
ATOM     90  S   UNL A   1      44.716  26.005  38.287  1.00  0.00     0.124 S 
ATOM     91  O   UNL A   1      44.078  24.891  37.592  1.00  0.00    -0.237 OA
ATOM     92  O   UNL A   1      46.075  25.764  38.759  1.00  0.00    -0.237 OA
ATOM     93  O   UNL A   1      43.855  26.728  39.220  1.00  0.00    -0.744 OA
ENDBRANCH  86  90
ENDBRANCH  60  83
ENDBRANCH  34  35
ENDBRANCH  26  29
ENDBRANCH   1  25
TORSDOF 15
ENDMDL
MODEL 3
REMARK VINA RESULT:     -12.5      5.104     10.111
REMARK SMILES C#Cc1cc(Cl)c2c(c1)C=C(C(=O)NCCCNC(=O)c1ccc(-c3c4nc(c(-c5cc(S(=O)(=O)[O-])ccc5F)c5ccc([nH]5)c(-c5cc(S(=O)(=O)[O-])ccc5F)c5nc(c(-c6cc(S(=O)(=O)[O-])ccc6F)c6ccc3[nH]6)C=C5)C=C4)cc1)[C@@H](C(F)(F)F)O2
REMARK SMILES IDX 17 1 16 2 15 3 14 4 12 5 13 6 11 8 3 9 4 10 9 11 5 12 8 13
REMARK SMILES IDX 6 14 7 15 10 16 89 17 84 18 2 19 1 20 85 21 86 22 87 23
REMARK SMILES IDX 88 24 18 25 19 26 20 28 21 29 22 30 83 31 23 32 82 33 24 34
REMARK SMILES IDX 25 35 26 36 76 37 27 38 81 39 75 40 77 41 28 42 80 43 74 44
REMARK SMILES IDX 73 45 29 47 61 48 41 49 60 50 42 51 45 52 59 53 78 54 43 55
REMARK SMILES IDX 44 56 58 58 79 59 46 60 30 61 31 62 39 63 32 64 38 65 40 66
REMARK SMILES IDX 37 67 33 68 34 69 35 70 36 71 62 72 63 73 71 74 64 75 70 76
REMARK SMILES IDX 72 77 69 78 65 79 66 80 67 81 68 82 47 83 48 84 56 85 49 86
REMARK SMILES IDX 55 87 57 88 54 89 50 90 51 91 52 92 53 93
REMARK H PARENT 14 7 18 27 77 46 45 57
REMARK Flexibility Score: inf
ROOT
ATOM      1  C   UNL A   1      35.892  22.318  25.772  1.00  0.00     0.118 C 
ENDROOT
BRANCH   1   2
ATOM      2  C   UNL A   1      34.495  21.831  26.118  1.00  0.00     0.042 C 
BRANCH   2   3
ATOM      3  C   UNL A   1      34.015  22.403  27.440  1.00  0.00     0.118 C 
BRANCH   3   4
ATOM      4  N   UNL A   1      32.568  22.568  27.473  1.00  0.00    -0.352 N 
ATOM      5  C   UNL A   1      31.658  23.431  26.962  1.00  0.00     0.251 C 
ATOM      6  O   UNL A   1      30.478  23.175  27.216  1.00  0.00    -0.270 OA
ATOM      7  H   UNL A   1      32.137  21.863  28.008  1.00  0.00     0.163 HD
BRANCH   5   8
ATOM      8  C   UNL A   1      31.994  24.630  26.140  1.00  0.00     0.067 C 
ATOM      9  C   UNL A   1      32.058  29.445  25.687  1.00  0.00     0.027 A 
ATOM     10  C   UNL A   1      32.761  29.331  24.487  1.00  0.00     0.041 A 
ATOM     11  C   UNL A   1      31.718  28.300  26.417  1.00  0.00     0.029 A 
ATOM     12  C   UNL A   1      33.128  28.074  24.018  1.00  0.00     0.084 A 
ATOM     13  C   UNL A   1      32.081  27.035  25.945  1.00  0.00     0.020 A 
ATOM     14  Cl  UNL A   1      33.998  27.967  22.531  1.00  0.00    -0.080 Cl
ATOM     15  C   UNL A   1      32.785  26.927  24.742  1.00  0.00     0.146 A 
ATOM     16  C   UNL A   1      31.778  25.828  26.710  1.00  0.00     0.025 C 
ATOM     17  O   UNL A   1      33.206  25.722  24.259  1.00  0.00    -0.474 OA
ATOM     18  C   UNL A   1      32.516  24.544  24.737  1.00  0.00     0.314 C 
BRANCH   9  19
ATOM     19  C   UNL A   1      31.707  30.743  26.169  1.00  0.00    -0.070 C 
ATOM     20  C   UNL A   1      31.376  31.827  26.570  1.00  0.00     0.010 C 
ENDBRANCH   9  19
BRANCH  18  21
ATOM     21  C   UNL A   1      31.418  24.152  23.726  1.00  0.00     0.429 C 
ATOM     22  F   UNL A   1      31.393  22.809  23.546  1.00  0.00    -0.167 F 
ATOM     23  F   UNL A   1      30.177  24.508  24.134  1.00  0.00    -0.167 F 
ATOM     24  F   UNL A   1      31.605  24.722  22.514  1.00  0.00    -0.167 F 
ENDBRANCH  18  21
ENDBRANCH   5   8
ENDBRANCH   3   4
ENDBRANCH   2   3
ENDBRANCH   1   2
BRANCH   1  25
ATOM     25  N   UNL A   1      36.847  21.213  25.705  1.00  0.00    -0.352 N 
ATOM     26  C   UNL A   1      38.219  21.229  25.737  1.00  0.00     0.251 C 
ATOM     27  H   UNL A   1      36.443  20.319  25.626  1.00  0.00     0.163 HD
ATOM     28  O   UNL A   1      38.845  20.239  25.373  1.00  0.00    -0.269 OA
BRANCH  26  29
ATOM     29  C   UNL A   1      38.920  22.439  26.199  1.00  0.00     0.039 A 
ATOM     30  C   UNL A   1      40.032  22.316  27.032  1.00  0.00     0.014 A 
ATOM     31  C   UNL A   1      38.469  23.700  25.800  1.00  0.00     0.014 A 
ATOM     32  C   UNL A   1      40.732  23.463  27.406  1.00  0.00     0.010 A 
ATOM     33  C   UNL A   1      39.234  24.822  26.072  1.00  0.00     0.010 A 
ATOM     34  C   UNL A   1      40.361  24.718  26.895  1.00  0.00    -0.014 A 
BRANCH  34  35
ATOM     35  C   UNL A   1      41.112  25.946  27.246  1.00  0.00     0.031 A 
ATOM     36  C   UNL A   1      40.458  26.991  28.108  1.00  0.00     0.074 A 
ATOM     37  C   UNL A   1      42.355  26.128  26.763  1.00  0.00     0.049 A 
ATOM     38  N   UNL A   1      40.923  28.152  28.487  1.00  0.00    -0.248 NA
ATOM     39  C   UNL A   1      39.094  26.708  28.586  1.00  0.00     0.031 C 
ATOM     40  C   UNL A   1      43.072  25.189  25.897  1.00  0.00     0.029 A 
ATOM     41  N   UNL A   1      43.243  27.158  26.939  1.00  0.00    -0.354 N 
ATOM     42  C   UNL A   1      39.915  28.731  29.247  1.00  0.00     0.074 A 
ATOM     43  C   UNL A   1      38.784  27.833  29.212  1.00  0.00     0.031 C 
ATOM     44  C   UNL A   1      44.307  25.662  25.664  1.00  0.00     0.029 A 
ATOM     45  C   UNL A   1      44.451  26.960  26.313  1.00  0.00     0.049 A 
ATOM     46  H   UNL A   1      43.035  27.965  27.464  1.00  0.00     0.167 HD
ATOM     47  C   UNL A   1      39.946  29.889  29.945  1.00  0.00     0.034 A 
ATOM     48  C   UNL A   1      45.549  27.739  26.265  1.00  0.00     0.034 A 
ATOM     49  C   UNL A   1      41.088  30.762  29.988  1.00  0.00     0.049 A 
ATOM     50  C   UNL A   1      45.536  29.054  27.000  1.00  0.00     0.074 A 
ATOM     51  C   UNL A   1      41.236  31.944  30.690  1.00  0.00     0.029 A 
ATOM     52  N   UNL A   1      42.276  30.550  29.303  1.00  0.00    -0.354 N 
ATOM     53  N   UNL A   1      44.580  29.577  27.734  1.00  0.00    -0.248 NA
ATOM     54  C   UNL A   1      46.742  29.884  26.902  1.00  0.00     0.031 C 
ATOM     55  C   UNL A   1      42.485  32.484  30.372  1.00  0.00     0.029 A 
ATOM     56  C   UNL A   1      43.149  31.599  29.537  1.00  0.00     0.049 A 
ATOM     57  H   UNL A   1      42.471  29.769  28.736  1.00  0.00     0.167 HD
ATOM     58  C   UNL A   1      45.080  30.787  28.202  1.00  0.00     0.074 A 
ATOM     59  C   UNL A   1      46.425  30.912  27.678  1.00  0.00     0.031 C 
ATOM     60  C   UNL A   1      44.483  31.709  28.998  1.00  0.00     0.034 A 
BRANCH  47  61
ATOM     61  C   UNL A   1      38.712  30.278  30.716  1.00  0.00     0.023 A 
ATOM     62  C   UNL A   1      37.677  31.016  30.117  1.00  0.00     0.031 A 
ATOM     63  C   UNL A   1      38.552  29.875  32.053  1.00  0.00     0.131 A 
ATOM     64  C   UNL A   1      36.543  31.360  30.865  1.00  0.00     0.055 A 
ATOM     65  C   UNL A   1      37.393  30.166  32.773  1.00  0.00     0.041 A 
ATOM     66  F   UNL A   1      39.520  29.188  32.680  1.00  0.00    -0.206 F 
ATOM     67  C   UNL A   1      36.381  30.918  32.180  1.00  0.00     0.022 A 
BRANCH  64  68
ATOM     68  S   UNL A   1      35.313  32.463  30.117  1.00  0.00     0.124 S 
ATOM     69  O   UNL A   1      34.889  31.687  28.955  1.00  0.00    -0.237 OA
ATOM     70  O   UNL A   1      34.329  32.608  31.183  1.00  0.00    -0.237 OA
ATOM     71  O   UNL A   1      36.079  33.669  29.809  1.00  0.00    -0.744 OA
ENDBRANCH  64  68
ENDBRANCH  47  61
BRANCH  48  72
ATOM     72  C   UNL A   1      46.749  27.293  25.505  1.00  0.00     0.023 A 
ATOM     73  C   UNL A   1      46.963  27.717  24.184  1.00  0.00     0.031 A 
ATOM     74  C   UNL A   1      47.707  26.445  26.090  1.00  0.00     0.131 A 
ATOM     75  C   UNL A   1      48.096  27.274  23.483  1.00  0.00     0.055 A 
ATOM     76  C   UNL A   1      48.854  26.042  25.404  1.00  0.00     0.041 A 
ATOM     77  F   UNL A   1      47.553  26.018  27.353  1.00  0.00    -0.206 F 
ATOM     78  C   UNL A   1      49.049  26.452  24.089  1.00  0.00     0.022 A 
BRANCH  75  79
ATOM     79  S   UNL A   1      48.289  27.760  21.747  1.00  0.00     0.124 S 
ATOM     80  O   UNL A   1      49.397  28.706  21.825  1.00  0.00    -0.237 OA
ATOM     81  O   UNL A   1      48.579  26.483  21.103  1.00  0.00    -0.237 OA
ATOM     82  O   UNL A   1      46.992  28.343  21.411  1.00  0.00    -0.744 OA
ENDBRANCH  75  79
ENDBRANCH  48  72
BRANCH  60  83
ATOM     83  C   UNL A   1      45.278  32.933  29.368  1.00  0.00     0.023 A 
ATOM     84  C   UNL A   1      45.203  34.110  28.610  1.00  0.00     0.031 A 
ATOM     85  C   UNL A   1      46.064  32.939  30.535  1.00  0.00     0.131 A 
ATOM     86  C   UNL A   1      45.923  35.244  29.012  1.00  0.00     0.055 A 
ATOM     87  C   UNL A   1      46.734  34.086  30.960  1.00  0.00     0.041 A 
ATOM     88  F   UNL A   1      46.164  31.839  31.299  1.00  0.00    -0.206 F 
ATOM     89  C   UNL A   1      46.671  35.245  30.193  1.00  0.00     0.022 A 
BRANCH  86  90
ATOM     90  S   UNL A   1      45.898  36.711  27.949  1.00  0.00     0.124 S 
ATOM     91  O   UNL A   1      45.701  37.783  28.921  1.00  0.00    -0.237 OA
ATOM     92  O   UNL A   1      47.209  36.663  27.312  1.00  0.00    -0.237 OA
ATOM     93  O   UNL A   1      44.766  36.470  27.056  1.00  0.00    -0.744 OA
ENDBRANCH  86  90
ENDBRANCH  60  83
ENDBRANCH  34  35
ENDBRANCH  26  29
ENDBRANCH   1  25
TORSDOF 15
ENDMDL
