MODEL 1
REMARK VINA RESULT:     -12.8      0.000      0.000
REMARK SMILES O=C(NCCCNC(=O)c1ccc(-c2c3nc(c(-c4cc(S(=O)(=O)[O-])ccc4F)c4ccc([nH]4)c(-c4cc(S(=O)(=O)[O-])ccc4F)c4nc(c(-c5cc(S(=O)(=O)[O-])ccc5F)c5ccc2[nH]5)C=C4)C=C3)cc1)C1=Cc2cc(Cl)cc(-c3ccccc3)c2O[C@@H]1C(F)(F)F
REMARK SMILES IDX 6 1 5 2 4 3 3 4 1 5 2 6 73 8 74 9 89 10 75 11 88 12 76 13
REMARK SMILES IDX 87 14 77 15 80 16 78 17 79 18 90 19 91 20 92 21 93 22 81 23
REMARK SMILES IDX 82 24 86 25 83 26 85 27 84 28 7 29 8 30 9 32 10 33 11 34
REMARK SMILES IDX 72 35 12 36 71 37 13 38 14 39 15 40 65 41 16 42 70 43 64 44
REMARK SMILES IDX 66 45 17 46 69 47 63 48 62 49 18 51 50 52 30 53 49 54 31 55
REMARK SMILES IDX 34 56 48 57 67 58 32 59 33 60 47 62 68 63 35 64 19 65 20 66
REMARK SMILES IDX 28 67 21 68 27 69 29 70 26 71 22 72 23 73 24 74 25 75 51 76
REMARK SMILES IDX 52 77 60 78 53 79 59 80 61 81 58 82 54 83 55 84 56 85 57 86
REMARK SMILES IDX 36 87 37 88 45 89 38 90 44 91 46 92 43 93 39 94 40 95 41 96
REMARK SMILES IDX 42 97
REMARK H PARENT 3 7 7 31 66 50 34 61
REMARK Flexibility Score: inf
ROOT
ATOM      1  C   UNL A   1      31.878  32.156  26.884  1.00  0.00     0.118 C 
ENDROOT
BRANCH   1   2
ATOM      2  C   UNL A   1      30.973  32.120  25.654  1.00  0.00     0.042 C 
BRANCH   2   3
ATOM      3  C   UNL A   1      30.472  30.710  25.331  1.00  0.00     0.118 C 
BRANCH   3   4
ATOM      4  N   UNL A   1      31.066  30.160  24.106  1.00  0.00    -0.352 N 
ATOM      5  O   UNL A   1      32.021  28.573  22.789  1.00  0.00    -0.270 OA
ATOM      6  C   UNL A   1      31.772  29.001  23.909  1.00  0.00     0.251 C 
ATOM      7  H   UNL A   1      30.938  30.711  23.300  1.00  0.00     0.163 HD
BRANCH   6   8
ATOM      8  C   UNL A   1      32.158  28.252  25.112  1.00  0.00     0.067 C 
ATOM      9  C   UNL A   1      31.229  27.479  25.685  1.00  0.00     0.025 C 
ATOM     10  C   UNL A   1      33.617  28.114  25.400  1.00  0.00     0.314 C 
ATOM     11  C   UNL A   1      31.734  26.192  26.173  1.00  0.00     0.019 A 
ATOM     12  O   UNL A   1      34.009  26.722  25.447  1.00  0.00    -0.475 OA
ATOM     13  C   UNL A   1      30.801  25.230  26.566  1.00  0.00     0.032 A 
ATOM     14  C   UNL A   1      33.052  25.813  25.843  1.00  0.00     0.135 A 
ATOM     15  C   UNL A   1      31.151  23.886  26.524  1.00  0.00     0.042 A 
ATOM     16  C   UNL A   1      33.386  24.452  25.735  1.00  0.00     0.026 A 
ATOM     17  Cl  UNL A   1      29.957  22.695  26.864  1.00  0.00    -0.084 Cl
ATOM     18  C   UNL A   1      32.416  23.496  26.086  1.00  0.00     0.033 A 
BRANCH  10  19
ATOM     19  C   UNL A   1      34.028  28.879  26.670  1.00  0.00     0.429 C 
ATOM     20  F   UNL A   1      33.100  28.740  27.650  1.00  0.00    -0.167 F 
ATOM     21  F   UNL A   1      35.195  28.416  27.179  1.00  0.00    -0.167 F 
ATOM     22  F   UNL A   1      34.185  30.206  26.456  1.00  0.00    -0.167 F 
ENDBRANCH  10  19
BRANCH  16  23
ATOM     23  C   UNL A   1      34.621  24.006  25.071  1.00  0.00    -0.015 A 
ATOM     24  C   UNL A   1      34.570  23.524  23.750  1.00  0.00     0.009 A 
ATOM     25  C   UNL A   1      35.856  23.998  25.727  1.00  0.00     0.009 A 
ATOM     26  C   UNL A   1      35.697  23.001  23.119  1.00  0.00     0.001 A 
ATOM     27  C   UNL A   1      36.992  23.487  25.091  1.00  0.00     0.001 A 
ATOM     28  C   UNL A   1      36.909  22.976  23.795  1.00  0.00     0.000 A 
ENDBRANCH  16  23
ENDBRANCH   6   8
ENDBRANCH   3   4
ENDBRANCH   2   3
ENDBRANCH   1   2
BRANCH   1  29
ATOM     29  N   UNL A   1      32.162  33.482  27.402  1.00  0.00    -0.352 N 
ATOM     30  C   UNL A   1      33.313  33.975  27.986  1.00  0.00     0.251 C 
ATOM     31  H   UNL A   1      31.423  34.127  27.324  1.00  0.00     0.163 HD
ATOM     32  O   UNL A   1      33.330  35.151  28.347  1.00  0.00    -0.269 OA
BRANCH  30  33
ATOM     33  C   UNL A   1      34.469  33.093  28.293  1.00  0.00     0.039 A 
ATOM     34  C   UNL A   1      35.757  33.606  28.087  1.00  0.00     0.014 A 
ATOM     35  C   UNL A   1      34.329  31.829  28.860  1.00  0.00     0.014 A 
ATOM     36  C   UNL A   1      36.871  32.923  28.582  1.00  0.00     0.010 A 
ATOM     37  C   UNL A   1      35.422  31.205  29.455  1.00  0.00     0.010 A 
ATOM     38  C   UNL A   1      36.703  31.762  29.350  1.00  0.00    -0.014 A 
BRANCH  38  39
ATOM     39  C   UNL A   1      37.832  31.163  30.109  1.00  0.00     0.031 A 
ATOM     40  C   UNL A   1      38.754  30.172  29.456  1.00  0.00     0.074 A 
ATOM     41  C   UNL A   1      37.949  31.442  31.424  1.00  0.00     0.049 A 
ATOM     42  N   UNL A   1      39.741  29.489  29.978  1.00  0.00    -0.248 NA
ATOM     43  C   UNL A   1      38.497  29.865  28.042  1.00  0.00     0.031 C 
ATOM     44  C   UNL A   1      37.044  32.305  32.190  1.00  0.00     0.029 A 
ATOM     45  N   UNL A   1      38.870  31.034  32.353  1.00  0.00    -0.354 N 
ATOM     46  C   UNL A   1      40.203  28.653  28.965  1.00  0.00     0.074 A 
ATOM     47  C   UNL A   1      39.336  28.865  27.826  1.00  0.00     0.031 C 
ATOM     48  C   UNL A   1      37.485  32.402  33.454  1.00  0.00     0.029 A 
ATOM     49  C   UNL A   1      38.679  31.581  33.601  1.00  0.00     0.049 A 
ATOM     50  H   UNL A   1      39.602  30.407  32.146  1.00  0.00     0.167 HD
ATOM     51  C   UNL A   1      41.269  27.814  28.977  1.00  0.00     0.034 A 
ATOM     52  C   UNL A   1      39.395  31.446  34.734  1.00  0.00     0.034 A 
ATOM     53  C   UNL A   1      42.134  27.646  30.120  1.00  0.00     0.049 A 
ATOM     54  C   UNL A   1      40.626  30.580  34.698  1.00  0.00     0.074 A 
ATOM     55  C   UNL A   1      43.273  26.868  30.242  1.00  0.00     0.029 A 
ATOM     56  N   UNL A   1      41.958  28.281  31.345  1.00  0.00    -0.354 N 
ATOM     57  N   UNL A   1      41.090  29.846  33.711  1.00  0.00    -0.248 NA
ATOM     58  C   UNL A   1      41.443  30.545  35.916  1.00  0.00     0.031 C 
ATOM     59  C   UNL A   1      43.759  27.001  31.550  1.00  0.00     0.029 A 
ATOM     60  C   UNL A   1      42.961  27.909  32.227  1.00  0.00     0.049 A 
ATOM     61  H   UNL A   1      41.226  28.905  31.555  1.00  0.00     0.167 HD
ATOM     62  C   UNL A   1      42.268  29.279  34.186  1.00  0.00     0.074 A 
ATOM     63  C   UNL A   1      42.455  29.782  35.533  1.00  0.00     0.031 C 
ATOM     64  C   UNL A   1      43.116  28.415  33.571  1.00  0.00     0.034 A 
BRANCH  51  65
ATOM     65  C   UNL A   1      41.531  27.014  27.720  1.00  0.00     0.023 A 
ATOM     66  C   UNL A   1      41.208  25.647  27.639  1.00  0.00     0.031 A 
ATOM     67  C   UNL A   1      42.172  27.600  26.615  1.00  0.00     0.131 A 
ATOM     68  C   UNL A   1      41.620  24.891  26.531  1.00  0.00     0.055 A 
ATOM     69  C   UNL A   1      42.494  26.862  25.473  1.00  0.00     0.041 A 
ATOM     70  F   UNL A   1      42.523  28.896  26.635  1.00  0.00    -0.206 F 
ATOM     71  C   UNL A   1      42.239  25.494  25.434  1.00  0.00     0.022 A 
BRANCH  68  72
ATOM     72  S   UNL A   1      41.493  23.084  26.623  1.00  0.00     0.124 S 
ATOM     73  O   UNL A   1      42.268  22.677  25.453  1.00  0.00    -0.237 OA
ATOM     74  O   UNL A   1      42.093  22.790  27.920  1.00  0.00    -0.237 OA
ATOM     75  O   UNL A   1      40.056  22.835  26.528  1.00  0.00    -0.744 OA
ENDBRANCH  68  72
ENDBRANCH  51  65
BRANCH  52  76
ATOM     76  C   UNL A   1      38.997  32.168  35.976  1.00  0.00     0.023 A 
ATOM     77  C   UNL A   1      38.238  31.529  36.968  1.00  0.00     0.031 A 
ATOM     78  C   UNL A   1      39.348  33.514  36.180  1.00  0.00     0.131 A 
ATOM     79  C   UNL A   1      37.812  32.245  38.097  1.00  0.00     0.055 A 
ATOM     80  C   UNL A   1      38.963  34.210  37.327  1.00  0.00     0.041 A 
ATOM     81  F   UNL A   1      40.088  34.167  35.269  1.00  0.00    -0.206 F 
ATOM     82  C   UNL A   1      38.178  33.580  38.288  1.00  0.00     0.022 A 
BRANCH  79  83
ATOM     83  S   UNL A   1      36.708  31.428  39.281  1.00  0.00     0.124 S 
ATOM     84  O   UNL A   1      37.546  31.356  40.472  1.00  0.00    -0.237 OA
ATOM     85  O   UNL A   1      35.587  32.360  39.341  1.00  0.00    -0.237 OA
ATOM     86  O   UNL A   1      36.416  30.145  38.645  1.00  0.00    -0.744 OA
ENDBRANCH  79  83
ENDBRANCH  52  76
BRANCH  64  87
ATOM     87  C   UNL A   1      44.333  28.000  34.358  1.00  0.00     0.023 A 
ATOM     88  C   UNL A   1      44.305  26.894  35.225  1.00  0.00     0.031 A 
ATOM     89  C   UNL A   1      45.519  28.750  34.275  1.00  0.00     0.131 A 
ATOM     90  C   UNL A   1      45.413  26.615  36.035  1.00  0.00     0.055 A 
ATOM     91  C   UNL A   1      46.642  28.429  35.038  1.00  0.00     0.041 A 
ATOM     92  F   UNL A   1      45.600  29.816  33.463  1.00  0.00    -0.206 F 
ATOM     93  C   UNL A   1      46.586  27.367  35.938  1.00  0.00     0.022 A 
BRANCH  90  94
ATOM     94  S   UNL A   1      45.255  25.333  37.308  1.00  0.00     0.124 S 
ATOM     95  O   UNL A   1      44.329  25.952  38.251  1.00  0.00    -0.237 OA
ATOM     96  O   UNL A   1      44.729  24.204  36.547  1.00  0.00    -0.237 OA
ATOM     97  O   UNL A   1      46.621  25.167  37.798  1.00  0.00    -0.744 OA
ENDBRANCH  90  94
ENDBRANCH  64  87
ENDBRANCH  38  39
ENDBRANCH  30  33
ENDBRANCH   1  29
TORSDOF 15
ENDMDL
MODEL 2
REMARK VINA RESULT:     -12.8      5.176      8.127
REMARK SMILES O=C(NCCCNC(=O)c1ccc(-c2c3nc(c(-c4cc(S(=O)(=O)[O-])ccc4F)c4ccc([nH]4)c(-c4cc(S(=O)(=O)[O-])ccc4F)c4nc(c(-c5cc(S(=O)(=O)[O-])ccc5F)c5ccc2[nH]5)C=C4)C=C3)cc1)C1=Cc2cc(Cl)cc(-c3ccccc3)c2O[C@@H]1C(F)(F)F
REMARK SMILES IDX 6 1 5 2 4 3 3 4 1 5 2 6 73 8 74 9 89 10 75 11 88 12 76 13
REMARK SMILES IDX 87 14 77 15 80 16 78 17 79 18 90 19 91 20 92 21 93 22 81 23
REMARK SMILES IDX 82 24 86 25 83 26 85 27 84 28 7 29 8 30 9 32 10 33 11 34
REMARK SMILES IDX 72 35 12 36 71 37 13 38 14 39 15 40 65 41 16 42 70 43 64 44
REMARK SMILES IDX 66 45 17 46 69 47 63 48 62 49 18 51 50 52 30 53 49 54 31 55
REMARK SMILES IDX 34 56 48 57 67 58 32 59 33 60 47 62 68 63 35 64 19 65 20 66
REMARK SMILES IDX 28 67 21 68 27 69 29 70 26 71 22 72 23 73 24 74 25 75 51 76
REMARK SMILES IDX 52 77 60 78 53 79 59 80 61 81 58 82 54 83 55 84 56 85 57 86
REMARK SMILES IDX 36 87 37 88 45 89 38 90 44 91 46 92 43 93 39 94 40 95 41 96
REMARK SMILES IDX 42 97
REMARK H PARENT 3 7 7 31 66 50 34 61
REMARK Flexibility Score: inf
ROOT
ATOM      1  C   UNL A   1      36.985  21.704  24.812  1.00  0.00     0.118 C 
ENDROOT
BRANCH   1   2
ATOM      2  C   UNL A   1      35.771  21.559  25.729  1.00  0.00     0.042 C 
BRANCH   2   3
ATOM      3  C   UNL A   1      34.447  21.590  24.962  1.00  0.00     0.118 C 
BRANCH   3   4
ATOM      4  N   UNL A   1      34.506  22.428  23.757  1.00  0.00    -0.352 N 
ATOM      5  O   UNL A   1      34.429  24.359  22.562  1.00  0.00    -0.270 OA
ATOM      6  C   UNL A   1      34.123  23.731  23.567  1.00  0.00     0.251 C 
ATOM      7  H   UNL A   1      34.878  21.984  22.961  1.00  0.00     0.163 HD
BRANCH   6   8
ATOM      8  C   UNL A   1      33.382  24.367  24.664  1.00  0.00     0.067 C 
ATOM      9  C   UNL A   1      34.042  25.235  25.438  1.00  0.00     0.025 C 
ATOM     10  C   UNL A   1      31.890  24.288  24.625  1.00  0.00     0.314 C 
ATOM     11  C   UNL A   1      33.264  26.417  25.817  1.00  0.00     0.019 A 
ATOM     12  O   UNL A   1      31.301  25.610  24.601  1.00  0.00    -0.475 OA
ATOM     13  C   UNL A   1      33.941  27.480  26.418  1.00  0.00     0.032 A 
ATOM     14  C   UNL A   1      32.008  26.624  25.209  1.00  0.00     0.135 A 
ATOM     15  C   UNL A   1      33.418  28.764  26.317  1.00  0.00     0.042 A 
ATOM     16  C   UNL A   1      31.512  27.930  25.047  1.00  0.00     0.026 A 
ATOM     17  Cl  UNL A   1      34.325  30.093  26.925  1.00  0.00    -0.084 Cl
ATOM     18  C   UNL A   1      32.235  28.995  25.615  1.00  0.00     0.033 A 
BRANCH  10  19
ATOM     19  C   UNL A   1      31.329  23.420  25.764  1.00  0.00     0.429 C 
ATOM     20  F   UNL A   1      32.155  23.425  26.840  1.00  0.00    -0.167 F 
ATOM     21  F   UNL A   1      30.130  23.877  26.199  1.00  0.00    -0.167 F 
ATOM     22  F   UNL A   1      31.155  22.127  25.402  1.00  0.00    -0.167 F 
ENDBRANCH  10  19
BRANCH  16  23
ATOM     23  C   UNL A   1      30.399  28.229  24.132  1.00  0.00    -0.015 A 
ATOM     24  C   UNL A   1      30.446  29.383  23.329  1.00  0.00     0.009 A 
ATOM     25  C   UNL A   1      29.257  27.425  24.063  1.00  0.00     0.009 A 
ATOM     26  C   UNL A   1      29.372  29.756  22.522  1.00  0.00     0.001 A 
ATOM     27  C   UNL A   1      28.184  27.789  23.243  1.00  0.00     0.001 A 
ATOM     28  C   UNL A   1      28.235  28.960  22.486  1.00  0.00     0.000 A 
ENDBRANCH  16  23
ENDBRANCH   6   8
ENDBRANCH   3   4
ENDBRANCH   2   3
ENDBRANCH   1   2
BRANCH   1  29
ATOM     29  N   UNL A   1      38.077  20.787  25.087  1.00  0.00    -0.352 N 
ATOM     30  C   UNL A   1      39.181  20.946  25.903  1.00  0.00     0.251 C 
ATOM     31  H   UNL A   1      38.023  19.922  24.621  1.00  0.00     0.163 HD
ATOM     32  O   UNL A   1      39.984  20.018  25.991  1.00  0.00    -0.269 OA
BRANCH  30  33
ATOM     33  C   UNL A   1      39.475  22.241  26.571  1.00  0.00     0.039 A 
ATOM     34  C   UNL A   1      40.451  22.253  27.576  1.00  0.00     0.014 A 
ATOM     35  C   UNL A   1      38.898  23.446  26.177  1.00  0.00     0.014 A 
ATOM     36  C   UNL A   1      40.941  23.467  28.064  1.00  0.00     0.010 A 
ATOM     37  C   UNL A   1      39.462  24.654  26.574  1.00  0.00     0.010 A 
ATOM     38  C   UNL A   1      40.513  24.678  27.499  1.00  0.00    -0.014 A 
BRANCH  38  39
ATOM     39  C   UNL A   1      41.199  25.961  27.805  1.00  0.00     0.031 A 
ATOM     40  C   UNL A   1      42.598  26.218  27.316  1.00  0.00     0.074 A 
ATOM     41  C   UNL A   1      40.586  26.846  28.618  1.00  0.00     0.049 A 
ATOM     42  N   UNL A   1      43.382  27.239  27.548  1.00  0.00    -0.248 NA
ATOM     43  C   UNL A   1      43.218  25.159  26.507  1.00  0.00     0.031 C 
ATOM     44  C   UNL A   1      39.272  26.653  29.242  1.00  0.00     0.029 A 
ATOM     45  N   UNL A   1      40.979  28.080  29.067  1.00  0.00    -0.354 N 
ATOM     46  C   UNL A   1      44.595  26.934  26.937  1.00  0.00     0.074 A 
ATOM     47  C   UNL A   1      44.460  25.600  26.393  1.00  0.00     0.031 C 
ATOM     48  C   UNL A   1      38.948  27.749  29.944  1.00  0.00     0.029 A 
ATOM     49  C   UNL A   1      40.043  28.707  29.856  1.00  0.00     0.049 A 
ATOM     50  H   UNL A   1      41.851  28.481  28.843  1.00  0.00     0.167 HD
ATOM     51  C   UNL A   1      45.703  27.707  26.816  1.00  0.00     0.034 A 
ATOM     52  C   UNL A   1      40.060  29.924  30.433  1.00  0.00     0.034 A 
ATOM     53  C   UNL A   1      45.797  29.047  27.344  1.00  0.00     0.049 A 
ATOM     54  C   UNL A   1      41.263  30.800  30.209  1.00  0.00     0.074 A 
ATOM     55  C   UNL A   1      46.842  29.950  27.243  1.00  0.00     0.029 A 
ATOM     56  N   UNL A   1      44.795  29.683  28.070  1.00  0.00    -0.354 N 
ATOM     57  N   UNL A   1      42.378  30.523  29.571  1.00  0.00    -0.248 NA
ATOM     58  C   UNL A   1      41.199  32.159  30.757  1.00  0.00     0.031 C 
ATOM     59  C   UNL A   1      46.488  31.112  27.942  1.00  0.00     0.029 A 
ATOM     60  C   UNL A   1      45.198  30.961  28.427  1.00  0.00     0.049 A 
ATOM     61  H   UNL A   1      43.925  29.283  28.297  1.00  0.00     0.167 HD
ATOM     62  C   UNL A   1      43.141  31.685  29.624  1.00  0.00     0.074 A 
ATOM     63  C   UNL A   1      42.343  32.670  30.328  1.00  0.00     0.031 C 
ATOM     64  C   UNL A   1      44.389  31.918  29.143  1.00  0.00     0.034 A 
BRANCH  51  65
ATOM     65  C   UNL A   1      46.890  27.103  26.098  1.00  0.00     0.023 A 
ATOM     66  C   UNL A   1      47.877  26.379  26.793  1.00  0.00     0.031 A 
ATOM     67  C   UNL A   1      47.080  27.309  24.721  1.00  0.00     0.131 A 
ATOM     68  C   UNL A   1      49.051  25.983  26.136  1.00  0.00     0.055 A 
ATOM     69  C   UNL A   1      48.208  26.827  24.052  1.00  0.00     0.041 A 
ATOM     70  F   UNL A   1      46.185  28.007  24.004  1.00  0.00    -0.206 F 
ATOM     71  C   UNL A   1      49.213  26.178  24.764  1.00  0.00     0.022 A 
BRANCH  68  72
ATOM     72  S   UNL A   1      50.434  25.366  27.137  1.00  0.00     0.124 S 
ATOM     73  O   UNL A   1      51.399  24.995  26.103  1.00  0.00    -0.237 OA
ATOM     74  O   UNL A   1      50.781  26.528  27.947  1.00  0.00    -0.237 OA
ATOM     75  O   UNL A   1      49.854  24.243  27.870  1.00  0.00    -0.744 OA
ENDBRANCH  68  72
ENDBRANCH  51  65
BRANCH  52  76
ATOM     76  C   UNL A   1      38.899  30.399  31.238  1.00  0.00     0.023 A 
ATOM     77  C   UNL A   1      37.851  31.114  30.638  1.00  0.00     0.031 A 
ATOM     78  C   UNL A   1      38.830  30.168  32.624  1.00  0.00     0.131 A 
ATOM     79  C   UNL A   1      36.802  31.615  31.424  1.00  0.00     0.055 A 
ATOM     80  C   UNL A   1      37.761  30.627  33.395  1.00  0.00     0.041 A 
ATOM     81  F   UNL A   1      39.798  29.475  33.245  1.00  0.00    -0.206 F 
ATOM     82  C   UNL A   1      36.745  31.368  32.798  1.00  0.00     0.022 A 
BRANCH  79  83
ATOM     83  S   UNL A   1      35.547  32.661  30.636  1.00  0.00     0.124 S 
ATOM     84  O   UNL A   1      36.185  33.972  30.673  1.00  0.00    -0.237 OA
ATOM     85  O   UNL A   1      35.426  32.046  29.318  1.00  0.00    -0.237 OA
ATOM     86  O   UNL A   1      34.381  32.508  31.503  1.00  0.00    -0.744 OA
ENDBRANCH  79  83
ENDBRANCH  52  76
BRANCH  64  87
ATOM     87  C   UNL A   1      44.933  33.310  29.345  1.00  0.00     0.023 A 
ATOM     88  C   UNL A   1      44.750  34.317  28.381  1.00  0.00     0.031 A 
ATOM     89  C   UNL A   1      45.685  33.616  30.492  1.00  0.00     0.131 A 
ATOM     90  C   UNL A   1      45.378  35.559  28.543  1.00  0.00     0.055 A 
ATOM     91  C   UNL A   1      46.255  34.876  30.678  1.00  0.00     0.041 A 
ATOM     92  F   UNL A   1      45.890  32.691  31.443  1.00  0.00    -0.206 F 
ATOM     93  C   UNL A   1      46.118  35.849  29.692  1.00  0.00     0.022 A 
BRANCH  90  94
ATOM     94  S   UNL A   1      45.317  36.745  27.173  1.00  0.00     0.124 S 
ATOM     95  O   UNL A   1      45.906  37.938  27.775  1.00  0.00    -0.237 OA
ATOM     96  O   UNL A   1      46.124  36.083  26.153  1.00  0.00    -0.237 OA
ATOM     97  O   UNL A   1      43.891  36.844  26.869  1.00  0.00    -0.744 OA
ENDBRANCH  90  94
ENDBRANCH  64  87
ENDBRANCH  38  39
ENDBRANCH  30  33
ENDBRANCH   1  29
TORSDOF 15
ENDMDL
MODEL 3
REMARK VINA RESULT:     -12.7      2.847      8.104
REMARK SMILES O=C(NCCCNC(=O)c1ccc(-c2c3nc(c(-c4cc(S(=O)(=O)[O-])ccc4F)c4ccc([nH]4)c(-c4cc(S(=O)(=O)[O-])ccc4F)c4nc(c(-c5cc(S(=O)(=O)[O-])ccc5F)c5ccc2[nH]5)C=C4)C=C3)cc1)C1=Cc2cc(Cl)cc(-c3ccccc3)c2O[C@@H]1C(F)(F)F
REMARK SMILES IDX 6 1 5 2 4 3 3 4 1 5 2 6 73 8 74 9 89 10 75 11 88 12 76 13
REMARK SMILES IDX 87 14 77 15 80 16 78 17 79 18 90 19 91 20 92 21 93 22 81 23
REMARK SMILES IDX 82 24 86 25 83 26 85 27 84 28 7 29 8 30 9 32 10 33 11 34
REMARK SMILES IDX 72 35 12 36 71 37 13 38 14 39 15 40 65 41 16 42 70 43 64 44
REMARK SMILES IDX 66 45 17 46 69 47 63 48 62 49 18 51 50 52 30 53 49 54 31 55
REMARK SMILES IDX 34 56 48 57 67 58 32 59 33 60 47 62 68 63 35 64 19 65 20 66
REMARK SMILES IDX 28 67 21 68 27 69 29 70 26 71 22 72 23 73 24 74 25 75 51 76
REMARK SMILES IDX 52 77 60 78 53 79 59 80 61 81 58 82 54 83 55 84 56 85 57 86
REMARK SMILES IDX 36 87 37 88 45 89 38 90 44 91 46 92 43 93 39 94 40 95 41 96
REMARK SMILES IDX 42 97
REMARK H PARENT 3 7 7 31 66 50 34 61
REMARK Flexibility Score: inf
ROOT
ATOM      1  C   UNL A   1      32.604  29.524  25.998  1.00  0.00     0.118 C 
ENDROOT
BRANCH   1   2
ATOM      2  C   UNL A   1      32.034  28.340  26.778  1.00  0.00     0.042 C 
BRANCH   2   3
ATOM      3  C   UNL A   1      31.909  27.077  25.924  1.00  0.00     0.118 C 
BRANCH   3   4
ATOM      4  N   UNL A   1      31.405  25.924  26.682  1.00  0.00    -0.352 N 
ATOM      5  O   UNL A   1      31.408  23.794  27.473  1.00  0.00    -0.270 OA
ATOM      6  C   UNL A   1      31.770  24.603  26.629  1.00  0.00     0.251 C 
ATOM      7  H   UNL A   1      30.694  26.133  27.331  1.00  0.00     0.163 HD
BRANCH   6   8
ATOM      8  C   UNL A   1      32.679  24.214  25.543  1.00  0.00     0.067 C 
ATOM      9  C   UNL A   1      33.982  24.467  25.705  1.00  0.00     0.025 C 
ATOM     10  C   UNL A   1      32.160  23.258  24.519  1.00  0.00     0.314 C 
ATOM     11  C   UNL A   1      34.866  23.404  25.220  1.00  0.00     0.019 A 
ATOM     12  O   UNL A   1      32.966  22.057  24.473  1.00  0.00    -0.475 OA
ATOM     13  C   UNL A   1      36.219  23.473  25.561  1.00  0.00     0.032 A 
ATOM     14  C   UNL A   1      34.295  22.179  24.816  1.00  0.00     0.135 A 
ATOM     15  C   UNL A   1      36.971  22.304  25.603  1.00  0.00     0.042 A 
ATOM     16  C   UNL A   1      35.035  20.988  24.924  1.00  0.00     0.026 A 
ATOM     17  Cl  UNL A   1      38.595  22.369  26.166  1.00  0.00    -0.084 Cl
ATOM     18  C   UNL A   1      36.383  21.072  25.318  1.00  0.00     0.033 A 
BRANCH  10  19
ATOM     19  C   UNL A   1      32.017  23.917  23.136  1.00  0.00     0.429 C 
ATOM     20  F   UNL A   1      32.562  25.159  23.125  1.00  0.00    -0.167 F 
ATOM     21  F   UNL A   1      32.654  23.209  22.174  1.00  0.00    -0.167 F 
ATOM     22  F   UNL A   1      30.726  24.046  22.748  1.00  0.00    -0.167 F 
ENDBRANCH  10  19
BRANCH  16  23
ATOM     23  C   UNL A   1      34.393  19.666  24.850  1.00  0.00    -0.015 A 
ATOM     24  C   UNL A   1      35.176  18.523  24.607  1.00  0.00     0.009 A 
ATOM     25  C   UNL A   1      33.010  19.504  24.967  1.00  0.00     0.009 A 
ATOM     26  C   UNL A   1      34.599  17.266  24.431  1.00  0.00     0.001 A 
ATOM     27  C   UNL A   1      32.429  18.242  24.806  1.00  0.00     0.001 A 
ATOM     28  C   UNL A   1      33.220  17.128  24.524  1.00  0.00     0.000 A 
ENDBRANCH  16  23
ENDBRANCH   6   8
ENDBRANCH   3   4
ENDBRANCH   2   3
ENDBRANCH   1   2
BRANCH   1  29
ATOM     29  N   UNL A   1      32.386  30.824  26.605  1.00  0.00    -0.352 N 
ATOM     30  C   UNL A   1      33.268  31.643  27.285  1.00  0.00     0.251 C 
ATOM     31  H   UNL A   1      31.471  31.177  26.520  1.00  0.00     0.163 HD
ATOM     32  O   UNL A   1      32.858  32.721  27.711  1.00  0.00    -0.269 OA
BRANCH  30  33
ATOM     33  C   UNL A   1      34.648  31.197  27.612  1.00  0.00     0.039 A 
ATOM     34  C   UNL A   1      35.578  32.172  27.995  1.00  0.00     0.014 A 
ATOM     35  C   UNL A   1      35.024  29.856  27.644  1.00  0.00     0.014 A 
ATOM     36  C   UNL A   1      36.806  31.794  28.544  1.00  0.00     0.010 A 
ATOM     37  C   UNL A   1      36.193  29.475  28.295  1.00  0.00     0.010 A 
ATOM     38  C   UNL A   1      37.084  30.440  28.782  1.00  0.00    -0.014 A 
BRANCH  38  39
ATOM     39  C   UNL A   1      38.253  30.020  29.598  1.00  0.00     0.031 A 
ATOM     40  C   UNL A   1      38.413  30.502  31.013  1.00  0.00     0.074 A 
ATOM     41  C   UNL A   1      39.224  29.288  29.012  1.00  0.00     0.049 A 
ATOM     42  N   UNL A   1      39.401  30.306  31.849  1.00  0.00    -0.248 NA
ATOM     43  C   UNL A   1      37.347  31.366  31.540  1.00  0.00     0.031 C 
ATOM     44  C   UNL A   1      39.228  28.857  27.610  1.00  0.00     0.029 A 
ATOM     45  N   UNL A   1      40.394  28.778  29.511  1.00  0.00    -0.354 N 
ATOM     46  C   UNL A   1      39.088  31.044  32.987  1.00  0.00     0.074 A 
ATOM     47  C   UNL A   1      37.857  31.748  32.699  1.00  0.00     0.031 C 
ATOM     48  C   UNL A   1      40.316  28.106  27.379  1.00  0.00     0.029 A 
ATOM     49  C   UNL A   1      41.107  28.032  28.601  1.00  0.00     0.049 A 
ATOM     50  H   UNL A   1      40.696  28.931  30.437  1.00  0.00     0.167 HD
ATOM     51  C   UNL A   1      39.750  31.101  34.170  1.00  0.00     0.034 A 
ATOM     52  C   UNL A   1      42.262  27.355  28.740  1.00  0.00     0.034 A 
ATOM     53  C   UNL A   1      40.960  30.363  34.439  1.00  0.00     0.049 A 
ATOM     54  C   UNL A   1      42.931  27.359  30.088  1.00  0.00     0.074 A 
ATOM     55  C   UNL A   1      41.696  30.296  35.610  1.00  0.00     0.029 A 
ATOM     56  N   UNL A   1      41.612  29.550  33.517  1.00  0.00    -0.354 N 
ATOM     57  N   UNL A   1      42.587  28.008  31.178  1.00  0.00    -0.248 NA
ATOM     58  C   UNL A   1      44.125  26.519  30.234  1.00  0.00     0.031 C 
ATOM     59  C   UNL A   1      42.811  29.478  35.383  1.00  0.00     0.029 A 
ATOM     60  C   UNL A   1      42.740  28.984  34.090  1.00  0.00     0.049 A 
ATOM     61  H   UNL A   1      41.314  29.399  32.591  1.00  0.00     0.167 HD
ATOM     62  C   UNL A   1      43.514  27.637  32.146  1.00  0.00     0.074 A 
ATOM     63  C   UNL A   1      44.409  26.685  31.517  1.00  0.00     0.031 C 
ATOM     64  C   UNL A   1      43.624  28.048  33.435  1.00  0.00     0.034 A 
BRANCH  51  65
ATOM     65  C   UNL A   1      39.174  32.004  35.239  1.00  0.00     0.023 A 
ATOM     66  C   UNL A   1      39.580  33.346  35.363  1.00  0.00     0.031 A 
ATOM     67  C   UNL A   1      38.265  31.507  36.188  1.00  0.00     0.131 A 
ATOM     68  C   UNL A   1      39.165  34.108  36.465  1.00  0.00     0.055 A 
ATOM     69  C   UNL A   1      37.779  32.301  37.231  1.00  0.00     0.041 A 
ATOM     70  F   UNL A   1      37.851  30.231  36.137  1.00  0.00    -0.206 F 
ATOM     71  C   UNL A   1      38.246  33.604  37.387  1.00  0.00     0.022 A 
BRANCH  68  72
ATOM     72  S   UNL A   1      39.979  35.700  36.770  1.00  0.00     0.124 S 
ATOM     73  O   UNL A   1      41.376  35.293  36.909  1.00  0.00    -0.237 OA
ATOM     74  O   UNL A   1      39.651  36.458  35.568  1.00  0.00    -0.237 OA
ATOM     75  O   UNL A   1      39.352  36.177  38.001  1.00  0.00    -0.744 OA
ENDBRANCH  68  72
ENDBRANCH  51  65
BRANCH  52  76
ATOM     76  C   UNL A   1      42.837  26.590  27.597  1.00  0.00     0.023 A 
ATOM     77  C   UNL A   1      42.611  25.211  27.466  1.00  0.00     0.031 A 
ATOM     78  C   UNL A   1      43.641  27.220  26.630  1.00  0.00     0.131 A 
ATOM     79  C   UNL A   1      43.218  24.495  26.423  1.00  0.00     0.055 A 
ATOM     80  C   UNL A   1      44.205  26.513  25.567  1.00  0.00     0.041 A 
ATOM     81  F   UNL A   1      43.875  28.541  26.698  1.00  0.00    -0.206 F 
ATOM     82  C   UNL A   1      44.006  25.140  25.466  1.00  0.00     0.022 A 
BRANCH  79  83
ATOM     83  S   UNL A   1      43.024  22.693  26.377  1.00  0.00     0.124 S 
ATOM     84  O   UNL A   1      42.011  22.475  27.402  1.00  0.00    -0.237 OA
ATOM     85  O   UNL A   1      42.599  22.470  24.998  1.00  0.00    -0.237 OA
ATOM     86  O   UNL A   1      44.360  22.197  26.703  1.00  0.00    -0.744 OA
ENDBRANCH  79  83
ENDBRANCH  52  76
BRANCH  64  87
ATOM     87  C   UNL A   1      44.739  27.430  34.240  1.00  0.00     0.023 A 
ATOM     88  C   UNL A   1      44.565  26.214  34.923  1.00  0.00     0.031 A 
ATOM     89  C   UNL A   1      45.973  28.092  34.365  1.00  0.00     0.131 A 
ATOM     90  C   UNL A   1      45.578  25.735  35.764  1.00  0.00     0.055 A 
ATOM     91  C   UNL A   1      47.002  27.577  35.154  1.00  0.00     0.041 A 
ATOM     92  F   UNL A   1      46.192  29.256  33.734  1.00  0.00    -0.206 F 
ATOM     93  C   UNL A   1      46.801  26.402  35.873  1.00  0.00     0.022 A 
BRANCH  90  94
ATOM     94  S   UNL A   1      45.228  24.296  36.810  1.00  0.00     0.124 S 
ATOM     95  O   UNL A   1      44.671  23.348  35.849  1.00  0.00    -0.237 OA
ATOM     96  O   UNL A   1      46.548  23.966  37.337  1.00  0.00    -0.237 OA
ATOM     97  O   UNL A   1      44.278  24.811  37.794  1.00  0.00    -0.744 OA
ENDBRANCH  90  94
ENDBRANCH  64  87
ENDBRANCH  38  39
ENDBRANCH  30  33
ENDBRANCH   1  29
TORSDOF 15
ENDMDL
