MODEL 1
REMARK VINA RESULT:      -9.0      0.000      0.000
REMARK SMILES O=C(CCCc1ccc2c(c1Br)C=CC2)NCCCNC(=O)c1ccc(-c2c3nc(c(-c4cc(S(=O)(=O)[O-])ccc4F)c4ccc([nH]4)c(-c4cc(S(=O)(=O)[O-])ccc4F)c4nc(c(-c5cc(S(=O)(=O)[O-])ccc5F)c5ccc2[nH]5)C=C4)C=C3)cc1
REMARK SMILES IDX 18 1 17 2 16 3 1 4 2 5 3 7 4 8 5 9 6 10 7 11 11 12 8 13
REMARK SMILES IDX 10 14 12 15 9 16 13 17 15 18 14 19 19 20 20 21 21 22 22 24
REMARK SMILES IDX 23 25 24 26 85 27 25 28 84 29 26 30 27 31 28 32 78 33 29 34
REMARK SMILES IDX 83 35 77 36 79 37 30 38 82 39 76 40 75 41 31 43 63 44 43 45
REMARK SMILES IDX 62 46 44 47 47 48 61 49 80 50 45 51 46 52 60 54 81 55 48 56
REMARK SMILES IDX 32 57 33 58 41 59 34 60 40 61 42 62 39 63 35 64 36 65 37 66
REMARK SMILES IDX 38 67 64 68 65 69 73 70 66 71 72 72 74 73 71 74 67 75 68 76
REMARK SMILES IDX 69 77 70 78 49 79 50 80 58 81 51 82 57 83 59 84 56 85 52 86
REMARK SMILES IDX 53 87 54 88 55 89
REMARK H PARENT 16 6 20 23 79 42 47 53
REMARK Flexibility Score: inf
ROOT
ATOM      1  C   UNL A   1      32.695  36.396  31.279  1.00  0.00     0.042 C 
ENDROOT
BRANCH   1   2
ATOM      2  C   UNL A   1      33.270  36.358  32.689  1.00  0.00     0.117 C 
BRANCH   2   3
ATOM      3  N   UNL A   1      33.624  35.015  33.100  1.00  0.00    -0.356 N 
ATOM      4  O   UNL A   1      35.869  35.425  33.371  1.00  0.00    -0.275 OA
ATOM      5  C   UNL A   1      34.915  34.656  33.396  1.00  0.00     0.220 C 
ATOM      6  H   UNL A   1      32.913  34.338  33.170  1.00  0.00     0.163 HD
BRANCH   5   7
ATOM      7  C   UNL A   1      35.055  33.206  33.792  1.00  0.00     0.100 C 
BRANCH   7   8
ATOM      8  C   UNL A   1      36.519  32.776  33.873  1.00  0.00     0.015 C 
BRANCH   8   9
ATOM      9  C   UNL A   1      36.820  31.284  33.644  1.00  0.00     0.037 C 
BRANCH   9  10
ATOM     10  C   UNL A   1      38.192  30.699  33.938  1.00  0.00    -0.033 A 
ATOM     11  C   UNL A   1      38.948  31.379  34.935  1.00  0.00     0.005 A 
ATOM     12  C   UNL A   1      38.797  29.607  33.277  1.00  0.00     0.028 A 
ATOM     13  C   UNL A   1      40.224  30.963  35.324  1.00  0.00     0.005 A 
ATOM     14  C   UNL A   1      40.044  29.156  33.717  1.00  0.00    -0.008 A 
ATOM     15  Br  UNL A   1      38.042  28.763  31.749  1.00  0.00    -0.050 Br
ATOM     16  C   UNL A   1      40.745  29.836  34.723  1.00  0.00    -0.036 A 
ATOM     17  C   UNL A   1      40.849  28.007  33.310  1.00  0.00     0.005 C 
ATOM     18  C   UNL A   1      42.064  29.171  34.980  1.00  0.00     0.063 C 
ATOM     19  C   UNL A   1      41.983  28.007  34.028  1.00  0.00    -0.022 C 
ENDBRANCH   9  10
ENDBRANCH   8   9
ENDBRANCH   7   8
ENDBRANCH   5   7
ENDBRANCH   2   3
ENDBRANCH   1   2
BRANCH   1  20
ATOM     20  C   UNL A   1      33.595  35.770  30.220  1.00  0.00     0.118 C 
BRANCH  20  21
ATOM     21  N   UNL A   1      32.854  35.007  29.225  1.00  0.00    -0.352 N 
ATOM     22  C   UNL A   1      33.275  33.935  28.473  1.00  0.00     0.251 C 
ATOM     23  H   UNL A   1      31.927  35.299  29.069  1.00  0.00     0.163 HD
ATOM     24  O   UNL A   1      32.575  33.498  27.569  1.00  0.00    -0.269 OA
BRANCH  22  25
ATOM     25  C   UNL A   1      34.593  33.333  28.759  1.00  0.00     0.039 A 
ATOM     26  C   UNL A   1      35.705  33.768  28.039  1.00  0.00     0.014 A 
ATOM     27  C   UNL A   1      34.725  32.374  29.769  1.00  0.00     0.014 A 
ATOM     28  C   UNL A   1      36.971  33.288  28.378  1.00  0.00     0.010 A 
ATOM     29  C   UNL A   1      35.994  31.941  30.142  1.00  0.00     0.010 A 
ATOM     30  C   UNL A   1      37.127  32.394  29.452  1.00  0.00    -0.014 A 
BRANCH  30  31
ATOM     31  C   UNL A   1      38.476  31.942  29.871  1.00  0.00     0.031 A 
ATOM     32  C   UNL A   1      39.218  32.674  30.951  1.00  0.00     0.074 A 
ATOM     33  C   UNL A   1      39.050  30.898  29.242  1.00  0.00     0.049 A 
ATOM     34  N   UNL A   1      40.394  32.414  31.459  1.00  0.00    -0.248 NA
ATOM     35  C   UNL A   1      38.563  33.862  31.521  1.00  0.00     0.031 C 
ATOM     36  C   UNL A   1      38.451  30.148  28.137  1.00  0.00     0.029 A 
ATOM     37  N   UNL A   1      40.267  30.292  29.436  1.00  0.00    -0.354 N 
ATOM     38  C   UNL A   1      40.619  33.400  32.411  1.00  0.00     0.074 A 
ATOM     39  C   UNL A   1      39.486  34.297  32.368  1.00  0.00     0.031 C 
ATOM     40  C   UNL A   1      39.292  29.170  27.765  1.00  0.00     0.029 A 
ATOM     41  C   UNL A   1      40.499  29.235  28.587  1.00  0.00     0.049 A 
ATOM     42  H   UNL A   1      40.912  30.587  30.117  1.00  0.00     0.167 HD
ATOM     43  C   UNL A   1      41.661  33.526  33.265  1.00  0.00     0.034 A 
ATOM     44  C   UNL A   1      41.557  28.406  28.488  1.00  0.00     0.034 A 
ATOM     45  C   UNL A   1      42.777  32.620  33.311  1.00  0.00     0.049 A 
ATOM     46  C   UNL A   1      42.705  28.562  29.452  1.00  0.00     0.074 A 
ATOM     47  C   UNL A   1      43.850  32.630  34.185  1.00  0.00     0.029 A 
ATOM     48  N   UNL A   1      42.968  31.546  32.454  1.00  0.00    -0.354 N 
ATOM     49  N   UNL A   1      42.851  29.432  30.423  1.00  0.00    -0.248 NA
ATOM     50  C   UNL A   1      43.825  27.618  29.322  1.00  0.00     0.031 C 
ATOM     51  C   UNL A   1      44.710  31.588  33.831  1.00  0.00     0.029 A 
ATOM     52  C   UNL A   1      44.151  30.899  32.766  1.00  0.00     0.049 A 
ATOM     53  H   UNL A   1      42.353  31.284  31.732  1.00  0.00     0.167 HD
ATOM     54  C   UNL A   1      44.064  29.127  31.033  1.00  0.00     0.074 A 
ATOM     55  C   UNL A   1      44.603  27.980  30.334  1.00  0.00     0.031 C 
ATOM     56  C   UNL A   1      44.675  29.746  32.075  1.00  0.00     0.034 A 
BRANCH  43  57
ATOM     57  C   UNL A   1      41.636  34.661  34.253  1.00  0.00     0.023 A 
ATOM     58  C   UNL A   1      40.957  34.523  35.476  1.00  0.00     0.031 A 
ATOM     59  C   UNL A   1      42.199  35.910  33.934  1.00  0.00     0.131 A 
ATOM     60  C   UNL A   1      40.839  35.627  36.329  1.00  0.00     0.055 A 
ATOM     61  C   UNL A   1      42.104  36.997  34.802  1.00  0.00     0.041 A 
ATOM     62  F   UNL A   1      42.861  36.083  32.779  1.00  0.00    -0.206 F 
ATOM     63  C   UNL A   1      41.415  36.861  36.002  1.00  0.00     0.022 A 
BRANCH  60  64
ATOM     64  S   UNL A   1      39.915  35.514  37.885  1.00  0.00     0.124 S 
ATOM     65  O   UNL A   1      39.601  36.917  38.152  1.00  0.00    -0.237 OA
ATOM     66  O   UNL A   1      38.778  34.682  37.503  1.00  0.00    -0.237 OA
ATOM     67  O   UNL A   1      40.864  34.907  38.811  1.00  0.00    -0.744 OA
ENDBRANCH  60  64
ENDBRANCH  43  57
BRANCH  44  68
ATOM     68  C   UNL A   1      41.529  27.308  27.481  1.00  0.00     0.023 A 
ATOM     69  C   UNL A   1      41.206  25.990  27.851  1.00  0.00     0.031 A 
ATOM     70  C   UNL A   1      41.916  27.549  26.152  1.00  0.00     0.131 A 
ATOM     71  C   UNL A   1      41.322  24.956  26.913  1.00  0.00     0.055 A 
ATOM     72  C   UNL A   1      41.976  26.524  25.206  1.00  0.00     0.041 A 
ATOM     73  F   UNL A   1      42.245  28.789  25.761  1.00  0.00    -0.206 F 
ATOM     74  C   UNL A   1      41.689  25.218  25.588  1.00  0.00     0.022 A 
BRANCH  71  75
ATOM     75  S   UNL A   1      41.085  23.226  27.400  1.00  0.00     0.124 S 
ATOM     76  O   UNL A   1      41.802  23.163  28.669  1.00  0.00    -0.237 OA
ATOM     77  O   UNL A   1      39.629  23.143  27.491  1.00  0.00    -0.237 OA
ATOM     78  O   UNL A   1      41.684  22.474  26.302  1.00  0.00    -0.744 OA
ENDBRANCH  71  75
ENDBRANCH  44  68
BRANCH  56  79
ATOM     79  C   UNL A   1      46.003  29.214  32.548  1.00  0.00     0.023 A 
ATOM     80  C   UNL A   1      46.054  28.277  33.597  1.00  0.00     0.031 A 
ATOM     81  C   UNL A   1      47.212  29.744  32.065  1.00  0.00     0.131 A 
ATOM     82  C   UNL A   1      47.289  27.925  34.155  1.00  0.00     0.055 A 
ATOM     83  C   UNL A   1      48.443  29.360  32.599  1.00  0.00     0.041 A 
ATOM     84  F   UNL A   1      47.211  30.648  31.072  1.00  0.00    -0.206 F 
ATOM     85  C   UNL A   1      48.484  28.457  33.657  1.00  0.00     0.022 A 
BRANCH  82  86
ATOM     86  S   UNL A   1      47.388  26.819  35.590  1.00  0.00     0.124 S 
ATOM     87  O   UNL A   1      48.818  26.530  35.653  1.00  0.00    -0.237 OA
ATOM     88  O   UNL A   1      46.874  27.666  36.664  1.00  0.00    -0.237 OA
ATOM     89  O   UNL A   1      46.541  25.689  35.222  1.00  0.00    -0.744 OA
ENDBRANCH  82  86
ENDBRANCH  56  79
ENDBRANCH  30  31
ENDBRANCH  22  25
ENDBRANCH  20  21
ENDBRANCH   1  20
TORSDOF 16
ENDMDL
MODEL 2
REMARK VINA RESULT:      -8.8      1.601      2.023
REMARK SMILES O=C(CCCc1ccc2c(c1Br)C=CC2)NCCCNC(=O)c1ccc(-c2c3nc(c(-c4cc(S(=O)(=O)[O-])ccc4F)c4ccc([nH]4)c(-c4cc(S(=O)(=O)[O-])ccc4F)c4nc(c(-c5cc(S(=O)(=O)[O-])ccc5F)c5ccc2[nH]5)C=C4)C=C3)cc1
REMARK SMILES IDX 18 1 17 2 16 3 1 4 2 5 3 7 4 8 5 9 6 10 7 11 11 12 8 13
REMARK SMILES IDX 10 14 12 15 9 16 13 17 15 18 14 19 19 20 20 21 21 22 22 24
REMARK SMILES IDX 23 25 24 26 85 27 25 28 84 29 26 30 27 31 28 32 78 33 29 34
REMARK SMILES IDX 83 35 77 36 79 37 30 38 82 39 76 40 75 41 31 43 63 44 43 45
REMARK SMILES IDX 62 46 44 47 47 48 61 49 80 50 45 51 46 52 60 54 81 55 48 56
REMARK SMILES IDX 32 57 33 58 41 59 34 60 40 61 42 62 39 63 35 64 36 65 37 66
REMARK SMILES IDX 38 67 64 68 65 69 73 70 66 71 72 72 74 73 71 74 67 75 68 76
REMARK SMILES IDX 69 77 70 78 49 79 50 80 58 81 51 82 57 83 59 84 56 85 52 86
REMARK SMILES IDX 53 87 54 88 55 89
REMARK H PARENT 16 6 20 23 79 42 47 53
REMARK Flexibility Score: inf
ROOT
ATOM      1  C   UNL A   1      32.652  36.420  31.385  1.00  0.00     0.042 C 
ENDROOT
BRANCH   1   2
ATOM      2  C   UNL A   1      32.687  35.882  32.809  1.00  0.00     0.117 C 
BRANCH   2   3
ATOM      3  N   UNL A   1      34.040  35.674  33.283  1.00  0.00    -0.356 N 
ATOM      4  O   UNL A   1      33.901  33.384  33.422  1.00  0.00    -0.275 OA
ATOM      5  C   UNL A   1      34.532  34.424  33.567  1.00  0.00     0.220 C 
ATOM      6  H   UNL A   1      34.626  36.455  33.406  1.00  0.00     0.163 HD
BRANCH   5   7
ATOM      7  C   UNL A   1      35.960  34.442  34.057  1.00  0.00     0.100 C 
BRANCH   7   8
ATOM      8  C   UNL A   1      36.235  33.317  35.054  1.00  0.00     0.015 C 
BRANCH   8   9
ATOM      9  C   UNL A   1      37.646  32.702  35.037  1.00  0.00     0.037 C 
BRANCH   9  10
ATOM     10  C   UNL A   1      37.960  31.461  34.219  1.00  0.00    -0.033 A 
ATOM     11  C   UNL A   1      36.925  31.028  33.341  1.00  0.00     0.005 A 
ATOM     12  C   UNL A   1      39.131  30.677  34.299  1.00  0.00     0.028 A 
ATOM     13  C   UNL A   1      37.059  29.907  32.517  1.00  0.00     0.005 A 
ATOM     14  C   UNL A   1      39.286  29.598  33.425  1.00  0.00    -0.008 A 
ATOM     15  Br  UNL A   1      40.486  30.956  35.605  1.00  0.00    -0.050 Br
ATOM     16  C   UNL A   1      38.255  29.220  32.553  1.00  0.00    -0.036 A 
ATOM     17  C   UNL A   1      40.412  28.693  33.205  1.00  0.00     0.005 C 
ATOM     18  C   UNL A   1      38.661  28.017  31.756  1.00  0.00     0.063 C 
ATOM     19  C   UNL A   1      40.066  27.808  32.256  1.00  0.00    -0.022 C 
ENDBRANCH   9  10
ENDBRANCH   8   9
ENDBRANCH   7   8
ENDBRANCH   5   7
ENDBRANCH   2   3
ENDBRANCH   1   2
BRANCH   1  20
ATOM     20  C   UNL A   1      33.581  35.693  30.419  1.00  0.00     0.118 C 
BRANCH  20  21
ATOM     21  N   UNL A   1      32.866  34.988  29.365  1.00  0.00    -0.352 N 
ATOM     22  C   UNL A   1      33.308  33.964  28.559  1.00  0.00     0.251 C 
ATOM     23  H   UNL A   1      31.940  35.285  29.207  1.00  0.00     0.163 HD
ATOM     24  O   UNL A   1      32.630  33.580  27.615  1.00  0.00    -0.269 OA
BRANCH  22  25
ATOM     25  C   UNL A   1      34.622  33.351  28.837  1.00  0.00     0.039 A 
ATOM     26  C   UNL A   1      35.739  33.798  28.131  1.00  0.00     0.014 A 
ATOM     27  C   UNL A   1      34.747  32.369  29.825  1.00  0.00     0.014 A 
ATOM     28  C   UNL A   1      37.002  33.306  28.465  1.00  0.00     0.010 A 
ATOM     29  C   UNL A   1      36.012  31.923  30.194  1.00  0.00     0.010 A 
ATOM     30  C   UNL A   1      37.150  32.388  29.519  1.00  0.00    -0.014 A 
BRANCH  30  31
ATOM     31  C   UNL A   1      38.495  31.921  29.933  1.00  0.00     0.031 A 
ATOM     32  C   UNL A   1      39.263  32.664  30.987  1.00  0.00     0.074 A 
ATOM     33  C   UNL A   1      39.044  30.853  29.322  1.00  0.00     0.049 A 
ATOM     34  N   UNL A   1      40.440  32.395  31.488  1.00  0.00    -0.248 NA
ATOM     35  C   UNL A   1      38.636  33.877  31.537  1.00  0.00     0.031 C 
ATOM     36  C   UNL A   1      38.419  30.088  28.242  1.00  0.00     0.029 A 
ATOM     37  N   UNL A   1      40.251  30.229  29.516  1.00  0.00    -0.354 N 
ATOM     38  C   UNL A   1      40.694  33.398  32.414  1.00  0.00     0.074 A 
ATOM     39  C   UNL A   1      39.576  34.315  32.363  1.00  0.00     0.031 C 
ATOM     40  C   UNL A   1      39.238  29.087  27.883  1.00  0.00     0.029 A 
ATOM     41  C   UNL A   1      40.455  29.149  28.689  1.00  0.00     0.049 A 
ATOM     42  H   UNL A   1      40.910  30.528  30.183  1.00  0.00     0.167 HD
ATOM     43  C   UNL A   1      41.748  33.525  33.254  1.00  0.00     0.034 A 
ATOM     44  C   UNL A   1      41.497  28.299  28.598  1.00  0.00     0.034 A 
ATOM     45  C   UNL A   1      42.848  32.601  33.308  1.00  0.00     0.049 A 
ATOM     46  C   UNL A   1      42.659  28.457  29.546  1.00  0.00     0.074 A 
ATOM     47  C   UNL A   1      43.930  32.611  34.169  1.00  0.00     0.029 A 
ATOM     48  N   UNL A   1      43.010  31.504  32.474  1.00  0.00    -0.354 N 
ATOM     49  N   UNL A   1      42.831  29.346  30.494  1.00  0.00    -0.248 NA
ATOM     50  C   UNL A   1      43.760  27.490  29.424  1.00  0.00     0.031 C 
ATOM     51  C   UNL A   1      44.768  31.546  33.830  1.00  0.00     0.029 A 
ATOM     52  C   UNL A   1      44.185  30.843  32.787  1.00  0.00     0.049 A 
ATOM     53  H   UNL A   1      42.382  31.236  31.766  1.00  0.00     0.167 HD
ATOM     54  C   UNL A   1      44.046  29.034  31.098  1.00  0.00     0.074 A 
ATOM     55  C   UNL A   1      44.557  27.861  30.419  1.00  0.00     0.031 C 
ATOM     56  C   UNL A   1      44.680  29.665  32.117  1.00  0.00     0.034 A 
BRANCH  43  57
ATOM     57  C   UNL A   1      41.754  34.683  34.215  1.00  0.00     0.023 A 
ATOM     58  C   UNL A   1      41.084  34.587  35.446  1.00  0.00     0.031 A 
ATOM     59  C   UNL A   1      42.339  35.913  33.863  1.00  0.00     0.131 A 
ATOM     60  C   UNL A   1      40.995  35.713  36.274  1.00  0.00     0.055 A 
ATOM     61  C   UNL A   1      42.274  37.021  34.705  1.00  0.00     0.041 A 
ATOM     62  F   UNL A   1      42.994  36.046  32.697  1.00  0.00    -0.206 F 
ATOM     63  C   UNL A   1      41.593  36.926  35.915  1.00  0.00     0.022 A 
BRANCH  60  64
ATOM     64  S   UNL A   1      40.084  35.653  37.841  1.00  0.00     0.124 S 
ATOM     65  O   UNL A   1      41.129  35.254  38.783  1.00  0.00    -0.237 OA
ATOM     66  O   UNL A   1      39.618  37.030  37.973  1.00  0.00    -0.237 OA
ATOM     67  O   UNL A   1      39.051  34.652  37.606  1.00  0.00    -0.744 OA
ENDBRANCH  60  64
ENDBRANCH  43  57
BRANCH  44  68
ATOM     68  C   UNL A   1      41.438  27.179  27.617  1.00  0.00     0.023 A 
ATOM     69  C   UNL A   1      41.319  25.845  28.045  1.00  0.00     0.031 A 
ATOM     70  C   UNL A   1      41.593  27.425  26.243  1.00  0.00     0.131 A 
ATOM     71  C   UNL A   1      41.404  24.805  27.109  1.00  0.00     0.055 A 
ATOM     72  C   UNL A   1      41.622  26.389  25.308  1.00  0.00     0.041 A 
ATOM     73  F   UNL A   1      41.724  28.683  25.794  1.00  0.00    -0.206 F 
ATOM     74  C   UNL A   1      41.538  25.070  25.742  1.00  0.00     0.022 A 
BRANCH  71  75
ATOM     75  S   UNL A   1      41.431  23.072  27.642  1.00  0.00     0.124 S 
ATOM     76  O   UNL A   1      42.338  22.466  26.672  1.00  0.00    -0.237 OA
ATOM     77  O   UNL A   1      41.950  23.192  29.003  1.00  0.00    -0.237 OA
ATOM     78  O   UNL A   1      40.035  22.659  27.541  1.00  0.00    -0.744 OA
ENDBRANCH  71  75
ENDBRANCH  44  68
BRANCH  56  79
ATOM     79  C   UNL A   1      46.004  29.121  32.587  1.00  0.00     0.023 A 
ATOM     80  C   UNL A   1      47.193  29.497  31.934  1.00  0.00     0.031 A 
ATOM     81  C   UNL A   1      46.071  28.124  33.576  1.00  0.00     0.131 A 
ATOM     82  C   UNL A   1      48.395  28.853  32.252  1.00  0.00     0.055 A 
ATOM     83  C   UNL A   1      47.279  27.513  33.917  1.00  0.00     0.041 A 
ATOM     84  F   UNL A   1      44.961  27.727  34.219  1.00  0.00    -0.206 F 
ATOM     85  C   UNL A   1      48.445  27.867  33.244  1.00  0.00     0.022 A 
BRANCH  82  86
ATOM     86  S   UNL A   1      49.922  29.219  31.345  1.00  0.00     0.124 S 
ATOM     87  O   UNL A   1      49.413  29.892  30.152  1.00  0.00    -0.237 OA
ATOM     88  O   UNL A   1      50.639  30.075  32.287  1.00  0.00    -0.237 OA
ATOM     89  O   UNL A   1      50.517  27.907  31.112  1.00  0.00    -0.744 OA
ENDBRANCH  82  86
ENDBRANCH  56  79
ENDBRANCH  30  31
ENDBRANCH  22  25
ENDBRANCH  20  21
ENDBRANCH   1  20
TORSDOF 16
ENDMDL
MODEL 3
REMARK VINA RESULT:      -8.7      2.692      3.985
REMARK SMILES O=C(CCCc1ccc2c(c1Br)C=CC2)NCCCNC(=O)c1ccc(-c2c3nc(c(-c4cc(S(=O)(=O)[O-])ccc4F)c4ccc([nH]4)c(-c4cc(S(=O)(=O)[O-])ccc4F)c4nc(c(-c5cc(S(=O)(=O)[O-])ccc5F)c5ccc2[nH]5)C=C4)C=C3)cc1
REMARK SMILES IDX 18 1 17 2 16 3 1 4 2 5 3 7 4 8 5 9 6 10 7 11 11 12 8 13
REMARK SMILES IDX 10 14 12 15 9 16 13 17 15 18 14 19 19 20 20 21 21 22 22 24
REMARK SMILES IDX 23 25 24 26 85 27 25 28 84 29 26 30 27 31 28 32 78 33 29 34
REMARK SMILES IDX 83 35 77 36 79 37 30 38 82 39 76 40 75 41 31 43 63 44 43 45
REMARK SMILES IDX 62 46 44 47 47 48 61 49 80 50 45 51 46 52 60 54 81 55 48 56
REMARK SMILES IDX 32 57 33 58 41 59 34 60 40 61 42 62 39 63 35 64 36 65 37 66
REMARK SMILES IDX 38 67 64 68 65 69 73 70 66 71 72 72 74 73 71 74 67 75 68 76
REMARK SMILES IDX 69 77 70 78 49 79 50 80 58 81 51 82 57 83 59 84 56 85 52 86
REMARK SMILES IDX 53 87 54 88 55 89
REMARK H PARENT 16 6 20 23 79 42 47 53
REMARK Flexibility Score: inf
ROOT
ATOM      1  C   UNL A   1      34.062  34.306  27.937  1.00  0.00     0.042 C 
ENDROOT
BRANCH   1   2
ATOM      2  C   UNL A   1      33.970  35.479  28.903  1.00  0.00     0.117 C 
BRANCH   2   3
ATOM      3  N   UNL A   1      34.336  35.107  30.255  1.00  0.00    -0.356 N 
ATOM      4  O   UNL A   1      32.414  35.880  31.250  1.00  0.00    -0.275 OA
ATOM      5  C   UNL A   1      33.520  35.357  31.329  1.00  0.00     0.220 C 
ATOM      6  H   UNL A   1      35.199  34.659  30.407  1.00  0.00     0.163 HD
BRANCH   5   7
ATOM      7  C   UNL A   1      34.102  34.895  32.643  1.00  0.00     0.100 C 
BRANCH   7   8
ATOM      8  C   UNL A   1      35.592  35.214  32.750  1.00  0.00     0.015 C 
BRANCH   8   9
ATOM      9  C   UNL A   1      36.565  34.022  32.696  1.00  0.00     0.037 C 
BRANCH   9  10
ATOM     10  C   UNL A   1      38.049  34.223  32.435  1.00  0.00    -0.033 A 
ATOM     11  C   UNL A   1      38.829  34.578  33.572  1.00  0.00     0.005 A 
ATOM     12  C   UNL A   1      38.697  34.156  31.182  1.00  0.00     0.028 A 
ATOM     13  C   UNL A   1      40.209  34.792  33.500  1.00  0.00     0.005 A 
ATOM     14  C   UNL A   1      40.085  34.304  31.128  1.00  0.00    -0.008 A 
ATOM     15  Br  UNL A   1      37.766  33.962  29.535  1.00  0.00    -0.050 Br
ATOM     16  C   UNL A   1      40.823  34.626  32.276  1.00  0.00    -0.036 A 
ATOM     17  C   UNL A   1      41.023  34.178  30.015  1.00  0.00     0.005 C 
ATOM     18  C   UNL A   1      42.277  34.763  31.940  1.00  0.00     0.063 C 
ATOM     19  C   UNL A   1      42.261  34.425  30.472  1.00  0.00    -0.022 C 
ENDBRANCH   9  10
ENDBRANCH   8   9
ENDBRANCH   7   8
ENDBRANCH   5   7
ENDBRANCH   2   3
ENDBRANCH   1   2
BRANCH   1  20
ATOM     20  C   UNL A   1      34.246  32.952  28.614  1.00  0.00     0.118 C 
BRANCH  20  21
ATOM     21  N   UNL A   1      33.702  31.849  27.835  1.00  0.00    -0.352 N 
ATOM     22  C   UNL A   1      34.294  30.651  27.507  1.00  0.00     0.251 C 
ATOM     23  H   UNL A   1      32.786  31.978  27.497  1.00  0.00     0.163 HD
ATOM     24  O   UNL A   1      33.755  29.889  26.715  1.00  0.00    -0.269 OA
BRANCH  22  25
ATOM     25  C   UNL A   1      35.599  30.310  28.106  1.00  0.00     0.039 A 
ATOM     26  C   UNL A   1      35.630  29.737  29.378  1.00  0.00     0.014 A 
ATOM     27  C   UNL A   1      36.781  30.517  27.387  1.00  0.00     0.014 A 
ATOM     28  C   UNL A   1      36.848  29.307  29.906  1.00  0.00     0.010 A 
ATOM     29  C   UNL A   1      37.985  30.037  27.892  1.00  0.00     0.010 A 
ATOM     30  C   UNL A   1      38.029  29.427  29.154  1.00  0.00    -0.014 A 
BRANCH  30  31
ATOM     31  C   UNL A   1      39.315  28.900  29.674  1.00  0.00     0.031 A 
ATOM     32  C   UNL A   1      39.972  29.543  30.860  1.00  0.00     0.074 A 
ATOM     33  C   UNL A   1      39.913  27.870  29.044  1.00  0.00     0.049 A 
ATOM     34  N   UNL A   1      41.084  29.211  31.462  1.00  0.00    -0.248 NA
ATOM     35  C   UNL A   1      39.305  30.724  31.432  1.00  0.00     0.031 C 
ATOM     36  C   UNL A   1      39.399  27.205  27.845  1.00  0.00     0.029 A 
ATOM     37  N   UNL A   1      41.084  27.208  29.317  1.00  0.00    -0.354 N 
ATOM     38  C   UNL A   1      41.248  30.135  32.486  1.00  0.00     0.074 A 
ATOM     39  C   UNL A   1      40.155  31.076  32.387  1.00  0.00     0.031 C 
ATOM     40  C   UNL A   1      40.240  26.216  27.499  1.00  0.00     0.029 A 
ATOM     41  C   UNL A   1      41.362  26.190  28.435  1.00  0.00     0.049 A 
ATOM     42  H   UNL A   1      41.669  27.440  30.073  1.00  0.00     0.167 HD
ATOM     43  C   UNL A   1      42.205  30.174  33.442  1.00  0.00     0.034 A 
ATOM     44  C   UNL A   1      42.397  25.327  28.390  1.00  0.00     0.034 A 
ATOM     45  C   UNL A   1      43.280  29.224  33.542  1.00  0.00     0.049 A 
ATOM     46  C   UNL A   1      43.449  25.387  29.467  1.00  0.00     0.074 A 
ATOM     47  C   UNL A   1      44.262  29.145  34.513  1.00  0.00     0.029 A 
ATOM     48  N   UNL A   1      43.519  28.192  32.647  1.00  0.00    -0.354 N 
ATOM     49  N   UNL A   1      43.529  26.196  30.496  1.00  0.00    -0.248 NA
ATOM     50  C   UNL A   1      44.545  24.408  29.390  1.00  0.00     0.031 C 
ATOM     51  C   UNL A   1      45.118  28.091  34.184  1.00  0.00     0.029 A 
ATOM     52  C   UNL A   1      44.643  27.483  33.032  1.00  0.00     0.049 A 
ATOM     53  H   UNL A   1      42.968  27.993  31.856  1.00  0.00     0.167 HD
ATOM     54  C   UNL A   1      44.666  25.812  31.201  1.00  0.00     0.074 A 
ATOM     55  C   UNL A   1      45.233  24.684  30.491  1.00  0.00     0.031 C 
ATOM     56  C   UNL A   1      45.193  26.350  32.329  1.00  0.00     0.034 A 
BRANCH  43  57
ATOM     57  C   UNL A   1      42.122  31.254  34.486  1.00  0.00     0.023 A 
ATOM     58  C   UNL A   1      41.032  31.303  35.372  1.00  0.00     0.031 A 
ATOM     59  C   UNL A   1      43.072  32.290  34.533  1.00  0.00     0.131 A 
ATOM     60  C   UNL A   1      40.907  32.382  36.255  1.00  0.00     0.055 A 
ATOM     61  C   UNL A   1      42.958  33.346  35.436  1.00  0.00     0.041 A 
ATOM     62  F   UNL A   1      44.132  32.280  33.708  1.00  0.00    -0.206 F 
ATOM     63  C   UNL A   1      41.867  33.400  36.297  1.00  0.00     0.022 A 
BRANCH  60  64
ATOM     64  S   UNL A   1      39.482  32.520  37.369  1.00  0.00     0.124 S 
ATOM     65  O   UNL A   1      38.691  31.349  36.993  1.00  0.00    -0.237 OA
ATOM     66  O   UNL A   1      40.116  32.450  38.682  1.00  0.00    -0.237 OA
ATOM     67  O   UNL A   1      38.887  33.804  37.018  1.00  0.00    -0.744 OA
ENDBRANCH  60  64
ENDBRANCH  43  57
BRANCH  44  68
ATOM     68  C   UNL A   1      42.430  24.287  27.324  1.00  0.00     0.023 A 
ATOM     69  C   UNL A   1      41.627  23.136  27.406  1.00  0.00     0.031 A 
ATOM     70  C   UNL A   1      43.336  24.390  26.255  1.00  0.00     0.131 A 
ATOM     71  C   UNL A   1      41.781  22.112  26.461  1.00  0.00     0.055 A 
ATOM     72  C   UNL A   1      43.447  23.393  25.285  1.00  0.00     0.041 A 
ATOM     73  F   UNL A   1      44.130  25.466  26.147  1.00  0.00    -0.206 F 
ATOM     74  C   UNL A   1      42.673  22.242  25.392  1.00  0.00     0.022 A 
BRANCH  71  75
ATOM     75  S   UNL A   1      40.891  20.542  26.637  1.00  0.00     0.124 S 
ATOM     76  O   UNL A   1      41.761  19.614  25.922  1.00  0.00    -0.237 OA
ATOM     77  O   UNL A   1      40.856  20.385  28.088  1.00  0.00    -0.237 OA
ATOM     78  O   UNL A   1      39.601  20.806  26.007  1.00  0.00    -0.744 OA
ENDBRANCH  71  75
ENDBRANCH  44  68
BRANCH  56  79
ATOM     79  C   UNL A   1      46.450  25.742  32.896  1.00  0.00     0.023 A 
ATOM     80  C   UNL A   1      47.695  26.011  32.295  1.00  0.00     0.031 A 
ATOM     81  C   UNL A   1      46.397  24.789  33.927  1.00  0.00     0.131 A 
ATOM     82  C   UNL A   1      48.832  25.304  32.707  1.00  0.00     0.055 A 
ATOM     83  C   UNL A   1      47.541  24.116  34.360  1.00  0.00     0.041 A 
ATOM     84  F   UNL A   1      45.230  24.494  34.522  1.00  0.00    -0.206 F 
ATOM     85  C   UNL A   1      48.763  24.364  33.741  1.00  0.00     0.022 A 
BRANCH  82  86
ATOM     86  S   UNL A   1      50.427  25.529  31.873  1.00  0.00     0.124 S 
ATOM     87  O   UNL A   1      50.764  24.162  31.487  1.00  0.00    -0.237 OA
ATOM     88  O   UNL A   1      50.072  26.420  30.770  1.00  0.00    -0.237 OA
ATOM     89  O   UNL A   1      51.282  26.113  32.901  1.00  0.00    -0.744 OA
ENDBRANCH  82  86
ENDBRANCH  56  79
ENDBRANCH  30  31
ENDBRANCH  22  25
ENDBRANCH  20  21
ENDBRANCH   1  20
TORSDOF 16
ENDMDL
