MODEL 1
REMARK VINA RESULT:     -11.4      0.000      0.000
REMARK SMILES O=C(NCCCNC(=O)[C@H](F)Sc1cc2ccccc2[nH]1)c1ccc(-c2c3nc(c(-c4cc(S(=O)(=O)[O-])ccc4F)c4ccc([nH]4)c(-c4cc(S(=O)(=O)[O-])ccc4F)c4nc(c(-c5cc(S(=O)(=O)[O-])ccc5F)c5ccc2[nH]5)C=C4)C=C3)cc1
REMARK SMILES IDX 4 1 3 2 1 3 2 4 22 6 23 7 84 8 24 9 83 10 25 11 26 12 27 13
REMARK SMILES IDX 77 14 28 15 82 16 76 17 78 18 29 19 81 20 75 21 74 22 30 24
REMARK SMILES IDX 62 25 42 26 61 27 43 28 46 29 60 30 79 31 44 32 45 33 59 35
REMARK SMILES IDX 80 36 47 37 31 38 32 39 40 40 33 41 39 42 41 43 38 44 34 45
REMARK SMILES IDX 35 46 36 47 37 48 63 49 64 50 72 51 65 52 71 53 73 54 70 55
REMARK SMILES IDX 66 56 67 57 68 58 69 59 48 60 49 61 57 62 50 63 56 64 58 65
REMARK SMILES IDX 55 66 51 67 52 68 53 69 54 70 5 71 6 72 7 73 8 74 9 76 10 77
REMARK SMILES IDX 11 78 12 79 13 80 14 81 21 82 15 83 20 84 16 86 19 87 17 88
REMARK SMILES IDX 18 89
REMARK H PARENT 3 5 78 23 46 34 7 75 21 85
REMARK Flexibility Score: inf
ROOT
ATOM      1  C   UNL A   1      41.314  19.830  26.876  1.00  0.00     0.118 C 
ENDROOT
BRANCH   1   2
ATOM      2  N   UNL A   1      40.115  20.121  26.104  1.00  0.00    -0.352 N 
ATOM      3  O   UNL A   1      38.159  21.071  25.606  1.00  0.00    -0.269 OA
ATOM      4  C   UNL A   1      39.278  21.214  26.100  1.00  0.00     0.251 C 
ATOM      5  H   UNL A   1      39.856  19.412  25.472  1.00  0.00     0.163 HD
BRANCH   4   6
ATOM      6  C   UNL A   1      39.671  22.546  26.641  1.00  0.00     0.039 A 
ATOM      7  C   UNL A   1      40.721  22.711  27.544  1.00  0.00     0.014 A 
ATOM      8  C   UNL A   1      39.065  23.693  26.102  1.00  0.00     0.014 A 
ATOM      9  C   UNL A   1      41.100  23.983  27.976  1.00  0.00     0.010 A 
ATOM     10  C   UNL A   1      39.511  24.976  26.457  1.00  0.00     0.010 A 
ATOM     11  C   UNL A   1      40.542  25.130  27.394  1.00  0.00    -0.014 A 
BRANCH  11  12
ATOM     12  C   UNL A   1      41.179  26.452  27.645  1.00  0.00     0.031 A 
ATOM     13  C   UNL A   1      42.533  26.796  27.096  1.00  0.00     0.074 A 
ATOM     14  C   UNL A   1      40.501  27.348  28.393  1.00  0.00     0.049 A 
ATOM     15  N   UNL A   1      43.219  27.902  27.228  1.00  0.00    -0.248 NA
ATOM     16  C   UNL A   1      43.211  25.764  26.300  1.00  0.00     0.031 C 
ATOM     17  C   UNL A   1      39.183  27.116  28.993  1.00  0.00     0.029 A 
ATOM     18  N   UNL A   1      40.813  28.628  28.778  1.00  0.00    -0.354 N 
ATOM     19  C   UNL A   1      44.412  27.698  26.544  1.00  0.00     0.074 A 
ATOM     20  C   UNL A   1      44.364  26.353  26.013  1.00  0.00     0.031 C 
ATOM     21  C   UNL A   1      38.792  28.219  29.647  1.00  0.00     0.029 A 
ATOM     22  C   UNL A   1      39.856  29.211  29.579  1.00  0.00     0.049 A 
ATOM     23  H   UNL A   1      41.641  29.085  28.508  1.00  0.00     0.167 HD
ATOM     24  C   UNL A   1      45.447  28.559  26.380  1.00  0.00     0.034 A 
ATOM     25  C   UNL A   1      39.848  30.394  30.222  1.00  0.00     0.034 A 
ATOM     26  C   UNL A   1      45.469  29.900  26.915  1.00  0.00     0.049 A 
ATOM     27  C   UNL A   1      41.037  31.303  30.066  1.00  0.00     0.074 A 
ATOM     28  C   UNL A   1      46.426  30.883  26.730  1.00  0.00     0.029 A 
ATOM     29  N   UNL A   1      44.508  30.437  27.761  1.00  0.00    -0.354 N 
ATOM     30  N   UNL A   1      42.123  31.122  29.351  1.00  0.00    -0.248 NA
ATOM     31  C   UNL A   1      41.004  32.572  30.804  1.00  0.00     0.031 C 
ATOM     32  C   UNL A   1      46.085  31.982  27.527  1.00  0.00     0.029 A 
ATOM     33  C   UNL A   1      44.878  31.714  28.153  1.00  0.00     0.049 A 
ATOM     34  H   UNL A   1      43.684  29.977  28.041  1.00  0.00     0.167 HD
ATOM     35  C   UNL A   1      42.898  32.259  29.549  1.00  0.00     0.074 A 
ATOM     36  C   UNL A   1      42.144  33.131  30.425  1.00  0.00     0.031 C 
ATOM     37  C   UNL A   1      44.125  32.557  29.052  1.00  0.00     0.034 A 
BRANCH  24  38
ATOM     38  C   UNL A   1      46.665  28.072  25.636  1.00  0.00     0.023 A 
ATOM     39  C   UNL A   1      46.824  28.265  24.253  1.00  0.00     0.031 A 
ATOM     40  C   UNL A   1      47.704  27.433  26.337  1.00  0.00     0.131 A 
ATOM     41  C   UNL A   1      47.979  27.790  23.610  1.00  0.00     0.055 A 
ATOM     42  C   UNL A   1      48.874  27.014  25.703  1.00  0.00     0.041 A 
ATOM     43  F   UNL A   1      47.598  27.207  27.657  1.00  0.00    -0.206 F 
ATOM     44  C   UNL A   1      49.013  27.185  24.329  1.00  0.00     0.022 A 
BRANCH  41  45
ATOM     45  S   UNL A   1      48.078  27.896  21.802  1.00  0.00     0.124 S 
ATOM     46  O   UNL A   1      46.741  28.375  21.459  1.00  0.00    -0.237 OA
ATOM     47  O   UNL A   1      49.166  28.848  21.602  1.00  0.00    -0.237 OA
ATOM     48  O   UNL A   1      48.367  26.525  21.392  1.00  0.00    -0.744 OA
ENDBRANCH  41  45
ENDBRANCH  24  38
BRANCH  25  49
ATOM     49  C   UNL A   1      38.719  30.754  31.128  1.00  0.00     0.023 A 
ATOM     50  C   UNL A   1      37.556  31.366  30.638  1.00  0.00     0.031 A 
ATOM     51  C   UNL A   1      38.810  30.525  32.514  1.00  0.00     0.131 A 
ATOM     52  C   UNL A   1      36.550  31.768  31.531  1.00  0.00     0.055 A 
ATOM     53  C   UNL A   1      37.781  30.873  33.390  1.00  0.00     0.041 A 
ATOM     54  F   UNL A   1      39.901  29.944  33.037  1.00  0.00    -0.206 F 
ATOM     55  C   UNL A   1      36.648  31.513  32.901  1.00  0.00     0.022 A 
BRANCH  52  56
ATOM     56  S   UNL A   1      35.151  32.727  30.888  1.00  0.00     0.124 S 
ATOM     57  O   UNL A   1      34.185  32.614  31.976  1.00  0.00    -0.237 OA
ATOM     58  O   UNL A   1      35.750  34.043  30.696  1.00  0.00    -0.237 OA
ATOM     59  O   UNL A   1      34.792  32.021  29.660  1.00  0.00    -0.744 OA
ENDBRANCH  52  56
ENDBRANCH  25  49
BRANCH  37  60
ATOM     60  C   UNL A   1      44.711  33.887  29.445  1.00  0.00     0.023 A 
ATOM     61  C   UNL A   1      44.383  35.063  28.749  1.00  0.00     0.031 A 
ATOM     62  C   UNL A   1      45.617  33.977  30.516  1.00  0.00     0.131 A 
ATOM     63  C   UNL A   1      44.993  36.275  29.103  1.00  0.00     0.055 A 
ATOM     64  C   UNL A   1      46.178  35.195  30.898  1.00  0.00     0.041 A 
ATOM     65  F   UNL A   1      45.966  32.883  31.209  1.00  0.00    -0.206 F 
ATOM     66  C   UNL A   1      45.875  36.352  30.184  1.00  0.00     0.022 A 
BRANCH  63  67
ATOM     67  S   UNL A   1      44.672  37.741  28.086  1.00  0.00     0.124 S 
ATOM     68  O   UNL A   1      44.090  38.661  29.058  1.00  0.00    -0.237 OA
ATOM     69  O   UNL A   1      46.004  38.086  27.600  1.00  0.00    -0.237 OA
ATOM     70  O   UNL A   1      43.748  37.254  27.064  1.00  0.00    -0.744 OA
ENDBRANCH  63  67
ENDBRANCH  37  60
ENDBRANCH  11  12
ENDBRANCH   4   6
ENDBRANCH   1   2
BRANCH   1  71
ATOM     71  C   UNL A   1      42.568  20.039  26.044  1.00  0.00     0.042 C 
BRANCH  71  72
ATOM     72  C   UNL A   1      43.514  18.846  26.036  1.00  0.00     0.118 C 
BRANCH  72  73
ATOM     73  N   UNL A   1      44.010  18.585  24.694  1.00  0.00    -0.353 N 
ATOM     74  C   UNL A   1      45.009  19.195  23.983  1.00  0.00     0.265 C 
ATOM     75  H   UNL A   1      43.555  17.852  24.220  1.00  0.00     0.163 HD
ATOM     76  O   UNL A   1      45.116  18.860  22.796  1.00  0.00    -0.271 OA
BRANCH  74  77
ATOM     77  C   UNL A   1      45.979  20.208  24.605  1.00  0.00     0.319 C 
ATOM     78  F   UNL A   1      46.310  19.978  25.910  1.00  0.00    -0.224 F 
BRANCH  77  79
ATOM     79  S   UNL A   1      45.428  21.924  24.377  1.00  0.00    -0.061 SA
BRANCH  79  80
ATOM     80  C   UNL A   1      45.529  22.613  25.958  1.00  0.00     0.076 A 
ATOM     81  C   UNL A   1      46.409  23.527  26.488  1.00  0.00     0.043 A 
ATOM     82  N   UNL A   1      44.654  22.247  26.942  1.00  0.00    -0.350 N 
ATOM     83  C   UNL A   1      45.929  23.866  27.785  1.00  0.00     0.001 A 
ATOM     84  C   UNL A   1      44.819  23.058  28.042  1.00  0.00     0.046 A 
ATOM     85  H   UNL A   1      44.003  21.511  26.874  1.00  0.00     0.167 HD
ATOM     86  C   UNL A   1      46.305  24.824  28.746  1.00  0.00     0.010 A 
ATOM     87  C   UNL A   1      44.050  23.171  29.207  1.00  0.00     0.027 A 
ATOM     88  C   UNL A   1      45.530  24.965  29.902  1.00  0.00     0.001 A 
ATOM     89  C   UNL A   1      44.417  24.159  30.124  1.00  0.00     0.002 A 
ENDBRANCH  79  80
ENDBRANCH  77  79
ENDBRANCH  74  77
ENDBRANCH  72  73
ENDBRANCH  71  72
ENDBRANCH   1  71
TORSDOF 15
ENDMDL
MODEL 2
REMARK VINA RESULT:     -11.2      5.121     12.816
REMARK SMILES O=C(NCCCNC(=O)[C@H](F)Sc1cc2ccccc2[nH]1)c1ccc(-c2c3nc(c(-c4cc(S(=O)(=O)[O-])ccc4F)c4ccc([nH]4)c(-c4cc(S(=O)(=O)[O-])ccc4F)c4nc(c(-c5cc(S(=O)(=O)[O-])ccc5F)c5ccc2[nH]5)C=C4)C=C3)cc1
REMARK SMILES IDX 4 1 3 2 1 3 2 4 22 6 23 7 84 8 24 9 83 10 25 11 26 12 27 13
REMARK SMILES IDX 77 14 28 15 82 16 76 17 78 18 29 19 81 20 75 21 74 22 30 24
REMARK SMILES IDX 62 25 42 26 61 27 43 28 46 29 60 30 79 31 44 32 45 33 59 35
REMARK SMILES IDX 80 36 47 37 31 38 32 39 40 40 33 41 39 42 41 43 38 44 34 45
REMARK SMILES IDX 35 46 36 47 37 48 63 49 64 50 72 51 65 52 71 53 73 54 70 55
REMARK SMILES IDX 66 56 67 57 68 58 69 59 48 60 49 61 57 62 50 63 56 64 58 65
REMARK SMILES IDX 55 66 51 67 52 68 53 69 54 70 5 71 6 72 7 73 8 74 9 76 10 77
REMARK SMILES IDX 11 78 12 79 13 80 14 81 21 82 15 83 20 84 16 86 19 87 17 88
REMARK SMILES IDX 18 89
REMARK H PARENT 3 5 78 23 46 34 7 75 21 85
REMARK Flexibility Score: inf
ROOT
ATOM      1  C   UNL A   1      33.948  33.924  28.847  1.00  0.00     0.118 C 
ENDROOT
BRANCH   1   2
ATOM      2  N   UNL A   1      33.285  32.839  28.137  1.00  0.00    -0.352 N 
ATOM      3  O   UNL A   1      33.075  31.096  26.762  1.00  0.00    -0.269 OA
ATOM      4  C   UNL A   1      33.775  31.674  27.594  1.00  0.00     0.251 C 
ATOM      5  H   UNL A   1      32.315  32.961  28.025  1.00  0.00     0.163 HD
BRANCH   4   6
ATOM      6  C   UNL A   1      35.087  31.081  27.979  1.00  0.00     0.039 A 
ATOM      7  C   UNL A   1      36.264  31.828  28.031  1.00  0.00     0.014 A 
ATOM      8  C   UNL A   1      35.111  29.760  28.459  1.00  0.00     0.014 A 
ATOM      9  C   UNL A   1      37.460  31.250  28.460  1.00  0.00     0.010 A 
ATOM     10  C   UNL A   1      36.288  29.208  28.985  1.00  0.00     0.010 A 
ATOM     11  C   UNL A   1      37.474  29.955  28.998  1.00  0.00    -0.014 A 
BRANCH  11  12
ATOM     12  C   UNL A   1      38.685  29.488  29.727  1.00  0.00     0.031 A 
ATOM     13  C   UNL A   1      39.040  30.008  31.090  1.00  0.00     0.074 A 
ATOM     14  C   UNL A   1      39.473  28.573  29.123  1.00  0.00     0.049 A 
ATOM     15  N   UNL A   1      40.058  29.699  31.850  1.00  0.00    -0.248 NA
ATOM     16  C   UNL A   1      38.138  31.008  31.677  1.00  0.00     0.031 C 
ATOM     17  C   UNL A   1      39.234  28.009  27.789  1.00  0.00     0.029 A 
ATOM     18  N   UNL A   1      40.624  27.952  29.537  1.00  0.00    -0.354 N 
ATOM     19  C   UNL A   1      39.931  30.473  32.998  1.00  0.00     0.074 A 
ATOM     20  C   UNL A   1      38.742  31.281  32.826  1.00  0.00     0.031 C 
ATOM     21  C   UNL A   1      40.191  27.114  27.509  1.00  0.00     0.029 A 
ATOM     22  C   UNL A   1      41.152  27.089  28.603  1.00  0.00     0.049 A 
ATOM     23  H   UNL A   1      41.033  28.109  30.419  1.00  0.00     0.167 HD
ATOM     24  C   UNL A   1      40.735  30.501  34.089  1.00  0.00     0.034 A 
ATOM     25  C   UNL A   1      42.301  26.387  28.603  1.00  0.00     0.034 A 
ATOM     26  C   UNL A   1      41.913  29.681  34.241  1.00  0.00     0.049 A 
ATOM     27  C   UNL A   1      43.201  26.484  29.806  1.00  0.00     0.074 A 
ATOM     28  C   UNL A   1      42.745  29.566  35.342  1.00  0.00     0.029 A 
ATOM     29  N   UNL A   1      42.444  28.859  33.255  1.00  0.00    -0.354 N 
ATOM     30  N   UNL A   1      43.021  27.165  30.914  1.00  0.00    -0.248 NA
ATOM     31  C   UNL A   1      44.457  25.725  29.758  1.00  0.00     0.031 C 
ATOM     32  C   UNL A   1      43.820  28.739  34.995  1.00  0.00     0.029 A 
ATOM     33  C   UNL A   1      43.623  28.280  33.702  1.00  0.00     0.049 A 
ATOM     34  H   UNL A   1      42.042  28.709  32.370  1.00  0.00     0.167 HD
ATOM     35  C   UNL A   1      44.140  26.908  31.699  1.00  0.00     0.074 A 
ATOM     36  C   UNL A   1      44.973  25.990  30.950  1.00  0.00     0.031 C 
ATOM     37  C   UNL A   1      44.454  27.389  32.928  1.00  0.00     0.034 A 
BRANCH  24  38
ATOM     38  C   UNL A   1      40.407  31.480  35.188  1.00  0.00     0.023 A 
ATOM     39  C   UNL A   1      39.362  31.258  36.101  1.00  0.00     0.031 A 
ATOM     40  C   UNL A   1      41.183  32.644  35.343  1.00  0.00     0.131 A 
ATOM     41  C   UNL A   1      39.100  32.204  37.106  1.00  0.00     0.055 A 
ATOM     42  C   UNL A   1      40.953  33.552  36.377  1.00  0.00     0.041 A 
ATOM     43  F   UNL A   1      42.182  32.916  34.489  1.00  0.00    -0.206 F 
ATOM     44  C   UNL A   1      39.901  33.338  37.262  1.00  0.00     0.022 A 
BRANCH  41  45
ATOM     45  S   UNL A   1      37.640  31.978  38.158  1.00  0.00     0.124 S 
ATOM     46  O   UNL A   1      36.755  33.032  37.669  1.00  0.00    -0.237 OA
ATOM     47  O   UNL A   1      37.236  30.610  37.847  1.00  0.00    -0.237 OA
ATOM     48  O   UNL A   1      38.154  32.183  39.509  1.00  0.00    -0.744 OA
ENDBRANCH  41  45
ENDBRANCH  24  38
BRANCH  25  49
ATOM     49  C   UNL A   1      42.703  25.595  27.405  1.00  0.00     0.023 A 
ATOM     50  C   UNL A   1      42.294  24.264  27.238  1.00  0.00     0.031 A 
ATOM     51  C   UNL A   1      43.543  26.154  26.424  1.00  0.00     0.131 A 
ATOM     52  C   UNL A   1      42.761  23.522  26.142  1.00  0.00     0.055 A 
ATOM     53  C   UNL A   1      43.956  25.430  25.305  1.00  0.00     0.041 A 
ATOM     54  F   UNL A   1      43.966  27.424  26.534  1.00  0.00    -0.206 F 
ATOM     55  C   UNL A   1      43.577  24.100  25.166  1.00  0.00     0.022 A 
BRANCH  52  56
ATOM     56  S   UNL A   1      42.370  21.753  26.061  1.00  0.00     0.124 S 
ATOM     57  O   UNL A   1      40.937  21.775  25.787  1.00  0.00    -0.237 OA
ATOM     58  O   UNL A   1      43.225  21.304  24.967  1.00  0.00    -0.237 OA
ATOM     59  O   UNL A   1      42.744  21.261  27.385  1.00  0.00    -0.744 OA
ENDBRANCH  52  56
ENDBRANCH  25  49
BRANCH  37  60
ATOM     60  C   UNL A   1      45.750  26.915  33.531  1.00  0.00     0.023 A 
ATOM     61  C   UNL A   1      45.804  25.754  34.322  1.00  0.00     0.031 A 
ATOM     62  C   UNL A   1      46.937  27.637  33.326  1.00  0.00     0.131 A 
ATOM     63  C   UNL A   1      47.015  25.374  34.918  1.00  0.00     0.055 A 
ATOM     64  C   UNL A   1      48.150  27.224  33.877  1.00  0.00     0.041 A 
ATOM     65  F   UNL A   1      46.937  28.755  32.583  1.00  0.00    -0.206 F 
ATOM     66  C   UNL A   1      48.192  26.092  34.686  1.00  0.00     0.022 A 
BRANCH  63  67
ATOM     67  S   UNL A   1      47.020  23.966  36.060  1.00  0.00     0.124 S 
ATOM     68  O   UNL A   1      48.085  24.332  36.987  1.00  0.00    -0.237 OA
ATOM     69  O   UNL A   1      45.665  23.995  36.603  1.00  0.00    -0.237 OA
ATOM     70  O   UNL A   1      47.314  22.825  35.195  1.00  0.00    -0.744 OA
ENDBRANCH  63  67
ENDBRANCH  37  60
ENDBRANCH  11  12
ENDBRANCH   4   6
ENDBRANCH   1   2
BRANCH   1  71
ATOM     71  C   UNL A   1      33.194  35.232  28.678  1.00  0.00     0.042 C 
BRANCH  71  72
ATOM     72  C   UNL A   1      33.519  36.277  29.738  1.00  0.00     0.118 C 
BRANCH  72  73
ATOM     73  N   UNL A   1      32.435  36.396  30.700  1.00  0.00    -0.353 N 
ATOM     74  C   UNL A   1      32.427  36.201  32.055  1.00  0.00     0.265 C 
ATOM     75  H   UNL A   1      31.568  36.658  30.316  1.00  0.00     0.163 HD
ATOM     76  O   UNL A   1      31.317  36.228  32.604  1.00  0.00    -0.271 OA
BRANCH  74  77
ATOM     77  C   UNL A   1      33.707  35.998  32.879  1.00  0.00     0.319 C 
ATOM     78  F   UNL A   1      34.706  36.898  32.640  1.00  0.00    -0.224 F 
BRANCH  77  79
ATOM     79  S   UNL A   1      34.336  34.298  32.772  1.00  0.00    -0.061 SA
BRANCH  79  80
ATOM     80  C   UNL A   1      36.029  34.493  32.482  1.00  0.00     0.076 A 
ATOM     81  C   UNL A   1      37.076  34.677  33.353  1.00  0.00     0.043 A 
ATOM     82  N   UNL A   1      36.527  34.506  31.210  1.00  0.00    -0.350 N 
ATOM     83  C   UNL A   1      38.274  34.609  32.586  1.00  0.00     0.001 A 
ATOM     84  C   UNL A   1      37.903  34.489  31.245  1.00  0.00     0.046 A 
ATOM     85  H   UNL A   1      35.983  34.526  30.389  1.00  0.00     0.167 HD
ATOM     86  C   UNL A   1      39.644  34.586  32.914  1.00  0.00     0.010 A 
ATOM     87  C   UNL A   1      38.833  34.327  30.211  1.00  0.00     0.027 A 
ATOM     88  C   UNL A   1      40.582  34.399  31.893  1.00  0.00     0.001 A 
ATOM     89  C   UNL A   1      40.183  34.263  30.566  1.00  0.00     0.002 A 
ENDBRANCH  79  80
ENDBRANCH  77  79
ENDBRANCH  74  77
ENDBRANCH  72  73
ENDBRANCH  71  72
ENDBRANCH   1  71
TORSDOF 15
ENDMDL
MODEL 3
REMARK VINA RESULT:     -11.1      5.091     10.887
REMARK SMILES O=C(NCCCNC(=O)[C@H](F)Sc1cc2ccccc2[nH]1)c1ccc(-c2c3nc(c(-c4cc(S(=O)(=O)[O-])ccc4F)c4ccc([nH]4)c(-c4cc(S(=O)(=O)[O-])ccc4F)c4nc(c(-c5cc(S(=O)(=O)[O-])ccc5F)c5ccc2[nH]5)C=C4)C=C3)cc1
REMARK SMILES IDX 4 1 3 2 1 3 2 4 22 6 23 7 84 8 24 9 83 10 25 11 26 12 27 13
REMARK SMILES IDX 77 14 28 15 82 16 76 17 78 18 29 19 81 20 75 21 74 22 30 24
REMARK SMILES IDX 62 25 42 26 61 27 43 28 46 29 60 30 79 31 44 32 45 33 59 35
REMARK SMILES IDX 80 36 47 37 31 38 32 39 40 40 33 41 39 42 41 43 38 44 34 45
REMARK SMILES IDX 35 46 36 47 37 48 63 49 64 50 72 51 65 52 71 53 73 54 70 55
REMARK SMILES IDX 66 56 67 57 68 58 69 59 48 60 49 61 57 62 50 63 56 64 58 65
REMARK SMILES IDX 55 66 51 67 52 68 53 69 54 70 5 71 6 72 7 73 8 74 9 76 10 77
REMARK SMILES IDX 11 78 12 79 13 80 14 81 21 82 15 83 20 84 16 86 19 87 17 88
REMARK SMILES IDX 18 89
REMARK H PARENT 3 5 78 23 46 34 7 75 21 85
REMARK Flexibility Score: inf
ROOT
ATOM      1  C   UNL A   1      34.524  34.166  28.874  1.00  0.00     0.118 C 
ENDROOT
BRANCH   1   2
ATOM      2  N   UNL A   1      33.749  33.106  28.245  1.00  0.00    -0.352 N 
ATOM      3  O   UNL A   1      33.340  31.337  26.951  1.00  0.00    -0.269 OA
ATOM      4  C   UNL A   1      34.127  31.893  27.717  1.00  0.00     0.251 C 
ATOM      5  H   UNL A   1      32.784  33.290  28.186  1.00  0.00     0.163 HD
BRANCH   4   6
ATOM      6  C   UNL A   1      35.418  31.225  28.047  1.00  0.00     0.039 A 
ATOM      7  C   UNL A   1      36.631  31.911  28.084  1.00  0.00     0.014 A 
ATOM      8  C   UNL A   1      35.388  29.891  28.488  1.00  0.00     0.014 A 
ATOM      9  C   UNL A   1      37.809  31.263  28.461  1.00  0.00     0.010 A 
ATOM     10  C   UNL A   1      36.552  29.266  28.964  1.00  0.00     0.010 A 
ATOM     11  C   UNL A   1      37.773  29.953  28.962  1.00  0.00    -0.014 A 
BRANCH  11  12
ATOM     12  C   UNL A   1      38.980  29.406  29.641  1.00  0.00     0.031 A 
ATOM     13  C   UNL A   1      39.786  28.289  29.046  1.00  0.00     0.074 A 
ATOM     14  C   UNL A   1      39.335  29.943  30.828  1.00  0.00     0.049 A 
ATOM     15  N   UNL A   1      40.858  27.705  29.515  1.00  0.00    -0.248 NA
ATOM     16  C   UNL A   1      39.330  27.751  27.757  1.00  0.00     0.031 C 
ATOM     17  C   UNL A   1      38.614  31.023  31.510  1.00  0.00     0.029 A 
ATOM     18  N   UNL A   1      40.383  29.667  31.671  1.00  0.00    -0.354 N 
ATOM     19  C   UNL A   1      41.199  26.724  28.591  1.00  0.00     0.074 A 
ATOM     20  C   UNL A   1      40.206  26.780  27.538  1.00  0.00     0.031 C 
ATOM     21  C   UNL A   1      39.251  31.331  32.649  1.00  0.00     0.029 A 
ATOM     22  C   UNL A   1      40.381  30.427  32.819  1.00  0.00     0.049 A 
ATOM     23  H   UNL A   1      41.069  28.990  31.473  1.00  0.00     0.167 HD
ATOM     24  C   UNL A   1      42.244  25.861  28.624  1.00  0.00     0.034 A 
ATOM     25  C   UNL A   1      41.172  30.379  33.908  1.00  0.00     0.034 A 
ATOM     26  C   UNL A   1      43.226  25.828  29.682  1.00  0.00     0.049 A 
ATOM     27  C   UNL A   1      42.288  29.370  33.939  1.00  0.00     0.074 A 
ATOM     28  C   UNL A   1      44.373  25.057  29.767  1.00  0.00     0.029 A 
ATOM     29  N   UNL A   1      43.163  26.575  30.851  1.00  0.00    -0.354 N 
ATOM     30  N   UNL A   1      42.639  28.503  33.018  1.00  0.00    -0.248 NA
ATOM     31  C   UNL A   1      43.112  29.329  35.153  1.00  0.00     0.031 C 
ATOM     32  C   UNL A   1      44.958  25.279  31.019  1.00  0.00     0.029 A 
ATOM     33  C   UNL A   1      44.217  26.241  31.687  1.00  0.00     0.049 A 
ATOM     34  H   UNL A   1      42.472  27.246  31.055  1.00  0.00     0.167 HD
ATOM     35  C   UNL A   1      43.731  27.819  33.541  1.00  0.00     0.074 A 
ATOM     36  C   UNL A   1      43.997  28.393  34.844  1.00  0.00     0.031 C 
ATOM     37  C   UNL A   1      44.449  26.805  32.996  1.00  0.00     0.034 A 
BRANCH  24  38
ATOM     38  C   UNL A   1      42.362  24.845  27.516  1.00  0.00     0.023 A 
ATOM     39  C   UNL A   1      41.615  23.655  27.509  1.00  0.00     0.031 A 
ATOM     40  C   UNL A   1      43.217  25.094  26.426  1.00  0.00     0.131 A 
ATOM     41  C   UNL A   1      41.765  22.743  26.452  1.00  0.00     0.055 A 
ATOM     42  C   UNL A   1      43.319  24.210  25.351  1.00  0.00     0.041 A 
ATOM     43  F   UNL A   1      43.967  26.207  26.388  1.00  0.00    -0.206 F 
ATOM     44  C   UNL A   1      42.595  23.022  25.363  1.00  0.00     0.022 A 
BRANCH  41  45
ATOM     45  S   UNL A   1      40.922  21.140  26.556  1.00  0.00     0.124 S 
ATOM     46  O   UNL A   1      39.655  21.426  25.890  1.00  0.00    -0.237 OA
ATOM     47  O   UNL A   1      41.836  20.257  25.838  1.00  0.00    -0.237 OA
ATOM     48  O   UNL A   1      40.823  20.896  27.993  1.00  0.00    -0.744 OA
ENDBRANCH  41  45
ENDBRANCH  24  38
BRANCH  25  49
ATOM     49  C   UNL A   1      40.893  31.254  35.083  1.00  0.00     0.023 A 
ATOM     50  C   UNL A   1      39.749  31.073  35.874  1.00  0.00     0.031 A 
ATOM     51  C   UNL A   1      41.755  32.319  35.405  1.00  0.00     0.131 A 
ATOM     52  C   UNL A   1      39.475  31.969  36.920  1.00  0.00     0.055 A 
ATOM     53  C   UNL A   1      41.508  33.171  36.482  1.00  0.00     0.041 A 
ATOM     54  F   UNL A   1      42.864  32.540  34.680  1.00  0.00    -0.206 F 
ATOM     55  C   UNL A   1      40.353  33.006  37.238  1.00  0.00     0.022 A 
BRANCH  52  56
ATOM     56  S   UNL A   1      37.894  31.821  37.797  1.00  0.00     0.124 S 
ATOM     57  O   UNL A   1      37.525  30.437  37.518  1.00  0.00    -0.237 OA
ATOM     58  O   UNL A   1      38.283  32.116  39.171  1.00  0.00    -0.237 OA
ATOM     59  O   UNL A   1      37.054  32.830  37.156  1.00  0.00    -0.744 OA
ENDBRANCH  52  56
ENDBRANCH  25  49
BRANCH  37  60
ATOM     60  C   UNL A   1      45.594  26.269  33.814  1.00  0.00     0.023 A 
ATOM     61  C   UNL A   1      45.425  25.168  34.671  1.00  0.00     0.031 A 
ATOM     62  C   UNL A   1      46.861  26.873  33.747  1.00  0.00     0.131 A 
ATOM     63  C   UNL A   1      46.496  24.733  35.465  1.00  0.00     0.055 A 
ATOM     64  C   UNL A   1      47.937  26.401  34.498  1.00  0.00     0.041 A 
ATOM     65  F   UNL A   1      47.072  27.930  32.948  1.00  0.00    -0.206 F 
ATOM     66  C   UNL A   1      47.755  25.331  35.371  1.00  0.00     0.022 A 
BRANCH  63  67
ATOM     67  S   UNL A   1      46.204  23.416  36.676  1.00  0.00     0.124 S 
ATOM     68  O   UNL A   1      47.557  22.935  36.931  1.00  0.00    -0.237 OA
ATOM     69  O   UNL A   1      45.565  24.133  37.775  1.00  0.00    -0.237 OA
ATOM     70  O   UNL A   1      45.337  22.480  35.962  1.00  0.00    -0.744 OA
ENDBRANCH  63  67
ENDBRANCH  37  60
ENDBRANCH  11  12
ENDBRANCH   4   6
ENDBRANCH   1   2
BRANCH   1  71
ATOM     71  C   UNL A   1      33.714  35.446  28.987  1.00  0.00     0.042 C 
BRANCH  71  72
ATOM     72  C   UNL A   1      32.879  35.541  30.258  1.00  0.00     0.118 C 
BRANCH  72  73
ATOM     73  N   UNL A   1      33.540  36.369  31.254  1.00  0.00    -0.353 N 
ATOM     74  C   UNL A   1      34.139  36.026  32.436  1.00  0.00     0.265 C 
ATOM     75  H   UNL A   1      33.561  37.330  31.044  1.00  0.00     0.163 HD
ATOM     76  O   UNL A   1      34.494  36.965  33.160  1.00  0.00    -0.271 OA
BRANCH  74  77
ATOM     77  C   UNL A   1      34.405  34.571  32.848  1.00  0.00     0.319 C 
ATOM     78  F   UNL A   1      33.297  33.844  33.178  1.00  0.00    -0.224 F 
BRANCH  77  79
ATOM     79  S   UNL A   1      35.667  34.441  34.148  1.00  0.00    -0.061 SA
BRANCH  79  80
ATOM     80  C   UNL A   1      37.165  34.576  33.296  1.00  0.00     0.076 A 
ATOM     81  C   UNL A   1      38.461  34.613  33.753  1.00  0.00     0.043 A 
ATOM     82  N   UNL A   1      37.191  34.697  31.935  1.00  0.00    -0.350 N 
ATOM     83  C   UNL A   1      39.309  34.563  32.610  1.00  0.00     0.001 A 
ATOM     84  C   UNL A   1      38.487  34.603  31.481  1.00  0.00     0.046 A 
ATOM     85  H   UNL A   1      36.400  34.831  31.364  1.00  0.00     0.167 HD
ATOM     86  C   UNL A   1      40.699  34.434  32.430  1.00  0.00     0.010 A 
ATOM     87  C   UNL A   1      38.984  34.502  30.176  1.00  0.00     0.027 A 
ATOM     88  C   UNL A   1      41.206  34.306  31.132  1.00  0.00     0.001 A 
ATOM     89  C   UNL A   1      40.363  34.331  30.025  1.00  0.00     0.002 A 
ENDBRANCH  79  80
ENDBRANCH  77  79
ENDBRANCH  74  77
ENDBRANCH  72  73
ENDBRANCH  71  72
ENDBRANCH   1  71
TORSDOF 15
ENDMDL
