MODEL 1
REMARK VINA RESULT:     -12.5      0.000      0.000
REMARK SMILES O=C(NCCCNC(=O)[C@@H](Cc1ccccc1)NC(=O)c1ccccc1[N+](=O)[O-])c1ccc(-c2c3nc(c(-c4cc(S(=O)(=O)[O-])ccc4F)c4ccc([nH]4)c(-c4cc(S(=O)(=O)[O-])ccc4F)c4nc(c(-c5cc(S(=O)(=O)[O-])ccc5F)c5ccc2[nH]5)C=C4)C=C3)cc1
REMARK SMILES IDX 5 1 4 2 3 3 1 4 2 5 30 7 31 8 92 9 32 10 91 11 33 12 34 13
REMARK SMILES IDX 35 14 85 15 36 16 90 17 84 18 86 19 37 20 89 21 83 22 82 23
REMARK SMILES IDX 38 25 70 26 50 27 69 28 51 29 54 30 68 31 87 32 52 33 53 34
REMARK SMILES IDX 67 36 88 37 55 38 39 39 40 40 48 41 41 42 47 43 49 44 46 45
REMARK SMILES IDX 42 46 43 47 44 48 45 49 71 50 72 51 80 52 73 53 79 54 81 55
REMARK SMILES IDX 78 56 74 57 75 58 76 59 77 60 56 61 57 62 65 63 58 64 64 65
REMARK SMILES IDX 66 66 63 67 59 68 60 69 61 70 62 71 6 72 7 73 8 74 9 76
REMARK SMILES IDX 10 77 11 78 12 79 13 80 17 81 14 82 16 83 15 84 18 85 19 86
REMARK SMILES IDX 20 88 21 89 22 90 26 91 23 92 25 93 24 94 27 95 28 96 29 97
REMARK H PARENT 3 6 86 24 54 35 7 75 18 87
REMARK Flexibility Score: inf
ROOT
ATOM      1  C   UNL A   1      35.722  21.309  25.924  1.00  0.00     0.042 C 
ENDROOT
BRANCH   1   2
ATOM      2  C   UNL A   1      36.924  21.332  24.994  1.00  0.00     0.118 C 
BRANCH   2   3
ATOM      3  N   UNL A   1      37.947  20.382  25.401  1.00  0.00    -0.352 N 
ATOM      4  O   UNL A   1      39.971  19.587  25.902  1.00  0.00    -0.269 OA
ATOM      5  C   UNL A   1      39.224  20.565  25.880  1.00  0.00     0.251 C 
ATOM      6  H   UNL A   1      37.677  19.439  25.320  1.00  0.00     0.163 HD
BRANCH   5   7
ATOM      7  C   UNL A   1      39.726  21.878  26.368  1.00  0.00     0.039 A 
ATOM      8  C   UNL A   1      40.927  22.011  27.065  1.00  0.00     0.014 A 
ATOM      9  C   UNL A   1      39.033  23.041  25.998  1.00  0.00     0.014 A 
ATOM     10  C   UNL A   1      41.366  23.264  27.491  1.00  0.00     0.010 A 
ATOM     11  C   UNL A   1      39.534  24.309  26.328  1.00  0.00     0.010 A 
ATOM     12  C   UNL A   1      40.706  24.434  27.087  1.00  0.00    -0.014 A 
BRANCH  12  13
ATOM     13  C   UNL A   1      41.327  25.759  27.374  1.00  0.00     0.031 A 
ATOM     14  C   UNL A   1      40.629  26.790  28.217  1.00  0.00     0.074 A 
ATOM     15  C   UNL A   1      42.552  26.020  26.874  1.00  0.00     0.049 A 
ATOM     16  N   UNL A   1      41.044  27.978  28.577  1.00  0.00    -0.248 NA
ATOM     17  C   UNL A   1      39.287  26.449  28.708  1.00  0.00     0.031 C 
ATOM     18  C   UNL A   1      43.321  25.113  26.016  1.00  0.00     0.029 A 
ATOM     19  N   UNL A   1      43.380  27.105  27.025  1.00  0.00    -0.354 N 
ATOM     20  C   UNL A   1      40.011  28.537  29.324  1.00  0.00     0.074 A 
ATOM     21  C   UNL A   1      38.936  27.566  29.330  1.00  0.00     0.031 C 
ATOM     22  C   UNL A   1      44.526  25.647  25.773  1.00  0.00     0.029 A 
ATOM     23  C   UNL A   1      44.593  26.966  26.389  1.00  0.00     0.049 A 
ATOM     24  H   UNL A   1      43.131  27.906  27.540  1.00  0.00     0.167 HD
ATOM     25  C   UNL A   1      39.970  29.740  29.952  1.00  0.00     0.034 A 
ATOM     26  C   UNL A   1      45.640  27.809  26.291  1.00  0.00     0.034 A 
ATOM     27  C   UNL A   1      41.053  30.698  29.936  1.00  0.00     0.049 A 
ATOM     28  C   UNL A   1      45.557  29.147  26.970  1.00  0.00     0.074 A 
ATOM     29  C   UNL A   1      41.128  31.927  30.570  1.00  0.00     0.029 A 
ATOM     30  N   UNL A   1      42.247  30.543  29.241  1.00  0.00    -0.354 N 
ATOM     31  N   UNL A   1      44.581  29.647  27.691  1.00  0.00    -0.248 NA
ATOM     32  C   UNL A   1      46.715  30.036  26.820  1.00  0.00     0.031 C 
ATOM     33  C   UNL A   1      42.334  32.539  30.206  1.00  0.00     0.029 A 
ATOM     34  C   UNL A   1      43.047  31.665  29.404  1.00  0.00     0.049 A 
ATOM     35  H   UNL A   1      42.490  29.750  28.710  1.00  0.00     0.167 HD
ATOM     36  C   UNL A   1      45.012  30.907  28.089  1.00  0.00     0.074 A 
ATOM     37  C   UNL A   1      46.346  31.079  27.548  1.00  0.00     0.031 C 
ATOM     38  C   UNL A   1      44.363  31.838  28.834  1.00  0.00     0.034 A 
BRANCH  25  39
ATOM     39  C   UNL A   1      38.691  30.102  30.671  1.00  0.00     0.023 A 
ATOM     40  C   UNL A   1      37.658  30.811  30.031  1.00  0.00     0.031 A 
ATOM     41  C   UNL A   1      38.513  29.763  32.023  1.00  0.00     0.131 A 
ATOM     42  C   UNL A   1      36.534  31.226  30.764  1.00  0.00     0.055 A 
ATOM     43  C   UNL A   1      37.356  30.109  32.726  1.00  0.00     0.041 A 
ATOM     44  F   UNL A   1      39.470  29.102  32.694  1.00  0.00    -0.206 F 
ATOM     45  C   UNL A   1      36.366  30.860  32.100  1.00  0.00     0.022 A 
BRANCH  42  46
ATOM     46  S   UNL A   1      35.374  32.382  29.985  1.00  0.00     0.124 S 
ATOM     47  O   UNL A   1      36.252  33.504  29.657  1.00  0.00    -0.237 OA
ATOM     48  O   UNL A   1      34.874  31.611  28.853  1.00  0.00    -0.237 OA
ATOM     49  O   UNL A   1      34.399  32.651  31.039  1.00  0.00    -0.744 OA
ENDBRANCH  42  46
ENDBRANCH  25  39
BRANCH  26  50
ATOM     50  C   UNL A   1      46.839  27.423  25.495  1.00  0.00     0.023 A 
ATOM     51  C   UNL A   1      46.986  27.828  24.159  1.00  0.00     0.031 A 
ATOM     52  C   UNL A   1      47.855  26.632  26.062  1.00  0.00     0.131 A 
ATOM     53  C   UNL A   1      48.111  27.417  23.427  1.00  0.00     0.055 A 
ATOM     54  C   UNL A   1      48.993  26.267  25.344  1.00  0.00     0.041 A 
ATOM     55  F   UNL A   1      47.763  26.222  27.338  1.00  0.00    -0.206 F 
ATOM     56  C   UNL A   1      49.122  26.653  24.014  1.00  0.00     0.022 A 
BRANCH  53  57
ATOM     57  S   UNL A   1      48.208  27.851  21.668  1.00  0.00     0.124 S 
ATOM     58  O   UNL A   1      48.447  26.551  21.053  1.00  0.00    -0.237 OA
ATOM     59  O   UNL A   1      46.897  28.444  21.429  1.00  0.00    -0.237 OA
ATOM     60  O   UNL A   1      49.331  28.785  21.610  1.00  0.00    -0.744 OA
ENDBRANCH  53  57
ENDBRANCH  26  50
BRANCH  38  61
ATOM     61  C   UNL A   1      45.113  33.115  29.123  1.00  0.00     0.023 A 
ATOM     62  C   UNL A   1      45.097  34.197  28.226  1.00  0.00     0.031 A 
ATOM     63  C   UNL A   1      45.881  33.236  30.295  1.00  0.00     0.131 A 
ATOM     64  C   UNL A   1      45.880  35.332  28.486  1.00  0.00     0.055 A 
ATOM     65  C   UNL A   1      46.613  34.391  30.576  1.00  0.00     0.041 A 
ATOM     66  F   UNL A   1      45.936  32.231  31.183  1.00  0.00    -0.206 F 
ATOM     67  C   UNL A   1      46.625  35.442  29.662  1.00  0.00     0.022 A 
BRANCH  64  68
ATOM     68  S   UNL A   1      45.986  36.628  27.221  1.00  0.00     0.124 S 
ATOM     69  O   UNL A   1      46.085  35.845  25.992  1.00  0.00    -0.237 OA
ATOM     70  O   UNL A   1      44.736  37.356  27.413  1.00  0.00    -0.237 OA
ATOM     71  O   UNL A   1      47.194  37.366  27.584  1.00  0.00    -0.744 OA
ENDBRANCH  64  68
ENDBRANCH  38  61
ENDBRANCH  12  13
ENDBRANCH   5   7
ENDBRANCH   2   3
ENDBRANCH   1   2
BRANCH   1  72
ATOM     72  C   UNL A   1      34.709  22.415  25.656  1.00  0.00     0.117 C 
BRANCH  72  73
ATOM     73  N   UNL A   1      33.644  22.399  26.644  1.00  0.00    -0.354 N 
ATOM     74  C   UNL A   1      32.596  23.238  26.861  1.00  0.00     0.242 C 
ATOM     75  H   UNL A   1      33.689  21.642  27.270  1.00  0.00     0.163 HD
ATOM     76  O   UNL A   1      31.953  23.050  27.902  1.00  0.00    -0.273 OA
BRANCH  74  77
ATOM     77  C   UNL A   1      32.185  24.387  25.909  1.00  0.00     0.176 C 
BRANCH  77  78
ATOM     78  C   UNL A   1      33.242  25.502  25.714  1.00  0.00     0.070 C 
BRANCH  78  79
ATOM     79  C   UNL A   1      33.042  26.916  26.212  1.00  0.00    -0.045 A 
ATOM     80  C   UNL A   1      31.904  27.206  26.989  1.00  0.00     0.004 A 
ATOM     81  C   UNL A   1      33.868  27.985  25.844  1.00  0.00     0.004 A 
ATOM     82  C   UNL A   1      31.661  28.497  27.466  1.00  0.00     0.000 A 
ATOM     83  C   UNL A   1      33.640  29.273  26.340  1.00  0.00     0.000 A 
ATOM     84  C   UNL A   1      32.543  29.526  27.159  1.00  0.00     0.000 A 
ENDBRANCH  78  79
ENDBRANCH  77  78
BRANCH  77  85
ATOM     85  N   UNL A   1      31.525  23.907  24.693  1.00  0.00    -0.340 N 
ATOM     86  C   UNL A   1      31.025  24.571  23.607  1.00  0.00     0.258 C 
ATOM     87  H   UNL A   1      31.422  22.929  24.650  1.00  0.00     0.164 HD
ATOM     88  O   UNL A   1      30.330  23.962  22.798  1.00  0.00    -0.269 OA
BRANCH  86  89
ATOM     89  C   UNL A   1      31.217  26.021  23.407  1.00  0.00     0.117 A 
ATOM     90  C   UNL A   1      30.253  26.861  23.984  1.00  0.00     0.021 A 
ATOM     91  C   UNL A   1      32.220  26.602  22.628  1.00  0.00     0.282 A 
ATOM     92  C   UNL A   1      30.326  28.249  23.827  1.00  0.00     0.001 A 
ATOM     93  C   UNL A   1      32.318  27.997  22.489  1.00  0.00     0.086 A 
ATOM     94  C   UNL A   1      31.367  28.817  23.094  1.00  0.00     0.007 A 
BRANCH  91  95
ATOM     95  N   UNL A   1      33.158  25.793  21.876  1.00  0.00     0.063 N 
ATOM     96  O   UNL A   1      33.936  25.089  22.535  1.00  0.00    -0.258 OA
ATOM     97  O   UNL A   1      33.137  25.881  20.644  1.00  0.00    -0.258 OA
ENDBRANCH  91  95
ENDBRANCH  86  89
ENDBRANCH  77  85
ENDBRANCH  74  77
ENDBRANCH  72  73
ENDBRANCH   1  72
TORSDOF 18
ENDMDL
MODEL 2
REMARK VINA RESULT:     -12.4      4.746      7.638
REMARK SMILES O=C(NCCCNC(=O)[C@@H](Cc1ccccc1)NC(=O)c1ccccc1[N+](=O)[O-])c1ccc(-c2c3nc(c(-c4cc(S(=O)(=O)[O-])ccc4F)c4ccc([nH]4)c(-c4cc(S(=O)(=O)[O-])ccc4F)c4nc(c(-c5cc(S(=O)(=O)[O-])ccc5F)c5ccc2[nH]5)C=C4)C=C3)cc1
REMARK SMILES IDX 5 1 4 2 3 3 1 4 2 5 30 7 31 8 92 9 32 10 91 11 33 12 34 13
REMARK SMILES IDX 35 14 85 15 36 16 90 17 84 18 86 19 37 20 89 21 83 22 82 23
REMARK SMILES IDX 38 25 70 26 50 27 69 28 51 29 54 30 68 31 87 32 52 33 53 34
REMARK SMILES IDX 67 36 88 37 55 38 39 39 40 40 48 41 41 42 47 43 49 44 46 45
REMARK SMILES IDX 42 46 43 47 44 48 45 49 71 50 72 51 80 52 73 53 79 54 81 55
REMARK SMILES IDX 78 56 74 57 75 58 76 59 77 60 56 61 57 62 65 63 58 64 64 65
REMARK SMILES IDX 66 66 63 67 59 68 60 69 61 70 62 71 6 72 7 73 8 74 9 76
REMARK SMILES IDX 10 77 11 78 12 79 13 80 17 81 14 82 16 83 15 84 18 85 19 86
REMARK SMILES IDX 20 88 21 89 22 90 26 91 23 92 25 93 24 94 27 95 28 96 29 97
REMARK H PARENT 3 6 86 24 54 35 7 75 18 87
REMARK Flexibility Score: inf
ROOT
ATOM      1  C   UNL A   1      33.548  29.216  25.757  1.00  0.00     0.042 C 
ENDROOT
BRANCH   1   2
ATOM      2  C   UNL A   1      33.020  29.674  27.107  1.00  0.00     0.118 C 
BRANCH   2   3
ATOM      3  N   UNL A   1      33.263  31.089  27.335  1.00  0.00    -0.352 N 
ATOM      4  O   UNL A   1      34.113  32.936  28.257  1.00  0.00    -0.269 OA
ATOM      5  C   UNL A   1      34.283  31.748  27.981  1.00  0.00     0.251 C 
ATOM      6  H   UNL A   1      32.572  31.683  26.960  1.00  0.00     0.163 HD
BRANCH   5   7
ATOM      7  C   UNL A   1      35.567  31.092  28.348  1.00  0.00     0.039 A 
ATOM      8  C   UNL A   1      36.809  31.667  28.080  1.00  0.00     0.014 A 
ATOM      9  C   UNL A   1      35.525  29.914  29.109  1.00  0.00     0.014 A 
ATOM     10  C   UNL A   1      37.987  31.023  28.456  1.00  0.00     0.010 A 
ATOM     11  C   UNL A   1      36.706  29.325  29.585  1.00  0.00     0.010 A 
ATOM     12  C   UNL A   1      37.953  29.871  29.255  1.00  0.00    -0.014 A 
BRANCH  12  13
ATOM     13  C   UNL A   1      39.226  29.338  29.821  1.00  0.00     0.031 A 
ATOM     14  C   UNL A   1      39.829  29.904  31.077  1.00  0.00     0.074 A 
ATOM     15  C   UNL A   1      39.834  28.312  29.190  1.00  0.00     0.049 A 
ATOM     16  N   UNL A   1      40.915  29.538  31.708  1.00  0.00    -0.248 NA
ATOM     17  C   UNL A   1      39.128  31.037  31.697  1.00  0.00     0.031 C 
ATOM     18  C   UNL A   1      39.365  27.694  27.946  1.00  0.00     0.029 A 
ATOM     19  N   UNL A   1      40.956  27.589  29.510  1.00  0.00    -0.354 N 
ATOM     20  C   UNL A   1      41.042  30.402  32.792  1.00  0.00     0.074 A 
ATOM     21  C   UNL A   1      39.936  31.335  32.705  1.00  0.00     0.031 C 
ATOM     22  C   UNL A   1      40.152  26.651  27.646  1.00  0.00     0.029 A 
ATOM     23  C   UNL A   1      41.225  26.568  28.628  1.00  0.00     0.049 A 
ATOM     24  H   UNL A   1      41.516  27.783  30.297  1.00  0.00     0.167 HD
ATOM     25  C   UNL A   1      41.984  30.408  33.770  1.00  0.00     0.034 A 
ATOM     26  C   UNL A   1      42.231  25.671  28.594  1.00  0.00     0.034 A 
ATOM     27  C   UNL A   1      43.080  29.469  33.841  1.00  0.00     0.049 A 
ATOM     28  C   UNL A   1      43.279  25.719  29.671  1.00  0.00     0.074 A 
ATOM     29  C   UNL A   1      44.066  29.365  34.809  1.00  0.00     0.029 A 
ATOM     30  N   UNL A   1      43.347  28.478  32.903  1.00  0.00    -0.354 N 
ATOM     31  N   UNL A   1      43.367  26.529  30.700  1.00  0.00    -0.248 NA
ATOM     32  C   UNL A   1      44.363  24.735  29.581  1.00  0.00     0.031 C 
ATOM     33  C   UNL A   1      44.960  28.359  34.422  1.00  0.00     0.029 A 
ATOM     34  C   UNL A   1      44.497  27.784  33.251  1.00  0.00     0.049 A 
ATOM     35  H   UNL A   1      42.799  28.296  32.106  1.00  0.00     0.167 HD
ATOM     36  C   UNL A   1      44.513  26.144  31.387  1.00  0.00     0.074 A 
ATOM     37  C   UNL A   1      45.067  25.014  30.667  1.00  0.00     0.031 C 
ATOM     38  C   UNL A   1      45.058  26.678  32.510  1.00  0.00     0.034 A 
BRANCH  25  39
ATOM     39  C   UNL A   1      41.889  31.496  34.814  1.00  0.00     0.023 A 
ATOM     40  C   UNL A   1      40.891  31.487  35.804  1.00  0.00     0.031 A 
ATOM     41  C   UNL A   1      42.791  32.575  34.803  1.00  0.00     0.131 A 
ATOM     42  C   UNL A   1      40.767  32.572  36.686  1.00  0.00     0.055 A 
ATOM     43  C   UNL A   1      42.713  33.613  35.735  1.00  0.00     0.041 A 
ATOM     44  F   UNL A   1      43.756  32.650  33.872  1.00  0.00    -0.206 F 
ATOM     45  C   UNL A   1      41.686  33.624  36.673  1.00  0.00     0.022 A 
BRANCH  42  46
ATOM     46  S   UNL A   1      39.298  32.662  37.745  1.00  0.00     0.124 S 
ATOM     47  O   UNL A   1      39.879  32.474  39.073  1.00  0.00    -0.237 OA
ATOM     48  O   UNL A   1      38.784  33.996  37.457  1.00  0.00    -0.237 OA
ATOM     49  O   UNL A   1      38.468  31.557  37.274  1.00  0.00    -0.744 OA
ENDBRANCH  42  46
ENDBRANCH  25  39
BRANCH  26  50
ATOM     50  C   UNL A   1      42.311  24.678  27.487  1.00  0.00     0.023 A 
ATOM     51  C   UNL A   1      41.548  23.500  27.510  1.00  0.00     0.031 A 
ATOM     52  C   UNL A   1      43.164  24.891  26.389  1.00  0.00     0.131 A 
ATOM     53  C   UNL A   1      41.673  22.568  26.468  1.00  0.00     0.055 A 
ATOM     54  C   UNL A   1      43.249  23.985  25.333  1.00  0.00     0.041 A 
ATOM     55  F   UNL A   1      43.912  26.005  26.317  1.00  0.00    -0.206 F 
ATOM     56  C   UNL A   1      42.506  22.809  25.373  1.00  0.00     0.022 A 
BRANCH  53  57
ATOM     57  S   UNL A   1      40.770  21.000  26.592  1.00  0.00     0.124 S 
ATOM     58  O   UNL A   1      41.603  20.112  25.789  1.00  0.00    -0.237 OA
ATOM     59  O   UNL A   1      40.775  20.759  28.031  1.00  0.00    -0.237 OA
ATOM     60  O   UNL A   1      39.461  21.315  26.021  1.00  0.00    -0.744 OA
ENDBRANCH  53  57
ENDBRANCH  26  50
BRANCH  38  61
ATOM     61  C   UNL A   1      46.307  26.015  33.034  1.00  0.00     0.023 A 
ATOM     62  C   UNL A   1      47.576  26.315  32.508  1.00  0.00     0.031 A 
ATOM     63  C   UNL A   1      46.223  25.047  34.051  1.00  0.00     0.131 A 
ATOM     64  C   UNL A   1      48.703  25.613  32.960  1.00  0.00     0.055 A 
ATOM     65  C   UNL A   1      47.355  24.392  34.536  1.00  0.00     0.041 A 
ATOM     66  F   UNL A   1      45.035  24.719  34.585  1.00  0.00    -0.206 F 
ATOM     67  C   UNL A   1      48.603  24.664  33.980  1.00  0.00     0.022 A 
BRANCH  64  68
ATOM     68  S   UNL A   1      50.293  25.887  32.129  1.00  0.00     0.124 S 
ATOM     69  O   UNL A   1      51.212  25.983  33.259  1.00  0.00    -0.237 OA
ATOM     70  O   UNL A   1      50.423  24.693  31.301  1.00  0.00    -0.237 OA
ATOM     71  O   UNL A   1      50.085  27.132  31.392  1.00  0.00    -0.744 OA
ENDBRANCH  64  68
ENDBRANCH  38  61
ENDBRANCH  12  13
ENDBRANCH   5   7
ENDBRANCH   2   3
ENDBRANCH   1   2
BRANCH   1  72
ATOM     72  C   UNL A   1      32.517  29.272  24.637  1.00  0.00     0.117 C 
BRANCH  72  73
ATOM     73  N   UNL A   1      33.093  28.841  23.374  1.00  0.00    -0.354 N 
ATOM     74  C   UNL A   1      33.397  27.608  22.890  1.00  0.00     0.242 C 
ATOM     75  H   UNL A   1      33.300  29.578  22.756  1.00  0.00     0.163 HD
ATOM     76  O   UNL A   1      34.046  27.580  21.837  1.00  0.00    -0.273 OA
BRANCH  74  77
ATOM     77  C   UNL A   1      32.997  26.278  23.573  1.00  0.00     0.176 C 
BRANCH  77  78
ATOM     78  C   UNL A   1      33.895  25.840  24.758  1.00  0.00     0.070 C 
BRANCH  78  79
ATOM     79  C   UNL A   1      34.702  24.561  24.743  1.00  0.00    -0.045 A 
ATOM     80  C   UNL A   1      35.028  23.979  23.503  1.00  0.00     0.004 A 
ATOM     81  C   UNL A   1      35.045  23.855  25.903  1.00  0.00     0.004 A 
ATOM     82  C   UNL A   1      35.761  22.792  23.429  1.00  0.00     0.000 A 
ATOM     83  C   UNL A   1      35.799  22.679  25.832  1.00  0.00     0.000 A 
ATOM     84  C   UNL A   1      36.166  22.154  24.596  1.00  0.00     0.000 A 
ENDBRANCH  78  79
ENDBRANCH  77  78
BRANCH  77  85
ATOM     85  N   UNL A   1      31.553  26.162  23.785  1.00  0.00    -0.340 N 
ATOM     86  C   UNL A   1      30.754  25.079  24.030  1.00  0.00     0.258 C 
ATOM     87  H   UNL A   1      31.069  27.018  23.740  1.00  0.00     0.164 HD
ATOM     88  O   UNL A   1      29.533  25.207  23.970  1.00  0.00    -0.269 OA
BRANCH  86  89
ATOM     89  C   UNL A   1      31.301  23.732  24.287  1.00  0.00     0.117 A 
ATOM     90  C   UNL A   1      31.651  22.978  23.156  1.00  0.00     0.021 A 
ATOM     91  C   UNL A   1      31.412  23.132  25.543  1.00  0.00     0.282 A 
ATOM     92  C   UNL A   1      32.149  21.678  23.288  1.00  0.00     0.001 A 
ATOM     93  C   UNL A   1      31.940  21.837  25.687  1.00  0.00     0.086 A 
ATOM     94  C   UNL A   1      32.309  21.114  24.554  1.00  0.00     0.007 A 
BRANCH  91  95
ATOM     95  N   UNL A   1      30.928  23.788  26.740  1.00  0.00     0.063 N 
ATOM     96  O   UNL A   1      29.894  23.329  27.245  1.00  0.00    -0.258 OA
ATOM     97  O   UNL A   1      31.556  24.768  27.155  1.00  0.00    -0.258 OA
ENDBRANCH  91  95
ENDBRANCH  86  89
ENDBRANCH  77  85
ENDBRANCH  74  77
ENDBRANCH  72  73
ENDBRANCH   1  72
TORSDOF 18
ENDMDL
MODEL 3
REMARK VINA RESULT:     -12.2      1.638      7.594
REMARK SMILES O=C(NCCCNC(=O)[C@@H](Cc1ccccc1)NC(=O)c1ccccc1[N+](=O)[O-])c1ccc(-c2c3nc(c(-c4cc(S(=O)(=O)[O-])ccc4F)c4ccc([nH]4)c(-c4cc(S(=O)(=O)[O-])ccc4F)c4nc(c(-c5cc(S(=O)(=O)[O-])ccc5F)c5ccc2[nH]5)C=C4)C=C3)cc1
REMARK SMILES IDX 5 1 4 2 3 3 1 4 2 5 30 7 31 8 92 9 32 10 91 11 33 12 34 13
REMARK SMILES IDX 35 14 85 15 36 16 90 17 84 18 86 19 37 20 89 21 83 22 82 23
REMARK SMILES IDX 38 25 70 26 50 27 69 28 51 29 54 30 68 31 87 32 52 33 53 34
REMARK SMILES IDX 67 36 88 37 55 38 39 39 40 40 48 41 41 42 47 43 49 44 46 45
REMARK SMILES IDX 42 46 43 47 44 48 45 49 71 50 72 51 80 52 73 53 79 54 81 55
REMARK SMILES IDX 78 56 74 57 75 58 76 59 77 60 56 61 57 62 65 63 58 64 64 65
REMARK SMILES IDX 66 66 63 67 59 68 60 69 61 70 62 71 6 72 7 73 8 74 9 76
REMARK SMILES IDX 10 77 11 78 12 79 13 80 17 81 14 82 16 83 15 84 18 85 19 86
REMARK SMILES IDX 20 88 21 89 22 90 26 91 23 92 25 93 24 94 27 95 28 96 29 97
REMARK H PARENT 3 6 86 24 54 35 7 75 18 87
REMARK Flexibility Score: inf
ROOT
ATOM      1  C   UNL A   1      35.811  21.260  25.674  1.00  0.00     0.042 C 
ENDROOT
BRANCH   1   2
ATOM      2  C   UNL A   1      37.072  21.288  24.827  1.00  0.00     0.118 C 
BRANCH   2   3
ATOM      3  N   UNL A   1      38.043  20.296  25.262  1.00  0.00    -0.352 N 
ATOM      4  O   UNL A   1      40.011  19.427  25.855  1.00  0.00    -0.269 OA
ATOM      5  C   UNL A   1      39.294  20.426  25.820  1.00  0.00     0.251 C 
ATOM      6  H   UNL A   1      37.752  19.364  25.135  1.00  0.00     0.163 HD
BRANCH   5   7
ATOM      7  C   UNL A   1      39.802  21.708  26.380  1.00  0.00     0.039 A 
ATOM      8  C   UNL A   1      40.950  21.782  27.168  1.00  0.00     0.014 A 
ATOM      9  C   UNL A   1      39.179  22.904  25.991  1.00  0.00     0.014 A 
ATOM     10  C   UNL A   1      41.399  23.008  27.658  1.00  0.00     0.010 A 
ATOM     11  C   UNL A   1      39.696  24.145  26.391  1.00  0.00     0.010 A 
ATOM     12  C   UNL A   1      40.810  24.209  27.238  1.00  0.00    -0.014 A 
BRANCH  12  13
ATOM     13  C   UNL A   1      41.453  25.504  27.605  1.00  0.00     0.031 A 
ATOM     14  C   UNL A   1      42.849  25.844  27.165  1.00  0.00     0.074 A 
ATOM     15  C   UNL A   1      40.747  26.391  28.338  1.00  0.00     0.049 A 
ATOM     16  N   UNL A   1      43.540  26.934  27.382  1.00  0.00    -0.248 NA
ATOM     17  C   UNL A   1      43.569  24.822  26.393  1.00  0.00     0.031 C 
ATOM     18  C   UNL A   1      39.392  26.167  28.852  1.00  0.00     0.029 A 
ATOM     19  N   UNL A   1      41.050  27.661  28.759  1.00  0.00    -0.354 N 
ATOM     20  C   UNL A   1      44.782  26.729  26.788  1.00  0.00     0.074 A 
ATOM     21  C   UNL A   1      44.757  25.389  26.235  1.00  0.00     0.031 C 
ATOM     22  C   UNL A   1      38.960  27.280  29.460  1.00  0.00     0.029 A 
ATOM     23  C   UNL A   1      40.027  28.272  29.450  1.00  0.00     0.049 A 
ATOM     24  H   UNL A   1      41.916  28.096  28.585  1.00  0.00     0.167 HD
ATOM     25  C   UNL A   1      45.836  27.580  26.704  1.00  0.00     0.034 A 
ATOM     26  C   UNL A   1      39.955  29.487  30.029  1.00  0.00     0.034 A 
ATOM     27  C   UNL A   1      45.844  28.914  27.262  1.00  0.00     0.049 A 
ATOM     28  C   UNL A   1      41.147  30.398  29.948  1.00  0.00     0.074 A 
ATOM     29  C   UNL A   1      46.845  29.869  27.200  1.00  0.00     0.029 A 
ATOM     30  N   UNL A   1      44.808  29.480  27.995  1.00  0.00    -0.354 N 
ATOM     31  N   UNL A   1      42.304  30.194  29.362  1.00  0.00    -0.248 NA
ATOM     32  C   UNL A   1      41.026  31.703  30.610  1.00  0.00     0.031 C 
ATOM     33  C   UNL A   1      46.441  30.982  27.948  1.00  0.00     0.029 A 
ATOM     34  C   UNL A   1      45.159  30.754  28.418  1.00  0.00     0.049 A 
ATOM     35  H   UNL A   1      43.949  29.039  28.187  1.00  0.00     0.167 HD
ATOM     36  C   UNL A   1      43.045  31.350  29.576  1.00  0.00     0.074 A 
ATOM     37  C   UNL A   1      42.195  32.256  30.324  1.00  0.00     0.031 C 
ATOM     38  C   UNL A   1      44.314  31.637  29.190  1.00  0.00     0.034 A 
BRANCH  25  39
ATOM     39  C   UNL A   1      47.085  27.071  26.021  1.00  0.00     0.023 A 
ATOM     40  C   UNL A   1      48.074  26.359  26.722  1.00  0.00     0.031 A 
ATOM     41  C   UNL A   1      47.305  27.328  24.657  1.00  0.00     0.131 A 
ATOM     42  C   UNL A   1      49.269  26.001  26.079  1.00  0.00     0.055 A 
ATOM     43  C   UNL A   1      48.462  26.898  24.001  1.00  0.00     0.041 A 
ATOM     44  F   UNL A   1      46.406  28.018  23.936  1.00  0.00    -0.206 F 
ATOM     45  C   UNL A   1      49.460  26.245  24.718  1.00  0.00     0.022 A 
BRANCH  42  46
ATOM     46  S   UNL A   1      50.631  25.352  27.085  1.00  0.00     0.124 S 
ATOM     47  O   UNL A   1      51.589  24.945  26.058  1.00  0.00    -0.237 OA
ATOM     48  O   UNL A   1      51.008  26.509  27.888  1.00  0.00    -0.237 OA
ATOM     49  O   UNL A   1      50.018  24.251  27.824  1.00  0.00    -0.744 OA
ENDBRANCH  42  46
ENDBRANCH  25  39
BRANCH  26  50
ATOM     50  C   UNL A   1      38.723  29.894  30.761  1.00  0.00     0.023 A 
ATOM     51  C   UNL A   1      37.767  30.733  30.166  1.00  0.00     0.031 A 
ATOM     52  C   UNL A   1      38.488  29.453  32.076  1.00  0.00     0.131 A 
ATOM     53  C   UNL A   1      36.635  31.127  30.896  1.00  0.00     0.055 A 
ATOM     54  C   UNL A   1      37.338  29.808  32.779  1.00  0.00     0.041 A 
ATOM     55  F   UNL A   1      39.369  28.645  32.688  1.00  0.00    -0.206 F 
ATOM     56  C   UNL A   1      36.406  30.659  32.192  1.00  0.00     0.022 A 
BRANCH  53  57
ATOM     57  S   UNL A   1      35.485  32.312  30.145  1.00  0.00     0.124 S 
ATOM     58  O   UNL A   1      36.325  33.496  30.007  1.00  0.00    -0.237 OA
ATOM     59  O   UNL A   1      35.120  31.636  28.905  1.00  0.00    -0.237 OA
ATOM     60  O   UNL A   1      34.413  32.418  31.132  1.00  0.00    -0.744 OA
ENDBRANCH  53  57
ENDBRANCH  26  50
BRANCH  38  61
ATOM     61  C   UNL A   1      44.839  33.003  29.555  1.00  0.00     0.023 A 
ATOM     62  C   UNL A   1      44.637  34.117  28.721  1.00  0.00     0.031 A 
ATOM     63  C   UNL A   1      45.581  33.185  30.736  1.00  0.00     0.131 A 
ATOM     64  C   UNL A   1      45.217  35.350  29.050  1.00  0.00     0.055 A 
ATOM     65  C   UNL A   1      46.108  34.428  31.087  1.00  0.00     0.041 A 
ATOM     66  F   UNL A   1      45.808  32.154  31.565  1.00  0.00    -0.206 F 
ATOM     67  C   UNL A   1      45.939  35.517  30.235  1.00  0.00     0.022 A 
BRANCH  64  68
ATOM     68  S   UNL A   1      45.097  36.716  27.862  1.00  0.00     0.124 S 
ATOM     69  O   UNL A   1      46.443  37.280  27.911  1.00  0.00    -0.237 OA
ATOM     70  O   UNL A   1      44.741  36.026  26.627  1.00  0.00    -0.237 OA
ATOM     71  O   UNL A   1      44.048  37.567  28.420  1.00  0.00    -0.744 OA
ENDBRANCH  64  68
ENDBRANCH  38  61
ENDBRANCH  12  13
ENDBRANCH   5   7
ENDBRANCH   2   3
ENDBRANCH   1   2
BRANCH   1  72
ATOM     72  C   UNL A   1      35.417  22.618  26.244  1.00  0.00     0.117 C 
BRANCH  72  73
ATOM     73  N   UNL A   1      34.034  22.617  26.689  1.00  0.00    -0.354 N 
ATOM     74  C   UNL A   1      33.026  23.514  26.520  1.00  0.00     0.242 C 
ATOM     75  H   UNL A   1      33.780  21.820  27.207  1.00  0.00     0.163 HD
ATOM     76  O   UNL A   1      31.997  23.308  27.176  1.00  0.00    -0.273 OA
BRANCH  74  77
ATOM     77  C   UNL A   1      33.102  24.749  25.590  1.00  0.00     0.176 C 
BRANCH  77  78
ATOM     78  C   UNL A   1      33.911  25.950  26.140  1.00  0.00     0.070 C 
BRANCH  78  79
ATOM     79  C   UNL A   1      33.295  27.311  26.378  1.00  0.00    -0.045 A 
ATOM     80  C   UNL A   1      34.070  28.459  26.130  1.00  0.00     0.004 A 
ATOM     81  C   UNL A   1      32.028  27.492  26.947  1.00  0.00     0.004 A 
ATOM     82  C   UNL A   1      33.558  29.741  26.343  1.00  0.00     0.000 A 
ATOM     83  C   UNL A   1      31.504  28.775  27.139  1.00  0.00     0.000 A 
ATOM     84  C   UNL A   1      32.264  29.898  26.827  1.00  0.00     0.000 A 
ENDBRANCH  78  79
ENDBRANCH  77  78
BRANCH  77  85
ATOM     85  N   UNL A   1      33.355  24.390  24.193  1.00  0.00    -0.340 N 
ATOM     86  C   UNL A   1      33.043  25.023  23.021  1.00  0.00     0.258 C 
ATOM     87  H   UNL A   1      33.835  23.539  24.076  1.00  0.00     0.164 HD
ATOM     88  O   UNL A   1      33.182  24.422  21.958  1.00  0.00    -0.269 OA
BRANCH  86  89
ATOM     89  C   UNL A   1      32.464  26.380  22.983  1.00  0.00     0.117 A 
ATOM     90  C   UNL A   1      33.342  27.421  22.642  1.00  0.00     0.021 A 
ATOM     91  C   UNL A   1      31.155  26.709  23.339  1.00  0.00     0.282 A 
ATOM     92  C   UNL A   1      32.901  28.747  22.608  1.00  0.00     0.001 A 
ATOM     93  C   UNL A   1      30.695  28.037  23.279  1.00  0.00     0.086 A 
ATOM     94  C   UNL A   1      31.575  29.053  22.910  1.00  0.00     0.007 A 
BRANCH  91  95
ATOM     95  N   UNL A   1      30.236  25.712  23.849  1.00  0.00     0.063 N 
ATOM     96  O   UNL A   1      29.612  26.007  24.878  1.00  0.00    -0.258 OA
ATOM     97  O   UNL A   1      30.161  24.636  23.247  1.00  0.00    -0.258 OA
ENDBRANCH  91  95
ENDBRANCH  86  89
ENDBRANCH  77  85
ENDBRANCH  74  77
ENDBRANCH  72  73
ENDBRANCH   1  72
TORSDOF 18
ENDMDL
