MODEL 1
REMARK VINA RESULT:     -12.3      0.000      0.000
REMARK SMILES Nc1ccc2[nH]cc(C(=O)NCCCNC(=O)c3ccc(-c4c5nc(c(-c6cc(S(=O)(=O)[O-])ccc6F)c6ccc([nH]6)c(-c6cc(S(=O)(=O)[O-])ccc6F)c6nc(c(-c7cc(S(=O)(=O)[O-])ccc7F)c7ccc4[nH]7)C=C6)C=C5)cc3)c2c1
REMARK SMILES IDX 14 1 13 2 12 3 11 4 9 5 10 6 8 8 2 9 3 10 82 11 4 12 81 13
REMARK SMILES IDX 5 14 6 15 7 16 1 18 15 21 16 22 17 24 18 25 19 26 80 27
REMARK SMILES IDX 20 28 79 29 21 30 22 31 23 32 73 33 24 34 78 35 72 36 74 37
REMARK SMILES IDX 25 38 77 39 71 40 70 41 26 43 58 44 38 45 57 46 39 47 42 48
REMARK SMILES IDX 56 49 75 50 40 51 41 52 55 54 76 55 43 56 27 57 28 58 36 59
REMARK SMILES IDX 29 60 35 61 37 62 34 63 30 64 31 65 32 66 33 67 59 68 60 69
REMARK SMILES IDX 68 70 61 71 67 72 69 73 66 74 62 75 63 76 64 77 65 78 44 79
REMARK SMILES IDX 45 80 53 81 46 82 52 83 54 84 51 85 47 86 48 87 49 88 50 89
REMARK H PARENT 11 7 6 17 1 19 1 20 15 23 74 42 42 53
REMARK Flexibility Score: inf
ROOT
ATOM      1  C   UNL A   1      37.369  22.086  25.610  1.00  0.00     0.118 C 
ENDROOT
BRANCH   1   2
ATOM      2  C   UNL A   1      37.042  21.849  24.132  1.00  0.00     0.042 C 
BRANCH   2   3
ATOM      3  C   UNL A   1      36.123  22.926  23.535  1.00  0.00     0.118 C 
BRANCH   3   4
ATOM      4  N   UNL A   1      35.013  23.247  24.395  1.00  0.00    -0.352 N 
ATOM      5  C   UNL A   1      33.845  22.614  24.710  1.00  0.00     0.253 C 
ATOM      6  O   UNL A   1      33.269  23.115  25.687  1.00  0.00    -0.269 OA
ATOM      7  H   UNL A   1      35.120  24.111  24.854  1.00  0.00     0.163 HD
BRANCH   5   8
ATOM      8  C   UNL A   1      33.237  21.468  24.009  1.00  0.00     0.065 A 
ATOM      9  C   UNL A   1      33.926  17.639  24.383  1.00  0.00     0.032 A 
ATOM     10  C   UNL A   1      33.089  17.253  23.348  1.00  0.00     0.027 A 
ATOM     11  C   UNL A   1      34.028  19.003  24.709  1.00  0.00     0.036 A 
ATOM     12  C   UNL A   1      32.370  18.196  22.617  1.00  0.00     0.029 A 
ATOM     13  C   UNL A   1      33.334  20.016  23.998  1.00  0.00     0.014 A 
ATOM     14  C   UNL A   1      32.505  19.547  22.965  1.00  0.00     0.046 A 
ATOM     15  N   UNL A   1      31.892  20.629  22.397  1.00  0.00    -0.360 N 
ATOM     16  C   UNL A   1      32.308  21.766  23.009  1.00  0.00     0.097 A 
ATOM     17  H   UNL A   1      31.247  20.590  21.655  1.00  0.00     0.166 HD
BRANCH   9  18
ATOM     18  N   UNL A   1      34.559  16.682  25.164  1.00  0.00    -0.399 N 
ATOM     19  H   UNL A   1      35.535  16.571  25.111  1.00  0.00     0.156 HD
ATOM     20  H   UNL A   1      34.030  16.115  25.771  1.00  0.00     0.156 HD
ENDBRANCH   9  18
ENDBRANCH   5   8
ENDBRANCH   3   4
ENDBRANCH   2   3
ENDBRANCH   1   2
BRANCH   1  21
ATOM     21  N   UNL A   1      38.711  21.662  25.967  1.00  0.00    -0.352 N 
ATOM     22  C   UNL A   1      39.792  22.208  26.597  1.00  0.00     0.251 C 
ATOM     23  H   UNL A   1      38.887  20.737  25.679  1.00  0.00     0.163 HD
ATOM     24  O   UNL A   1      40.784  21.474  26.649  1.00  0.00    -0.269 OA
BRANCH  22  25
ATOM     25  C   UNL A   1      39.882  23.577  27.177  1.00  0.00     0.039 A 
ATOM     26  C   UNL A   1      38.947  24.600  27.023  1.00  0.00     0.014 A 
ATOM     27  C   UNL A   1      41.048  23.844  27.925  1.00  0.00     0.014 A 
ATOM     28  C   UNL A   1      39.204  25.870  27.549  1.00  0.00     0.010 A 
ATOM     29  C   UNL A   1      41.304  25.105  28.456  1.00  0.00     0.010 A 
ATOM     30  C   UNL A   1      40.398  26.133  28.234  1.00  0.00    -0.014 A 
BRANCH  30  31
ATOM     31  C   UNL A   1      40.613  27.478  28.770  1.00  0.00     0.031 A 
ATOM     32  C   UNL A   1      41.796  28.204  28.222  1.00  0.00     0.074 A 
ATOM     33  C   UNL A   1      39.769  28.108  29.613  1.00  0.00     0.049 A 
ATOM     34  N   UNL A   1      42.869  28.571  28.846  1.00  0.00    -0.248 NA
ATOM     35  C   UNL A   1      41.829  28.457  26.776  1.00  0.00     0.031 C 
ATOM     36  C   UNL A   1      38.413  27.715  29.998  1.00  0.00     0.029 A 
ATOM     37  N   UNL A   1      39.925  29.315  30.232  1.00  0.00    -0.354 N 
ATOM     38  C   UNL A   1      43.648  29.260  27.913  1.00  0.00     0.074 A 
ATOM     39  C   UNL A   1      43.024  29.033  26.632  1.00  0.00     0.031 C 
ATOM     40  C   UNL A   1      37.793  28.764  30.587  1.00  0.00     0.029 A 
ATOM     41  C   UNL A   1      38.753  29.843  30.757  1.00  0.00     0.049 A 
ATOM     42  H   UNL A   1      40.794  29.772  30.301  1.00  0.00     0.167 HD
ATOM     43  C   UNL A   1      44.653  30.104  28.287  1.00  0.00     0.034 A 
ATOM     44  C   UNL A   1      38.564  31.104  31.223  1.00  0.00     0.034 A 
ATOM     45  C   UNL A   1      45.004  29.920  29.669  1.00  0.00     0.049 A 
ATOM     46  C   UNL A   1      39.889  31.694  31.529  1.00  0.00     0.074 A 
ATOM     47  C   UNL A   1      45.510  28.874  30.413  1.00  0.00     0.029 A 
ATOM     48  N   UNL A   1      44.521  30.827  30.579  1.00  0.00    -0.354 N 
ATOM     49  N   UNL A   1      40.648  31.323  32.520  1.00  0.00    -0.248 NA
ATOM     50  C   UNL A   1      40.558  32.427  30.466  1.00  0.00     0.031 C 
ATOM     51  C   UNL A   1      44.866  28.979  31.678  1.00  0.00     0.029 A 
ATOM     52  C   UNL A   1      44.052  30.114  31.651  1.00  0.00     0.049 A 
ATOM     53  H   UNL A   1      44.511  31.807  30.480  1.00  0.00     0.167 HD
ATOM     54  C   UNL A   1      41.930  31.349  31.995  1.00  0.00     0.074 A 
ATOM     55  C   UNL A   1      41.825  32.140  30.770  1.00  0.00     0.031 C 
ATOM     56  C   UNL A   1      42.898  30.495  32.438  1.00  0.00     0.034 A 
BRANCH  43  57
ATOM     57  C   UNL A   1      45.112  31.313  27.499  1.00  0.00     0.023 A 
ATOM     58  C   UNL A   1      44.335  32.474  27.355  1.00  0.00     0.031 A 
ATOM     59  C   UNL A   1      46.453  31.417  27.065  1.00  0.00     0.131 A 
ATOM     60  C   UNL A   1      44.868  33.656  26.820  1.00  0.00     0.055 A 
ATOM     61  C   UNL A   1      47.004  32.615  26.593  1.00  0.00     0.041 A 
ATOM     62  F   UNL A   1      47.292  30.373  27.145  1.00  0.00    -0.206 F 
ATOM     63  C   UNL A   1      46.211  33.746  26.472  1.00  0.00     0.022 A 
BRANCH  60  64
ATOM     64  S   UNL A   1      43.808  35.110  26.590  1.00  0.00     0.124 S 
ATOM     65  O   UNL A   1      42.913  35.012  27.744  1.00  0.00    -0.237 OA
ATOM     66  O   UNL A   1      44.786  36.197  26.644  1.00  0.00    -0.237 OA
ATOM     67  O   UNL A   1      43.199  34.889  25.290  1.00  0.00    -0.744 OA
ENDBRANCH  60  64
ENDBRANCH  43  57
BRANCH  44  68
ATOM     68  C   UNL A   1      37.385  31.966  30.969  1.00  0.00     0.023 A 
ATOM     69  C   UNL A   1      36.705  32.545  32.054  1.00  0.00     0.031 A 
ATOM     70  C   UNL A   1      36.729  31.955  29.725  1.00  0.00     0.131 A 
ATOM     71  C   UNL A   1      35.397  33.026  31.901  1.00  0.00     0.055 A 
ATOM     72  C   UNL A   1      35.429  32.453  29.569  1.00  0.00     0.041 A 
ATOM     73  F   UNL A   1      37.306  31.388  28.654  1.00  0.00    -0.206 F 
ATOM     74  C   UNL A   1      34.751  32.977  30.667  1.00  0.00     0.022 A 
BRANCH  71  75
ATOM     75  S   UNL A   1      34.482  33.636  33.343  1.00  0.00     0.124 S 
ATOM     76  O   UNL A   1      35.276  33.118  34.455  1.00  0.00    -0.237 OA
ATOM     77  O   UNL A   1      34.543  35.078  33.143  1.00  0.00    -0.237 OA
ATOM     78  O   UNL A   1      33.164  33.027  33.192  1.00  0.00    -0.744 OA
ENDBRANCH  71  75
ENDBRANCH  44  68
BRANCH  56  79
ATOM     79  C   UNL A   1      42.656  29.679  33.688  1.00  0.00     0.023 A 
ATOM     80  C   UNL A   1      43.309  30.104  34.860  1.00  0.00     0.031 A 
ATOM     81  C   UNL A   1      42.038  28.414  33.712  1.00  0.00     0.131 A 
ATOM     82  C   UNL A   1      43.383  29.264  35.975  1.00  0.00     0.055 A 
ATOM     83  C   UNL A   1      42.044  27.611  34.858  1.00  0.00     0.041 A 
ATOM     84  F   UNL A   1      41.496  27.874  32.613  1.00  0.00    -0.206 F 
ATOM     85  C   UNL A   1      42.737  28.025  35.990  1.00  0.00     0.022 A 
BRANCH  82  86
ATOM     86  S   UNL A   1      44.471  29.682  37.360  1.00  0.00     0.124 S 
ATOM     87  O   UNL A   1      45.674  30.149  36.678  1.00  0.00    -0.237 OA
ATOM     88  O   UNL A   1      43.705  30.716  38.055  1.00  0.00    -0.237 OA
ATOM     89  O   UNL A   1      44.615  28.427  38.092  1.00  0.00    -0.744 OA
ENDBRANCH  82  86
ENDBRANCH  56  79
ENDBRANCH  30  31
ENDBRANCH  22  25
ENDBRANCH   1  21
TORSDOF 14
ENDMDL
MODEL 2
REMARK VINA RESULT:     -12.1      1.225      2.241
REMARK SMILES Nc1ccc2[nH]cc(C(=O)NCCCNC(=O)c3ccc(-c4c5nc(c(-c6cc(S(=O)(=O)[O-])ccc6F)c6ccc([nH]6)c(-c6cc(S(=O)(=O)[O-])ccc6F)c6nc(c(-c7cc(S(=O)(=O)[O-])ccc7F)c7ccc4[nH]7)C=C6)C=C5)cc3)c2c1
REMARK SMILES IDX 14 1 13 2 12 3 11 4 9 5 10 6 8 8 2 9 3 10 82 11 4 12 81 13
REMARK SMILES IDX 5 14 6 15 7 16 1 18 15 21 16 22 17 24 18 25 19 26 80 27
REMARK SMILES IDX 20 28 79 29 21 30 22 31 23 32 73 33 24 34 78 35 72 36 74 37
REMARK SMILES IDX 25 38 77 39 71 40 70 41 26 43 58 44 38 45 57 46 39 47 42 48
REMARK SMILES IDX 56 49 75 50 40 51 41 52 55 54 76 55 43 56 27 57 28 58 36 59
REMARK SMILES IDX 29 60 35 61 37 62 34 63 30 64 31 65 32 66 33 67 59 68 60 69
REMARK SMILES IDX 68 70 61 71 67 72 69 73 66 74 62 75 63 76 64 77 65 78 44 79
REMARK SMILES IDX 45 80 53 81 46 82 52 83 54 84 51 85 47 86 48 87 49 88 50 89
REMARK H PARENT 11 7 6 17 1 19 1 20 15 23 74 42 42 53
REMARK Flexibility Score: inf
ROOT
ATOM      1  C   UNL A   1      37.714  22.216  25.235  1.00  0.00     0.118 C 
ENDROOT
BRANCH   1   2
ATOM      2  C   UNL A   1      36.590  21.175  25.207  1.00  0.00     0.042 C 
BRANCH   2   3
ATOM      3  C   UNL A   1      35.405  21.539  26.112  1.00  0.00     0.118 C 
BRANCH   3   4
ATOM      4  N   UNL A   1      34.348  20.562  26.062  1.00  0.00    -0.352 N 
ATOM      5  C   UNL A   1      33.194  20.451  25.340  1.00  0.00     0.253 C 
ATOM      6  O   UNL A   1      32.678  19.326  25.419  1.00  0.00    -0.269 OA
ATOM      7  H   UNL A   1      34.487  19.812  26.684  1.00  0.00     0.163 HD
BRANCH   5   8
ATOM      8  C   UNL A   1      32.538  21.505  24.545  1.00  0.00     0.065 A 
ATOM      9  C   UNL A   1      30.989  24.911  25.676  1.00  0.00     0.032 A 
ATOM     10  C   UNL A   1      30.490  25.249  24.428  1.00  0.00     0.027 A 
ATOM     11  C   UNL A   1      31.709  23.712  25.823  1.00  0.00     0.036 A 
ATOM     12  C   UNL A   1      30.672  24.410  23.331  1.00  0.00     0.029 A 
ATOM     13  C   UNL A   1      31.920  22.807  24.752  1.00  0.00     0.014 A 
ATOM     14  C   UNL A   1      31.386  23.219  23.519  1.00  0.00     0.046 A 
ATOM     15  N   UNL A   1      31.690  22.263  22.591  1.00  0.00    -0.360 N 
ATOM     16  C   UNL A   1      32.376  21.251  23.181  1.00  0.00     0.097 A 
ATOM     17  H   UNL A   1      31.446  22.301  21.638  1.00  0.00     0.166 HD
BRANCH   9  18
ATOM     18  N   UNL A   1      30.886  25.801  26.736  1.00  0.00    -0.399 N 
ATOM     19  H   UNL A   1      30.338  25.571  27.520  1.00  0.00     0.156 HD
ATOM     20  H   UNL A   1      31.360  26.663  26.701  1.00  0.00     0.156 HD
ENDBRANCH   9  18
ENDBRANCH   5   8
ENDBRANCH   3   4
ENDBRANCH   2   3
ENDBRANCH   1   2
BRANCH   1  21
ATOM     21  N   UNL A   1      38.932  21.716  25.847  1.00  0.00    -0.352 N 
ATOM     22  C   UNL A   1      39.906  22.206  26.669  1.00  0.00     0.251 C 
ATOM     23  H   UNL A   1      39.100  20.776  25.606  1.00  0.00     0.163 HD
ATOM     24  O   UNL A   1      40.819  21.413  26.917  1.00  0.00    -0.269 OA
BRANCH  22  25
ATOM     25  C   UNL A   1      39.974  23.578  27.245  1.00  0.00     0.039 A 
ATOM     26  C   UNL A   1      39.009  24.576  27.111  1.00  0.00     0.014 A 
ATOM     27  C   UNL A   1      41.148  23.877  27.966  1.00  0.00     0.014 A 
ATOM     28  C   UNL A   1      39.243  25.853  27.629  1.00  0.00     0.010 A 
ATOM     29  C   UNL A   1      41.383  25.145  28.490  1.00  0.00     0.010 A 
ATOM     30  C   UNL A   1      40.445  26.149  28.286  1.00  0.00    -0.014 A 
BRANCH  30  31
ATOM     31  C   UNL A   1      40.637  27.501  28.816  1.00  0.00     0.031 A 
ATOM     32  C   UNL A   1      41.814  28.240  28.273  1.00  0.00     0.074 A 
ATOM     33  C   UNL A   1      39.777  28.124  29.647  1.00  0.00     0.049 A 
ATOM     34  N   UNL A   1      42.876  28.626  28.903  1.00  0.00    -0.248 NA
ATOM     35  C   UNL A   1      41.855  28.484  26.825  1.00  0.00     0.031 C 
ATOM     36  C   UNL A   1      38.423  27.713  30.024  1.00  0.00     0.029 A 
ATOM     37  N   UNL A   1      39.910  29.336  30.260  1.00  0.00    -0.354 N 
ATOM     38  C   UNL A   1      43.653  29.320  27.972  1.00  0.00     0.074 A 
ATOM     39  C   UNL A   1      43.043  29.076  26.688  1.00  0.00     0.031 C 
ATOM     40  C   UNL A   1      37.784  28.757  30.601  1.00  0.00     0.029 A 
ATOM     41  C   UNL A   1      38.726  29.851  30.771  1.00  0.00     0.049 A 
ATOM     42  H   UNL A   1      40.772  29.806  30.333  1.00  0.00     0.167 HD
ATOM     43  C   UNL A   1      44.643  30.181  28.349  1.00  0.00     0.034 A 
ATOM     44  C   UNL A   1      38.515  31.112  31.228  1.00  0.00     0.034 A 
ATOM     45  C   UNL A   1      44.984  30.010  29.735  1.00  0.00     0.049 A 
ATOM     46  C   UNL A   1      39.829  31.722  31.541  1.00  0.00     0.074 A 
ATOM     47  C   UNL A   1      45.499  28.976  30.490  1.00  0.00     0.029 A 
ATOM     48  N   UNL A   1      44.481  30.916  30.635  1.00  0.00    -0.354 N 
ATOM     49  N   UNL A   1      40.585  31.369  32.540  1.00  0.00    -0.248 NA
ATOM     50  C   UNL A   1      40.497  32.458  30.479  1.00  0.00     0.031 C 
ATOM     51  C   UNL A   1      44.843  29.081  31.749  1.00  0.00     0.029 A 
ATOM     52  C   UNL A   1      44.014  30.203  31.707  1.00  0.00     0.049 A 
ATOM     53  H   UNL A   1      44.458  31.895  30.530  1.00  0.00     0.167 HD
ATOM     54  C   UNL A   1      41.871  31.410  32.026  1.00  0.00     0.074 A 
ATOM     55  C   UNL A   1      41.765  32.192  30.795  1.00  0.00     0.031 C 
ATOM     56  C   UNL A   1      42.848  30.573  32.482  1.00  0.00     0.034 A 
BRANCH  43  57
ATOM     57  C   UNL A   1      45.091  31.391  27.557  1.00  0.00     0.023 A 
ATOM     58  C   UNL A   1      44.314  32.555  27.431  1.00  0.00     0.031 A 
ATOM     59  C   UNL A   1      46.424  31.493  27.099  1.00  0.00     0.131 A 
ATOM     60  C   UNL A   1      44.841  33.737  26.890  1.00  0.00     0.055 A 
ATOM     61  C   UNL A   1      46.970  32.691  26.621  1.00  0.00     0.041 A 
ATOM     62  F   UNL A   1      47.262  30.445  27.160  1.00  0.00    -0.206 F 
ATOM     63  C   UNL A   1      46.178  33.825  26.519  1.00  0.00     0.022 A 
BRANCH  60  64
ATOM     64  S   UNL A   1      43.782  35.195  26.684  1.00  0.00     0.124 S 
ATOM     65  O   UNL A   1      43.098  34.891  25.427  1.00  0.00    -0.237 OA
ATOM     66  O   UNL A   1      42.949  35.124  27.886  1.00  0.00    -0.237 OA
ATOM     67  O   UNL A   1      44.723  36.300  26.647  1.00  0.00    -0.744 OA
ENDBRANCH  60  64
ENDBRANCH  43  57
BRANCH  44  68
ATOM     68  C   UNL A   1      37.327  31.955  30.958  1.00  0.00     0.023 A 
ATOM     69  C   UNL A   1      36.653  32.564  32.032  1.00  0.00     0.031 A 
ATOM     70  C   UNL A   1      36.657  31.898  29.723  1.00  0.00     0.131 A 
ATOM     71  C   UNL A   1      35.340  33.028  31.877  1.00  0.00     0.055 A 
ATOM     72  C   UNL A   1      35.352  32.380  29.565  1.00  0.00     0.041 A 
ATOM     73  F   UNL A   1      37.228  31.301  28.665  1.00  0.00    -0.206 F 
ATOM     74  C   UNL A   1      34.680  32.934  30.652  1.00  0.00     0.022 A 
BRANCH  71  75
ATOM     75  S   UNL A   1      34.434  33.678  33.308  1.00  0.00     0.124 S 
ATOM     76  O   UNL A   1      35.268  33.241  34.426  1.00  0.00    -0.237 OA
ATOM     77  O   UNL A   1      34.443  35.110  33.037  1.00  0.00    -0.237 OA
ATOM     78  O   UNL A   1      33.134  33.019  33.215  1.00  0.00    -0.744 OA
ENDBRANCH  71  75
ENDBRANCH  44  68
BRANCH  56  79
ATOM     79  C   UNL A   1      42.607  29.761  33.736  1.00  0.00     0.023 A 
ATOM     80  C   UNL A   1      43.205  30.230  34.920  1.00  0.00     0.031 A 
ATOM     81  C   UNL A   1      42.048  28.469  33.759  1.00  0.00     0.131 A 
ATOM     82  C   UNL A   1      43.284  29.408  36.048  1.00  0.00     0.055 A 
ATOM     83  C   UNL A   1      42.057  27.682  34.915  1.00  0.00     0.041 A 
ATOM     84  F   UNL A   1      41.563  27.892  32.652  1.00  0.00    -0.206 F 
ATOM     85  C   UNL A   1      42.696  28.140  36.061  1.00  0.00     0.022 A 
BRANCH  82  86
ATOM     86  S   UNL A   1      44.311  29.893  37.459  1.00  0.00     0.124 S 
ATOM     87  O   UNL A   1      44.570  28.611  38.108  1.00  0.00    -0.237 OA
ATOM     88  O   UNL A   1      45.465  30.507  36.805  1.00  0.00    -0.237 OA
ATOM     89  O   UNL A   1      43.467  30.815  38.212  1.00  0.00    -0.744 OA
ENDBRANCH  82  86
ENDBRANCH  56  79
ENDBRANCH  30  31
ENDBRANCH  22  25
ENDBRANCH   1  21
TORSDOF 14
ENDMDL
MODEL 3
REMARK VINA RESULT:     -12.1      5.188     11.321
REMARK SMILES Nc1ccc2[nH]cc(C(=O)NCCCNC(=O)c3ccc(-c4c5nc(c(-c6cc(S(=O)(=O)[O-])ccc6F)c6ccc([nH]6)c(-c6cc(S(=O)(=O)[O-])ccc6F)c6nc(c(-c7cc(S(=O)(=O)[O-])ccc7F)c7ccc4[nH]7)C=C6)C=C5)cc3)c2c1
REMARK SMILES IDX 14 1 13 2 12 3 11 4 9 5 10 6 8 8 2 9 3 10 82 11 4 12 81 13
REMARK SMILES IDX 5 14 6 15 7 16 1 18 15 21 16 22 17 24 18 25 19 26 80 27
REMARK SMILES IDX 20 28 79 29 21 30 22 31 23 32 73 33 24 34 78 35 72 36 74 37
REMARK SMILES IDX 25 38 77 39 71 40 70 41 26 43 58 44 38 45 57 46 39 47 42 48
REMARK SMILES IDX 56 49 75 50 40 51 41 52 55 54 76 55 43 56 27 57 28 58 36 59
REMARK SMILES IDX 29 60 35 61 37 62 34 63 30 64 31 65 32 66 33 67 59 68 60 69
REMARK SMILES IDX 68 70 61 71 67 72 69 73 66 74 62 75 63 76 64 77 65 78 44 79
REMARK SMILES IDX 45 80 53 81 46 82 52 83 54 84 51 85 47 86 48 87 49 88 50 89
REMARK H PARENT 11 7 6 17 1 19 1 20 15 23 74 42 42 53
REMARK Flexibility Score: inf
ROOT
ATOM      1  C   UNL A   1      34.547  32.862  30.875  1.00  0.00     0.118 C 
ENDROOT
BRANCH   1   2
ATOM      2  C   UNL A   1      35.067  33.820  31.952  1.00  0.00     0.042 C 
BRANCH   2   3
ATOM      3  C   UNL A   1      36.152  33.198  32.843  1.00  0.00     0.118 C 
BRANCH   3   4
ATOM      4  N   UNL A   1      36.369  31.803  32.560  1.00  0.00    -0.352 N 
ATOM      5  C   UNL A   1      37.188  30.846  33.088  1.00  0.00     0.253 C 
ATOM      6  O   UNL A   1      36.892  29.698  32.724  1.00  0.00    -0.269 OA
ATOM      7  H   UNL A   1      35.805  31.466  31.827  1.00  0.00     0.163 HD
BRANCH   5   8
ATOM      8  C   UNL A   1      38.342  31.056  33.982  1.00  0.00     0.065 A 
ATOM      9  C   UNL A   1      41.734  32.880  33.318  1.00  0.00     0.032 A 
ATOM     10  C   UNL A   1      42.299  32.557  34.542  1.00  0.00     0.027 A 
ATOM     11  C   UNL A   1      40.421  32.463  33.038  1.00  0.00     0.036 A 
ATOM     12  C   UNL A   1      41.594  31.809  35.482  1.00  0.00     0.029 A 
ATOM     13  C   UNL A   1      39.652  31.689  33.945  1.00  0.00     0.014 A 
ATOM     14  C   UNL A   1      40.291  31.403  35.163  1.00  0.00     0.046 A 
ATOM     15  N   UNL A   1      39.422  30.680  35.932  1.00  0.00    -0.360 N 
ATOM     16  C   UNL A   1      38.267  30.476  35.250  1.00  0.00     0.097 A 
ATOM     17  H   UNL A   1      39.607  30.354  36.842  1.00  0.00     0.166 HD
BRANCH   9  18
ATOM     18  N   UNL A   1      42.411  33.707  32.432  1.00  0.00    -0.399 N 
ATOM     19  H   UNL A   1      43.325  33.480  32.148  1.00  0.00     0.156 HD
ATOM     20  H   UNL A   1      41.975  34.521  32.089  1.00  0.00     0.156 HD
ENDBRANCH   9  18
ENDBRANCH   5   8
ENDBRANCH   3   4
ENDBRANCH   2   3
ENDBRANCH   1   2
BRANCH   1  21
ATOM     21  N   UNL A   1      34.958  33.241  29.535  1.00  0.00    -0.352 N 
ATOM     22  C   UNL A   1      35.998  32.959  28.697  1.00  0.00     0.251 C 
ATOM     23  H   UNL A   1      34.318  33.866  29.123  1.00  0.00     0.163 HD
ATOM     24  O   UNL A   1      35.968  33.559  27.618  1.00  0.00    -0.269 OA
BRANCH  22  25
ATOM     25  C   UNL A   1      37.141  32.045  28.977  1.00  0.00     0.039 A 
ATOM     26  C   UNL A   1      38.303  32.370  29.675  1.00  0.00     0.014 A 
ATOM     27  C   UNL A   1      37.019  30.742  28.450  1.00  0.00     0.014 A 
ATOM     28  C   UNL A   1      39.339  31.438  29.786  1.00  0.00     0.010 A 
ATOM     29  C   UNL A   1      38.045  29.809  28.564  1.00  0.00     0.010 A 
ATOM     30  C   UNL A   1      39.226  30.170  29.200  1.00  0.00    -0.014 A 
BRANCH  30  31
ATOM     31  C   UNL A   1      40.337  29.229  29.352  1.00  0.00     0.031 A 
ATOM     32  C   UNL A   1      40.642  28.818  30.753  1.00  0.00     0.074 A 
ATOM     33  C   UNL A   1      40.997  28.655  28.324  1.00  0.00     0.049 A 
ATOM     34  N   UNL A   1      41.707  29.063  31.446  1.00  0.00    -0.248 NA
ATOM     35  C   UNL A   1      39.580  28.140  31.509  1.00  0.00     0.031 C 
ATOM     36  C   UNL A   1      40.643  28.661  26.904  1.00  0.00     0.029 A 
ATOM     37  N   UNL A   1      42.093  27.842  28.363  1.00  0.00    -0.354 N 
ATOM     38  C   UNL A   1      41.531  28.422  32.674  1.00  0.00     0.074 A 
ATOM     39  C   UNL A   1      40.153  27.996  32.705  1.00  0.00     0.031 C 
ATOM     40  C   UNL A   1      41.361  27.712  26.260  1.00  0.00     0.029 A 
ATOM     41  C   UNL A   1      42.327  27.143  27.186  1.00  0.00     0.049 A 
ATOM     42  H   UNL A   1      42.669  27.759  29.156  1.00  0.00     0.167 HD
ATOM     43  C   UNL A   1      42.578  28.142  33.504  1.00  0.00     0.034 A 
ATOM     44  C   UNL A   1      43.196  26.116  27.007  1.00  0.00     0.034 A 
ATOM     45  C   UNL A   1      43.757  28.869  33.122  1.00  0.00     0.049 A 
ATOM     46  C   UNL A   1      44.192  26.148  28.105  1.00  0.00     0.074 A 
ATOM     47  C   UNL A   1      44.091  30.205  33.037  1.00  0.00     0.029 A 
ATOM     48  N   UNL A   1      44.726  28.195  32.421  1.00  0.00    -0.354 N 
ATOM     49  N   UNL A   1      45.118  27.054  28.231  1.00  0.00    -0.248 NA
ATOM     50  C   UNL A   1      43.888  25.388  29.308  1.00  0.00     0.031 C 
ATOM     51  C   UNL A   1      44.939  30.298  31.897  1.00  0.00     0.029 A 
ATOM     52  C   UNL A   1      45.119  29.009  31.391  1.00  0.00     0.049 A 
ATOM     53  H   UNL A   1      45.074  27.296  32.619  1.00  0.00     0.167 HD
ATOM     54  C   UNL A   1      45.168  27.302  29.593  1.00  0.00     0.074 A 
ATOM     55  C   UNL A   1      44.475  26.173  30.212  1.00  0.00     0.031 C 
ATOM     56  C   UNL A   1      45.509  28.530  30.082  1.00  0.00     0.034 A 
BRANCH  43  57
ATOM     57  C   UNL A   1      42.633  26.979  34.472  1.00  0.00     0.023 A 
ATOM     58  C   UNL A   1      43.391  25.819  34.236  1.00  0.00     0.031 A 
ATOM     59  C   UNL A   1      42.105  27.108  35.777  1.00  0.00     0.131 A 
ATOM     60  C   UNL A   1      43.607  24.864  35.239  1.00  0.00     0.055 A 
ATOM     61  C   UNL A   1      42.376  26.188  36.798  1.00  0.00     0.041 A 
ATOM     62  F   UNL A   1      41.358  28.169  36.122  1.00  0.00    -0.206 F 
ATOM     63  C   UNL A   1      43.136  25.059  36.533  1.00  0.00     0.022 A 
BRANCH  60  64
ATOM     64  S   UNL A   1      44.535  23.350  34.869  1.00  0.00     0.124 S 
ATOM     65  O   UNL A   1      45.708  23.882  34.173  1.00  0.00    -0.237 OA
ATOM     66  O   UNL A   1      44.786  22.824  36.211  1.00  0.00    -0.237 OA
ATOM     67  O   UNL A   1      43.614  22.571  34.061  1.00  0.00    -0.744 OA
ENDBRANCH  60  64
ENDBRANCH  43  57
BRANCH  44  68
ATOM     68  C   UNL A   1      42.936  24.868  26.249  1.00  0.00     0.023 A 
ATOM     69  C   UNL A   1      41.868  24.037  26.631  1.00  0.00     0.031 A 
ATOM     70  C   UNL A   1      43.904  24.323  25.388  1.00  0.00     0.131 A 
ATOM     71  C   UNL A   1      41.824  22.699  26.216  1.00  0.00     0.055 A 
ATOM     72  C   UNL A   1      43.848  22.992  24.958  1.00  0.00     0.041 A 
ATOM     73  F   UNL A   1      44.968  25.051  25.010  1.00  0.00    -0.206 F 
ATOM     74  C   UNL A   1      42.811  22.167  25.387  1.00  0.00     0.022 A 
BRANCH  71  75
ATOM     75  S   UNL A   1      40.520  21.602  26.835  1.00  0.00     0.124 S 
ATOM     76  O   UNL A   1      40.807  21.557  28.267  1.00  0.00    -0.237 OA
ATOM     77  O   UNL A   1      39.316  22.331  26.457  1.00  0.00    -0.237 OA
ATOM     78  O   UNL A   1      40.759  20.352  26.120  1.00  0.00    -0.744 OA
ENDBRANCH  71  75
ENDBRANCH  44  68
BRANCH  56  79
ATOM     79  C   UNL A   1      46.086  29.569  29.146  1.00  0.00     0.023 A 
ATOM     80  C   UNL A   1      45.169  30.410  28.489  1.00  0.00     0.031 A 
ATOM     81  C   UNL A   1      47.422  29.595  28.703  1.00  0.00     0.131 A 
ATOM     82  C   UNL A   1      45.576  31.191  27.402  1.00  0.00     0.055 A 
ATOM     83  C   UNL A   1      47.841  30.439  27.669  1.00  0.00     0.041 A 
ATOM     84  F   UNL A   1      48.340  28.747  29.185  1.00  0.00    -0.206 F 
ATOM     85  C   UNL A   1      46.912  31.226  26.998  1.00  0.00     0.022 A 
BRANCH  82  86
ATOM     86  S   UNL A   1      44.345  32.034  26.376  1.00  0.00     0.124 S 
ATOM     87  O   UNL A   1      45.141  32.463  25.230  1.00  0.00    -0.237 OA
ATOM     88  O   UNL A   1      43.384  30.965  26.104  1.00  0.00    -0.237 OA
ATOM     89  O   UNL A   1      43.846  33.108  27.228  1.00  0.00    -0.744 OA
ENDBRANCH  82  86
ENDBRANCH  56  79
ENDBRANCH  30  31
ENDBRANCH  22  25
ENDBRANCH   1  21
TORSDOF 14
ENDMDL
