MODEL 1
REMARK VINA RESULT:     -12.9      0.000      0.000
REMARK SMILES CCCc1cc(S(F)(F)(F)(F)F)cc2c1O[C@@H](C(F)(F)F)C(C(=O)NCCCNC(=O)c1ccc(-c3c4nc(c(-c5cc(S(=O)(=O)[O-])ccc5F)c5ccc([nH]5)c(-c5cc(S(=O)(=O)[O-])ccc5F)c5nc(c(-c6cc(S(=O)(=O)[O-])ccc6F)c6ccc3[nH]6)C=C5)C=C4)cc1)=C2
REMARK SMILES IDX 27 1 26 2 25 3 23 4 24 5 22 7 4 8 5 9 15 10 6 11 14 12 16 13
REMARK SMILES IDX 13 14 95 15 17 16 3 17 2 18 1 19 7 20 8 21 9 22 10 23 11 24
REMARK SMILES IDX 12 25 18 26 19 27 20 28 21 29 28 30 29 31 30 32 31 34 32 35
REMARK SMILES IDX 33 36 94 37 34 38 93 39 35 40 36 41 37 42 87 43 38 44 92 45
REMARK SMILES IDX 86 46 88 47 39 48 91 49 85 50 84 51 40 53 72 54 52 55 71 56
REMARK SMILES IDX 53 57 56 58 70 59 89 60 54 61 55 62 69 64 90 65 57 66 41 67
REMARK SMILES IDX 42 68 50 69 43 70 49 71 51 72 48 73 44 74 45 75 46 76 47 77
REMARK SMILES IDX 73 78 74 79 82 80 75 81 81 82 83 83 80 84 76 85 77 86 78 87
REMARK SMILES IDX 79 88 58 89 59 90 67 91 60 92 66 93 68 94 65 95 61 96 62 97
REMARK SMILES IDX 63 98 64 99
REMARK H PARENT 25 6 29 33 88 52 56 63
REMARK Flexibility Score: inf
ROOT
ATOM      1  C   UNL A   1      36.803  22.154  23.849  1.00  0.00     0.042 C 
ENDROOT
BRANCH   1   2
ATOM      2  C   UNL A   1      35.438  22.797  23.672  1.00  0.00     0.118 C 
BRANCH   2   3
ATOM      3  N   UNL A   1      34.398  21.758  23.713  1.00  0.00    -0.352 N 
ATOM      4  C   UNL A   1      33.028  22.105  24.118  1.00  0.00     0.251 C 
ATOM      5  O   UNL A   1      32.129  21.207  24.153  1.00  0.00    -0.270 OA
ATOM      6  H   UNL A   1      34.619  20.830  23.470  1.00  0.00     0.163 HD
BRANCH   4   7
ATOM      7  C   UNL A   1      32.686  23.537  24.493  1.00  0.00     0.067 C 
ATOM      8  C   UNL A   1      31.342  27.280  25.772  1.00  0.00    -0.004 A 
ATOM      9  C   UNL A   1      30.876  28.198  24.848  1.00  0.00     0.032 A 
ATOM     10  C   UNL A   1      31.728  26.038  25.330  1.00  0.00     0.131 A 
ATOM     11  C   UNL A   1      30.794  27.880  23.518  1.00  0.00     0.108 A 
ATOM     12  C   UNL A   1      31.676  25.688  23.993  1.00  0.00     0.019 A 
ATOM     13  O   UNL A   1      32.081  25.101  26.271  1.00  0.00    -0.475 OA
ATOM     14  C   UNL A   1      31.199  26.632  23.091  1.00  0.00     0.036 A 
ATOM     15  C   UNL A   1      32.070  24.336  23.632  1.00  0.00     0.025 C 
ATOM     16  C   UNL A   1      33.045  24.088  25.868  1.00  0.00     0.314 C 
BRANCH   8  17
ATOM     17  C   UNL A   1      31.426  27.639  27.246  1.00  0.00     0.039 C 
BRANCH  17  18
ATOM     18  C   UNL A   1      32.232  28.916  27.411  1.00  0.00     0.001 C 
ATOM     19  C   UNL A   1      33.706  28.617  27.193  1.00  0.00     0.004 C 
ENDBRANCH  17  18
ENDBRANCH   8  17
BRANCH  11  20
ATOM     20  S   UNL A   1      30.158  29.088  22.329  1.00  0.00     0.310 S 
ATOM     21  F   UNL A   1      29.974  30.191  23.454  1.00  0.00    -0.094 F 
ATOM     22  F   UNL A   1      28.697  28.603  22.661  1.00  0.00    -0.094 F 
ATOM     23  F   UNL A   1      29.612  30.125  21.308  1.00  0.00    -0.094 F 
ATOM     24  F   UNL A   1      31.616  29.655  22.114  1.00  0.00    -0.094 F 
ATOM     25  F   UNL A   1      30.716  28.118  23.446  1.00  0.00    -0.094 F 
ENDBRANCH  11  20
BRANCH  16  26
ATOM     26  C   UNL A   1      33.021  22.952  26.878  1.00  0.00     0.429 C 
ATOM     27  F   UNL A   1      33.993  22.088  26.597  1.00  0.00    -0.167 F 
ATOM     28  F   UNL A   1      33.204  23.443  28.101  1.00  0.00    -0.167 F 
ATOM     29  F   UNL A   1      31.846  22.332  26.821  1.00  0.00    -0.167 F 
ENDBRANCH  16  26
ENDBRANCH   4   7
ENDBRANCH   2   3
ENDBRANCH   1   2
BRANCH   1  30
ATOM     30  C   UNL A   1      36.909  21.568  25.248  1.00  0.00     0.118 C 
BRANCH  30  31
ATOM     31  N   UNL A   1      37.666  20.310  25.195  1.00  0.00    -0.352 N 
ATOM     32  C   UNL A   1      39.032  20.250  25.736  1.00  0.00     0.251 C 
ATOM     33  H   UNL A   1      37.258  19.505  24.799  1.00  0.00     0.163 HD
ATOM     34  O   UNL A   1      39.687  19.162  25.690  1.00  0.00    -0.269 OA
BRANCH  32  35
ATOM     35  C   UNL A   1      39.662  21.491  26.347  1.00  0.00     0.039 A 
ATOM     36  C   UNL A   1      40.676  21.424  27.288  1.00  0.00     0.014 A 
ATOM     37  C   UNL A   1      39.283  22.650  25.824  1.00  0.00     0.014 A 
ATOM     38  C   UNL A   1      41.037  22.680  27.831  1.00  0.00     0.010 A 
ATOM     39  C   UNL A   1      39.780  23.834  26.313  1.00  0.00     0.010 A 
ATOM     40  C   UNL A   1      40.741  23.846  27.284  1.00  0.00    -0.014 A 
BRANCH  40  41
ATOM     41  C   UNL A   1      41.432  25.130  27.713  1.00  0.00     0.031 A 
ATOM     42  C   UNL A   1      40.649  26.046  28.416  1.00  0.00     0.074 A 
ATOM     43  C   UNL A   1      42.721  25.385  27.279  1.00  0.00     0.049 A 
ATOM     44  N   UNL A   1      40.992  27.273  28.813  1.00  0.00    -0.248 NA
ATOM     45  C   UNL A   1      39.268  25.790  28.850  1.00  0.00     0.031 C 
ATOM     46  C   UNL A   1      43.521  24.462  26.576  1.00  0.00     0.029 A 
ATOM     47  N   UNL A   1      43.452  26.542  27.435  1.00  0.00    -0.354 N 
ATOM     48  C   UNL A   1      39.983  27.842  29.477  1.00  0.00     0.074 A 
ATOM     49  C   UNL A   1      38.857  26.898  29.504  1.00  0.00     0.031 C 
ATOM     50  C   UNL A   1      44.711  25.058  26.303  1.00  0.00     0.029 A 
ATOM     51  C   UNL A   1      44.677  26.363  26.832  1.00  0.00     0.049 A 
ATOM     52  H   UNL A   1      43.151  27.357  27.898  1.00  0.00     0.167 HD
ATOM     53  C   UNL A   1      39.958  29.109  30.062  1.00  0.00     0.034 A 
ATOM     54  C   UNL A   1      45.718  27.273  26.734  1.00  0.00     0.034 A 
ATOM     55  C   UNL A   1      41.015  30.003  30.002  1.00  0.00     0.049 A 
ATOM     56  C   UNL A   1      45.671  28.563  27.269  1.00  0.00     0.074 A 
ATOM     57  C   UNL A   1      41.010  31.281  30.593  1.00  0.00     0.029 A 
ATOM     58  N   UNL A   1      42.231  29.833  29.376  1.00  0.00    -0.354 N 
ATOM     59  N   UNL A   1      44.677  29.117  27.966  1.00  0.00    -0.248 NA
ATOM     60  C   UNL A   1      46.754  29.547  27.143  1.00  0.00     0.031 C 
ATOM     61  C   UNL A   1      42.201  31.878  30.320  1.00  0.00     0.029 A 
ATOM     62  C   UNL A   1      42.970  30.982  29.554  1.00  0.00     0.049 A 
ATOM     63  H   UNL A   1      42.520  29.029  28.887  1.00  0.00     0.167 HD
ATOM     64  C   UNL A   1      45.005  30.358  28.327  1.00  0.00     0.074 A 
ATOM     65  C   UNL A   1      46.343  30.656  27.797  1.00  0.00     0.031 C 
ATOM     66  C   UNL A   1      44.245  31.254  29.080  1.00  0.00     0.034 A 
BRANCH  53  67
ATOM     67  C   UNL A   1      38.702  29.531  30.806  1.00  0.00     0.023 A 
ATOM     68  C   UNL A   1      37.696  30.182  30.112  1.00  0.00     0.031 A 
ATOM     69  C   UNL A   1      38.589  29.274  32.103  1.00  0.00     0.131 A 
ATOM     70  C   UNL A   1      36.722  30.784  30.944  1.00  0.00     0.055 A 
ATOM     71  C   UNL A   1      37.538  29.782  32.828  1.00  0.00     0.041 A 
ATOM     72  F   UNL A   1      39.501  28.517  32.707  1.00  0.00    -0.206 F 
ATOM     73  C   UNL A   1      36.538  30.485  32.218  1.00  0.00     0.022 A 
BRANCH  70  74
ATOM     74  S   UNL A   1      35.657  32.051  30.213  1.00  0.00     0.124 S 
ATOM     75  O   UNL A   1      35.083  31.535  28.890  1.00  0.00    -0.237 OA
ATOM     76  O   UNL A   1      34.511  32.371  31.175  1.00  0.00    -0.237 OA
ATOM     77  O   UNL A   1      36.570  33.468  29.924  1.00  0.00    -0.744 OA
ENDBRANCH  70  74
ENDBRANCH  53  67
BRANCH  54  78
ATOM     78  C   UNL A   1      46.980  26.845  26.003  1.00  0.00     0.023 A 
ATOM     79  C   UNL A   1      47.911  26.063  26.668  1.00  0.00     0.031 A 
ATOM     80  C   UNL A   1      47.170  27.222  24.745  1.00  0.00     0.131 A 
ATOM     81  C   UNL A   1      49.158  25.971  26.005  1.00  0.00     0.055 A 
ATOM     82  C   UNL A   1      48.366  26.980  24.115  1.00  0.00     0.041 A 
ATOM     83  F   UNL A   1      46.194  27.843  24.088  1.00  0.00    -0.206 F 
ATOM     84  C   UNL A   1      49.354  26.265  24.734  1.00  0.00     0.022 A 
BRANCH  81  85
ATOM     85  S   UNL A   1      50.584  25.412  26.970  1.00  0.00     0.124 S 
ATOM     86  O   UNL A   1      50.145  24.311  27.938  1.00  0.00    -0.237 OA
ATOM     87  O   UNL A   1      51.655  24.863  26.025  1.00  0.00    -0.237 OA
ATOM     88  O   UNL A   1      51.225  26.727  27.855  1.00  0.00    -0.744 OA
ENDBRANCH  81  85
ENDBRANCH  54  78
BRANCH  66  89
ATOM     89  C   UNL A   1      44.850  32.610  29.402  1.00  0.00     0.023 A 
ATOM     90  C   UNL A   1      44.650  33.703  28.574  1.00  0.00     0.031 A 
ATOM     91  C   UNL A   1      45.492  32.731  30.557  1.00  0.00     0.131 A 
ATOM     92  C   UNL A   1      45.426  34.834  28.920  1.00  0.00     0.055 A 
ATOM     93  C   UNL A   1      46.113  33.910  30.893  1.00  0.00     0.041 A 
ATOM     94  F   UNL A   1      45.536  31.701  31.398  1.00  0.00    -0.206 F 
ATOM     95  C   UNL A   1      46.008  35.013  30.093  1.00  0.00     0.022 A 
BRANCH  92  96
ATOM     96  S   UNL A   1      45.635  36.127  27.670  1.00  0.00     0.124 S 
ATOM     97  O   UNL A   1      46.861  36.976  28.014  1.00  0.00    -0.237 OA
ATOM     98  O   UNL A   1      45.831  35.481  26.296  1.00  0.00    -0.237 OA
ATOM     99  O   UNL A   1      44.245  37.121  27.640  1.00  0.00    -0.744 OA
ENDBRANCH  92  96
ENDBRANCH  66  89
ENDBRANCH  40  41
ENDBRANCH  32  35
ENDBRANCH  30  31
ENDBRANCH   1  30
TORSDOF 17
ENDMDL
MODEL 2
REMARK VINA RESULT:     -12.7      1.805      2.094
REMARK SMILES CCCc1cc(S(F)(F)(F)(F)F)cc2c1O[C@@H](C(F)(F)F)C(C(=O)NCCCNC(=O)c1ccc(-c3c4nc(c(-c5cc(S(=O)(=O)[O-])ccc5F)c5ccc([nH]5)c(-c5cc(S(=O)(=O)[O-])ccc5F)c5nc(c(-c6cc(S(=O)(=O)[O-])ccc6F)c6ccc3[nH]6)C=C5)C=C4)cc1)=C2
REMARK SMILES IDX 27 1 26 2 25 3 23 4 24 5 22 7 4 8 5 9 15 10 6 11 14 12 16 13
REMARK SMILES IDX 13 14 95 15 17 16 3 17 2 18 1 19 7 20 8 21 9 22 10 23 11 24
REMARK SMILES IDX 12 25 18 26 19 27 20 28 21 29 28 30 29 31 30 32 31 34 32 35
REMARK SMILES IDX 33 36 94 37 34 38 93 39 35 40 36 41 37 42 87 43 38 44 92 45
REMARK SMILES IDX 86 46 88 47 39 48 91 49 85 50 84 51 40 53 72 54 52 55 71 56
REMARK SMILES IDX 53 57 56 58 70 59 89 60 54 61 55 62 69 64 90 65 57 66 41 67
REMARK SMILES IDX 42 68 50 69 43 70 49 71 51 72 48 73 44 74 45 75 46 76 47 77
REMARK SMILES IDX 73 78 74 79 82 80 75 81 81 82 83 83 80 84 76 85 77 86 78 87
REMARK SMILES IDX 79 88 58 89 59 90 67 91 60 92 66 93 68 94 65 95 61 96 62 97
REMARK SMILES IDX 63 98 64 99
REMARK H PARENT 25 6 29 33 88 52 56 63
REMARK Flexibility Score: inf
ROOT
ATOM      1  C   UNL A   1      36.879  22.007  23.956  1.00  0.00     0.042 C 
ENDROOT
BRANCH   1   2
ATOM      2  C   UNL A   1      35.515  22.674  23.895  1.00  0.00     0.118 C 
BRANCH   2   3
ATOM      3  N   UNL A   1      34.464  21.647  23.943  1.00  0.00    -0.352 N 
ATOM      4  C   UNL A   1      33.095  22.014  24.330  1.00  0.00     0.251 C 
ATOM      5  O   UNL A   1      32.186  21.126  24.371  1.00  0.00    -0.270 OA
ATOM      6  H   UNL A   1      34.678  20.713  23.717  1.00  0.00     0.163 HD
BRANCH   4   7
ATOM      7  C   UNL A   1      32.764  23.456  24.680  1.00  0.00     0.067 C 
ATOM      8  C   UNL A   1      31.451  27.231  25.893  1.00  0.00    -0.004 A 
ATOM      9  C   UNL A   1      30.987  28.135  24.954  1.00  0.00     0.032 A 
ATOM     10  C   UNL A   1      31.827  25.978  25.473  1.00  0.00     0.131 A 
ATOM     11  C   UNL A   1      30.896  27.792  23.632  1.00  0.00     0.108 A 
ATOM     12  C   UNL A   1      31.766  25.603  24.143  1.00  0.00     0.019 A 
ATOM     13  O   UNL A   1      32.179  25.057  26.430  1.00  0.00    -0.475 OA
ATOM     14  C   UNL A   1      31.291  26.534  23.226  1.00  0.00     0.036 A 
ATOM     15  C   UNL A   1      32.149  24.242  23.807  1.00  0.00     0.025 C 
ATOM     16  C   UNL A   1      33.134  24.030  26.042  1.00  0.00     0.314 C 
BRANCH   8  17
ATOM     17  C   UNL A   1      31.545  27.618  27.360  1.00  0.00     0.039 C 
BRANCH  17  18
ATOM     18  C   UNL A   1      32.298  28.931  27.491  1.00  0.00     0.001 C 
ATOM     19  C   UNL A   1      33.780  28.693  27.250  1.00  0.00     0.004 C 
ENDBRANCH  17  18
ENDBRANCH   8  17
BRANCH  11  20
ATOM     20  S   UNL A   1      30.263  28.981  22.423  1.00  0.00     0.310 S 
ATOM     21  F   UNL A   1      30.095  30.108  23.527  1.00  0.00    -0.094 F 
ATOM     22  F   UNL A   1      28.799  28.516  22.775  1.00  0.00    -0.094 F 
ATOM     23  F   UNL A   1      29.718  30.003  21.385  1.00  0.00    -0.094 F 
ATOM     24  F   UNL A   1      31.724  29.531  22.186  1.00  0.00    -0.094 F 
ATOM     25  F   UNL A   1      30.820  28.029  23.555  1.00  0.00    -0.094 F 
ENDBRANCH  11  20
BRANCH  16  26
ATOM     26  C   UNL A   1      33.107  22.913  27.074  1.00  0.00     0.429 C 
ATOM     27  F   UNL A   1      31.931  22.294  27.027  1.00  0.00    -0.167 F 
ATOM     28  F   UNL A   1      34.077  22.043  26.808  1.00  0.00    -0.167 F 
ATOM     29  F   UNL A   1      33.292  23.426  28.287  1.00  0.00    -0.167 F 
ENDBRANCH  16  26
ENDBRANCH   4   7
ENDBRANCH   2   3
ENDBRANCH   1   2
BRANCH   1  30
ATOM     30  C   UNL A   1      37.142  21.519  25.371  1.00  0.00     0.118 C 
BRANCH  30  31
ATOM     31  N   UNL A   1      37.974  20.309  25.326  1.00  0.00    -0.352 N 
ATOM     32  C   UNL A   1      39.346  20.339  25.851  1.00  0.00     0.251 C 
ATOM     33  H   UNL A   1      37.611  19.476  24.945  1.00  0.00     0.163 HD
ATOM     34  O   UNL A   1      40.067  19.293  25.812  1.00  0.00    -0.269 OA
BRANCH  32  35
ATOM     35  C   UNL A   1      39.905  21.624  26.440  1.00  0.00     0.039 A 
ATOM     36  C   UNL A   1      40.840  21.630  27.463  1.00  0.00     0.014 A 
ATOM     37  C   UNL A   1      39.553  22.746  25.823  1.00  0.00     0.014 A 
ATOM     38  C   UNL A   1      41.137  22.920  27.961  1.00  0.00     0.010 A 
ATOM     39  C   UNL A   1      39.991  23.964  26.283  1.00  0.00     0.010 A 
ATOM     40  C   UNL A   1      40.869  24.048  27.326  1.00  0.00    -0.014 A 
BRANCH  40  41
ATOM     41  C   UNL A   1      41.504  25.367  27.736  1.00  0.00     0.031 A 
ATOM     42  C   UNL A   1      40.682  26.258  28.428  1.00  0.00     0.074 A 
ATOM     43  C   UNL A   1      42.779  25.673  27.295  1.00  0.00     0.049 A 
ATOM     44  N   UNL A   1      40.972  27.504  28.807  1.00  0.00    -0.248 NA
ATOM     45  C   UNL A   1      39.314  25.947  28.868  1.00  0.00     0.031 C 
ATOM     46  C   UNL A   1      43.618  24.777  26.604  1.00  0.00     0.029 A 
ATOM     47  N   UNL A   1      43.460  26.863  27.434  1.00  0.00    -0.354 N 
ATOM     48  C   UNL A   1      39.939  28.037  29.465  1.00  0.00     0.074 A 
ATOM     49  C   UNL A   1      38.856  27.045  29.508  1.00  0.00     0.031 C 
ATOM     50  C   UNL A   1      44.781  25.421  26.320  1.00  0.00     0.029 A 
ATOM     51  C   UNL A   1      44.690  26.729  26.831  1.00  0.00     0.049 A 
ATOM     52  H   UNL A   1      43.123  27.670  27.887  1.00  0.00     0.167 HD
ATOM     53  C   UNL A   1      39.860  29.309  30.033  1.00  0.00     0.034 A 
ATOM     54  C   UNL A   1      45.689  27.683  26.718  1.00  0.00     0.034 A 
ATOM     55  C   UNL A   1      40.876  30.249  29.959  1.00  0.00     0.049 A 
ATOM     56  C   UNL A   1      45.586  28.977  27.236  1.00  0.00     0.074 A 
ATOM     57  C   UNL A   1      40.815  31.533  30.532  1.00  0.00     0.029 A 
ATOM     58  N   UNL A   1      42.097  30.124  29.333  1.00  0.00    -0.354 N 
ATOM     59  N   UNL A   1      44.570  29.496  27.927  1.00  0.00    -0.248 NA
ATOM     60  C   UNL A   1      46.625  30.006  27.094  1.00  0.00     0.031 C 
ATOM     61  C   UNL A   1      41.979  32.178  30.248  1.00  0.00     0.029 A 
ATOM     62  C   UNL A   1      42.785  31.306  29.493  1.00  0.00     0.049 A 
ATOM     63  H   UNL A   1      42.421  29.326  28.854  1.00  0.00     0.167 HD
ATOM     64  C   UNL A   1      44.844  30.756  28.270  1.00  0.00     0.074 A 
ATOM     65  C   UNL A   1      46.167  31.105  27.734  1.00  0.00     0.031 C 
ATOM     66  C   UNL A   1      44.046  31.628  29.013  1.00  0.00     0.034 A 
BRANCH  53  67
ATOM     67  C   UNL A   1      38.587  29.686  30.774  1.00  0.00     0.023 A 
ATOM     68  C   UNL A   1      37.579  30.344  30.089  1.00  0.00     0.031 A 
ATOM     69  C   UNL A   1      38.462  29.384  32.060  1.00  0.00     0.131 A 
ATOM     70  C   UNL A   1      36.585  30.902  30.927  1.00  0.00     0.055 A 
ATOM     71  C   UNL A   1      37.394  29.851  32.787  1.00  0.00     0.041 A 
ATOM     72  F   UNL A   1      39.379  28.622  32.651  1.00  0.00    -0.206 F 
ATOM     73  C   UNL A   1      36.390  30.558  32.187  1.00  0.00     0.022 A 
BRANCH  70  74
ATOM     74  S   UNL A   1      35.508  32.175  30.224  1.00  0.00     0.124 S 
ATOM     75  O   UNL A   1      34.903  31.665  28.913  1.00  0.00    -0.237 OA
ATOM     76  O   UNL A   1      34.385  32.496  31.213  1.00  0.00    -0.237 OA
ATOM     77  O   UNL A   1      36.420  33.589  29.919  1.00  0.00    -0.744 OA
ENDBRANCH  70  74
ENDBRANCH  53  67
BRANCH  54  78
ATOM     78  C   UNL A   1      46.968  27.301  25.991  1.00  0.00     0.023 A 
ATOM     79  C   UNL A   1      47.237  27.868  24.756  1.00  0.00     0.031 A 
ATOM     80  C   UNL A   1      47.806  26.436  26.549  1.00  0.00     0.131 A 
ATOM     81  C   UNL A   1      48.286  27.232  24.051  1.00  0.00     0.055 A 
ATOM     82  C   UNL A   1      48.887  25.959  25.849  1.00  0.00     0.041 A 
ATOM     83  F   UNL A   1      47.597  26.025  27.796  1.00  0.00    -0.206 F 
ATOM     84  C   UNL A   1      49.179  26.431  24.599  1.00  0.00     0.022 A 
BRANCH  81  85
ATOM     85  S   UNL A   1      48.410  27.539  22.271  1.00  0.00     0.124 S 
ATOM     86  O   UNL A   1      47.122  28.202  21.776  1.00  0.00    -0.237 OA
ATOM     87  O   UNL A   1      49.597  28.465  21.995  1.00  0.00    -0.237 OA
ATOM     88  O   UNL A   1      48.640  26.057  21.451  1.00  0.00    -0.744 OA
ENDBRANCH  81  85
ENDBRANCH  54  78
BRANCH  66  89
ATOM     89  C   UNL A   1      44.591  33.014  29.314  1.00  0.00     0.023 A 
ATOM     90  C   UNL A   1      45.376  33.252  30.430  1.00  0.00     0.031 A 
ATOM     91  C   UNL A   1      44.367  33.963  28.414  1.00  0.00     0.131 A 
ATOM     92  C   UNL A   1      45.648  34.622  30.658  1.00  0.00     0.055 A 
ATOM     93  C   UNL A   1      44.781  35.254  28.642  1.00  0.00     0.041 A 
ATOM     94  F   UNL A   1      43.737  33.664  27.282  1.00  0.00    -0.206 F 
ATOM     95  C   UNL A   1      45.510  35.574  29.753  1.00  0.00     0.022 A 
BRANCH  92  96
ATOM     96  S   UNL A   1      46.225  35.103  32.305  1.00  0.00     0.124 S 
ATOM     97  O   UNL A   1      45.034  35.172  33.263  1.00  0.00    -0.237 OA
ATOM     98  O   UNL A   1      47.232  34.069  32.815  1.00  0.00    -0.237 OA
ATOM     99  O   UNL A   1      46.976  36.637  32.220  1.00  0.00    -0.744 OA
ENDBRANCH  92  96
ENDBRANCH  66  89
ENDBRANCH  40  41
ENDBRANCH  32  35
ENDBRANCH  30  31
ENDBRANCH   1  30
TORSDOF 17
ENDMDL
MODEL 3
REMARK VINA RESULT:     -12.6      2.989      8.202
REMARK SMILES CCCc1cc(S(F)(F)(F)(F)F)cc2c1O[C@@H](C(F)(F)F)C(C(=O)NCCCNC(=O)c1ccc(-c3c4nc(c(-c5cc(S(=O)(=O)[O-])ccc5F)c5ccc([nH]5)c(-c5cc(S(=O)(=O)[O-])ccc5F)c5nc(c(-c6cc(S(=O)(=O)[O-])ccc6F)c6ccc3[nH]6)C=C5)C=C4)cc1)=C2
REMARK SMILES IDX 27 1 26 2 25 3 23 4 24 5 22 7 4 8 5 9 15 10 6 11 14 12 16 13
REMARK SMILES IDX 13 14 95 15 17 16 3 17 2 18 1 19 7 20 8 21 9 22 10 23 11 24
REMARK SMILES IDX 12 25 18 26 19 27 20 28 21 29 28 30 29 31 30 32 31 34 32 35
REMARK SMILES IDX 33 36 94 37 34 38 93 39 35 40 36 41 37 42 87 43 38 44 92 45
REMARK SMILES IDX 86 46 88 47 39 48 91 49 85 50 84 51 40 53 72 54 52 55 71 56
REMARK SMILES IDX 53 57 56 58 70 59 89 60 54 61 55 62 69 64 90 65 57 66 41 67
REMARK SMILES IDX 42 68 50 69 43 70 49 71 51 72 48 73 44 74 45 75 46 76 47 77
REMARK SMILES IDX 73 78 74 79 82 80 75 81 81 82 83 83 80 84 76 85 77 86 78 87
REMARK SMILES IDX 79 88 58 89 59 90 67 91 60 92 66 93 68 94 65 95 61 96 62 97
REMARK SMILES IDX 63 98 64 99
REMARK H PARENT 25 6 29 33 88 52 56 63
REMARK Flexibility Score: inf
ROOT
ATOM      1  C   UNL A   1      37.006  22.928  24.024  1.00  0.00     0.042 C 
ENDROOT
BRANCH   1   2
ATOM      2  C   UNL A   1      35.505  22.851  23.798  1.00  0.00     0.118 C 
BRANCH   2   3
ATOM      3  N   UNL A   1      34.908  21.936  24.782  1.00  0.00    -0.352 N 
ATOM      4  C   UNL A   1      33.696  22.332  25.513  1.00  0.00     0.251 C 
ATOM      5  O   UNL A   1      33.180  21.542  26.364  1.00  0.00    -0.270 OA
ATOM      6  H   UNL A   1      35.321  21.059  24.952  1.00  0.00     0.163 HD
BRANCH   4   7
ATOM      7  C   UNL A   1      33.060  23.687  25.251  1.00  0.00     0.067 C 
ATOM      8  C   UNL A   1      31.545  27.399  24.075  1.00  0.00    -0.004 A 
ATOM      9  C   UNL A   1      31.951  28.548  24.729  1.00  0.00     0.032 A 
ATOM     10  C   UNL A   1      32.099  26.198  24.447  1.00  0.00     0.131 A 
ATOM     11  C   UNL A   1      32.891  28.498  25.725  1.00  0.00     0.108 A 
ATOM     12  C   UNL A   1      33.036  26.107  25.460  1.00  0.00     0.019 A 
ATOM     13  O   UNL A   1      31.770  25.083  23.715  1.00  0.00    -0.475 OA
ATOM     14  C   UNL A   1      33.426  27.281  26.094  1.00  0.00     0.036 A 
ATOM     15  C   UNL A   1      33.591  24.795  25.751  1.00  0.00     0.025 C 
ATOM     16  C   UNL A   1      31.796  23.804  24.407  1.00  0.00     0.314 C 
BRANCH   8  17
ATOM     17  C   UNL A   1      30.506  27.464  22.969  1.00  0.00     0.039 C 
BRANCH  17  18
ATOM     18  C   UNL A   1      29.152  27.811  23.565  1.00  0.00     0.001 C 
ATOM     19  C   UNL A   1      28.407  26.533  23.911  1.00  0.00     0.004 C 
ENDBRANCH  17  18
ENDBRANCH   8  17
BRANCH  11  20
ATOM     20  S   UNL A   1      33.426  30.017  26.551  1.00  0.00     0.310 S 
ATOM     21  F   UNL A   1      33.397  29.325  27.977  1.00  0.00    -0.094 F 
ATOM     22  F   UNL A   1      31.913  30.393  26.778  1.00  0.00    -0.094 F 
ATOM     23  F   UNL A   1      33.886  31.322  27.260  1.00  0.00    -0.094 F 
ATOM     24  F   UNL A   1      34.932  29.556  26.437  1.00  0.00    -0.094 F 
ATOM     25  F   UNL A   1      32.973  28.635  25.930  1.00  0.00    -0.094 F 
ENDBRANCH  11  20
BRANCH  16  26
ATOM     26  C   UNL A   1      31.782  22.683  23.379  1.00  0.00     0.429 C 
ATOM     27  F   UNL A   1      32.826  22.814  22.566  1.00  0.00    -0.167 F 
ATOM     28  F   UNL A   1      31.851  21.510  24.003  1.00  0.00    -0.167 F 
ATOM     29  F   UNL A   1      30.657  22.744  22.672  1.00  0.00    -0.167 F 
ENDBRANCH  16  26
ENDBRANCH   4   7
ENDBRANCH   2   3
ENDBRANCH   1   2
BRANCH   1  30
ATOM     30  C   UNL A   1      37.289  23.041  25.513  1.00  0.00     0.118 C 
BRANCH  30  31
ATOM     31  N   UNL A   1      38.250  22.002  25.909  1.00  0.00    -0.352 N 
ATOM     32  C   UNL A   1      39.438  22.360  26.697  1.00  0.00     0.251 C 
ATOM     33  H   UNL A   1      38.098  21.065  25.647  1.00  0.00     0.163 HD
ATOM     34  O   UNL A   1      40.269  21.463  27.039  1.00  0.00    -0.269 OA
BRANCH  32  35
ATOM     35  C   UNL A   1      39.672  23.807  27.102  1.00  0.00     0.039 A 
ATOM     36  C   UNL A   1      39.533  24.246  28.408  1.00  0.00     0.014 A 
ATOM     37  C   UNL A   1      40.157  24.602  26.156  1.00  0.00     0.014 A 
ATOM     38  C   UNL A   1      39.666  25.646  28.559  1.00  0.00     0.010 A 
ATOM     39  C   UNL A   1      40.391  25.931  26.412  1.00  0.00     0.010 A 
ATOM     40  C   UNL A   1      40.219  26.447  27.666  1.00  0.00    -0.014 A 
BRANCH  40  41
ATOM     41  C   UNL A   1      40.641  27.865  28.014  1.00  0.00     0.031 A 
ATOM     42  C   UNL A   1      42.013  28.118  28.013  1.00  0.00     0.074 A 
ATOM     43  C   UNL A   1      39.687  28.773  28.439  1.00  0.00     0.049 A 
ATOM     44  N   UNL A   1      42.633  29.244  28.374  1.00  0.00    -0.248 NA
ATOM     45  C   UNL A   1      43.032  27.144  27.592  1.00  0.00     0.031 C 
ATOM     46  C   UNL A   1      38.299  28.528  28.435  1.00  0.00     0.029 A 
ATOM     47  N   UNL A   1      39.888  30.042  28.934  1.00  0.00    -0.354 N 
ATOM     48  C   UNL A   1      43.953  29.113  28.219  1.00  0.00     0.074 A 
ATOM     49  C   UNL A   1      44.228  27.759  27.720  1.00  0.00     0.031 C 
ATOM     50  C   UNL A   1      37.675  29.629  28.930  1.00  0.00     0.029 A 
ATOM     51  C   UNL A   1      38.661  30.581  29.251  1.00  0.00     0.049 A 
ATOM     52  H   UNL A   1      40.759  30.488  29.042  1.00  0.00     0.167 HD
ATOM     53  C   UNL A   1      44.936  30.071  28.471  1.00  0.00     0.034 A 
ATOM     54  C   UNL A   1      38.396  31.829  29.794  1.00  0.00     0.034 A 
ATOM     55  C   UNL A   1      44.667  31.335  28.972  1.00  0.00     0.049 A 
ATOM     56  C   UNL A   1      39.386  32.766  30.102  1.00  0.00     0.074 A 
ATOM     57  C   UNL A   1      45.645  32.314  29.225  1.00  0.00     0.029 A 
ATOM     58  N   UNL A   1      43.442  31.864  29.314  1.00  0.00    -0.354 N 
ATOM     59  N   UNL A   1      40.700  32.650  29.909  1.00  0.00    -0.248 NA
ATOM     60  C   UNL A   1      39.119  34.078  30.706  1.00  0.00     0.031 C 
ATOM     61  C   UNL A   1      45.021  33.417  29.721  1.00  0.00     0.029 A 
ATOM     62  C   UNL A   1      43.642  33.142  29.786  1.00  0.00     0.049 A 
ATOM     63  H   UNL A   1      42.573  31.407  29.233  1.00  0.00     0.167 HD
ATOM     64  C   UNL A   1      41.323  33.760  30.309  1.00  0.00     0.074 A 
ATOM     65  C   UNL A   1      40.316  34.692  30.834  1.00  0.00     0.031 C 
ATOM     66  C   UNL A   1      42.690  34.035  30.254  1.00  0.00     0.034 A 
BRANCH  53  67
ATOM     67  C   UNL A   1      46.383  29.707  28.180  1.00  0.00     0.023 A 
ATOM     68  C   UNL A   1      47.112  29.027  29.142  1.00  0.00     0.031 A 
ATOM     69  C   UNL A   1      46.924  30.047  27.018  1.00  0.00     0.131 A 
ATOM     70  C   UNL A   1      48.505  29.003  28.895  1.00  0.00     0.055 A 
ATOM     71  C   UNL A   1      48.269  29.870  26.794  1.00  0.00     0.041 A 
ATOM     72  F   UNL A   1      46.160  30.563  26.059  1.00  0.00    -0.206 F 
ATOM     73  C   UNL A   1      49.062  29.259  27.724  1.00  0.00     0.022 A 
BRANCH  70  74
ATOM     74  S   UNL A   1      49.599  28.594  30.277  1.00  0.00     0.124 S 
ATOM     75  O   UNL A   1      50.900  27.994  29.738  1.00  0.00    -0.237 OA
ATOM     76  O   UNL A   1      49.914  29.864  31.071  1.00  0.00    -0.237 OA
ATOM     77  O   UNL A   1      48.828  27.460  31.299  1.00  0.00    -0.744 OA
ENDBRANCH  70  74
ENDBRANCH  53  67
BRANCH  54  78
ATOM     78  C   UNL A   1      36.948  32.198  30.069  1.00  0.00     0.023 A 
ATOM     79  C   UNL A   1      36.203  32.799  29.068  1.00  0.00     0.031 A 
ATOM     80  C   UNL A   1      36.419  31.939  31.259  1.00  0.00     0.131 A 
ATOM     81  C   UNL A   1      34.983  33.356  29.518  1.00  0.00     0.055 A 
ATOM     82  C   UNL A   1      35.166  32.400  31.584  1.00  0.00     0.041 A 
ATOM     83  F   UNL A   1      37.109  31.229  32.147  1.00  0.00    -0.206 F 
ATOM     84  C   UNL A   1      34.397  33.054  30.661  1.00  0.00     0.022 A 
BRANCH  81  85
ATOM     85  S   UNL A   1      34.167  34.570  28.450  1.00  0.00     0.124 S 
ATOM     86  O   UNL A   1      34.133  35.928  29.156  1.00  0.00    -0.237 OA
ATOM     87  O   UNL A   1      34.945  34.698  27.138  1.00  0.00    -0.237 OA
ATOM     88  O   UNL A   1      32.570  34.058  28.120  1.00  0.00    -0.744 OA
ENDBRANCH  81  85
ENDBRANCH  54  78
BRANCH  66  89
ATOM     89  C   UNL A   1      43.165  35.396  30.736  1.00  0.00     0.023 A 
ATOM     90  C   UNL A   1      43.449  35.628  32.072  1.00  0.00     0.031 A 
ATOM     91  C   UNL A   1      43.392  36.322  29.813  1.00  0.00     0.131 A 
ATOM     92  C   UNL A   1      43.703  36.986  32.376  1.00  0.00     0.055 A 
ATOM     93  C   UNL A   1      43.770  37.593  30.176  1.00  0.00     0.041 A 
ATOM     94  F   UNL A   1      43.252  36.019  28.526  1.00  0.00    -0.206 F 
ATOM     95  C   UNL A   1      44.010  37.910  31.483  1.00  0.00     0.022 A 
BRANCH  92  96
ATOM     96  S   UNL A   1      43.600  37.494  34.111  1.00  0.00     0.124 S 
ATOM     97  O   UNL A   1      45.005  37.789  34.641  1.00  0.00    -0.237 OA
ATOM     98  O   UNL A   1      42.738  38.755  34.223  1.00  0.00    -0.237 OA
ATOM     99  O   UNL A   1      42.895  36.238  35.032  1.00  0.00    -0.744 OA
ENDBRANCH  92  96
ENDBRANCH  66  89
ENDBRANCH  40  41
ENDBRANCH  32  35
ENDBRANCH  30  31
ENDBRANCH   1  30
TORSDOF 17
ENDMDL
