MODEL 1
REMARK VINA RESULT:     -11.5      0.000      0.000
REMARK SMILES C[NH2+][C@]1(C(=O)NCCCNC(=O)c2ccc(-c3c4nc(c(-c5cc(S(=O)(=O)[O-])ccc5F)c5ccc([nH]5)c(-c5cc(S(=O)(=O)[O-])ccc5F)c5nc(c(-c6cc(S(=O)(=O)[O-])ccc6F)c6ccc3[nH]6)C=C5)C=C4)cc2)CCC[C@@H](Sc2nncs2)C1
REMARK SMILES IDX 8 1 7 2 6 3 4 4 5 5 3 7 76 8 86 9 77 10 79 11 78 12 2 13
REMARK SMILES IDX 1 14 80 17 81 18 82 19 85 20 83 21 84 22 9 23 10 24 11 25
REMARK SMILES IDX 12 27 13 28 14 29 75 30 15 31 74 32 16 33 17 34 18 35 68 36
REMARK SMILES IDX 19 37 73 38 67 39 69 40 20 41 72 42 66 43 65 44 21 46 53 47
REMARK SMILES IDX 33 48 52 49 34 50 37 51 51 52 70 53 35 54 36 55 50 57 71 58
REMARK SMILES IDX 38 59 22 60 23 61 31 62 24 63 30 64 32 65 29 66 25 67 26 68
REMARK SMILES IDX 27 69 28 70 54 71 55 72 63 73 56 74 62 75 64 76 61 77 57 78
REMARK SMILES IDX 58 79 59 80 60 81 39 82 40 83 48 84 41 85 47 86 49 87 46 88
REMARK SMILES IDX 42 89 43 90 44 91 45 92
REMARK H PARENT 6 6 2 15 2 16 10 26 69 45 37 56
REMARK Flexibility Score: inf
ROOT
ATOM      1  C   UNL A   1      31.236  31.434  26.065  1.00  0.00     0.042 C 
ENDROOT
BRANCH   1   2
ATOM      2  C   UNL A   1      31.310  30.025  25.504  1.00  0.00     0.118 C 
BRANCH   2   3
ATOM      3  N   UNL A   1      32.464  29.808  24.644  1.00  0.00    -0.351 N 
ATOM      4  C   UNL A   1      32.667  29.002  23.558  1.00  0.00     0.281 C 
ATOM      5  O   UNL A   1      33.774  29.146  23.032  1.00  0.00    -0.268 OA
ATOM      6  H   UNL A   1      33.251  30.345  24.894  1.00  0.00     0.163 HD
BRANCH   4   7
ATOM      7  C   UNL A   1      31.569  27.976  23.073  1.00  0.00     0.176 C 
ATOM      8  C   UNL A   1      31.545  26.824  24.113  1.00  0.00     0.079 C 
ATOM      9  C   UNL A   1      30.198  28.701  22.894  1.00  0.00     0.094 C 
ATOM     10  C   UNL A   1      30.312  25.933  24.028  1.00  0.00     0.008 C 
ATOM     11  C   UNL A   1      28.960  27.797  23.028  1.00  0.00     0.061 C 
ATOM     12  C   UNL A   1      29.047  26.767  24.156  1.00  0.00     0.015 C 
BRANCH   7  13
ATOM     13  N   UNL A   1      31.846  27.264  21.777  1.00  0.00    -0.336 N 
ATOM     14  C   UNL A   1      32.875  26.240  21.757  1.00  0.00     0.331 C 
ATOM     15  H   UNL A   1      30.975  26.822  21.483  1.00  0.00     0.346 HD
ATOM     16  H   UNL A   1      32.207  27.994  21.162  1.00  0.00     0.346 HD
ENDBRANCH   7  13
BRANCH  11  17
ATOM     17  S   UNL A   1      27.387  28.754  23.106  1.00  0.00    -0.090 SA
BRANCH  17  18
ATOM     18  C   UNL A   1      27.820  30.272  22.353  1.00  0.00     0.174 A 
ATOM     19  N   UNL A   1      27.965  30.394  21.053  1.00  0.00    -0.132 NA
ATOM     20  S   UNL A   1      28.092  31.722  23.229  1.00  0.00    -0.094 S 
ATOM     21  N   UNL A   1      28.358  31.666  20.683  1.00  0.00    -0.146 NA
ATOM     22  C   UNL A   1      28.456  32.464  21.725  1.00  0.00     0.203 A 
ENDBRANCH  17  18
ENDBRANCH  11  17
ENDBRANCH   4   7
ENDBRANCH   2   3
ENDBRANCH   1   2
BRANCH   1  23
ATOM     23  C   UNL A   1      32.464  31.863  26.851  1.00  0.00     0.118 C 
BRANCH  23  24
ATOM     24  N   UNL A   1      32.414  33.252  27.288  1.00  0.00    -0.352 N 
ATOM     25  C   UNL A   1      33.235  33.940  28.152  1.00  0.00     0.251 C 
ATOM     26  H   UNL A   1      31.677  33.781  26.906  1.00  0.00     0.163 HD
ATOM     27  O   UNL A   1      32.935  35.075  28.500  1.00  0.00    -0.269 OA
BRANCH  25  28
ATOM     28  C   UNL A   1      34.453  33.293  28.691  1.00  0.00     0.039 A 
ATOM     29  C   UNL A   1      35.679  33.952  28.567  1.00  0.00     0.014 A 
ATOM     30  C   UNL A   1      34.389  32.054  29.332  1.00  0.00     0.014 A 
ATOM     31  C   UNL A   1      36.820  33.410  29.165  1.00  0.00     0.010 A 
ATOM     32  C   UNL A   1      35.500  31.570  30.013  1.00  0.00     0.010 A 
ATOM     33  C   UNL A   1      36.730  32.241  29.937  1.00  0.00    -0.014 A 
BRANCH  33  34
ATOM     34  C   UNL A   1      37.908  31.693  30.663  1.00  0.00     0.031 A 
ATOM     35  C   UNL A   1      38.770  30.645  30.011  1.00  0.00     0.074 A 
ATOM     36  C   UNL A   1      38.156  32.083  31.930  1.00  0.00     0.049 A 
ATOM     37  N   UNL A   1      39.771  29.967  30.510  1.00  0.00    -0.248 NA
ATOM     38  C   UNL A   1      38.436  30.286  28.624  1.00  0.00     0.031 C 
ATOM     39  C   UNL A   1      37.365  33.057  32.687  1.00  0.00     0.029 A 
ATOM     40  N   UNL A   1      39.137  31.701  32.812  1.00  0.00    -0.354 N 
ATOM     41  C   UNL A   1      40.171  29.089  29.509  1.00  0.00     0.074 A 
ATOM     42  C   UNL A   1      39.262  29.276  28.399  1.00  0.00     0.031 C 
ATOM     43  C   UNL A   1      37.907  33.216  33.905  1.00  0.00     0.029 A 
ATOM     44  C   UNL A   1      39.052  32.321  34.038  1.00  0.00     0.049 A 
ATOM     45  H   UNL A   1      39.835  31.044  32.587  1.00  0.00     0.167 HD
ATOM     46  C   UNL A   1      41.215  28.223  29.505  1.00  0.00     0.034 A 
ATOM     47  C   UNL A   1      39.803  32.174  35.148  1.00  0.00     0.034 A 
ATOM     48  C   UNL A   1      42.129  28.068  30.610  1.00  0.00     0.049 A 
ATOM     49  C   UNL A   1      40.955  31.199  35.123  1.00  0.00     0.074 A 
ATOM     50  C   UNL A   1      43.255  27.267  30.691  1.00  0.00     0.029 A 
ATOM     51  N   UNL A   1      42.021  28.725  31.829  1.00  0.00    -0.354 N 
ATOM     52  N   UNL A   1      41.348  30.411  34.150  1.00  0.00    -0.248 NA
ATOM     53  C   UNL A   1      41.768  31.104  36.342  1.00  0.00     0.031 C 
ATOM     54  C   UNL A   1      43.789  27.390  31.978  1.00  0.00     0.029 A 
ATOM     55  C   UNL A   1      43.044  28.327  32.677  1.00  0.00     0.049 A 
ATOM     56  H   UNL A   1      41.321  29.378  32.058  1.00  0.00     0.167 HD
ATOM     57  C   UNL A   1      42.478  29.753  34.629  1.00  0.00     0.074 A 
ATOM     58  C   UNL A   1      42.708  30.246  35.970  1.00  0.00     0.031 C 
ATOM     59  C   UNL A   1      43.258  28.827  34.015  1.00  0.00     0.034 A 
BRANCH  46  60
ATOM     60  C   UNL A   1      41.409  27.369  28.274  1.00  0.00     0.023 A 
ATOM     61  C   UNL A   1      41.017  26.019  28.242  1.00  0.00     0.031 A 
ATOM     62  C   UNL A   1      42.013  27.905  27.123  1.00  0.00     0.131 A 
ATOM     63  C   UNL A   1      41.301  25.233  27.116  1.00  0.00     0.055 A 
ATOM     64  C   UNL A   1      42.217  27.139  25.974  1.00  0.00     0.041 A 
ATOM     65  F   UNL A   1      42.427  29.182  27.099  1.00  0.00    -0.206 F 
ATOM     66  C   UNL A   1      41.875  25.789  25.971  1.00  0.00     0.022 A 
BRANCH  63  67
ATOM     67  S   UNL A   1      41.037  23.442  27.222  1.00  0.00     0.124 S 
ATOM     68  O   UNL A   1      41.772  23.108  28.440  1.00  0.00    -0.237 OA
ATOM     69  O   UNL A   1      39.585  23.340  27.303  1.00  0.00    -0.237 OA
ATOM     70  O   UNL A   1      41.631  22.934  25.987  1.00  0.00    -0.744 OA
ENDBRANCH  63  67
ENDBRANCH  46  60
BRANCH  47  71
ATOM     71  C   UNL A   1      39.495  32.953  36.384  1.00  0.00     0.023 A 
ATOM     72  C   UNL A   1      38.667  32.422  37.385  1.00  0.00     0.031 A 
ATOM     73  C   UNL A   1      39.984  34.260  36.559  1.00  0.00     0.131 A 
ATOM     74  C   UNL A   1      38.307  33.211  38.489  1.00  0.00     0.055 A 
ATOM     75  C   UNL A   1      39.668  35.022  37.686  1.00  0.00     0.041 A 
ATOM     76  F   UNL A   1      40.786  34.816  35.636  1.00  0.00    -0.206 F 
ATOM     77  C   UNL A   1      38.813  34.503  38.652  1.00  0.00     0.022 A 
BRANCH  74  78
ATOM     78  S   UNL A   1      37.089  32.558  39.664  1.00  0.00     0.124 S 
ATOM     79  O   UNL A   1      37.582  31.203  39.881  1.00  0.00    -0.237 OA
ATOM     80  O   UNL A   1      37.229  33.480  40.786  1.00  0.00    -0.237 OA
ATOM     81  O   UNL A   1      35.827  32.654  38.933  1.00  0.00    -0.744 OA
ENDBRANCH  74  78
ENDBRANCH  47  71
BRANCH  59  82
ATOM     82  C   UNL A   1      44.463  28.332  34.774  1.00  0.00     0.023 A 
ATOM     83  C   UNL A   1      44.406  27.194  35.598  1.00  0.00     0.031 A 
ATOM     84  C   UNL A   1      45.686  29.018  34.677  1.00  0.00     0.131 A 
ATOM     85  C   UNL A   1      45.535  26.808  36.335  1.00  0.00     0.055 A 
ATOM     86  C   UNL A   1      46.823  28.594  35.365  1.00  0.00     0.041 A 
ATOM     87  F   UNL A   1      45.798  30.112  33.906  1.00  0.00    -0.206 F 
ATOM     88  C   UNL A   1      46.748  27.491  36.210  1.00  0.00     0.022 A 
BRANCH  85  89
ATOM     89  S   UNL A   1      45.373  25.456  37.533  1.00  0.00     0.124 S 
ATOM     90  O   UNL A   1      45.886  26.069  38.754  1.00  0.00    -0.237 OA
ATOM     91  O   UNL A   1      43.939  25.189  37.509  1.00  0.00    -0.237 OA
ATOM     92  O   UNL A   1      46.210  24.398  36.970  1.00  0.00    -0.744 OA
ENDBRANCH  85  89
ENDBRANCH  59  82
ENDBRANCH  33  34
ENDBRANCH  25  28
ENDBRANCH  23  24
ENDBRANCH   1  23
TORSDOF 16
ENDMDL
MODEL 2
REMARK VINA RESULT:     -11.4      5.421      8.227
REMARK SMILES C[NH2+][C@]1(C(=O)NCCCNC(=O)c2ccc(-c3c4nc(c(-c5cc(S(=O)(=O)[O-])ccc5F)c5ccc([nH]5)c(-c5cc(S(=O)(=O)[O-])ccc5F)c5nc(c(-c6cc(S(=O)(=O)[O-])ccc6F)c6ccc3[nH]6)C=C5)C=C4)cc2)CCC[C@@H](Sc2nncs2)C1
REMARK SMILES IDX 8 1 7 2 6 3 4 4 5 5 3 7 76 8 86 9 77 10 79 11 78 12 2 13
REMARK SMILES IDX 1 14 80 17 81 18 82 19 85 20 83 21 84 22 9 23 10 24 11 25
REMARK SMILES IDX 12 27 13 28 14 29 75 30 15 31 74 32 16 33 17 34 18 35 68 36
REMARK SMILES IDX 19 37 73 38 67 39 69 40 20 41 72 42 66 43 65 44 21 46 53 47
REMARK SMILES IDX 33 48 52 49 34 50 37 51 51 52 70 53 35 54 36 55 50 57 71 58
REMARK SMILES IDX 38 59 22 60 23 61 31 62 24 63 30 64 32 65 29 66 25 67 26 68
REMARK SMILES IDX 27 69 28 70 54 71 55 72 63 73 56 74 62 75 64 76 61 77 57 78
REMARK SMILES IDX 58 79 59 80 60 81 39 82 40 83 48 84 41 85 47 86 49 87 46 88
REMARK SMILES IDX 42 89 43 90 44 91 45 92
REMARK H PARENT 6 6 2 15 2 16 10 26 69 45 37 56
REMARK Flexibility Score: inf
ROOT
ATOM      1  C   UNL A   1      35.579  21.620  26.025  1.00  0.00     0.042 C 
ENDROOT
BRANCH   1   2
ATOM      2  C   UNL A   1      34.279  21.651  25.241  1.00  0.00     0.118 C 
BRANCH   2   3
ATOM      3  N   UNL A   1      34.438  22.148  23.883  1.00  0.00    -0.351 N 
ATOM      4  C   UNL A   1      34.119  23.340  23.293  1.00  0.00     0.281 C 
ATOM      5  O   UNL A   1      34.481  23.427  22.117  1.00  0.00    -0.268 OA
ATOM      6  H   UNL A   1      34.856  21.501  23.269  1.00  0.00     0.163 HD
BRANCH   4   7
ATOM      7  C   UNL A   1      33.332  24.465  24.076  1.00  0.00     0.176 C 
ATOM      8  C   UNL A   1      34.276  24.967  25.202  1.00  0.00     0.079 C 
ATOM      9  C   UNL A   1      32.870  25.582  23.089  1.00  0.00     0.094 C 
ATOM     10  C   UNL A   1      33.853  26.291  25.827  1.00  0.00     0.008 C 
ATOM     11  C   UNL A   1      32.657  26.967  23.725  1.00  0.00     0.061 C 
ATOM     12  C   UNL A   1      33.718  27.361  24.755  1.00  0.00     0.015 C 
BRANCH   7  13
ATOM     13  N   UNL A   1      32.105  24.024  24.826  1.00  0.00    -0.336 N 
ATOM     14  C   UNL A   1      30.897  23.741  24.071  1.00  0.00     0.331 C 
ATOM     15  H   UNL A   1      32.351  23.172  25.332  1.00  0.00     0.346 HD
ATOM     16  H   UNL A   1      31.858  24.830  25.400  1.00  0.00     0.346 HD
ENDBRANCH   7  13
BRANCH  11  17
ATOM     17  S   UNL A   1      32.407  28.294  22.472  1.00  0.00    -0.090 SA
BRANCH  17  18
ATOM     18  C   UNL A   1      30.673  28.527  22.496  1.00  0.00     0.174 A 
ATOM     19  N   UNL A   1      30.085  29.488  21.822  1.00  0.00    -0.132 NA
ATOM     20  S   UNL A   1      29.596  27.536  23.390  1.00  0.00    -0.094 S 
ATOM     21  N   UNL A   1      28.719  29.517  22.026  1.00  0.00    -0.146 NA
ATOM     22  C   UNL A   1      28.328  28.544  22.822  1.00  0.00     0.203 A 
ENDBRANCH  17  18
ENDBRANCH  11  17
ENDBRANCH   4   7
ENDBRANCH   2   3
ENDBRANCH   1   2
BRANCH   1  23
ATOM     23  C   UNL A   1      36.830  21.755  25.174  1.00  0.00     0.118 C 
BRANCH  23  24
ATOM     24  N   UNL A   1      37.837  20.741  25.460  1.00  0.00    -0.352 N 
ATOM     25  C   UNL A   1      39.099  20.870  25.991  1.00  0.00     0.251 C 
ATOM     26  H   UNL A   1      37.571  19.820  25.239  1.00  0.00     0.163 HD
ATOM     27  O   UNL A   1      39.847  19.900  26.021  1.00  0.00    -0.269 OA
BRANCH  25  28
ATOM     28  C   UNL A   1      39.565  22.186  26.484  1.00  0.00     0.039 A 
ATOM     29  C   UNL A   1      40.601  22.228  27.422  1.00  0.00     0.014 A 
ATOM     30  C   UNL A   1      39.003  23.374  26.013  1.00  0.00     0.014 A 
ATOM     31  C   UNL A   1      41.128  23.460  27.816  1.00  0.00     0.010 A 
ATOM     32  C   UNL A   1      39.596  24.592  26.327  1.00  0.00     0.010 A 
ATOM     33  C   UNL A   1      40.665  24.650  27.234  1.00  0.00    -0.014 A 
BRANCH  33  34
ATOM     34  C   UNL A   1      41.272  25.968  27.564  1.00  0.00     0.031 A 
ATOM     35  C   UNL A   1      42.685  26.271  27.139  1.00  0.00     0.074 A 
ATOM     36  C   UNL A   1      40.582  26.858  28.306  1.00  0.00     0.049 A 
ATOM     37  N   UNL A   1      43.429  27.310  27.418  1.00  0.00    -0.248 NA
ATOM     38  C   UNL A   1      43.361  25.250  26.323  1.00  0.00     0.031 C 
ATOM     39  C   UNL A   1      39.222  26.661  28.818  1.00  0.00     0.029 A 
ATOM     40  N   UNL A   1      40.929  28.102  28.771  1.00  0.00    -0.354 N 
ATOM     41  C   UNL A   1      44.665  27.059  26.831  1.00  0.00     0.074 A 
ATOM     42  C   UNL A   1      44.588  25.741  26.239  1.00  0.00     0.031 C 
ATOM     43  C   UNL A   1      38.844  27.755  29.499  1.00  0.00     0.029 A 
ATOM     44  C   UNL A   1      39.946  28.710  29.519  1.00  0.00     0.049 A 
ATOM     45  H   UNL A   1      41.802  28.520  28.586  1.00  0.00     0.167 HD
ATOM     46  C   UNL A   1      45.756  27.862  26.770  1.00  0.00     0.034 A 
ATOM     47  C   UNL A   1      39.939  29.896  30.159  1.00  0.00     0.034 A 
ATOM     48  C   UNL A   1      45.807  29.185  27.343  1.00  0.00     0.049 A 
ATOM     49  C   UNL A   1      41.167  30.770  30.084  1.00  0.00     0.074 A 
ATOM     50  C   UNL A   1      46.837  30.108  27.289  1.00  0.00     0.029 A 
ATOM     51  N   UNL A   1      44.786  29.773  28.079  1.00  0.00    -0.354 N 
ATOM     52  N   UNL A   1      42.311  30.537  29.484  1.00  0.00    -0.248 NA
ATOM     53  C   UNL A   1      41.098  32.070  30.764  1.00  0.00     0.031 C 
ATOM     54  C   UNL A   1      46.465  31.226  28.044  1.00  0.00     0.029 A 
ATOM     55  C   UNL A   1      45.172  31.035  28.506  1.00  0.00     0.049 A 
ATOM     56  H   UNL A   1      43.915  29.355  28.270  1.00  0.00     0.167 HD
ATOM     57  C   UNL A   1      43.083  31.678  29.684  1.00  0.00     0.074 A 
ATOM     58  C   UNL A   1      42.270  32.600  30.448  1.00  0.00     0.031 C 
ATOM     59  C   UNL A   1      44.350  31.942  29.271  1.00  0.00     0.034 A 
BRANCH  46  60
ATOM     60  C   UNL A   1      46.983  27.321  26.075  1.00  0.00     0.023 A 
ATOM     61  C   UNL A   1      47.935  26.543  26.758  1.00  0.00     0.031 A 
ATOM     62  C   UNL A   1      47.216  27.604  24.718  1.00  0.00     0.131 A 
ATOM     63  C   UNL A   1      49.109  26.140  26.104  1.00  0.00     0.055 A 
ATOM     64  C   UNL A   1      48.347  27.129  24.051  1.00  0.00     0.041 A 
ATOM     65  F   UNL A   1      46.354  28.359  24.019  1.00  0.00    -0.206 F 
ATOM     66  C   UNL A   1      49.310  26.406  24.748  1.00  0.00     0.022 A 
BRANCH  63  67
ATOM     67  S   UNL A   1      50.433  25.387  27.089  1.00  0.00     0.124 S 
ATOM     68  O   UNL A   1      49.726  24.286  27.739  1.00  0.00    -0.237 OA
ATOM     69  O   UNL A   1      51.407  25.009  26.071  1.00  0.00    -0.237 OA
ATOM     70  O   UNL A   1      50.850  26.465  27.983  1.00  0.00    -0.744 OA
ENDBRANCH  63  67
ENDBRANCH  46  60
BRANCH  47  71
ATOM     71  C   UNL A   1      38.743  30.334  30.937  1.00  0.00     0.023 A 
ATOM     72  C   UNL A   1      37.672  30.989  30.308  1.00  0.00     0.031 A 
ATOM     73  C   UNL A   1      38.674  30.147  32.330  1.00  0.00     0.131 A 
ATOM     74  C   UNL A   1      36.605  31.484  31.075  1.00  0.00     0.055 A 
ATOM     75  C   UNL A   1      37.584  30.592  33.081  1.00  0.00     0.041 A 
ATOM     76  F   UNL A   1      39.666  29.520  32.982  1.00  0.00    -0.206 F 
ATOM     77  C   UNL A   1      36.548  31.278  32.455  1.00  0.00     0.022 A 
BRANCH  74  78
ATOM     78  S   UNL A   1      35.336  32.486  30.253  1.00  0.00     0.124 S 
ATOM     79  O   UNL A   1      35.009  31.661  29.096  1.00  0.00    -0.237 OA
ATOM     80  O   UNL A   1      34.310  32.578  31.287  1.00  0.00    -0.237 OA
ATOM     81  O   UNL A   1      36.032  33.736  29.954  1.00  0.00    -0.744 OA
ENDBRANCH  74  78
ENDBRANCH  47  71
BRANCH  59  82
ATOM     82  C   UNL A   1      44.906  33.306  29.593  1.00  0.00     0.023 A 
ATOM     83  C   UNL A   1      44.747  34.398  28.721  1.00  0.00     0.031 A 
ATOM     84  C   UNL A   1      45.616  33.512  30.790  1.00  0.00     0.131 A 
ATOM     85  C   UNL A   1      45.337  35.632  29.033  1.00  0.00     0.055 A 
ATOM     86  C   UNL A   1      46.148  34.758  31.123  1.00  0.00     0.041 A 
ATOM     87  F   UNL A   1      45.799  32.505  31.658  1.00  0.00    -0.206 F 
ATOM     88  C   UNL A   1      46.021  35.823  30.237  1.00  0.00     0.022 A 
BRANCH  85  89
ATOM     89  S   UNL A   1      45.277  36.961  27.801  1.00  0.00     0.124 S 
ATOM     90  O   UNL A   1      46.209  37.935  28.360  1.00  0.00    -0.237 OA
ATOM     91  O   UNL A   1      45.719  36.282  26.588  1.00  0.00    -0.237 OA
ATOM     92  O   UNL A   1      43.874  37.371  27.805  1.00  0.00    -0.744 OA
ENDBRANCH  85  89
ENDBRANCH  59  82
ENDBRANCH  33  34
ENDBRANCH  25  28
ENDBRANCH  23  24
ENDBRANCH   1  23
TORSDOF 16
ENDMDL
MODEL 3
REMARK VINA RESULT:     -11.3      5.567     10.571
REMARK SMILES C[NH2+][C@]1(C(=O)NCCCNC(=O)c2ccc(-c3c4nc(c(-c5cc(S(=O)(=O)[O-])ccc5F)c5ccc([nH]5)c(-c5cc(S(=O)(=O)[O-])ccc5F)c5nc(c(-c6cc(S(=O)(=O)[O-])ccc6F)c6ccc3[nH]6)C=C5)C=C4)cc2)CCC[C@@H](Sc2nncs2)C1
REMARK SMILES IDX 8 1 7 2 6 3 4 4 5 5 3 7 76 8 86 9 77 10 79 11 78 12 2 13
REMARK SMILES IDX 1 14 80 17 81 18 82 19 85 20 83 21 84 22 9 23 10 24 11 25
REMARK SMILES IDX 12 27 13 28 14 29 75 30 15 31 74 32 16 33 17 34 18 35 68 36
REMARK SMILES IDX 19 37 73 38 67 39 69 40 20 41 72 42 66 43 65 44 21 46 53 47
REMARK SMILES IDX 33 48 52 49 34 50 37 51 51 52 70 53 35 54 36 55 50 57 71 58
REMARK SMILES IDX 38 59 22 60 23 61 31 62 24 63 30 64 32 65 29 66 25 67 26 68
REMARK SMILES IDX 27 69 28 70 54 71 55 72 63 73 56 74 62 75 64 76 61 77 57 78
REMARK SMILES IDX 58 79 59 80 60 81 39 82 40 83 48 84 41 85 47 86 49 87 46 88
REMARK SMILES IDX 42 89 43 90 44 91 45 92
REMARK H PARENT 6 6 2 15 2 16 10 26 69 45 37 56
REMARK Flexibility Score: inf
ROOT
ATOM      1  C   UNL A   1      36.323  22.470  23.888  1.00  0.00     0.042 C 
ENDROOT
BRANCH   1   2
ATOM      2  C   UNL A   1      34.868  22.667  23.499  1.00  0.00     0.118 C 
BRANCH   2   3
ATOM      3  N   UNL A   1      33.941  21.948  24.359  1.00  0.00    -0.351 N 
ATOM      4  C   UNL A   1      32.932  22.366  25.183  1.00  0.00     0.281 C 
ATOM      5  O   UNL A   1      32.300  21.443  25.705  1.00  0.00    -0.268 OA
ATOM      6  H   UNL A   1      34.064  20.971  24.347  1.00  0.00     0.163 HD
BRANCH   4   7
ATOM      7  C   UNL A   1      32.652  23.900  25.434  1.00  0.00     0.176 C 
ATOM      8  C   UNL A   1      34.005  24.536  25.855  1.00  0.00     0.079 C 
ATOM      9  C   UNL A   1      32.013  24.545  24.165  1.00  0.00     0.094 C 
ATOM     10  C   UNL A   1      34.028  26.058  25.782  1.00  0.00     0.008 C 
ATOM     11  C   UNL A   1      32.242  26.060  24.017  1.00  0.00     0.061 C 
ATOM     12  C   UNL A   1      33.652  26.526  24.385  1.00  0.00     0.015 C 
BRANCH   7  13
ATOM     13  N   UNL A   1      31.743  24.233  26.586  1.00  0.00    -0.336 N 
ATOM     14  C   UNL A   1      30.347  23.842  26.501  1.00  0.00     0.331 C 
ATOM     15  H   UNL A   1      32.132  23.786  27.417  1.00  0.00     0.346 HD
ATOM     16  H   UNL A   1      31.717  25.253  26.597  1.00  0.00     0.346 HD
ENDBRANCH   7  13
BRANCH  11  17
ATOM     17  S   UNL A   1      31.727  26.699  22.368  1.00  0.00    -0.090 SA
BRANCH  17  18
ATOM     18  C   UNL A   1      30.791  28.119  22.778  1.00  0.00     0.174 A 
ATOM     19  N   UNL A   1      29.838  28.579  22.001  1.00  0.00    -0.132 NA
ATOM     20  S   UNL A   1      31.028  29.029  24.212  1.00  0.00    -0.094 S 
ATOM     21  N   UNL A   1      29.267  29.735  22.494  1.00  0.00    -0.146 NA
ATOM     22  C   UNL A   1      29.792  30.079  23.651  1.00  0.00     0.203 A 
ENDBRANCH  17  18
ENDBRANCH  11  17
ENDBRANCH   4   7
ENDBRANCH   2   3
ENDBRANCH   1   2
BRANCH   1  23
ATOM     23  C   UNL A   1      36.534  22.007  25.319  1.00  0.00     0.118 C 
BRANCH  23  24
ATOM     24  N   UNL A   1      37.520  20.942  25.443  1.00  0.00    -0.352 N 
ATOM     25  C   UNL A   1      38.832  20.990  25.855  1.00  0.00     0.251 C 
ATOM     26  H   UNL A   1      37.196  20.047  25.193  1.00  0.00     0.163 HD
ATOM     27  O   UNL A   1      39.538  19.994  25.751  1.00  0.00    -0.269 OA
BRANCH  25  28
ATOM     28  C   UNL A   1      39.398  22.253  26.380  1.00  0.00     0.039 A 
ATOM     29  C   UNL A   1      40.464  22.192  27.282  1.00  0.00     0.014 A 
ATOM     30  C   UNL A   1      38.898  23.492  25.973  1.00  0.00     0.014 A 
ATOM     31  C   UNL A   1      41.082  23.372  27.703  1.00  0.00     0.010 A 
ATOM     32  C   UNL A   1      39.579  24.657  26.312  1.00  0.00     0.010 A 
ATOM     33  C   UNL A   1      40.679  24.612  27.182  1.00  0.00    -0.014 A 
BRANCH  33  34
ATOM     34  C   UNL A   1      41.380  25.874  27.540  1.00  0.00     0.031 A 
ATOM     35  C   UNL A   1      40.649  26.949  28.301  1.00  0.00     0.074 A 
ATOM     36  C   UNL A   1      42.644  26.082  27.117  1.00  0.00     0.049 A 
ATOM     37  N   UNL A   1      41.044  28.156  28.614  1.00  0.00    -0.248 NA
ATOM     38  C   UNL A   1      39.278  26.634  28.732  1.00  0.00     0.031 C 
ATOM     39  C   UNL A   1      43.442  25.136  26.332  1.00  0.00     0.029 A 
ATOM     40  N   UNL A   1      43.479  27.160  27.277  1.00  0.00    -0.354 N 
ATOM     41  C   UNL A   1      39.964  28.751  29.260  1.00  0.00     0.074 A 
ATOM     42  C   UNL A   1      38.880  27.794  29.233  1.00  0.00     0.031 C 
ATOM     43  C   UNL A   1      44.655  25.664  26.105  1.00  0.00     0.029 A 
ATOM     44  C   UNL A   1      44.709  27.004  26.681  1.00  0.00     0.049 A 
ATOM     45  H   UNL A   1      43.220  27.972  27.773  1.00  0.00     0.167 HD
ATOM     46  C   UNL A   1      39.892  29.973  29.843  1.00  0.00     0.034 A 
ATOM     47  C   UNL A   1      45.757  27.848  26.596  1.00  0.00     0.034 A 
ATOM     48  C   UNL A   1      40.992  30.905  29.885  1.00  0.00     0.049 A 
ATOM     49  C   UNL A   1      45.651  29.206  27.245  1.00  0.00     0.074 A 
ATOM     50  C   UNL A   1      41.049  32.144  30.500  1.00  0.00     0.029 A 
ATOM     51  N   UNL A   1      42.228  30.704  29.284  1.00  0.00    -0.354 N 
ATOM     52  N   UNL A   1      44.638  29.734  27.894  1.00  0.00    -0.248 NA
ATOM     53  C   UNL A   1      46.831  30.075  27.161  1.00  0.00     0.031 C 
ATOM     54  C   UNL A   1      42.294  32.717  30.218  1.00  0.00     0.029 A 
ATOM     55  C   UNL A   1      43.044  31.806  29.492  1.00  0.00     0.049 A 
ATOM     56  H   UNL A   1      42.488  29.897  28.783  1.00  0.00     0.167 HD
ATOM     57  C   UNL A   1      45.075  30.983  28.324  1.00  0.00     0.074 A 
ATOM     58  C   UNL A   1      46.444  31.123  27.873  1.00  0.00     0.031 C 
ATOM     59  C   UNL A   1      44.407  31.931  29.032  1.00  0.00     0.034 A 
BRANCH  46  60
ATOM     60  C   UNL A   1      38.574  30.372  30.464  1.00  0.00     0.023 A 
ATOM     61  C   UNL A   1      37.572  31.018  29.719  1.00  0.00     0.031 A 
ATOM     62  C   UNL A   1      38.325  30.125  31.825  1.00  0.00     0.131 A 
ATOM     63  C   UNL A   1      36.401  31.459  30.353  1.00  0.00     0.055 A 
ATOM     64  C   UNL A   1      37.122  30.493  32.432  1.00  0.00     0.041 A 
ATOM     65  F   UNL A   1      39.251  29.531  32.594  1.00  0.00    -0.206 F 
ATOM     66  C   UNL A   1      36.158  31.179  31.699  1.00  0.00     0.022 A 
BRANCH  63  67
ATOM     67  S   UNL A   1      35.266  32.529  29.427  1.00  0.00     0.124 S 
ATOM     68  O   UNL A   1      34.643  31.576  28.513  1.00  0.00    -0.237 OA
ATOM     69  O   UNL A   1      34.407  33.062  30.478  1.00  0.00    -0.237 OA
ATOM     70  O   UNL A   1      36.153  33.502  28.792  1.00  0.00    -0.744 OA
ENDBRANCH  63  67
ENDBRANCH  46  60
BRANCH  47  71
ATOM     71  C   UNL A   1      46.996  27.452  25.863  1.00  0.00     0.023 A 
ATOM     72  C   UNL A   1      47.185  27.810  24.518  1.00  0.00     0.031 A 
ATOM     73  C   UNL A   1      47.987  26.669  26.481  1.00  0.00     0.131 A 
ATOM     74  C   UNL A   1      48.307  27.339  23.819  1.00  0.00     0.055 A 
ATOM     75  C   UNL A   1      49.130  26.250  25.797  1.00  0.00     0.041 A 
ATOM     76  F   UNL A   1      47.861  26.305  27.767  1.00  0.00    -0.206 F 
ATOM     77  C   UNL A   1      49.287  26.573  24.454  1.00  0.00     0.022 A 
BRANCH  74  78
ATOM     78  S   UNL A   1      48.421  27.665  22.038  1.00  0.00     0.124 S 
ATOM     79  O   UNL A   1      47.114  28.247  21.758  1.00  0.00    -0.237 OA
ATOM     80  O   UNL A   1      49.558  28.578  21.972  1.00  0.00    -0.237 OA
ATOM     81  O   UNL A   1      48.653  26.341  21.465  1.00  0.00    -0.744 OA
ENDBRANCH  74  78
ENDBRANCH  47  71
BRANCH  59  82
ATOM     82  C   UNL A   1      45.173  33.175  29.407  1.00  0.00     0.023 A 
ATOM     83  C   UNL A   1      45.167  34.323  28.594  1.00  0.00     0.031 A 
ATOM     84  C   UNL A   1      45.928  33.207  30.592  1.00  0.00     0.131 A 
ATOM     85  C   UNL A   1      45.945  35.434  28.950  1.00  0.00     0.055 A 
ATOM     86  C   UNL A   1      46.651  34.337  30.973  1.00  0.00     0.041 A 
ATOM     87  F   UNL A   1      45.971  32.138  31.405  1.00  0.00    -0.206 F 
ATOM     88  C   UNL A   1      46.673  35.455  30.144  1.00  0.00     0.022 A 
BRANCH  85  89
ATOM     89  S   UNL A   1      46.068  36.820  27.788  1.00  0.00     0.124 S 
ATOM     90  O   UNL A   1      44.827  37.543  28.045  1.00  0.00    -0.237 OA
ATOM     91  O   UNL A   1      47.293  37.484  28.223  1.00  0.00    -0.237 OA
ATOM     92  O   UNL A   1      46.147  36.168  26.483  1.00  0.00    -0.744 OA
ENDBRANCH  85  89
ENDBRANCH  59  82
ENDBRANCH  33  34
ENDBRANCH  25  28
ENDBRANCH  23  24
ENDBRANCH   1  23
TORSDOF 16
ENDMDL
