MODEL 1
REMARK VINA RESULT:     -10.6      0.000      0.000
REMARK SMILES CC(C)[C@H](C(=O)NCCCNC(=O)c1ccc(-c2c3nc(c(-c4cc(S(=O)(=O)[O-])ccc4F)c4ccc([nH]4)c(-c4cc(S(=O)(=O)[O-])ccc4F)c4nc(c(-c5cc(S(=O)(=O)[O-])ccc5F)c5ccc2[nH]5)C=C4)C=C3)cc1)[C@H](C)[C@@H](C)O
REMARK SMILES IDX 9 1 8 2 7 3 5 4 6 5 4 7 2 8 1 9 3 10 77 11 78 12 79 13 80 14
REMARK SMILES IDX 81 15 10 17 11 18 12 19 13 21 14 22 15 23 76 24 16 25 75 26
REMARK SMILES IDX 17 27 18 28 19 29 69 30 20 31 74 32 68 33 70 34 21 35 73 36
REMARK SMILES IDX 67 37 66 38 22 40 54 41 34 42 53 43 35 44 38 45 52 46 71 47
REMARK SMILES IDX 36 48 37 49 51 51 72 52 39 53 23 54 24 55 32 56 25 57 31 58
REMARK SMILES IDX 33 59 30 60 26 61 27 62 28 63 29 64 55 65 56 66 64 67 57 68
REMARK SMILES IDX 63 69 65 70 62 71 58 72 59 73 60 74 61 75 40 76 41 77 49 78
REMARK SMILES IDX 42 79 48 80 50 81 47 82 43 83 44 84 45 85 46 86
REMARK H PARENT 7 6 81 16 11 20 70 39 38 50
REMARK Flexibility Score: inf
ROOT
ATOM      1  C   UNL A   1      32.673  29.135  23.701  1.00  0.00     0.042 C 
ENDROOT
BRANCH   1   2
ATOM      2  C   UNL A   1      33.920  28.656  22.936  1.00  0.00     0.117 C 
BRANCH   2   3
ATOM      3  N   UNL A   1      33.649  27.590  21.982  1.00  0.00    -0.356 N 
ATOM      4  C   UNL A   1      33.178  26.317  22.102  1.00  0.00     0.223 C 
ATOM      5  O   UNL A   1      33.216  25.625  21.080  1.00  0.00    -0.275 OA
ATOM      6  H   UNL A   1      33.848  27.844  21.052  1.00  0.00     0.163 HD
BRANCH   4   7
ATOM      7  C   UNL A   1      32.576  25.779  23.419  1.00  0.00     0.086 C 
BRANCH   7   8
ATOM      8  C   UNL A   1      31.141  25.165  23.078  1.00  0.00    -0.005 C 
ATOM      9  C   UNL A   1      30.923  23.664  23.321  1.00  0.00     0.008 C 
ATOM     10  C   UNL A   1      30.029  25.957  23.777  1.00  0.00     0.008 C 
ENDBRANCH   7   8
BRANCH   7  11
ATOM     11  C   UNL A   1      33.497  24.800  24.231  1.00  0.00     0.027 C 
ATOM     12  C   UNL A   1      33.934  25.494  25.538  1.00  0.00     0.011 C 
BRANCH  11  13
ATOM     13  C   UNL A   1      34.754  24.282  23.505  1.00  0.00     0.115 C 
ATOM     14  C   UNL A   1      35.821  23.661  24.399  1.00  0.00     0.038 C 
BRANCH  13  15
ATOM     15  O   UNL A   1      34.413  23.301  22.535  1.00  0.00    -0.393 OA
ATOM     16  H   UNL A   1      33.578  23.547  22.107  1.00  0.00     0.210 HD
ENDBRANCH  13  15
ENDBRANCH  11  13
ENDBRANCH   7  11
ENDBRANCH   4   7
ENDBRANCH   2   3
ENDBRANCH   1   2
BRANCH   1  17
ATOM     17  C   UNL A   1      32.826  29.247  25.217  1.00  0.00     0.118 C 
BRANCH  17  18
ATOM     18  N   UNL A   1      32.422  30.558  25.692  1.00  0.00    -0.352 N 
ATOM     19  C   UNL A   1      32.869  31.291  26.765  1.00  0.00     0.251 C 
ATOM     20  H   UNL A   1      31.714  30.990  25.162  1.00  0.00     0.163 HD
ATOM     21  O   UNL A   1      32.160  32.210  27.171  1.00  0.00    -0.269 OA
BRANCH  19  22
ATOM     22  C   UNL A   1      34.165  31.009  27.441  1.00  0.00     0.039 A 
ATOM     23  C   UNL A   1      34.449  29.685  27.801  1.00  0.00     0.014 A 
ATOM     24  C   UNL A   1      35.046  32.020  27.836  1.00  0.00     0.014 A 
ATOM     25  C   UNL A   1      35.601  29.378  28.534  1.00  0.00     0.010 A 
ATOM     26  C   UNL A   1      36.233  31.704  28.507  1.00  0.00     0.010 A 
ATOM     27  C   UNL A   1      36.513  30.383  28.889  1.00  0.00    -0.014 A 
BRANCH  27  28
ATOM     28  C   UNL A   1      37.726  30.067  29.699  1.00  0.00     0.031 A 
ATOM     29  C   UNL A   1      38.783  29.134  29.162  1.00  0.00     0.074 A 
ATOM     30  C   UNL A   1      37.871  30.591  30.933  1.00  0.00     0.049 A 
ATOM     31  N   UNL A   1      39.886  28.712  29.728  1.00  0.00    -0.248 NA
ATOM     32  C   UNL A   1      38.549  28.579  27.822  1.00  0.00     0.031 C 
ATOM     33  C   UNL A   1      36.907  31.475  31.590  1.00  0.00     0.029 A 
ATOM     34  N   UNL A   1      38.877  30.450  31.857  1.00  0.00    -0.354 N 
ATOM     35  C   UNL A   1      40.468  27.828  28.823  1.00  0.00     0.074 A 
ATOM     36  C   UNL A   1      39.560  27.733  27.699  1.00  0.00     0.031 C 
ATOM     37  C   UNL A   1      37.374  31.807  32.804  1.00  0.00     0.029 A 
ATOM     38  C   UNL A   1      38.650  31.133  33.030  1.00  0.00     0.049 A 
ATOM     39  H   UNL A   1      39.685  29.911  31.695  1.00  0.00     0.167 HD
ATOM     40  C   UNL A   1      41.654  27.172  28.910  1.00  0.00     0.034 A 
ATOM     41  C   UNL A   1      39.374  31.201  34.164  1.00  0.00     0.034 A 
ATOM     42  C   UNL A   1      42.559  27.288  30.031  1.00  0.00     0.049 A 
ATOM     43  C   UNL A   1      40.686  30.464  34.247  1.00  0.00     0.074 A 
ATOM     44  C   UNL A   1      43.818  26.734  30.184  1.00  0.00     0.029 A 
ATOM     45  N   UNL A   1      42.295  27.992  31.200  1.00  0.00    -0.354 N 
ATOM     46  N   UNL A   1      41.254  29.686  33.354  1.00  0.00    -0.248 NA
ATOM     47  C   UNL A   1      41.460  30.627  35.484  1.00  0.00     0.031 C 
ATOM     48  C   UNL A   1      44.282  27.040  31.469  1.00  0.00     0.029 A 
ATOM     49  C   UNL A   1      43.349  27.854  32.092  1.00  0.00     0.049 A 
ATOM     50  H   UNL A   1      41.478  28.515  31.369  1.00  0.00     0.167 HD
ATOM     51  C   UNL A   1      42.462  29.282  33.916  1.00  0.00     0.074 A 
ATOM     52  C   UNL A   1      42.547  29.918  35.216  1.00  0.00     0.031 C 
ATOM     53  C   UNL A   1      43.416  28.465  33.400  1.00  0.00     0.034 A 
BRANCH  40  54
ATOM     54  C   UNL A   1      42.019  26.242  27.771  1.00  0.00     0.023 A 
ATOM     55  C   UNL A   1      41.588  24.904  27.738  1.00  0.00     0.031 A 
ATOM     56  C   UNL A   1      42.848  26.688  26.726  1.00  0.00     0.131 A 
ATOM     57  C   UNL A   1      42.065  24.036  26.742  1.00  0.00     0.055 A 
ATOM     58  C   UNL A   1      43.246  25.843  25.687  1.00  0.00     0.041 A 
ATOM     59  F   UNL A   1      43.306  27.949  26.706  1.00  0.00    -0.206 F 
ATOM     60  C   UNL A   1      42.871  24.502  25.702  1.00  0.00     0.022 A 
BRANCH  57  61
ATOM     61  S   UNL A   1      41.761  22.257  26.928  1.00  0.00     0.124 S 
ATOM     62  O   UNL A   1      40.365  22.239  27.359  1.00  0.00    -0.237 OA
ATOM     63  O   UNL A   1      42.025  21.750  25.589  1.00  0.00    -0.237 OA
ATOM     64  O   UNL A   1      42.723  21.851  27.952  1.00  0.00    -0.744 OA
ENDBRANCH  57  61
ENDBRANCH  40  54
BRANCH  41  65
ATOM     65  C   UNL A   1      38.863  31.983  35.325  1.00  0.00     0.023 A 
ATOM     66  C   UNL A   1      38.289  31.349  36.438  1.00  0.00     0.031 A 
ATOM     67  C   UNL A   1      38.945  33.388  35.333  1.00  0.00     0.131 A 
ATOM     68  C   UNL A   1      37.793  32.120  37.501  1.00  0.00     0.055 A 
ATOM     69  C   UNL A   1      38.490  34.147  36.411  1.00  0.00     0.041 A 
ATOM     70  F   UNL A   1      39.494  34.041  34.296  1.00  0.00    -0.206 F 
ATOM     71  C   UNL A   1      37.901  33.513  37.501  1.00  0.00     0.022 A 
BRANCH  68  72
ATOM     72  S   UNL A   1      36.958  31.278  38.873  1.00  0.00     0.124 S 
ATOM     73  O   UNL A   1      36.793  29.931  38.341  1.00  0.00    -0.237 OA
ATOM     74  O   UNL A   1      37.925  31.428  39.955  1.00  0.00    -0.237 OA
ATOM     75  O   UNL A   1      35.721  32.039  39.039  1.00  0.00    -0.744 OA
ENDBRANCH  68  72
ENDBRANCH  41  65
BRANCH  53  76
ATOM     76  C   UNL A   1      44.652  28.236  34.240  1.00  0.00     0.023 A 
ATOM     77  C   UNL A   1      44.747  27.157  35.137  1.00  0.00     0.031 A 
ATOM     78  C   UNL A   1      45.741  29.120  34.153  1.00  0.00     0.131 A 
ATOM     79  C   UNL A   1      45.884  27.022  35.951  1.00  0.00     0.055 A 
ATOM     80  C   UNL A   1      46.894  28.946  34.920  1.00  0.00     0.041 A 
ATOM     81  F   UNL A   1      45.705  30.170  33.317  1.00  0.00    -0.206 F 
ATOM     82  C   UNL A   1      46.965  27.900  35.836  1.00  0.00     0.022 A 
BRANCH  79  83
ATOM     83  S   UNL A   1      45.892  25.738  37.233  1.00  0.00     0.124 S 
ATOM     84  O   UNL A   1      46.993  26.171  38.088  1.00  0.00    -0.237 OA
ATOM     85  O   UNL A   1      44.556  25.859  37.805  1.00  0.00    -0.237 OA
ATOM     86  O   UNL A   1      46.138  24.507  36.486  1.00  0.00    -0.744 OA
ENDBRANCH  79  83
ENDBRANCH  53  76
ENDBRANCH  27  28
ENDBRANCH  19  22
ENDBRANCH  17  18
ENDBRANCH   1  17
TORSDOF 17
ENDMDL
MODEL 2
REMARK VINA RESULT:     -10.4      2.141      8.189
REMARK SMILES CC(C)[C@H](C(=O)NCCCNC(=O)c1ccc(-c2c3nc(c(-c4cc(S(=O)(=O)[O-])ccc4F)c4ccc([nH]4)c(-c4cc(S(=O)(=O)[O-])ccc4F)c4nc(c(-c5cc(S(=O)(=O)[O-])ccc5F)c5ccc2[nH]5)C=C4)C=C3)cc1)[C@H](C)[C@@H](C)O
REMARK SMILES IDX 9 1 8 2 7 3 5 4 6 5 4 7 2 8 1 9 3 10 77 11 78 12 79 13 80 14
REMARK SMILES IDX 81 15 10 17 11 18 12 19 13 21 14 22 15 23 76 24 16 25 75 26
REMARK SMILES IDX 17 27 18 28 19 29 69 30 20 31 74 32 68 33 70 34 21 35 73 36
REMARK SMILES IDX 67 37 66 38 22 40 54 41 34 42 53 43 35 44 38 45 52 46 71 47
REMARK SMILES IDX 36 48 37 49 51 51 72 52 39 53 23 54 24 55 32 56 25 57 31 58
REMARK SMILES IDX 33 59 30 60 26 61 27 62 28 63 29 64 55 65 56 66 64 67 57 68
REMARK SMILES IDX 63 69 65 70 62 71 58 72 59 73 60 74 61 75 40 76 41 77 49 78
REMARK SMILES IDX 42 79 48 80 50 81 47 82 43 83 44 84 45 85 46 86
REMARK H PARENT 7 6 81 16 11 20 70 39 38 50
REMARK Flexibility Score: inf
ROOT
ATOM      1  C   UNL A   1      33.019  27.712  26.105  1.00  0.00     0.042 C 
ENDROOT
BRANCH   1   2
ATOM      2  C   UNL A   1      33.307  26.240  25.760  1.00  0.00     0.117 C 
BRANCH   2   3
ATOM      3  N   UNL A   1      33.502  25.999  24.336  1.00  0.00    -0.356 N 
ATOM      4  C   UNL A   1      33.737  24.881  23.595  1.00  0.00     0.223 C 
ATOM      5  O   UNL A   1      34.007  25.066  22.403  1.00  0.00    -0.275 OA
ATOM      6  H   UNL A   1      33.451  26.821  23.795  1.00  0.00     0.163 HD
BRANCH   4   7
ATOM      7  C   UNL A   1      33.621  23.458  24.183  1.00  0.00     0.086 C 
BRANCH   7   8
ATOM      8  C   UNL A   1      32.228  22.847  23.697  1.00  0.00    -0.005 C 
ATOM      9  C   UNL A   1      31.031  23.798  23.563  1.00  0.00     0.008 C 
ATOM     10  C   UNL A   1      32.402  22.067  22.388  1.00  0.00     0.008 C 
ENDBRANCH   7   8
BRANCH   7  11
ATOM     11  C   UNL A   1      34.847  22.514  23.912  1.00  0.00     0.027 C 
ATOM     12  C   UNL A   1      34.912  21.447  25.026  1.00  0.00     0.011 C 
BRANCH  11  13
ATOM     13  C   UNL A   1      36.225  23.194  23.801  1.00  0.00     0.115 C 
ATOM     14  C   UNL A   1      37.268  22.736  24.813  1.00  0.00     0.038 C 
BRANCH  13  15
ATOM     15  O   UNL A   1      36.789  22.992  22.513  1.00  0.00    -0.393 OA
ATOM     16  H   UNL A   1      36.359  23.582  21.875  1.00  0.00     0.210 HD
ENDBRANCH  13  15
ENDBRANCH  11  13
ENDBRANCH   7  11
ENDBRANCH   4   7
ENDBRANCH   2   3
ENDBRANCH   1   2
BRANCH   1  17
ATOM     17  C   UNL A   1      34.095  28.714  25.692  1.00  0.00     0.118 C 
BRANCH  17  18
ATOM     18  N   UNL A   1      33.816  30.037  26.221  1.00  0.00    -0.352 N 
ATOM     19  C   UNL A   1      34.328  30.681  27.322  1.00  0.00     0.251 C 
ATOM     20  H   UNL A   1      33.152  30.554  25.710  1.00  0.00     0.163 HD
ATOM     21  O   UNL A   1      33.708  31.645  27.766  1.00  0.00    -0.269 OA
BRANCH  19  22
ATOM     22  C   UNL A   1      35.590  30.251  27.983  1.00  0.00     0.039 A 
ATOM     23  C   UNL A   1      36.789  30.383  27.270  1.00  0.00     0.014 A 
ATOM     24  C   UNL A   1      35.611  29.613  29.227  1.00  0.00     0.014 A 
ATOM     25  C   UNL A   1      37.990  29.896  27.800  1.00  0.00     0.010 A 
ATOM     26  C   UNL A   1      36.823  29.191  29.787  1.00  0.00     0.010 A 
ATOM     27  C   UNL A   1      38.024  29.300  29.069  1.00  0.00    -0.014 A 
BRANCH  27  28
ATOM     28  C   UNL A   1      39.294  28.750  29.625  1.00  0.00     0.031 A 
ATOM     29  C   UNL A   1      39.923  29.363  30.851  1.00  0.00     0.074 A 
ATOM     30  C   UNL A   1      39.907  27.715  29.014  1.00  0.00     0.049 A 
ATOM     31  N   UNL A   1      41.039  29.048  31.461  1.00  0.00    -0.248 NA
ATOM     32  C   UNL A   1      39.216  30.503  31.451  1.00  0.00     0.031 C 
ATOM     33  C   UNL A   1      39.430  27.053  27.799  1.00  0.00     0.029 A 
ATOM     34  N   UNL A   1      41.065  27.046  29.325  1.00  0.00    -0.354 N 
ATOM     35  C   UNL A   1      41.178  29.961  32.503  1.00  0.00     0.074 A 
ATOM     36  C   UNL A   1      40.061  30.877  32.399  1.00  0.00     0.031 C 
ATOM     37  C   UNL A   1      40.280  26.066  27.475  1.00  0.00     0.029 A 
ATOM     38  C   UNL A   1      41.381  26.046  28.434  1.00  0.00     0.049 A 
ATOM     39  H   UNL A   1      41.617  27.261  30.111  1.00  0.00     0.167 HD
ATOM     40  C   UNL A   1      42.135  30.021  33.465  1.00  0.00     0.034 A 
ATOM     41  C   UNL A   1      42.441  25.215  28.382  1.00  0.00     0.034 A 
ATOM     42  C   UNL A   1      43.236  29.092  33.566  1.00  0.00     0.049 A 
ATOM     43  C   UNL A   1      43.495  25.297  29.454  1.00  0.00     0.074 A 
ATOM     44  C   UNL A   1      44.211  29.012  34.546  1.00  0.00     0.029 A 
ATOM     45  N   UNL A   1      43.521  28.090  32.646  1.00  0.00    -0.354 N 
ATOM     46  N   UNL A   1      43.577  26.124  30.472  1.00  0.00    -0.248 NA
ATOM     47  C   UNL A   1      44.594  24.324  29.380  1.00  0.00     0.031 C 
ATOM     48  C   UNL A   1      45.124  28.015  34.180  1.00  0.00     0.029 A 
ATOM     49  C   UNL A   1      44.677  27.415  33.014  1.00  0.00     0.049 A 
ATOM     50  H   UNL A   1      42.980  27.887  31.849  1.00  0.00     0.167 HD
ATOM     51  C   UNL A   1      44.725  25.757  31.169  1.00  0.00     0.074 A 
ATOM     52  C   UNL A   1      45.292  24.624  30.465  1.00  0.00     0.031 C 
ATOM     53  C   UNL A   1      45.257  26.305  32.292  1.00  0.00     0.034 A 
BRANCH  40  54
ATOM     54  C   UNL A   1      42.044  31.157  34.464  1.00  0.00     0.023 A 
ATOM     55  C   UNL A   1      41.045  31.199  35.453  1.00  0.00     0.031 A 
ATOM     56  C   UNL A   1      42.943  32.237  34.396  1.00  0.00     0.131 A 
ATOM     57  C   UNL A   1      40.907  32.336  36.264  1.00  0.00     0.055 A 
ATOM     58  C   UNL A   1      42.856  33.325  35.268  1.00  0.00     0.041 A 
ATOM     59  F   UNL A   1      43.910  32.266  33.466  1.00  0.00    -0.206 F 
ATOM     60  C   UNL A   1      41.821  33.390  36.196  1.00  0.00     0.022 A 
BRANCH  57  61
ATOM     61  S   UNL A   1      39.413  32.494  37.284  1.00  0.00     0.124 S 
ATOM     62  O   UNL A   1      38.752  31.215  37.039  1.00  0.00    -0.237 OA
ATOM     63  O   UNL A   1      39.962  32.688  38.618  1.00  0.00    -0.237 OA
ATOM     64  O   UNL A   1      38.731  33.655  36.712  1.00  0.00    -0.744 OA
ENDBRANCH  57  61
ENDBRANCH  40  54
BRANCH  41  65
ATOM     65  C   UNL A   1      42.568  24.244  27.259  1.00  0.00     0.023 A 
ATOM     66  C   UNL A   1      41.985  22.969  27.325  1.00  0.00     0.031 A 
ATOM     67  C   UNL A   1      43.282  24.586  26.095  1.00  0.00     0.131 A 
ATOM     68  C   UNL A   1      42.149  22.071  26.259  1.00  0.00     0.055 A 
ATOM     69  C   UNL A   1      43.405  23.705  25.020  1.00  0.00     0.041 A 
ATOM     70  F   UNL A   1      43.851  25.796  25.979  1.00  0.00    -0.206 F 
ATOM     71  C   UNL A   1      42.843  22.434  25.102  1.00  0.00     0.022 A 
BRANCH  68  72
ATOM     72  S   UNL A   1      41.477  20.394  26.421  1.00  0.00     0.124 S 
ATOM     73  O   UNL A   1      42.207  19.678  25.382  1.00  0.00    -0.237 OA
ATOM     74  O   UNL A   1      41.824  20.059  27.797  1.00  0.00    -0.237 OA
ATOM     75  O   UNL A   1      40.048  20.574  26.169  1.00  0.00    -0.744 OA
ENDBRANCH  68  72
ENDBRANCH  41  65
BRANCH  53  76
ATOM     76  C   UNL A   1      46.508  25.661  32.844  1.00  0.00     0.023 A 
ATOM     77  C   UNL A   1      46.449  24.606  33.772  1.00  0.00     0.031 A 
ATOM     78  C   UNL A   1      47.775  26.121  32.448  1.00  0.00     0.131 A 
ATOM     79  C   UNL A   1      47.635  24.083  34.314  1.00  0.00     0.055 A 
ATOM     80  C   UNL A   1      48.952  25.557  32.944  1.00  0.00     0.041 A 
ATOM     81  F   UNL A   1      47.893  27.128  31.568  1.00  0.00    -0.206 F 
ATOM     82  C   UNL A   1      48.886  24.541  33.894  1.00  0.00     0.022 A 
BRANCH  79  83
ATOM     83  S   UNL A   1      47.520  22.862  35.651  1.00  0.00     0.124 S 
ATOM     84  O   UNL A   1      48.229  23.533  36.736  1.00  0.00    -0.237 OA
ATOM     85  O   UNL A   1      46.078  22.721  35.823  1.00  0.00    -0.237 OA
ATOM     86  O   UNL A   1      48.196  21.688  35.103  1.00  0.00    -0.744 OA
ENDBRANCH  79  83
ENDBRANCH  53  76
ENDBRANCH  27  28
ENDBRANCH  19  22
ENDBRANCH  17  18
ENDBRANCH   1  17
TORSDOF 17
ENDMDL
MODEL 3
REMARK VINA RESULT:     -10.4      2.815      8.494
REMARK SMILES CC(C)[C@H](C(=O)NCCCNC(=O)c1ccc(-c2c3nc(c(-c4cc(S(=O)(=O)[O-])ccc4F)c4ccc([nH]4)c(-c4cc(S(=O)(=O)[O-])ccc4F)c4nc(c(-c5cc(S(=O)(=O)[O-])ccc5F)c5ccc2[nH]5)C=C4)C=C3)cc1)[C@H](C)[C@@H](C)O
REMARK SMILES IDX 9 1 8 2 7 3 5 4 6 5 4 7 2 8 1 9 3 10 77 11 78 12 79 13 80 14
REMARK SMILES IDX 81 15 10 17 11 18 12 19 13 21 14 22 15 23 76 24 16 25 75 26
REMARK SMILES IDX 17 27 18 28 19 29 69 30 20 31 74 32 68 33 70 34 21 35 73 36
REMARK SMILES IDX 67 37 66 38 22 40 54 41 34 42 53 43 35 44 38 45 52 46 71 47
REMARK SMILES IDX 36 48 37 49 51 51 72 52 39 53 23 54 24 55 32 56 25 57 31 58
REMARK SMILES IDX 33 59 30 60 26 61 27 62 28 63 29 64 55 65 56 66 64 67 57 68
REMARK SMILES IDX 63 69 65 70 62 71 58 72 59 73 60 74 61 75 40 76 41 77 49 78
REMARK SMILES IDX 42 79 48 80 50 81 47 82 43 83 44 84 45 85 46 86
REMARK H PARENT 7 6 81 16 11 20 70 39 38 50
REMARK Flexibility Score: inf
ROOT
ATOM      1  C   UNL A   1      33.097  28.733  27.295  1.00  0.00     0.042 C 
ENDROOT
BRANCH   1   2
ATOM      2  C   UNL A   1      31.567  28.588  27.203  1.00  0.00     0.117 C 
BRANCH   2   3
ATOM      3  N   UNL A   1      31.109  27.205  27.193  1.00  0.00    -0.356 N 
ATOM      4  C   UNL A   1      30.966  26.269  26.214  1.00  0.00     0.223 C 
ATOM      5  O   UNL A   1      30.396  25.224  26.541  1.00  0.00    -0.275 OA
ATOM      6  H   UNL A   1      30.849  26.878  28.084  1.00  0.00     0.163 HD
BRANCH   4   7
ATOM      7  C   UNL A   1      31.531  26.468  24.790  1.00  0.00     0.086 C 
BRANCH   7   8
ATOM      8  C   UNL A   1      32.782  25.488  24.625  1.00  0.00    -0.005 C 
ATOM      9  C   UNL A   1      33.716  25.304  25.830  1.00  0.00     0.008 C 
ATOM     10  C   UNL A   1      32.334  24.112  24.119  1.00  0.00     0.008 C 
ENDBRANCH   7   8
BRANCH   7  11
ATOM     11  C   UNL A   1      30.483  26.344  23.626  1.00  0.00     0.027 C 
ATOM     12  C   UNL A   1      31.040  27.056  22.375  1.00  0.00     0.011 C 
BRANCH  11  13
ATOM     13  C   UNL A   1      29.071  26.889  23.914  1.00  0.00     0.115 C 
ATOM     14  C   UNL A   1      28.676  28.138  23.134  1.00  0.00     0.038 C 
BRANCH  13  15
ATOM     15  O   UNL A   1      28.082  25.907  23.641  1.00  0.00    -0.393 OA
ATOM     16  H   UNL A   1      27.845  25.449  24.463  1.00  0.00     0.210 HD
ENDBRANCH  13  15
ENDBRANCH  11  13
ENDBRANCH   7  11
ENDBRANCH   4   7
ENDBRANCH   2   3
ENDBRANCH   1   2
BRANCH   1  17
ATOM     17  C   UNL A   1      33.718  29.801  26.395  1.00  0.00     0.118 C 
BRANCH  17  18
ATOM     18  N   UNL A   1      33.752  31.093  27.056  1.00  0.00    -0.352 N 
ATOM     19  C   UNL A   1      34.550  31.548  28.078  1.00  0.00     0.251 C 
ATOM     20  H   UNL A   1      33.099  31.747  26.717  1.00  0.00     0.163 HD
ATOM     21  O   UNL A   1      34.181  32.544  28.697  1.00  0.00    -0.269 OA
BRANCH  19  22
ATOM     22  C   UNL A   1      35.825  30.879  28.455  1.00  0.00     0.039 A 
ATOM     23  C   UNL A   1      35.776  29.844  29.398  1.00  0.00     0.014 A 
ATOM     24  C   UNL A   1      37.071  31.320  28.000  1.00  0.00     0.014 A 
ATOM     25  C   UNL A   1      36.954  29.253  29.869  1.00  0.00     0.010 A 
ATOM     26  C   UNL A   1      38.245  30.681  28.418  1.00  0.00     0.010 A 
ATOM     27  C   UNL A   1      38.204  29.659  29.378  1.00  0.00    -0.014 A 
BRANCH  27  28
ATOM     28  C   UNL A   1      39.466  29.056  29.900  1.00  0.00     0.031 A 
ATOM     29  C   UNL A   1      40.156  29.648  31.104  1.00  0.00     0.074 A 
ATOM     30  C   UNL A   1      40.015  27.993  29.279  1.00  0.00     0.049 A 
ATOM     31  N   UNL A   1      41.274  29.288  31.684  1.00  0.00    -0.248 NA
ATOM     32  C   UNL A   1      39.516  30.820  31.717  1.00  0.00     0.031 C 
ATOM     33  C   UNL A   1      39.475  27.347  28.082  1.00  0.00     0.029 A 
ATOM     34  N   UNL A   1      41.152  27.276  29.560  1.00  0.00    -0.354 N 
ATOM     35  C   UNL A   1      41.483  30.200  32.715  1.00  0.00     0.074 A 
ATOM     36  C   UNL A   1      40.403  31.162  32.638  1.00  0.00     0.031 C 
ATOM     37  C   UNL A   1      40.272  26.322  27.740  1.00  0.00     0.029 A 
ATOM     38  C   UNL A   1      41.399  26.259  28.667  1.00  0.00     0.049 A 
ATOM     39  H   UNL A   1      41.735  27.471  30.329  1.00  0.00     0.167 HD
ATOM     40  C   UNL A   1      42.468  30.223  33.650  1.00  0.00     0.034 A 
ATOM     41  C   UNL A   1      42.420  25.382  28.589  1.00  0.00     0.034 A 
ATOM     42  C   UNL A   1      43.531  29.247  33.724  1.00  0.00     0.049 A 
ATOM     43  C   UNL A   1      43.507  25.424  29.631  1.00  0.00     0.074 A 
ATOM     44  C   UNL A   1      44.530  29.130  34.676  1.00  0.00     0.029 A 
ATOM     45  N   UNL A   1      43.746  28.229  32.803  1.00  0.00    -0.354 N 
ATOM     46  N   UNL A   1      43.654  26.252  30.640  1.00  0.00    -0.248 NA
ATOM     47  C   UNL A   1      44.561  24.405  29.531  1.00  0.00     0.031 C 
ATOM     48  C   UNL A   1      45.388  28.093  34.291  1.00  0.00     0.029 A 
ATOM     49  C   UNL A   1      44.882  27.507  33.142  1.00  0.00     0.049 A 
ATOM     50  H   UNL A   1      43.174  28.046  32.023  1.00  0.00     0.167 HD
ATOM     51  C   UNL A   1      44.805  25.840  31.306  1.00  0.00     0.074 A 
ATOM     52  C   UNL A   1      45.302  24.679  30.594  1.00  0.00     0.031 C 
ATOM     53  C   UNL A   1      45.392  26.369  32.411  1.00  0.00     0.034 A 
BRANCH  40  54
ATOM     54  C   UNL A   1      42.456  31.366  34.643  1.00  0.00     0.023 A 
ATOM     55  C   UNL A   1      41.549  31.407  35.718  1.00  0.00     0.031 A 
ATOM     56  C   UNL A   1      43.333  32.455  34.487  1.00  0.00     0.131 A 
ATOM     57  C   UNL A   1      41.473  32.551  36.529  1.00  0.00     0.055 A 
ATOM     58  C   UNL A   1      43.314  33.550  35.354  1.00  0.00     0.041 A 
ATOM     59  F   UNL A   1      44.213  32.485  33.473  1.00  0.00    -0.206 F 
ATOM     60  C   UNL A   1      42.365  33.612  36.370  1.00  0.00     0.022 A 
BRANCH  57  61
ATOM     61  S   UNL A   1      40.075  32.703  37.677  1.00  0.00     0.124 S 
ATOM     62  O   UNL A   1      39.628  34.070  37.418  1.00  0.00    -0.237 OA
ATOM     63  O   UNL A   1      39.183  31.642  37.231  1.00  0.00    -0.237 OA
ATOM     64  O   UNL A   1      40.687  32.497  38.990  1.00  0.00    -0.744 OA
ENDBRANCH  57  61
ENDBRANCH  40  54
BRANCH  41  65
ATOM     65  C   UNL A   1      42.472  24.401  27.469  1.00  0.00     0.023 A 
ATOM     66  C   UNL A   1      41.717  23.219  27.497  1.00  0.00     0.031 A 
ATOM     67  C   UNL A   1      43.288  24.640  26.347  1.00  0.00     0.131 A 
ATOM     68  C   UNL A   1      41.812  22.305  26.436  1.00  0.00     0.055 A 
ATOM     69  C   UNL A   1      43.346  23.748  25.276  1.00  0.00     0.041 A 
ATOM     70  F   UNL A   1      44.024  25.760  26.269  1.00  0.00    -0.206 F 
ATOM     71  C   UNL A   1      42.611  22.567  25.320  1.00  0.00     0.022 A 
BRANCH  68  72
ATOM     72  S   UNL A   1      40.908  20.737  26.553  1.00  0.00     0.124 S 
ATOM     73  O   UNL A   1      41.738  19.853  25.744  1.00  0.00    -0.237 OA
ATOM     74  O   UNL A   1      40.915  20.488  27.990  1.00  0.00    -0.237 OA
ATOM     75  O   UNL A   1      39.599  21.056  25.986  1.00  0.00    -0.744 OA
ENDBRANCH  68  72
ENDBRANCH  41  65
BRANCH  53  76
ATOM     76  C   UNL A   1      46.630  25.674  32.930  1.00  0.00     0.023 A 
ATOM     77  C   UNL A   1      47.896  25.893  32.359  1.00  0.00     0.031 A 
ATOM     78  C   UNL A   1      46.536  24.768  34.001  1.00  0.00     0.131 A 
ATOM     79  C   UNL A   1      49.008  25.173  32.826  1.00  0.00     0.055 A 
ATOM     80  C   UNL A   1      47.656  24.101  34.500  1.00  0.00     0.041 A 
ATOM     81  F   UNL A   1      45.353  24.516  34.583  1.00  0.00    -0.206 F 
ATOM     82  C   UNL A   1      48.899  24.291  33.903  1.00  0.00     0.022 A 
BRANCH  79  83
ATOM     83  S   UNL A   1      50.584  25.331  31.941  1.00  0.00     0.124 S 
ATOM     84  O   UNL A   1      50.903  23.939  31.638  1.00  0.00    -0.237 OA
ATOM     85  O   UNL A   1      50.221  26.165  30.801  1.00  0.00    -0.237 OA
ATOM     86  O   UNL A   1      51.464  25.968  32.918  1.00  0.00    -0.744 OA
ENDBRANCH  79  83
ENDBRANCH  53  76
ENDBRANCH  27  28
ENDBRANCH  19  22
ENDBRANCH  17  18
ENDBRANCH   1  17
TORSDOF 17
ENDMDL
