MODEL 1
REMARK VINA RESULT:     -12.1      0.000      0.000
REMARK SMILES O=C(NCCCNC(=O)c1ccc(S(=O)(=O)Nc2ccccc2I)cc1)c1ccc(-c2c3nc(c(-c4cc(S(=O)(=O)[O-])ccc4F)c4ccc([nH]4)c(-c4cc(S(=O)(=O)[O-])ccc4F)c4nc(c(-c5cc(S(=O)(=O)[O-])ccc5F)c5ccc2[nH]5)C=C4)C=C3)cc1
REMARK SMILES IDX 5 1 4 2 3 3 1 4 2 5 27 7 28 8 89 9 29 10 88 11 30 12 31 13
REMARK SMILES IDX 32 14 82 15 33 16 87 17 81 18 83 19 34 20 86 21 80 22 79 23
REMARK SMILES IDX 35 25 67 26 47 27 66 28 48 29 51 30 65 31 84 32 49 33 50 34
REMARK SMILES IDX 64 36 85 37 52 38 36 39 37 40 45 41 38 42 44 43 46 44 43 45
REMARK SMILES IDX 39 46 40 47 41 48 42 49 68 50 69 51 77 52 70 53 76 54 78 55
REMARK SMILES IDX 75 56 71 57 72 58 73 59 74 60 53 61 54 62 62 63 55 64 61 65
REMARK SMILES IDX 63 66 60 67 56 68 57 69 58 70 59 71 6 72 7 73 8 74 9 76
REMARK SMILES IDX 10 77 11 78 26 79 12 80 25 81 13 82 14 83 15 84 16 85 17 86
REMARK SMILES IDX 18 88 19 89 23 90 20 91 22 92 24 93 21 94
REMARK H PARENT 3 6 83 24 51 35 7 75 17 87
REMARK Flexibility Score: inf
ROOT
ATOM      1  C   UNL A   1      31.469  31.867  26.754  1.00  0.00     0.042 C 
ENDROOT
BRANCH   1   2
ATOM      2  C   UNL A   1      32.786  32.571  27.006  1.00  0.00     0.118 C 
BRANCH   2   3
ATOM      3  N   UNL A   1      32.613  33.893  27.601  1.00  0.00    -0.352 N 
ATOM      4  O   UNL A   1      32.792  35.528  29.138  1.00  0.00    -0.269 OA
ATOM      5  C   UNL A   1      33.227  34.470  28.690  1.00  0.00     0.251 C 
ATOM      6  H   UNL A   1      31.951  34.465  27.150  1.00  0.00     0.163 HD
BRANCH   5   7
ATOM      7  C   UNL A   1      34.388  33.812  29.329  1.00  0.00     0.039 A 
ATOM      8  C   UNL A   1      34.202  32.712  30.161  1.00  0.00     0.014 A 
ATOM      9  C   UNL A   1      35.682  34.284  29.086  1.00  0.00     0.014 A 
ATOM     10  C   UNL A   1      35.258  32.230  30.918  1.00  0.00     0.010 A 
ATOM     11  C   UNL A   1      36.774  33.693  29.737  1.00  0.00     0.010 A 
ATOM     12  C   UNL A   1      36.565  32.683  30.686  1.00  0.00    -0.014 A 
BRANCH  12  13
ATOM     13  C   UNL A   1      37.677  31.998  31.397  1.00  0.00     0.031 A 
ATOM     14  C   UNL A   1      38.512  30.946  30.722  1.00  0.00     0.074 A 
ATOM     15  C   UNL A   1      37.970  32.406  32.649  1.00  0.00     0.049 A 
ATOM     16  N   UNL A   1      39.548  30.297  31.190  1.00  0.00    -0.248 NA
ATOM     17  C   UNL A   1      38.136  30.563  29.354  1.00  0.00     0.031 C 
ATOM     18  C   UNL A   1      37.216  33.417  33.400  1.00  0.00     0.029 A 
ATOM     19  N   UNL A   1      38.992  32.067  33.497  1.00  0.00    -0.354 N 
ATOM     20  C   UNL A   1      39.937  29.417  30.187  1.00  0.00     0.074 A 
ATOM     21  C   UNL A   1      39.006  29.597  29.093  1.00  0.00     0.031 C 
ATOM     22  C   UNL A   1      37.846  33.675  34.553  1.00  0.00     0.029 A 
ATOM     23  C   UNL A   1      38.990  32.783  34.672  1.00  0.00     0.049 A 
ATOM     24  H   UNL A   1      39.663  31.379  33.284  1.00  0.00     0.167 HD
ATOM     25  C   UNL A   1      40.979  28.547  30.182  1.00  0.00     0.034 A 
ATOM     26  C   UNL A   1      39.805  32.717  35.742  1.00  0.00     0.034 A 
ATOM     27  C   UNL A   1      41.900  28.391  31.284  1.00  0.00     0.049 A 
ATOM     28  C   UNL A   1      40.937  31.731  35.712  1.00  0.00     0.074 A 
ATOM     29  C   UNL A   1      42.993  27.547  31.383  1.00  0.00     0.029 A 
ATOM     30  N   UNL A   1      41.839  29.095  32.481  1.00  0.00    -0.354 N 
ATOM     31  N   UNL A   1      41.283  30.902  34.753  1.00  0.00    -0.248 NA
ATOM     32  C   UNL A   1      41.786  31.667  36.906  1.00  0.00     0.031 C 
ATOM     33  C   UNL A   1      43.555  27.698  32.656  1.00  0.00     0.029 A 
ATOM     34  C   UNL A   1      42.856  28.687  33.331  1.00  0.00     0.049 A 
ATOM     35  H   UNL A   1      41.169  29.784  32.695  1.00  0.00     0.167 HD
ATOM     36  C   UNL A   1      42.396  30.219  35.230  1.00  0.00     0.074 A 
ATOM     37  C   UNL A   1      42.684  30.765  36.542  1.00  0.00     0.031 C 
ATOM     38  C   UNL A   1      43.109  29.224  34.646  1.00  0.00     0.034 A 
BRANCH  25  39
ATOM     39  C   UNL A   1      41.149  27.664  28.969  1.00  0.00     0.023 A 
ATOM     40  C   UNL A   1      42.144  27.909  28.006  1.00  0.00     0.031 A 
ATOM     41  C   UNL A   1      40.301  26.560  28.773  1.00  0.00     0.131 A 
ATOM     42  C   UNL A   1      42.234  27.090  26.869  1.00  0.00     0.055 A 
ATOM     43  C   UNL A   1      40.440  25.709  27.675  1.00  0.00     0.041 A 
ATOM     44  F   UNL A   1      39.319  26.288  29.648  1.00  0.00    -0.206 F 
ATOM     45  C   UNL A   1      41.405  25.977  26.709  1.00  0.00     0.022 A 
BRANCH  42  46
ATOM     46  S   UNL A   1      43.380  27.563  25.544  1.00  0.00     0.124 S 
ATOM     47  O   UNL A   1      44.178  26.348  25.397  1.00  0.00    -0.237 OA
ATOM     48  O   UNL A   1      42.477  27.873  24.442  1.00  0.00    -0.237 OA
ATOM     49  O   UNL A   1      44.098  28.708  26.103  1.00  0.00    -0.744 OA
ENDBRANCH  42  46
ENDBRANCH  25  39
BRANCH  26  50
ATOM     50  C   UNL A   1      39.550  33.568  36.939  1.00  0.00     0.023 A 
ATOM     51  C   UNL A   1      38.889  33.060  38.067  1.00  0.00     0.031 A 
ATOM     52  C   UNL A   1      39.934  34.923  36.954  1.00  0.00     0.131 A 
ATOM     53  C   UNL A   1      38.594  33.910  39.144  1.00  0.00     0.055 A 
ATOM     54  C   UNL A   1      39.692  35.747  38.052  1.00  0.00     0.041 A 
ATOM     55  F   UNL A   1      40.570  35.461  35.901  1.00  0.00    -0.206 F 
ATOM     56  C   UNL A   1      39.004  35.245  39.151  1.00  0.00     0.022 A 
BRANCH  53  57
ATOM     57  S   UNL A   1      37.572  33.269  40.499  1.00  0.00     0.124 S 
ATOM     58  O   UNL A   1      37.369  34.464  41.310  1.00  0.00    -0.237 OA
ATOM     59  O   UNL A   1      36.402  32.772  39.784  1.00  0.00    -0.237 OA
ATOM     60  O   UNL A   1      38.416  32.240  41.103  1.00  0.00    -0.744 OA
ENDBRANCH  53  57
ENDBRANCH  26  50
BRANCH  38  61
ATOM     61  C   UNL A   1      44.276  28.689  35.436  1.00  0.00     0.023 A 
ATOM     62  C   UNL A   1      44.120  27.620  36.336  1.00  0.00     0.031 A 
ATOM     63  C   UNL A   1      45.542  29.290  35.329  1.00  0.00     0.131 A 
ATOM     64  C   UNL A   1      45.194  27.232  37.149  1.00  0.00     0.055 A 
ATOM     65  C   UNL A   1      46.624  28.856  36.096  1.00  0.00     0.041 A 
ATOM     66  F   UNL A   1      45.744  30.315  34.486  1.00  0.00    -0.206 F 
ATOM     67  C   UNL A   1      46.449  27.834  37.025  1.00  0.00     0.022 A 
BRANCH  64  68
ATOM     68  S   UNL A   1      44.896  26.005  38.452  1.00  0.00     0.124 S 
ATOM     69  O   UNL A   1      44.425  26.839  39.552  1.00  0.00    -0.237 OA
ATOM     70  O   UNL A   1      43.898  25.136  37.838  1.00  0.00    -0.237 OA
ATOM     71  O   UNL A   1      46.208  25.395  38.654  1.00  0.00    -0.744 OA
ENDBRANCH  64  68
ENDBRANCH  38  61
ENDBRANCH  12  13
ENDBRANCH   5   7
ENDBRANCH   2   3
ENDBRANCH   1   2
BRANCH   1  72
ATOM     72  C   UNL A   1      31.626  30.388  26.476  1.00  0.00     0.118 C 
BRANCH  72  73
ATOM     73  N   UNL A   1      32.029  30.093  25.102  1.00  0.00    -0.352 N 
ATOM     74  C   UNL A   1      32.269  28.896  24.464  1.00  0.00     0.251 C 
ATOM     75  H   UNL A   1      32.152  30.888  24.535  1.00  0.00     0.163 HD
ATOM     76  O   UNL A   1      32.732  28.897  23.327  1.00  0.00    -0.269 OA
BRANCH  74  77
ATOM     77  C   UNL A   1      31.978  27.609  25.134  1.00  0.00     0.039 A 
ATOM     78  C   UNL A   1      30.677  27.089  25.141  1.00  0.00     0.015 A 
ATOM     79  C   UNL A   1      32.997  26.894  25.750  1.00  0.00     0.015 A 
ATOM     80  C   UNL A   1      30.423  25.837  25.724  1.00  0.00     0.023 A 
ATOM     81  C   UNL A   1      32.777  25.589  26.149  1.00  0.00     0.023 A 
ATOM     82  C   UNL A   1      31.489  25.079  26.225  1.00  0.00     0.087 A 
BRANCH  82  83
ATOM     83  S   UNL A   1      31.220  23.447  26.876  1.00  0.00     0.261 S 
ATOM     84  O   UNL A   1      32.263  23.186  27.851  1.00  0.00    -0.201 OA
ATOM     85  O   UNL A   1      29.828  23.362  27.251  1.00  0.00    -0.201 OA
BRANCH  83  86
ATOM     86  N   UNL A   1      31.454  22.267  25.648  1.00  0.00    -0.279 N 
ATOM     87  H   UNL A   1      31.123  21.349  25.775  1.00  0.00     0.180 HD
BRANCH  86  88
ATOM     88  C   UNL A   1      32.140  22.629  24.434  1.00  0.00     0.062 A 
ATOM     89  C   UNL A   1      31.446  23.301  23.415  1.00  0.00     0.028 A 
ATOM     90  C   UNL A   1      33.527  22.433  24.307  1.00  0.00     0.037 A 
ATOM     91  C   UNL A   1      32.139  23.809  22.309  1.00  0.00     0.002 A 
ATOM     92  C   UNL A   1      34.214  22.945  23.199  1.00  0.00     0.017 A 
ATOM     93  I   UNL A   1      34.652  21.420  25.760  1.00  0.00    -0.042 I 
ATOM     94  C   UNL A   1      33.520  23.642  22.208  1.00  0.00     0.001 A 
ENDBRANCH  86  88
ENDBRANCH  83  86
ENDBRANCH  82  83
ENDBRANCH  74  77
ENDBRANCH  72  73
ENDBRANCH   1  72
TORSDOF 16
ENDMDL
MODEL 2
REMARK VINA RESULT:     -12.1      2.268      7.987
REMARK SMILES O=C(NCCCNC(=O)c1ccc(S(=O)(=O)Nc2ccccc2I)cc1)c1ccc(-c2c3nc(c(-c4cc(S(=O)(=O)[O-])ccc4F)c4ccc([nH]4)c(-c4cc(S(=O)(=O)[O-])ccc4F)c4nc(c(-c5cc(S(=O)(=O)[O-])ccc5F)c5ccc2[nH]5)C=C4)C=C3)cc1
REMARK SMILES IDX 5 1 4 2 3 3 1 4 2 5 27 7 28 8 89 9 29 10 88 11 30 12 31 13
REMARK SMILES IDX 32 14 82 15 33 16 87 17 81 18 83 19 34 20 86 21 80 22 79 23
REMARK SMILES IDX 35 25 67 26 47 27 66 28 48 29 51 30 65 31 84 32 49 33 50 34
REMARK SMILES IDX 64 36 85 37 52 38 36 39 37 40 45 41 38 42 44 43 46 44 43 45
REMARK SMILES IDX 39 46 40 47 41 48 42 49 68 50 69 51 77 52 70 53 76 54 78 55
REMARK SMILES IDX 75 56 71 57 72 58 73 59 74 60 53 61 54 62 62 63 55 64 61 65
REMARK SMILES IDX 63 66 60 67 56 68 57 69 58 70 59 71 6 72 7 73 8 74 9 76
REMARK SMILES IDX 10 77 11 78 26 79 12 80 25 81 13 82 14 83 15 84 16 85 17 86
REMARK SMILES IDX 18 88 19 89 23 90 20 91 22 92 24 93 21 94
REMARK H PARENT 3 6 83 24 51 35 7 75 17 87
REMARK Flexibility Score: inf
ROOT
ATOM      1  C   UNL A   1      31.556  31.639  26.721  1.00  0.00     0.042 C 
ENDROOT
BRANCH   1   2
ATOM      2  C   UNL A   1      32.759  32.558  26.734  1.00  0.00     0.118 C 
BRANCH   2   3
ATOM      3  N   UNL A   1      32.514  33.797  27.469  1.00  0.00    -0.352 N 
ATOM      4  O   UNL A   1      32.636  35.278  29.160  1.00  0.00    -0.269 OA
ATOM      5  C   UNL A   1      33.130  34.307  28.590  1.00  0.00     0.251 C 
ATOM      6  H   UNL A   1      31.792  34.357  27.104  1.00  0.00     0.163 HD
BRANCH   5   7
ATOM      7  C   UNL A   1      34.363  33.681  29.116  1.00  0.00     0.039 A 
ATOM      8  C   UNL A   1      34.289  32.533  29.899  1.00  0.00     0.014 A 
ATOM      9  C   UNL A   1      35.612  34.234  28.815  1.00  0.00     0.014 A 
ATOM     10  C   UNL A   1      35.417  32.072  30.558  1.00  0.00     0.010 A 
ATOM     11  C   UNL A   1      36.774  33.672  29.361  1.00  0.00     0.010 A 
ATOM     12  C   UNL A   1      36.681  32.605  30.266  1.00  0.00    -0.014 A 
BRANCH  12  13
ATOM     13  C   UNL A   1      37.872  31.947  30.866  1.00  0.00     0.031 A 
ATOM     14  C   UNL A   1      38.309  32.244  32.273  1.00  0.00     0.074 A 
ATOM     15  C   UNL A   1      38.508  31.009  30.135  1.00  0.00     0.049 A 
ATOM     16  N   UNL A   1      39.293  31.714  32.954  1.00  0.00    -0.248 NA
ATOM     17  C   UNL A   1      37.559  33.272  33.008  1.00  0.00     0.031 C 
ATOM     18  C   UNL A   1      38.168  30.649  28.752  1.00  0.00     0.029 A 
ATOM     19  N   UNL A   1      39.533  30.156  30.449  1.00  0.00    -0.354 N 
ATOM     20  C   UNL A   1      39.295  32.352  34.189  1.00  0.00     0.074 A 
ATOM     21  C   UNL A   1      38.228  33.332  34.152  1.00  0.00     0.031 C 
ATOM     22  C   UNL A   1      38.908  29.601  28.372  1.00  0.00     0.029 A 
ATOM     23  C   UNL A   1      39.843  29.274  29.439  1.00  0.00     0.049 A 
ATOM     24  H   UNL A   1      40.003  30.173  31.314  1.00  0.00     0.167 HD
ATOM     25  C   UNL A   1      40.108  32.134  35.254  1.00  0.00     0.034 A 
ATOM     26  C   UNL A   1      40.789  28.319  29.366  1.00  0.00     0.034 A 
ATOM     27  C   UNL A   1      41.161  31.144  35.270  1.00  0.00     0.049 A 
ATOM     28  C   UNL A   1      41.685  28.115  30.555  1.00  0.00     0.074 A 
ATOM     29  C   UNL A   1      42.037  30.834  36.296  1.00  0.00     0.029 A 
ATOM     30  N   UNL A   1      41.481  30.303  34.211  1.00  0.00    -0.354 N 
ATOM     31  N   UNL A   1      41.673  28.737  31.712  1.00  0.00    -0.248 NA
ATOM     32  C   UNL A   1      42.722  27.086  30.428  1.00  0.00     0.031 C 
ATOM     33  C   UNL A   1      42.922  29.849  35.838  1.00  0.00     0.029 A 
ATOM     34  C   UNL A   1      42.556  29.494  34.550  1.00  0.00     0.049 A 
ATOM     35  H   UNL A   1      41.013  30.284  33.345  1.00  0.00     0.167 HD
ATOM     36  C   UNL A   1      42.701  28.168  32.454  1.00  0.00     0.074 A 
ATOM     37  C   UNL A   1      43.282  27.128  31.627  1.00  0.00     0.031 C 
ATOM     38  C   UNL A   1      43.137  28.482  33.700  1.00  0.00     0.034 A 
BRANCH  25  39
ATOM     39  C   UNL A   1      39.922  33.011  36.469  1.00  0.00     0.023 A 
ATOM     40  C   UNL A   1      39.165  32.593  37.577  1.00  0.00     0.031 A 
ATOM     41  C   UNL A   1      40.514  34.285  36.519  1.00  0.00     0.131 A 
ATOM     42  C   UNL A   1      38.980  33.461  38.665  1.00  0.00     0.055 A 
ATOM     43  C   UNL A   1      40.383  35.117  37.632  1.00  0.00     0.041 A 
ATOM     44  F   UNL A   1      41.232  34.746  35.481  1.00  0.00    -0.206 F 
ATOM     45  C   UNL A   1      39.603  34.711  38.711  1.00  0.00     0.022 A 
BRANCH  42  46
ATOM     46  S   UNL A   1      37.820  32.980  39.975  1.00  0.00     0.124 S 
ATOM     47  O   UNL A   1      38.482  31.805  40.537  1.00  0.00    -0.237 OA
ATOM     48  O   UNL A   1      37.794  34.166  40.824  1.00  0.00    -0.237 OA
ATOM     49  O   UNL A   1      36.581  32.703  39.252  1.00  0.00    -0.744 OA
ENDBRANCH  42  46
ENDBRANCH  25  39
BRANCH  26  50
ATOM     50  C   UNL A   1      40.968  27.528  28.116  1.00  0.00     0.023 A 
ATOM     51  C   UNL A   1      40.577  26.183  28.042  1.00  0.00     0.031 A 
ATOM     52  C   UNL A   1      41.572  28.102  26.980  1.00  0.00     0.131 A 
ATOM     53  C   UNL A   1      40.834  25.444  26.877  1.00  0.00     0.055 A 
ATOM     54  C   UNL A   1      41.769  27.380  25.804  1.00  0.00     0.041 A 
ATOM     55  F   UNL A   1      41.964  29.386  26.995  1.00  0.00    -0.206 F 
ATOM     56  C   UNL A   1      41.413  26.037  25.752  1.00  0.00     0.022 A 
BRANCH  53  57
ATOM     57  S   UNL A   1      40.491  23.663  26.886  1.00  0.00     0.124 S 
ATOM     58  O   UNL A   1      40.633  23.338  28.300  1.00  0.00    -0.237 OA
ATOM     59  O   UNL A   1      39.135  23.614  26.349  1.00  0.00    -0.237 OA
ATOM     60  O   UNL A   1      41.526  23.114  26.012  1.00  0.00    -0.744 OA
ENDBRANCH  53  57
ENDBRANCH  26  50
BRANCH  38  61
ATOM     61  C   UNL A   1      44.289  27.666  34.228  1.00  0.00     0.023 A 
ATOM     62  C   UNL A   1      44.077  26.427  34.858  1.00  0.00     0.031 A 
ATOM     63  C   UNL A   1      45.602  28.156  34.149  1.00  0.00     0.131 A 
ATOM     64  C   UNL A   1      45.155  25.755  35.453  1.00  0.00     0.055 A 
ATOM     65  C   UNL A   1      46.680  27.452  34.687  1.00  0.00     0.041 A 
ATOM     66  F   UNL A   1      45.858  29.335  33.560  1.00  0.00    -0.206 F 
ATOM     67  C   UNL A   1      46.456  26.253  35.359  1.00  0.00     0.022 A 
BRANCH  64  68
ATOM     68  S   UNL A   1      44.812  24.278  36.449  1.00  0.00     0.124 S 
ATOM     69  O   UNL A   1      44.188  24.850  37.636  1.00  0.00    -0.237 OA
ATOM     70  O   UNL A   1      43.933  23.509  35.574  1.00  0.00    -0.237 OA
ATOM     71  O   UNL A   1      46.135  23.695  36.663  1.00  0.00    -0.744 OA
ENDBRANCH  64  68
ENDBRANCH  38  61
ENDBRANCH  12  13
ENDBRANCH   5   7
ENDBRANCH   2   3
ENDBRANCH   1   2
BRANCH   1  72
ATOM     72  C   UNL A   1      31.918  30.179  26.881  1.00  0.00     0.118 C 
BRANCH  72  73
ATOM     73  N   UNL A   1      33.253  29.968  27.440  1.00  0.00    -0.352 N 
ATOM     74  C   UNL A   1      34.233  29.052  27.128  1.00  0.00     0.251 C 
ATOM     75  H   UNL A   1      33.492  30.587  28.167  1.00  0.00     0.163 HD
ATOM     76  O   UNL A   1      35.238  28.974  27.829  1.00  0.00    -0.269 OA
BRANCH  74  77
ATOM     77  C   UNL A   1      34.088  28.157  25.957  1.00  0.00     0.039 A 
ATOM     78  C   UNL A   1      34.018  26.768  26.127  1.00  0.00     0.015 A 
ATOM     79  C   UNL A   1      34.005  28.689  24.677  1.00  0.00     0.015 A 
ATOM     80  C   UNL A   1      33.816  25.934  25.015  1.00  0.00     0.023 A 
ATOM     81  C   UNL A   1      33.620  27.883  23.622  1.00  0.00     0.023 A 
ATOM     82  C   UNL A   1      33.608  26.501  23.753  1.00  0.00     0.087 A 
BRANCH  82  83
ATOM     83  S   UNL A   1      33.247  25.481  22.343  1.00  0.00     0.261 S 
ATOM     84  O   UNL A   1      33.281  26.331  21.166  1.00  0.00    -0.201 OA
ATOM     85  O   UNL A   1      34.097  24.318  22.431  1.00  0.00    -0.201 OA
BRANCH  83  86
ATOM     86  N   UNL A   1      31.633  24.897  22.424  1.00  0.00    -0.279 N 
ATOM     87  H   UNL A   1      31.115  24.760  21.598  1.00  0.00     0.180 HD
BRANCH  86  88
ATOM     88  C   UNL A   1      31.042  24.612  23.707  1.00  0.00     0.062 A 
ATOM     89  C   UNL A   1      31.325  23.396  24.350  1.00  0.00     0.028 A 
ATOM     90  C   UNL A   1      30.288  25.588  24.383  1.00  0.00     0.037 A 
ATOM     91  C   UNL A   1      30.898  23.181  25.666  1.00  0.00     0.002 A 
ATOM     92  C   UNL A   1      29.866  25.367  25.700  1.00  0.00     0.017 A 
ATOM     93  I   UNL A   1      29.790  27.426  23.502  1.00  0.00    -0.042 I 
ATOM     94  C   UNL A   1      30.182  24.169  26.343  1.00  0.00     0.001 A 
ENDBRANCH  86  88
ENDBRANCH  83  86
ENDBRANCH  82  83
ENDBRANCH  74  77
ENDBRANCH  72  73
ENDBRANCH   1  72
TORSDOF 16
ENDMDL
MODEL 3
REMARK VINA RESULT:     -12.0      0.606      7.778
REMARK SMILES O=C(NCCCNC(=O)c1ccc(S(=O)(=O)Nc2ccccc2I)cc1)c1ccc(-c2c3nc(c(-c4cc(S(=O)(=O)[O-])ccc4F)c4ccc([nH]4)c(-c4cc(S(=O)(=O)[O-])ccc4F)c4nc(c(-c5cc(S(=O)(=O)[O-])ccc5F)c5ccc2[nH]5)C=C4)C=C3)cc1
REMARK SMILES IDX 5 1 4 2 3 3 1 4 2 5 27 7 28 8 89 9 29 10 88 11 30 12 31 13
REMARK SMILES IDX 32 14 82 15 33 16 87 17 81 18 83 19 34 20 86 21 80 22 79 23
REMARK SMILES IDX 35 25 67 26 47 27 66 28 48 29 51 30 65 31 84 32 49 33 50 34
REMARK SMILES IDX 64 36 85 37 52 38 36 39 37 40 45 41 38 42 44 43 46 44 43 45
REMARK SMILES IDX 39 46 40 47 41 48 42 49 68 50 69 51 77 52 70 53 76 54 78 55
REMARK SMILES IDX 75 56 71 57 72 58 73 59 74 60 53 61 54 62 62 63 55 64 61 65
REMARK SMILES IDX 63 66 60 67 56 68 57 69 58 70 59 71 6 72 7 73 8 74 9 76
REMARK SMILES IDX 10 77 11 78 26 79 12 80 25 81 13 82 14 83 15 84 16 85 17 86
REMARK SMILES IDX 18 88 19 89 23 90 20 91 22 92 24 93 21 94
REMARK H PARENT 3 6 83 24 51 35 7 75 17 87
REMARK Flexibility Score: inf
ROOT
ATOM      1  C   UNL A   1      31.412  31.887  26.513  1.00  0.00     0.042 C 
ENDROOT
BRANCH   1   2
ATOM      2  C   UNL A   1      32.681  32.457  27.110  1.00  0.00     0.118 C 
BRANCH   2   3
ATOM      3  N   UNL A   1      32.505  33.817  27.613  1.00  0.00    -0.352 N 
ATOM      4  O   UNL A   1      32.741  35.575  28.999  1.00  0.00    -0.269 OA
ATOM      5  C   UNL A   1      33.179  34.498  28.602  1.00  0.00     0.251 C 
ATOM      6  H   UNL A   1      31.789  34.330  27.174  1.00  0.00     0.163 HD
BRANCH   5   7
ATOM      7  C   UNL A   1      34.409  33.929  29.195  1.00  0.00     0.039 A 
ATOM      8  C   UNL A   1      34.335  32.836  30.054  1.00  0.00     0.014 A 
ATOM      9  C   UNL A   1      35.657  34.480  28.884  1.00  0.00     0.014 A 
ATOM     10  C   UNL A   1      35.455  32.439  30.767  1.00  0.00     0.010 A 
ATOM     11  C   UNL A   1      36.814  33.975  29.492  1.00  0.00     0.010 A 
ATOM     12  C   UNL A   1      36.717  32.971  30.466  1.00  0.00    -0.014 A 
BRANCH  12  13
ATOM     13  C   UNL A   1      37.903  32.375  31.134  1.00  0.00     0.031 A 
ATOM     14  C   UNL A   1      38.354  32.834  32.493  1.00  0.00     0.074 A 
ATOM     15  C   UNL A   1      38.523  31.347  30.519  1.00  0.00     0.049 A 
ATOM     16  N   UNL A   1      39.336  32.376  33.228  1.00  0.00    -0.248 NA
ATOM     17  C   UNL A   1      37.622  33.953  33.102  1.00  0.00     0.031 C 
ATOM     18  C   UNL A   1      38.169  30.827  29.192  1.00  0.00     0.029 A 
ATOM     19  N   UNL A   1      39.540  30.525  30.928  1.00  0.00    -0.354 N 
ATOM     20  C   UNL A   1      39.354  33.160  34.377  1.00  0.00     0.074 A 
ATOM     21  C   UNL A   1      38.300  34.141  34.227  1.00  0.00     0.031 C 
ATOM     22  C   UNL A   1      38.893  29.731  28.937  1.00  0.00     0.029 A 
ATOM     23  C   UNL A   1      39.831  29.523  30.030  1.00  0.00     0.049 A 
ATOM     24  H   UNL A   1      40.015  30.640  31.783  1.00  0.00     0.167 HD
ATOM     25  C   UNL A   1      40.172  33.061  35.455  1.00  0.00     0.034 A 
ATOM     26  C   UNL A   1      40.765  28.554  30.069  1.00  0.00     0.034 A 
ATOM     27  C   UNL A   1      41.212  32.066  35.586  1.00  0.00     0.049 A 
ATOM     28  C   UNL A   1      41.666  28.483  31.268  1.00  0.00     0.074 A 
ATOM     29  C   UNL A   1      42.092  31.870  36.637  1.00  0.00     0.029 A 
ATOM     30  N   UNL A   1      41.515  31.099  34.635  1.00  0.00    -0.354 N 
ATOM     31  N   UNL A   1      41.670  29.240  32.342  1.00  0.00    -0.248 NA
ATOM     32  C   UNL A   1      42.689  27.433  31.261  1.00  0.00     0.031 C 
ATOM     33  C   UNL A   1      42.961  30.826  36.297  1.00  0.00     0.029 A 
ATOM     34  C   UNL A   1      42.581  30.322  35.063  1.00  0.00     0.049 A 
ATOM     35  H   UNL A   1      41.040  30.982  33.780  1.00  0.00     0.167 HD
ATOM     36  C   UNL A   1      42.696  28.752  33.142  1.00  0.00     0.074 A 
ATOM     37  C   UNL A   1      43.258  27.612  32.444  1.00  0.00     0.031 C 
ATOM     38  C   UNL A   1      43.144  29.208  34.338  1.00  0.00     0.034 A 
BRANCH  25  39
ATOM     39  C   UNL A   1      40.005  34.080  36.557  1.00  0.00     0.023 A 
ATOM     40  C   UNL A   1      39.533  33.725  37.832  1.00  0.00     0.031 A 
ATOM     41  C   UNL A   1      40.326  35.430  36.326  1.00  0.00     0.131 A 
ATOM     42  C   UNL A   1      39.349  34.715  38.811  1.00  0.00     0.055 A 
ATOM     43  C   UNL A   1      40.205  36.399  37.324  1.00  0.00     0.041 A 
ATOM     44  F   UNL A   1      40.762  35.832  35.121  1.00  0.00    -0.206 F 
ATOM     45  C   UNL A   1      39.704  36.046  38.573  1.00  0.00     0.022 A 
BRANCH  42  46
ATOM     46  S   UNL A   1      38.533  34.260  40.367  1.00  0.00     0.124 S 
ATOM     47  O   UNL A   1      37.421  33.443  39.888  1.00  0.00    -0.237 OA
ATOM     48  O   UNL A   1      39.589  33.551  41.080  1.00  0.00    -0.237 OA
ATOM     49  O   UNL A   1      38.149  35.548  40.942  1.00  0.00    -0.744 OA
ENDBRANCH  42  46
ENDBRANCH  25  39
BRANCH  26  50
ATOM     50  C   UNL A   1      40.925  27.615  28.922  1.00  0.00     0.023 A 
ATOM     51  C   UNL A   1      41.916  27.814  27.950  1.00  0.00     0.031 A 
ATOM     52  C   UNL A   1      40.058  26.517  28.764  1.00  0.00     0.131 A 
ATOM     53  C   UNL A   1      41.988  26.957  26.841  1.00  0.00     0.055 A 
ATOM     54  C   UNL A   1      40.173  25.633  27.693  1.00  0.00     0.041 A 
ATOM     55  F   UNL A   1      39.092  26.278  29.667  1.00  0.00    -0.206 F 
ATOM     56  C   UNL A   1      41.133  25.858  26.713  1.00  0.00     0.022 A 
BRANCH  53  57
ATOM     57  S   UNL A   1      43.153  27.357  25.509  1.00  0.00     0.124 S 
ATOM     58  O   UNL A   1      44.215  28.040  26.237  1.00  0.00    -0.237 OA
ATOM     59  O   UNL A   1      43.480  26.034  24.988  1.00  0.00    -0.237 OA
ATOM     60  O   UNL A   1      42.366  28.201  24.613  1.00  0.00    -0.744 OA
ENDBRANCH  53  57
ENDBRANCH  26  50
BRANCH  38  61
ATOM     61  C   UNL A   1      44.289  28.446  34.955  1.00  0.00     0.023 A 
ATOM     62  C   UNL A   1      44.069  27.473  35.946  1.00  0.00     0.031 A 
ATOM     63  C   UNL A   1      45.614  28.735  34.589  1.00  0.00     0.131 A 
ATOM     64  C   UNL A   1      45.162  26.876  36.591  1.00  0.00     0.055 A 
ATOM     65  C   UNL A   1      46.697  28.091  35.190  1.00  0.00     0.041 A 
ATOM     66  F   UNL A   1      45.879  29.658  33.649  1.00  0.00    -0.206 F 
ATOM     67  C   UNL A   1      46.474  27.169  36.209  1.00  0.00     0.022 A 
BRANCH  64  68
ATOM     68  S   UNL A   1      44.846  25.797  38.014  1.00  0.00     0.124 S 
ATOM     69  O   UNL A   1      44.750  24.484  37.383  1.00  0.00    -0.237 OA
ATOM     70  O   UNL A   1      46.025  26.021  38.843  1.00  0.00    -0.237 OA
ATOM     71  O   UNL A   1      43.594  26.313  38.564  1.00  0.00    -0.744 OA
ENDBRANCH  64  68
ENDBRANCH  38  61
ENDBRANCH  12  13
ENDBRANCH   5   7
ENDBRANCH   2   3
ENDBRANCH   1   2
BRANCH   1  72
ATOM     72  C   UNL A   1      31.496  30.401  26.238  1.00  0.00     0.118 C 
BRANCH  72  73
ATOM     73  N   UNL A   1      31.657  30.080  24.821  1.00  0.00    -0.352 N 
ATOM     74  C   UNL A   1      31.765  28.870  24.172  1.00  0.00     0.251 C 
ATOM     75  H   UNL A   1      31.696  30.864  24.228  1.00  0.00     0.163 HD
ATOM     76  O   UNL A   1      32.030  28.845  22.973  1.00  0.00    -0.269 OA
BRANCH  74  77
ATOM     77  C   UNL A   1      31.567  27.598  24.903  1.00  0.00     0.039 A 
ATOM     78  C   UNL A   1      30.321  26.956  24.892  1.00  0.00     0.015 A 
ATOM     79  C   UNL A   1      32.622  27.018  25.596  1.00  0.00     0.015 A 
ATOM     80  C   UNL A   1      30.163  25.718  25.536  1.00  0.00     0.023 A 
ATOM     81  C   UNL A   1      32.509  25.721  26.061  1.00  0.00     0.023 A 
ATOM     82  C   UNL A   1      31.272  25.094  26.118  1.00  0.00     0.087 A 
BRANCH  82  83
ATOM     83  S   UNL A   1      31.130  23.481  26.850  1.00  0.00     0.261 S 
ATOM     84  O   UNL A   1      32.215  23.335  27.805  1.00  0.00    -0.201 OA
ATOM     85  O   UNL A   1      29.758  23.324  27.271  1.00  0.00    -0.201 OA
BRANCH  83  86
ATOM     86  N   UNL A   1      31.409  22.262  25.672  1.00  0.00    -0.279 N 
ATOM     87  H   UNL A   1      31.073  21.348  25.816  1.00  0.00     0.180 HD
BRANCH  86  88
ATOM     88  C   UNL A   1      32.140  22.584  24.472  1.00  0.00     0.062 A 
ATOM     89  C   UNL A   1      31.479  23.201  23.398  1.00  0.00     0.028 A 
ATOM     90  C   UNL A   1      33.534  22.408  24.411  1.00  0.00     0.037 A 
ATOM     91  C   UNL A   1      32.210  23.673  22.300  1.00  0.00     0.002 A 
ATOM     92  C   UNL A   1      34.258  22.885  23.312  1.00  0.00     0.017 A 
ATOM     93  I   UNL A   1      34.612  21.477  25.952  1.00  0.00    -0.042 I 
ATOM     94  C   UNL A   1      33.596  23.527  22.264  1.00  0.00     0.001 A 
ENDBRANCH  86  88
ENDBRANCH  83  86
ENDBRANCH  82  83
ENDBRANCH  74  77
ENDBRANCH  72  73
ENDBRANCH   1  72
TORSDOF 16
ENDMDL
