MODEL 1
REMARK VINA RESULT:     -13.0      0.000      0.000
REMARK SMILES COc1cc(/C=C2/N=C(c3ccccc3)OC2=O)ccc1OCC(=O)NCCCNC(=O)c1ccc(-c2c3nc(c(-c4cc(S(=O)(=O)[O-])ccc4F)c4ccc([nH]4)c(-c4cc(S(=O)(=O)[O-])ccc4F)c4nc(c(-c5cc(S(=O)(=O)[O-])ccc5F)c5ccc2[nH]5)C=C4)C=C3)cc1
REMARK SMILES IDX 27 1 26 2 24 3 25 4 23 6 22 7 21 8 3 9 4 10 5 11 20 12 19 13
REMARK SMILES IDX 2 14 1 15 6 16 7 17 8 18 17 19 9 20 16 21 18 22 10 23 11 24
REMARK SMILES IDX 15 25 12 26 14 27 13 28 28 29 29 30 30 31 31 32 32 34 33 35
REMARK SMILES IDX 34 36 95 37 35 38 94 39 36 40 37 41 38 42 88 43 39 44 93 45
REMARK SMILES IDX 87 46 89 47 40 48 92 49 86 50 85 51 41 53 73 54 53 55 72 56
REMARK SMILES IDX 54 57 57 58 71 59 90 60 55 61 56 62 70 64 91 65 58 66 42 67
REMARK SMILES IDX 43 68 51 69 44 70 50 71 52 72 49 73 45 74 46 75 47 76 48 77
REMARK SMILES IDX 74 78 75 79 83 80 76 81 82 82 84 83 81 84 77 85 78 86 79 87
REMARK SMILES IDX 80 88 59 89 60 90 68 91 61 92 67 93 69 94 66 95 62 96 63 97
REMARK SMILES IDX 64 98 65 99
REMARK H PARENT 26 5 30 33 89 52 57 63
REMARK Flexibility Score: inf
ROOT
ATOM      1  C   UNL A   1      31.392  30.688  25.976  1.00  0.00     0.117 C 
ENDROOT
BRANCH   1   2
ATOM      2  N   UNL A   1      30.763  30.549  24.679  1.00  0.00    -0.353 N 
ATOM      3  C   UNL A   1      30.586  29.413  23.942  1.00  0.00     0.257 C 
ATOM      4  O   UNL A   1      29.784  29.458  23.005  1.00  0.00    -0.271 OA
ATOM      5  H   UNL A   1      30.420  31.379  24.276  1.00  0.00     0.163 HD
BRANCH   3   6
ATOM      6  C   UNL A   1      31.303  28.118  24.340  1.00  0.00     0.329 C 
BRANCH   6   7
ATOM      7  O   UNL A   1      32.690  28.040  24.078  1.00  0.00    -0.480 OA
BRANCH   7   8
ATOM      8  C   UNL A   1      33.338  26.839  24.034  1.00  0.00     0.161 A 
ATOM      9  C   UNL A   1      33.724  26.083  22.922  1.00  0.00     0.161 A 
ATOM     10  C   UNL A   1      34.329  24.824  23.100  1.00  0.00     0.058 A 
ATOM     11  C   UNL A   1      34.539  24.311  24.387  1.00  0.00    -0.019 A 
ATOM     12  C   UNL A   1      33.580  26.322  25.315  1.00  0.00     0.051 A 
ATOM     13  C   UNL A   1      34.178  25.075  25.496  1.00  0.00     0.012 A 
BRANCH   9  14
ATOM     14  O   UNL A   1      33.350  26.454  21.658  1.00  0.00    -0.493 OA
ATOM     15  C   UNL A   1      32.091  25.909  21.265  1.00  0.00     0.278 C 
ENDBRANCH   9  14
BRANCH  11  16
ATOM     16  C   UNL A   1      35.025  22.944  24.588  1.00  0.00     0.044 C 
ATOM     17  C   UNL A   1      34.232  21.865  24.654  1.00  0.00     0.153 C 
ATOM     18  N   UNL A   1      34.699  20.584  24.824  1.00  0.00    -0.205 NA
ATOM     19  C   UNL A   1      32.744  21.846  24.489  1.00  0.00     0.363 C 
ATOM     20  C   UNL A   1      33.626  19.874  24.694  1.00  0.00     0.231 C 
ATOM     21  O   UNL A   1      32.454  20.515  24.497  1.00  0.00    -0.402 OA
ATOM     22  O   UNL A   1      31.944  22.751  24.357  1.00  0.00    -0.244 OA
BRANCH  20  23
ATOM     23  C   UNL A   1      33.510  18.417  24.737  1.00  0.00     0.037 A 
ATOM     24  C   UNL A   1      32.674  17.818  25.681  1.00  0.00     0.014 A 
ATOM     25  C   UNL A   1      34.279  17.632  23.869  1.00  0.00     0.014 A 
ATOM     26  C   UNL A   1      32.604  16.426  25.753  1.00  0.00     0.001 A 
ATOM     27  C   UNL A   1      34.219  16.242  23.960  1.00  0.00     0.001 A 
ATOM     28  C   UNL A   1      33.382  15.640  24.901  1.00  0.00     0.000 A 
ENDBRANCH  20  23
ENDBRANCH  11  16
ENDBRANCH   7   8
ENDBRANCH   6   7
ENDBRANCH   3   6
ENDBRANCH   1   2
BRANCH   1  29
ATOM     29  C   UNL A   1      31.428  32.124  26.481  1.00  0.00     0.042 C 
BRANCH  29  30
ATOM     30  C   UNL A   1      32.731  32.533  27.158  1.00  0.00     0.118 C 
BRANCH  30  31
ATOM     31  N   UNL A   1      32.731  33.919  27.601  1.00  0.00    -0.352 N 
ATOM     32  C   UNL A   1      33.402  34.541  28.623  1.00  0.00     0.251 C 
ATOM     33  H   UNL A   1      32.147  34.513  27.077  1.00  0.00     0.163 HD
ATOM     34  O   UNL A   1      33.068  35.680  28.939  1.00  0.00    -0.269 OA
BRANCH  32  35
ATOM     35  C   UNL A   1      34.496  33.860  29.352  1.00  0.00     0.039 A 
ATOM     36  C   UNL A   1      35.814  34.257  29.103  1.00  0.00     0.014 A 
ATOM     37  C   UNL A   1      34.249  32.805  30.232  1.00  0.00     0.014 A 
ATOM     38  C   UNL A   1      36.869  33.627  29.769  1.00  0.00     0.010 A 
ATOM     39  C   UNL A   1      35.291  32.247  30.971  1.00  0.00     0.010 A 
ATOM     40  C   UNL A   1      36.617  32.636  30.732  1.00  0.00    -0.014 A 
BRANCH  40  41
ATOM     41  C   UNL A   1      37.737  31.984  31.463  1.00  0.00     0.031 A 
ATOM     42  C   UNL A   1      38.551  30.902  30.800  1.00  0.00     0.074 A 
ATOM     43  C   UNL A   1      38.013  32.359  32.729  1.00  0.00     0.049 A 
ATOM     44  N   UNL A   1      39.569  30.226  31.271  1.00  0.00    -0.248 NA
ATOM     45  C   UNL A   1      38.151  30.508  29.441  1.00  0.00     0.031 C 
ATOM     46  C   UNL A   1      37.266  33.361  33.494  1.00  0.00     0.029 A 
ATOM     47  N   UNL A   1      38.997  31.951  33.594  1.00  0.00    -0.354 N 
ATOM     48  C   UNL A   1      39.924  29.328  30.270  1.00  0.00     0.074 A 
ATOM     49  C   UNL A   1      38.964  29.492  29.200  1.00  0.00     0.031 C 
ATOM     50  C   UNL A   1      37.848  33.523  34.693  1.00  0.00     0.029 A 
ATOM     51  C   UNL A   1      38.975  32.605  34.805  1.00  0.00     0.049 A 
ATOM     52  H   UNL A   1      39.657  31.257  33.369  1.00  0.00     0.167 HD
ATOM     53  C   UNL A   1      40.973  28.466  30.233  1.00  0.00     0.034 A 
ATOM     54  C   UNL A   1      39.773  32.477  35.885  1.00  0.00     0.034 A 
ATOM     55  C   UNL A   1      41.925  28.320  31.307  1.00  0.00     0.049 A 
ATOM     56  C   UNL A   1      40.916  31.496  35.827  1.00  0.00     0.074 A 
ATOM     57  C   UNL A   1      43.050  27.514  31.356  1.00  0.00     0.029 A 
ATOM     58  N   UNL A   1      41.862  28.986  32.524  1.00  0.00    -0.354 N 
ATOM     59  N   UNL A   1      41.275  30.697  34.847  1.00  0.00    -0.248 NA
ATOM     60  C   UNL A   1      41.772  31.412  37.016  1.00  0.00     0.031 C 
ATOM     61  C   UNL A   1      43.616  27.631  32.630  1.00  0.00     0.029 A 
ATOM     62  C   UNL A   1      42.905  28.581  33.345  1.00  0.00     0.049 A 
ATOM     63  H   UNL A   1      41.177  29.649  32.770  1.00  0.00     0.167 HD
ATOM     64  C   UNL A   1      42.419  30.040  35.294  1.00  0.00     0.074 A 
ATOM     65  C   UNL A   1      42.703  30.560  36.616  1.00  0.00     0.031 C 
ATOM     66  C   UNL A   1      43.167  29.092  34.671  1.00  0.00     0.034 A 
BRANCH  53  67
ATOM     67  C   UNL A   1      41.121  27.602  29.001  1.00  0.00     0.023 A 
ATOM     68  C   UNL A   1      42.146  27.820  28.061  1.00  0.00     0.031 A 
ATOM     69  C   UNL A   1      40.213  26.558  28.748  1.00  0.00     0.131 A 
ATOM     70  C   UNL A   1      42.191  27.060  26.882  1.00  0.00     0.055 A 
ATOM     71  C   UNL A   1      40.317  25.747  27.616  1.00  0.00     0.041 A 
ATOM     72  F   UNL A   1      39.198  26.314  29.593  1.00  0.00    -0.206 F 
ATOM     73  C   UNL A   1      41.301  26.006  26.666  1.00  0.00     0.022 A 
BRANCH  70  74
ATOM     74  S   UNL A   1      43.329  27.571  25.565  1.00  0.00     0.124 S 
ATOM     75  O   UNL A   1      42.401  27.897  24.484  1.00  0.00    -0.237 OA
ATOM     76  O   UNL A   1      44.027  28.699  26.170  1.00  0.00    -0.237 OA
ATOM     77  O   UNL A   1      44.145  26.381  25.337  1.00  0.00    -0.744 OA
ENDBRANCH  70  74
ENDBRANCH  53  67
BRANCH  54  78
ATOM     78  C   UNL A   1      39.525  33.288  37.115  1.00  0.00     0.023 A 
ATOM     79  C   UNL A   1      38.850  32.746  38.219  1.00  0.00     0.031 A 
ATOM     80  C   UNL A   1      39.909  34.640  37.178  1.00  0.00     0.131 A 
ATOM     81  C   UNL A   1      38.528  33.563  39.315  1.00  0.00     0.055 A 
ATOM     82  C   UNL A   1      39.646  35.432  38.297  1.00  0.00     0.041 A 
ATOM     83  F   UNL A   1      40.558  35.211  36.151  1.00  0.00    -0.206 F 
ATOM     84  C   UNL A   1      38.936  34.898  39.368  1.00  0.00     0.022 A 
BRANCH  81  85
ATOM     85  S   UNL A   1      37.472  32.885  40.626  1.00  0.00     0.124 S 
ATOM     86  O   UNL A   1      37.998  31.532  40.760  1.00  0.00    -0.237 OA
ATOM     87  O   UNL A   1      37.745  33.794  41.734  1.00  0.00    -0.237 OA
ATOM     88  O   UNL A   1      36.128  32.981  40.061  1.00  0.00    -0.744 OA
ENDBRANCH  81  85
ENDBRANCH  54  78
BRANCH  66  89
ATOM     89  C   UNL A   1      44.388  28.593  35.409  1.00  0.00     0.023 A 
ATOM     90  C   UNL A   1      44.311  27.546  36.344  1.00  0.00     0.031 A 
ATOM     91  C   UNL A   1      45.639  29.204  35.209  1.00  0.00     0.131 A 
ATOM     92  C   UNL A   1      45.436  27.204  37.108  1.00  0.00     0.055 A 
ATOM     93  C   UNL A   1      46.777  28.801  35.911  1.00  0.00     0.041 A 
ATOM     94  F   UNL A   1      45.777  30.211  34.332  1.00  0.00    -0.206 F 
ATOM     95  C   UNL A   1      46.674  27.810  36.883  1.00  0.00     0.022 A 
BRANCH  92  96
ATOM     96  S   UNL A   1      45.223  26.062  38.502  1.00  0.00     0.124 S 
ATOM     97  O   UNL A   1      44.748  24.855  37.832  1.00  0.00    -0.237 OA
ATOM     98  O   UNL A   1      46.569  25.995  39.059  1.00  0.00    -0.237 OA
ATOM     99  O   UNL A   1      44.234  26.732  39.345  1.00  0.00    -0.744 OA
ENDBRANCH  92  96
ENDBRANCH  66  89
ENDBRANCH  40  41
ENDBRANCH  32  35
ENDBRANCH  30  31
ENDBRANCH  29  30
ENDBRANCH   1  29
TORSDOF 18
ENDMDL
MODEL 2
REMARK VINA RESULT:     -12.8      2.852      8.003
REMARK SMILES COc1cc(/C=C2/N=C(c3ccccc3)OC2=O)ccc1OCC(=O)NCCCNC(=O)c1ccc(-c2c3nc(c(-c4cc(S(=O)(=O)[O-])ccc4F)c4ccc([nH]4)c(-c4cc(S(=O)(=O)[O-])ccc4F)c4nc(c(-c5cc(S(=O)(=O)[O-])ccc5F)c5ccc2[nH]5)C=C4)C=C3)cc1
REMARK SMILES IDX 27 1 26 2 24 3 25 4 23 6 22 7 21 8 3 9 4 10 5 11 20 12 19 13
REMARK SMILES IDX 2 14 1 15 6 16 7 17 8 18 17 19 9 20 16 21 18 22 10 23 11 24
REMARK SMILES IDX 15 25 12 26 14 27 13 28 28 29 29 30 30 31 31 32 32 34 33 35
REMARK SMILES IDX 34 36 95 37 35 38 94 39 36 40 37 41 38 42 88 43 39 44 93 45
REMARK SMILES IDX 87 46 89 47 40 48 92 49 86 50 85 51 41 53 73 54 53 55 72 56
REMARK SMILES IDX 54 57 57 58 71 59 90 60 55 61 56 62 70 64 91 65 58 66 42 67
REMARK SMILES IDX 43 68 51 69 44 70 50 71 52 72 49 73 45 74 46 75 47 76 48 77
REMARK SMILES IDX 74 78 75 79 83 80 76 81 82 82 84 83 81 84 77 85 78 86 79 87
REMARK SMILES IDX 80 88 59 89 60 90 68 91 61 92 67 93 69 94 66 95 62 96 63 97
REMARK SMILES IDX 64 98 65 99
REMARK H PARENT 26 5 30 33 89 52 57 63
REMARK Flexibility Score: inf
ROOT
ATOM      1  C   UNL A   1      31.448  29.384  25.219  1.00  0.00     0.117 C 
ENDROOT
BRANCH   1   2
ATOM      2  N   UNL A   1      30.694  30.032  24.165  1.00  0.00    -0.353 N 
ATOM      3  C   UNL A   1      29.990  29.452  23.149  1.00  0.00     0.257 C 
ATOM      4  O   UNL A   1      29.192  30.159  22.529  1.00  0.00    -0.271 OA
ATOM      5  H   UNL A   1      30.689  31.016  24.183  1.00  0.00     0.163 HD
BRANCH   3   6
ATOM      6  C   UNL A   1      30.141  27.953  22.866  1.00  0.00     0.329 C 
BRANCH   6   7
ATOM      7  O   UNL A   1      31.337  27.529  22.242  1.00  0.00    -0.480 OA
BRANCH   7   8
ATOM      8  C   UNL A   1      32.083  26.509  22.757  1.00  0.00     0.161 A 
ATOM      9  C   UNL A   1      33.149  25.813  22.176  1.00  0.00     0.161 A 
ATOM     10  C   UNL A   1      33.744  24.736  22.859  1.00  0.00     0.058 A 
ATOM     11  C   UNL A   1      33.271  24.343  24.119  1.00  0.00    -0.019 A 
ATOM     12  C   UNL A   1      31.641  26.119  24.029  1.00  0.00     0.051 A 
ATOM     13  C   UNL A   1      32.227  25.052  24.710  1.00  0.00     0.012 A 
BRANCH   9  14
ATOM     14  O   UNL A   1      33.499  26.031  20.870  1.00  0.00    -0.493 OA
ATOM     15  C   UNL A   1      32.646  25.362  19.943  1.00  0.00     0.278 C 
ENDBRANCH   9  14
BRANCH  11  16
ATOM     16  C   UNL A   1      33.776  23.134  24.774  1.00  0.00     0.044 C 
ATOM     17  C   UNL A   1      33.327  21.896  24.521  1.00  0.00     0.153 C 
ATOM     18  N   UNL A   1      33.821  20.767  25.128  1.00  0.00    -0.205 NA
ATOM     19  C   UNL A   1      32.288  21.518  23.512  1.00  0.00     0.363 C 
ATOM     20  C   UNL A   1      33.208  19.818  24.497  1.00  0.00     0.231 C 
ATOM     21  O   UNL A   1      32.309  20.157  23.549  1.00  0.00    -0.402 OA
ATOM     22  O   UNL A   1      31.586  22.204  22.794  1.00  0.00    -0.244 OA
BRANCH  20  23
ATOM     23  C   UNL A   1      33.363  18.377  24.686  1.00  0.00     0.037 A 
ATOM     24  C   UNL A   1      32.578  17.714  25.632  1.00  0.00     0.014 A 
ATOM     25  C   UNL A   1      34.334  17.681  23.955  1.00  0.00     0.014 A 
ATOM     26  C   UNL A   1      32.764  16.348  25.845  1.00  0.00     0.001 A 
ATOM     27  C   UNL A   1      34.528  16.319  24.188  1.00  0.00     0.001 A 
ATOM     28  C   UNL A   1      33.744  15.655  25.131  1.00  0.00     0.000 A 
ENDBRANCH  20  23
ENDBRANCH  11  16
ENDBRANCH   7   8
ENDBRANCH   6   7
ENDBRANCH   3   6
ENDBRANCH   1   2
BRANCH   1  29
ATOM     29  C   UNL A   1      32.951  29.384  24.976  1.00  0.00     0.042 C 
BRANCH  29  30
ATOM     30  C   UNL A   1      33.802  29.564  26.229  1.00  0.00     0.118 C 
BRANCH  30  31
ATOM     31  N   UNL A   1      33.634  30.871  26.846  1.00  0.00    -0.352 N 
ATOM     32  C   UNL A   1      34.330  31.491  27.852  1.00  0.00     0.251 C 
ATOM     33  H   UNL A   1      32.893  31.403  26.476  1.00  0.00     0.163 HD
ATOM     34  O   UNL A   1      33.859  32.510  28.352  1.00  0.00    -0.269 OA
BRANCH  32  35
ATOM     35  C   UNL A   1      35.612  30.945  28.351  1.00  0.00     0.039 A 
ATOM     36  C   UNL A   1      35.579  29.850  29.221  1.00  0.00     0.014 A 
ATOM     37  C   UNL A   1      36.838  31.526  28.022  1.00  0.00     0.014 A 
ATOM     38  C   UNL A   1      36.772  29.318  29.717  1.00  0.00     0.010 A 
ATOM     39  C   UNL A   1      38.030  30.933  28.433  1.00  0.00     0.010 A 
ATOM     40  C   UNL A   1      38.012  29.835  29.304  1.00  0.00    -0.014 A 
BRANCH  40  41
ATOM     41  C   UNL A   1      39.284  29.251  29.808  1.00  0.00     0.031 A 
ATOM     42  C   UNL A   1      39.941  29.809  31.046  1.00  0.00     0.074 A 
ATOM     43  C   UNL A   1      39.856  28.225  29.145  1.00  0.00     0.049 A 
ATOM     44  N   UNL A   1      41.042  29.429  31.642  1.00  0.00    -0.248 NA
ATOM     45  C   UNL A   1      39.288  30.966  31.680  1.00  0.00     0.031 C 
ATOM     46  C   UNL A   1      39.341  27.630  27.908  1.00  0.00     0.029 A 
ATOM     47  N   UNL A   1      40.986  27.496  29.415  1.00  0.00    -0.354 N 
ATOM     48  C   UNL A   1      41.215  30.299  32.714  1.00  0.00     0.074 A 
ATOM     49  C   UNL A   1      40.149  31.273  32.637  1.00  0.00     0.031 C 
ATOM     50  C   UNL A   1      40.125  26.599  27.557  1.00  0.00     0.029 A 
ATOM     51  C   UNL A   1      41.225  26.488  28.508  1.00  0.00     0.049 A 
ATOM     52  H   UNL A   1      41.571  27.676  30.186  1.00  0.00     0.167 HD
ATOM     53  C   UNL A   1      42.158  30.271  33.689  1.00  0.00     0.034 A 
ATOM     54  C   UNL A   1      42.219  25.579  28.450  1.00  0.00     0.034 A 
ATOM     55  C   UNL A   1      43.211  29.287  33.754  1.00  0.00     0.049 A 
ATOM     56  C   UNL A   1      43.268  25.584  29.532  1.00  0.00     0.074 A 
ATOM     57  C   UNL A   1      44.190  29.136  34.722  1.00  0.00     0.029 A 
ATOM     58  N   UNL A   1      43.432  28.292  32.811  1.00  0.00    -0.354 N 
ATOM     59  N   UNL A   1      43.381  26.377  30.574  1.00  0.00    -0.248 NA
ATOM     60  C   UNL A   1      44.314  24.558  29.440  1.00  0.00     0.031 C 
ATOM     61  C   UNL A   1      45.048  28.106  34.320  1.00  0.00     0.029 A 
ATOM     62  C   UNL A   1      44.553  27.548  33.152  1.00  0.00     0.049 A 
ATOM     63  H   UNL A   1      42.875  28.137  32.014  1.00  0.00     0.167 HD
ATOM     64  C   UNL A   1      44.495  25.923  31.277  1.00  0.00     0.074 A 
ATOM     65  C   UNL A   1      44.995  24.771  30.556  1.00  0.00     0.031 C 
ATOM     66  C   UNL A   1      45.055  26.413  32.414  1.00  0.00     0.034 A 
BRANCH  53  67
ATOM     67  C   UNL A   1      42.102  31.353  34.745  1.00  0.00     0.023 A 
ATOM     68  C   UNL A   1      41.072  31.402  35.703  1.00  0.00     0.031 A 
ATOM     69  C   UNL A   1      43.079  32.364  34.783  1.00  0.00     0.131 A 
ATOM     70  C   UNL A   1      41.000  32.476  36.603  1.00  0.00     0.055 A 
ATOM     71  C   UNL A   1      43.052  33.381  35.739  1.00  0.00     0.041 A 
ATOM     72  F   UNL A   1      44.074  32.388  33.881  1.00  0.00    -0.206 F 
ATOM     73  C   UNL A   1      41.998  33.452  36.647  1.00  0.00     0.022 A 
BRANCH  70  74
ATOM     74  S   UNL A   1      39.502  32.665  37.608  1.00  0.00     0.124 S 
ATOM     75  O   UNL A   1      38.997  33.955  37.143  1.00  0.00    -0.237 OA
ATOM     76  O   UNL A   1      38.717  31.497  37.228  1.00  0.00    -0.237 OA
ATOM     77  O   UNL A   1      40.007  32.661  38.979  1.00  0.00    -0.744 OA
ENDBRANCH  70  74
ENDBRANCH  53  67
BRANCH  54  78
ATOM     78  C   UNL A   1      42.281  24.591  27.331  1.00  0.00     0.023 A 
ATOM     79  C   UNL A   1      41.523  23.410  27.361  1.00  0.00     0.031 A 
ATOM     80  C   UNL A   1      43.147  24.788  26.241  1.00  0.00     0.131 A 
ATOM     81  C   UNL A   1      41.687  22.445  26.354  1.00  0.00     0.055 A 
ATOM     82  C   UNL A   1      43.258  23.856  25.207  1.00  0.00     0.041 A 
ATOM     83  F   UNL A   1      43.896  25.900  26.159  1.00  0.00    -0.206 F 
ATOM     84  C   UNL A   1      42.538  22.667  25.269  1.00  0.00     0.022 A 
BRANCH  81  85
ATOM     85  S   UNL A   1      40.853  20.844  26.538  1.00  0.00     0.124 S 
ATOM     86  O   UNL A   1      40.854  20.674  27.987  1.00  0.00    -0.237 OA
ATOM     87  O   UNL A   1      39.557  21.105  25.922  1.00  0.00    -0.237 OA
ATOM     88  O   UNL A   1      41.717  19.925  25.801  1.00  0.00    -0.744 OA
ENDBRANCH  81  85
ENDBRANCH  54  78
BRANCH  66  89
ATOM     89  C   UNL A   1      46.251  25.668  32.960  1.00  0.00     0.023 A 
ATOM     90  C   UNL A   1      46.109  24.585  33.845  1.00  0.00     0.031 A 
ATOM     91  C   UNL A   1      47.556  26.076  32.627  1.00  0.00     0.131 A 
ATOM     92  C   UNL A   1      47.242  24.009  34.437  1.00  0.00     0.055 A 
ATOM     93  C   UNL A   1      48.683  25.443  33.152  1.00  0.00     0.041 A 
ATOM     94  F   UNL A   1      47.758  27.105  31.788  1.00  0.00    -0.206 F 
ATOM     95  C   UNL A   1      48.530  24.417  34.080  1.00  0.00     0.022 A 
BRANCH  92  96
ATOM     96  S   UNL A   1      47.006  22.824  35.790  1.00  0.00     0.124 S 
ATOM     97  O   UNL A   1      47.939  23.324  36.795  1.00  0.00    -0.237 OA
ATOM     98  O   UNL A   1      45.590  22.983  36.100  1.00  0.00    -0.237 OA
ATOM     99  O   UNL A   1      47.370  21.542  35.190  1.00  0.00    -0.744 OA
ENDBRANCH  92  96
ENDBRANCH  66  89
ENDBRANCH  40  41
ENDBRANCH  32  35
ENDBRANCH  30  31
ENDBRANCH  29  30
ENDBRANCH   1  29
TORSDOF 18
ENDMDL
MODEL 3
REMARK VINA RESULT:     -12.8      5.100      9.116
REMARK SMILES COc1cc(/C=C2/N=C(c3ccccc3)OC2=O)ccc1OCC(=O)NCCCNC(=O)c1ccc(-c2c3nc(c(-c4cc(S(=O)(=O)[O-])ccc4F)c4ccc([nH]4)c(-c4cc(S(=O)(=O)[O-])ccc4F)c4nc(c(-c5cc(S(=O)(=O)[O-])ccc5F)c5ccc2[nH]5)C=C4)C=C3)cc1
REMARK SMILES IDX 27 1 26 2 24 3 25 4 23 6 22 7 21 8 3 9 4 10 5 11 20 12 19 13
REMARK SMILES IDX 2 14 1 15 6 16 7 17 8 18 17 19 9 20 16 21 18 22 10 23 11 24
REMARK SMILES IDX 15 25 12 26 14 27 13 28 28 29 29 30 30 31 31 32 32 34 33 35
REMARK SMILES IDX 34 36 95 37 35 38 94 39 36 40 37 41 38 42 88 43 39 44 93 45
REMARK SMILES IDX 87 46 89 47 40 48 92 49 86 50 85 51 41 53 73 54 53 55 72 56
REMARK SMILES IDX 54 57 57 58 71 59 90 60 55 61 56 62 70 64 91 65 58 66 42 67
REMARK SMILES IDX 43 68 51 69 44 70 50 71 52 72 49 73 45 74 46 75 47 76 48 77
REMARK SMILES IDX 74 78 75 79 83 80 76 81 82 82 84 83 81 84 77 85 78 86 79 87
REMARK SMILES IDX 80 88 59 89 60 90 68 91 61 92 67 93 69 94 66 95 62 96 63 97
REMARK SMILES IDX 64 98 65 99
REMARK H PARENT 26 5 30 33 89 52 57 63
REMARK Flexibility Score: inf
ROOT
ATOM      1  C   UNL A   1      35.199  20.796  24.821  1.00  0.00     0.117 C 
ENDROOT
BRANCH   1   2
ATOM      2  N   UNL A   1      34.506  19.650  25.373  1.00  0.00    -0.353 N 
ATOM      3  C   UNL A   1      33.188  19.315  25.245  1.00  0.00     0.257 C 
ATOM      4  O   UNL A   1      32.858  18.166  25.546  1.00  0.00    -0.271 OA
ATOM      5  H   UNL A   1      35.055  19.033  25.909  1.00  0.00     0.163 HD
BRANCH   3   6
ATOM      6  C   UNL A   1      32.192  20.324  24.661  1.00  0.00     0.329 C 
BRANCH   6   7
ATOM      7  O   UNL A   1      31.473  21.126  25.576  1.00  0.00    -0.480 OA
BRANCH   7   8
ATOM      8  C   UNL A   1      31.604  22.485  25.585  1.00  0.00     0.161 A 
ATOM      9  C   UNL A   1      31.191  23.406  26.554  1.00  0.00     0.161 A 
ATOM     10  C   UNL A   1      31.365  24.786  26.334  1.00  0.00     0.058 A 
ATOM     11  C   UNL A   1      31.940  25.250  25.143  1.00  0.00    -0.019 A 
ATOM     12  C   UNL A   1      32.202  22.966  24.412  1.00  0.00     0.051 A 
ATOM     13  C   UNL A   1      32.376  24.332  24.189  1.00  0.00     0.012 A 
BRANCH   9  14
ATOM     14  O   UNL A   1      30.442  23.005  27.628  1.00  0.00    -0.493 OA
ATOM     15  C   UNL A   1      29.098  22.677  27.281  1.00  0.00     0.278 C 
ENDBRANCH   9  14
BRANCH  11  16
ATOM     16  C   UNL A   1      31.989  26.680  24.833  1.00  0.00     0.044 C 
ATOM     17  C   UNL A   1      31.041  27.336  24.148  1.00  0.00     0.153 C 
ATOM     18  N   UNL A   1      31.087  28.683  23.879  1.00  0.00    -0.205 NA
ATOM     19  C   UNL A   1      29.762  26.758  23.628  1.00  0.00     0.363 C 
ATOM     20  C   UNL A   1      29.934  28.901  23.334  1.00  0.00     0.231 C 
ATOM     21  O   UNL A   1      29.105  27.851  23.152  1.00  0.00    -0.402 OA
ATOM     22  O   UNL A   1      29.348  25.615  23.622  1.00  0.00    -0.244 OA
BRANCH  20  23
ATOM     23  C   UNL A   1      29.394  30.177  22.871  1.00  0.00     0.037 A 
ATOM     24  C   UNL A   1      29.272  31.242  23.766  1.00  0.00     0.014 A 
ATOM     25  C   UNL A   1      28.954  30.307  21.548  1.00  0.00     0.014 A 
ATOM     26  C   UNL A   1      28.709  32.443  23.334  1.00  0.00     0.001 A 
ATOM     27  C   UNL A   1      28.374  31.504  21.128  1.00  0.00     0.001 A 
ATOM     28  C   UNL A   1      28.253  32.570  22.020  1.00  0.00     0.000 A 
ENDBRANCH  20  23
ENDBRANCH  11  16
ENDBRANCH   7   8
ENDBRANCH   6   7
ENDBRANCH   3   6
ENDBRANCH   1   2
BRANCH   1  29
ATOM     29  C   UNL A   1      35.541  21.855  25.860  1.00  0.00     0.042 C 
BRANCH  29  30
ATOM     30  C   UNL A   1      36.952  22.423  25.756  1.00  0.00     0.118 C 
BRANCH  30  31
ATOM     31  N   UNL A   1      37.984  21.429  26.007  1.00  0.00    -0.352 N 
ATOM     32  C   UNL A   1      39.302  21.564  26.361  1.00  0.00     0.251 C 
ATOM     33  H   UNL A   1      37.684  20.497  25.905  1.00  0.00     0.163 HD
ATOM     34  O   UNL A   1      40.032  20.578  26.300  1.00  0.00    -0.269 OA
BRANCH  32  35
ATOM     35  C   UNL A   1      39.854  22.870  26.790  1.00  0.00     0.039 A 
ATOM     36  C   UNL A   1      39.464  24.020  26.097  1.00  0.00     0.014 A 
ATOM     37  C   UNL A   1      40.787  22.971  27.823  1.00  0.00     0.014 A 
ATOM     38  C   UNL A   1      39.975  25.266  26.472  1.00  0.00     0.010 A 
ATOM     39  C   UNL A   1      41.216  24.222  28.262  1.00  0.00     0.010 A 
ATOM     40  C   UNL A   1      40.833  25.384  27.578  1.00  0.00    -0.014 A 
BRANCH  40  41
ATOM     41  C   UNL A   1      41.354  26.713  27.997  1.00  0.00     0.031 A 
ATOM     42  C   UNL A   1      42.783  27.096  27.704  1.00  0.00     0.074 A 
ATOM     43  C   UNL A   1      40.545  27.570  28.652  1.00  0.00     0.049 A 
ATOM     44  N   UNL A   1      43.415  28.209  27.981  1.00  0.00    -0.248 NA
ATOM     45  C   UNL A   1      43.620  26.085  27.040  1.00  0.00     0.031 C 
ATOM     46  C   UNL A   1      39.158  27.293  29.035  1.00  0.00     0.029 A 
ATOM     47  N   UNL A   1      40.764  28.846  29.105  1.00  0.00    -0.354 N 
ATOM     48  C   UNL A   1      44.718  28.029  27.529  1.00  0.00     0.074 A 
ATOM     49  C   UNL A   1      44.806  26.673  27.034  1.00  0.00     0.031 C 
ATOM     50  C   UNL A   1      38.637  28.384  29.620  1.00  0.00     0.029 A 
ATOM     51  C   UNL A   1      39.663  29.418  29.702  1.00  0.00     0.049 A 
ATOM     52  H   UNL A   1      41.627  29.310  29.013  1.00  0.00     0.167 HD
ATOM     53  C   UNL A   1      45.741  28.922  27.502  1.00  0.00     0.034 A 
ATOM     54  C   UNL A   1      39.498  30.637  30.254  1.00  0.00     0.034 A 
ATOM     55  C   UNL A   1      45.634  30.273  27.995  1.00  0.00     0.049 A 
ATOM     56  C   UNL A   1      40.657  31.602  30.233  1.00  0.00     0.074 A 
ATOM     57  C   UNL A   1      46.589  31.275  27.974  1.00  0.00     0.029 A 
ATOM     58  N   UNL A   1      44.510  30.813  28.607  1.00  0.00    -0.354 N 
ATOM     59  N   UNL A   1      41.866  31.436  29.745  1.00  0.00    -0.248 NA
ATOM     60  C   UNL A   1      40.422  32.926  30.821  1.00  0.00     0.031 C 
ATOM     61  C   UNL A   1      46.071  32.388  28.645  1.00  0.00     0.029 A 
ATOM     62  C   UNL A   1      44.760  32.119  29.001  1.00  0.00     0.049 A 
ATOM     63  H   UNL A   1      43.658  30.337  28.742  1.00  0.00     0.167 HD
ATOM     64  C   UNL A   1      42.524  32.648  29.941  1.00  0.00     0.074 A 
ATOM     65  C   UNL A   1      41.566  33.540  30.562  1.00  0.00     0.031 C 
ATOM     66  C   UNL A   1      43.802  32.994  29.638  1.00  0.00     0.034 A 
BRANCH  53  67
ATOM     67  C   UNL A   1      47.064  28.449  26.944  1.00  0.00     0.023 A 
ATOM     68  C   UNL A   1      47.253  28.231  25.567  1.00  0.00     0.031 A 
ATOM     69  C   UNL A   1      48.148  28.190  27.802  1.00  0.00     0.131 A 
ATOM     70  C   UNL A   1      48.465  27.699  25.099  1.00  0.00     0.055 A 
ATOM     71  C   UNL A   1      49.381  27.745  27.320  1.00  0.00     0.041 A 
ATOM     72  F   UNL A   1      48.025  28.354  29.129  1.00  0.00    -0.206 F 
ATOM     73  C   UNL A   1      49.540  27.480  25.963  1.00  0.00     0.022 A 
BRANCH  70  74
ATOM     74  S   UNL A   1      48.561  27.148  23.373  1.00  0.00     0.124 S 
ATOM     75  O   UNL A   1      47.663  28.094  22.713  1.00  0.00    -0.237 OA
ATOM     76  O   UNL A   1      49.980  27.298  23.073  1.00  0.00    -0.237 OA
ATOM     77  O   UNL A   1      48.075  25.772  23.425  1.00  0.00    -0.744 OA
ENDBRANCH  70  74
ENDBRANCH  53  67
BRANCH  54  78
ATOM     78  C   UNL A   1      38.197  31.021  30.878  1.00  0.00     0.023 A 
ATOM     79  C   UNL A   1      37.211  31.700  30.145  1.00  0.00     0.031 A 
ATOM     80  C   UNL A   1      37.944  30.764  32.238  1.00  0.00     0.131 A 
ATOM     81  C   UNL A   1      36.046  32.150  30.786  1.00  0.00     0.055 A 
ATOM     82  C   UNL A   1      36.756  31.156  32.856  1.00  0.00     0.041 A 
ATOM     83  F   UNL A   1      38.852  30.118  32.987  1.00  0.00    -0.206 F 
ATOM     84  C   UNL A   1      35.805  31.869  32.133  1.00  0.00     0.022 A 
BRANCH  81  85
ATOM     85  S   UNL A   1      34.897  33.207  29.861  1.00  0.00     0.124 S 
ATOM     86  O   UNL A   1      34.205  32.231  29.025  1.00  0.00    -0.237 OA
ATOM     87  O   UNL A   1      34.111  33.808  30.932  1.00  0.00    -0.237 OA
ATOM     88  O   UNL A   1      35.781  34.126  29.147  1.00  0.00    -0.744 OA
ENDBRANCH  81  85
ENDBRANCH  54  78
BRANCH  66  89
ATOM     89  C   UNL A   1      44.215  34.416  29.944  1.00  0.00     0.023 A 
ATOM     90  C   UNL A   1      44.770  34.775  31.185  1.00  0.00     0.031 A 
ATOM     91  C   UNL A   1      44.007  35.435  28.998  1.00  0.00     0.131 A 
ATOM     92  C   UNL A   1      45.012  36.124  31.481  1.00  0.00     0.055 A 
ATOM     93  C   UNL A   1      44.330  36.767  29.266  1.00  0.00     0.041 A 
ATOM     94  F   UNL A   1      43.478  35.157  27.795  1.00  0.00    -0.206 F 
ATOM     95  C   UNL A   1      44.815  37.121  30.522  1.00  0.00     0.022 A 
BRANCH  92  96
ATOM     96  S   UNL A   1      45.443  36.574  33.184  1.00  0.00     0.124 S 
ATOM     97  O   UNL A   1      44.130  36.823  33.772  1.00  0.00    -0.237 OA
ATOM     98  O   UNL A   1      46.137  35.380  33.656  1.00  0.00    -0.237 OA
ATOM     99  O   UNL A   1      46.284  37.759  33.023  1.00  0.00    -0.744 OA
ENDBRANCH  92  96
ENDBRANCH  66  89
ENDBRANCH  40  41
ENDBRANCH  32  35
ENDBRANCH  30  31
ENDBRANCH  29  30
ENDBRANCH   1  29
TORSDOF 18
ENDMDL
