MODEL 1
REMARK VINA RESULT:     -13.2      0.000      0.000
REMARK SMILES O=C(NCCCNC(=O)[C@H]1CC2=c3ccccc3=N[C@H]2[C@H](c2ccccc2F)[NH2+]1)c1ccc(-c2c3nc(c(-c4cc(S(=O)(=O)[O-])ccc4F)c4ccc([nH]4)c(-c4cc(S(=O)(=O)[O-])ccc4F)c4nc(c(-c5cc(S(=O)(=O)[O-])ccc5F)c5ccc2[nH]5)C=C4)C=C3)cc1
REMARK SMILES IDX 4 1 3 2 1 3 2 4 30 6 31 7 92 8 32 9 91 10 33 11 34 12 35 13
REMARK SMILES IDX 85 14 36 15 90 16 84 17 86 18 37 19 89 20 83 21 82 22 38 24
REMARK SMILES IDX 70 25 50 26 69 27 51 28 54 29 68 30 87 31 52 32 53 33 67 35
REMARK SMILES IDX 88 36 55 37 39 38 40 39 48 40 41 41 47 42 49 43 46 44 42 45
REMARK SMILES IDX 43 46 44 47 45 48 71 49 72 50 80 51 73 52 79 53 81 54 78 55
REMARK SMILES IDX 74 56 75 57 76 58 77 59 56 60 57 61 65 62 58 63 64 64 66 65
REMARK SMILES IDX 63 66 59 67 60 68 61 69 62 70 5 71 6 72 7 73 8 74 9 76 10 77
REMARK SMILES IDX 11 78 29 79 12 80 21 81 13 84 20 85 14 86 18 87 19 88 15 89
REMARK SMILES IDX 17 90 16 91 22 92 23 93 27 94 24 95 26 96 28 97 25 98
REMARK H PARENT 3 5 86 23 54 34 7 75 29 82 29 83
REMARK Flexibility Score: inf
ROOT
ATOM      1  C   UNL A   1      32.940  29.213  26.020  1.00  0.00     0.118 C 
ENDROOT
BRANCH   1   2
ATOM      2  N   UNL A   1      32.643  30.593  26.362  1.00  0.00    -0.352 N 
ATOM      3  O   UNL A   1      32.817  32.545  27.459  1.00  0.00    -0.269 OA
ATOM      4  C   UNL A   1      33.315  31.451  27.199  1.00  0.00     0.251 C 
ATOM      5  H   UNL A   1      31.843  30.969  25.931  1.00  0.00     0.163 HD
BRANCH   4   6
ATOM      6  C   UNL A   1      34.611  31.064  27.807  1.00  0.00     0.039 A 
ATOM      7  C   UNL A   1      35.631  32.017  27.879  1.00  0.00     0.014 A 
ATOM      8  C   UNL A   1      34.840  29.772  28.288  1.00  0.00     0.014 A 
ATOM      9  C   UNL A   1      36.855  31.683  28.464  1.00  0.00     0.010 A 
ATOM     10  C   UNL A   1      36.015  29.477  28.975  1.00  0.00     0.010 A 
ATOM     11  C   UNL A   1      37.051  30.417  29.039  1.00  0.00    -0.014 A 
BRANCH  11  12
ATOM     12  C   UNL A   1      38.350  30.051  29.665  1.00  0.00     0.031 A 
ATOM     13  C   UNL A   1      38.723  30.599  31.018  1.00  0.00     0.074 A 
ATOM     14  C   UNL A   1      39.206  29.244  29.009  1.00  0.00     0.049 A 
ATOM     15  N   UNL A   1      39.796  30.371  31.732  1.00  0.00    -0.248 NA
ATOM     16  C   UNL A   1      37.787  31.551  31.636  1.00  0.00     0.031 C 
ATOM     17  C   UNL A   1      38.992  28.713  27.663  1.00  0.00     0.029 A 
ATOM     18  N   UNL A   1      40.420  28.725  29.384  1.00  0.00    -0.354 N 
ATOM     19  C   UNL A   1      39.660  31.148  32.877  1.00  0.00     0.074 A 
ATOM     20  C   UNL A   1      38.453  31.925  32.718  1.00  0.00     0.031 C 
ATOM     21  C   UNL A   1      40.015  27.906  27.345  1.00  0.00     0.029 A 
ATOM     22  C   UNL A   1      40.976  27.887  28.446  1.00  0.00     0.049 A 
ATOM     23  H   UNL A   1      40.853  28.934  30.244  1.00  0.00     0.167 HD
ATOM     24  C   UNL A   1      40.441  31.178  33.983  1.00  0.00     0.034 A 
ATOM     25  C   UNL A   1      42.119  27.171  28.473  1.00  0.00     0.034 A 
ATOM     26  C   UNL A   1      41.631  30.385  34.140  1.00  0.00     0.049 A 
ATOM     27  C   UNL A   1      42.967  27.198  29.719  1.00  0.00     0.074 A 
ATOM     28  C   UNL A   1      42.467  30.303  35.239  1.00  0.00     0.029 A 
ATOM     29  N   UNL A   1      42.154  29.532  33.177  1.00  0.00    -0.354 N 
ATOM     30  N   UNL A   1      42.775  27.864  30.833  1.00  0.00    -0.248 NA
ATOM     31  C   UNL A   1      44.178  26.366  29.722  1.00  0.00     0.031 C 
ATOM     32  C   UNL A   1      43.520  29.442  34.923  1.00  0.00     0.029 A 
ATOM     33  C   UNL A   1      43.312  28.937  33.649  1.00  0.00     0.049 A 
ATOM     34  H   UNL A   1      41.759  29.374  32.290  1.00  0.00     0.167 HD
ATOM     35  C   UNL A   1      43.834  27.530  31.671  1.00  0.00     0.074 A 
ATOM     36  C   UNL A   1      44.642  26.567  30.949  1.00  0.00     0.031 C 
ATOM     37  C   UNL A   1      44.119  27.987  32.918  1.00  0.00     0.034 A 
BRANCH  24  38
ATOM     38  C   UNL A   1      40.010  32.061  35.130  1.00  0.00     0.023 A 
ATOM     39  C   UNL A   1      39.134  31.576  36.117  1.00  0.00     0.031 A 
ATOM     40  C   UNL A   1      40.408  33.410  35.201  1.00  0.00     0.131 A 
ATOM     41  C   UNL A   1      38.677  32.435  37.124  1.00  0.00     0.055 A 
ATOM     42  C   UNL A   1      39.986  34.249  36.231  1.00  0.00     0.041 A 
ATOM     43  F   UNL A   1      41.243  33.924  34.282  1.00  0.00    -0.206 F 
ATOM     44  C   UNL A   1      39.108  33.765  37.194  1.00  0.00     0.022 A 
BRANCH  41  45
ATOM     45  S   UNL A   1      37.465  31.884  38.355  1.00  0.00     0.124 S 
ATOM     46  O   UNL A   1      38.204  32.061  39.603  1.00  0.00    -0.237 OA
ATOM     47  O   UNL A   1      36.367  32.821  38.142  1.00  0.00    -0.237 OA
ATOM     48  O   UNL A   1      37.194  30.499  37.984  1.00  0.00    -0.744 OA
ENDBRANCH  41  45
ENDBRANCH  24  38
BRANCH  25  49
ATOM     49  C   UNL A   1      42.451  26.307  27.302  1.00  0.00     0.023 A 
ATOM     50  C   UNL A   1      41.994  24.979  27.232  1.00  0.00     0.031 A 
ATOM     51  C   UNL A   1      43.346  26.751  26.314  1.00  0.00     0.131 A 
ATOM     52  C   UNL A   1      42.495  24.120  26.244  1.00  0.00     0.055 A 
ATOM     53  C   UNL A   1      43.785  25.913  25.287  1.00  0.00     0.041 A 
ATOM     54  F   UNL A   1      43.822  28.005  26.348  1.00  0.00    -0.206 F 
ATOM     55  C   UNL A   1      43.375  24.584  25.261  1.00  0.00     0.022 A 
BRANCH  52  56
ATOM     56  S   UNL A   1      42.143  22.340  26.295  1.00  0.00     0.124 S 
ATOM     57  O   UNL A   1      42.933  21.839  25.175  1.00  0.00    -0.237 OA
ATOM     58  O   UNL A   1      42.630  21.979  27.625  1.00  0.00    -0.237 OA
ATOM     59  O   UNL A   1      40.695  22.270  26.128  1.00  0.00    -0.744 OA
ENDBRANCH  52  56
ENDBRANCH  25  49
BRANCH  37  60
ATOM     60  C   UNL A   1      45.379  27.493  33.591  1.00  0.00     0.023 A 
ATOM     61  C   UNL A   1      45.340  26.370  34.440  1.00  0.00     0.031 A 
ATOM     62  C   UNL A   1      46.582  28.215  33.499  1.00  0.00     0.131 A 
ATOM     63  C   UNL A   1      46.472  26.023  35.189  1.00  0.00     0.055 A 
ATOM     64  C   UNL A   1      47.721  27.838  34.211  1.00  0.00     0.041 A 
ATOM     65  F   UNL A   1      46.667  29.300  32.713  1.00  0.00    -0.206 F 
ATOM     66  C   UNL A   1      47.665  26.745  35.072  1.00  0.00     0.022 A 
BRANCH  63  67
ATOM     67  S   UNL A   1      46.416  24.681  36.408  1.00  0.00     0.124 S 
ATOM     68  O   UNL A   1      46.657  23.507  35.574  1.00  0.00    -0.237 OA
ATOM     69  O   UNL A   1      47.506  25.040  37.312  1.00  0.00    -0.237 OA
ATOM     70  O   UNL A   1      45.076  24.777  36.976  1.00  0.00    -0.744 OA
ENDBRANCH  63  67
ENDBRANCH  37  60
ENDBRANCH  11  12
ENDBRANCH   4   6
ENDBRANCH   1   2
BRANCH   1  71
ATOM     71  C   UNL A   1      31.865  28.239  26.458  1.00  0.00     0.042 C 
BRANCH  71  72
ATOM     72  C   UNL A   1      32.232  26.769  26.354  1.00  0.00     0.118 C 
BRANCH  72  73
ATOM     73  N   UNL A   1      31.182  25.895  26.846  1.00  0.00    -0.351 N 
ATOM     74  C   UNL A   1      30.744  24.662  26.484  1.00  0.00     0.278 C 
ATOM     75  H   UNL A   1      30.681  26.278  27.602  1.00  0.00     0.163 HD
ATOM     76  O   UNL A   1      29.760  24.237  27.105  1.00  0.00    -0.268 OA
BRANCH  74  77
ATOM     77  C   UNL A   1      31.334  23.829  25.329  1.00  0.00     0.277 C 
ATOM     78  C   UNL A   1      30.692  24.213  23.971  1.00  0.00     0.109 C 
ATOM     79  N   UNL A   1      32.823  23.708  25.397  1.00  0.00    -0.327 N 
ATOM     80  C   UNL A   1      31.663  25.029  23.206  1.00  0.00    -0.024 C 
ATOM     81  C   UNL A   1      33.439  23.386  24.082  1.00  0.00     0.246 C 
ATOM     82  H   UNL A   1      33.060  22.967  26.058  1.00  0.00     0.347 HD
ATOM     83  H   UNL A   1      33.190  24.613  25.694  1.00  0.00     0.347 HD
ATOM     84  C   UNL A   1      31.594  26.302  22.844  1.00  0.00     0.002 A 
ATOM     85  C   UNL A   1      33.042  24.480  23.012  1.00  0.00     0.196 C 
ATOM     86  C   UNL A   1      30.561  27.282  22.809  1.00  0.00     0.010 A 
ATOM     87  C   UNL A   1      33.030  26.653  22.759  1.00  0.00     0.066 A 
ATOM     88  N   UNL A   1      33.902  25.705  22.980  1.00  0.00    -0.270 NA
ATOM     89  C   UNL A   1      30.902  28.562  22.598  1.00  0.00     0.001 A 
ATOM     90  C   UNL A   1      33.318  28.091  22.545  1.00  0.00     0.028 A 
ATOM     91  C   UNL A   1      32.295  28.960  22.463  1.00  0.00     0.002 A 
BRANCH  81  92
ATOM     92  C   UNL A   1      33.109  21.945  23.631  1.00  0.00     0.048 A 
ATOM     93  C   UNL A   1      32.455  21.701  22.408  1.00  0.00     0.013 A 
ATOM     94  C   UNL A   1      33.416  20.811  24.405  1.00  0.00     0.132 A 
ATOM     95  C   UNL A   1      31.965  20.432  22.081  1.00  0.00     0.001 A 
ATOM     96  C   UNL A   1      32.918  19.547  24.092  1.00  0.00     0.040 A 
ATOM     97  F   UNL A   1      34.180  20.895  25.503  1.00  0.00    -0.206 F 
ATOM     98  C   UNL A   1      32.162  19.361  22.944  1.00  0.00     0.003 A 
ENDBRANCH  81  92
ENDBRANCH  74  77
ENDBRANCH  72  73
ENDBRANCH  71  72
ENDBRANCH   1  71
TORSDOF 14
ENDMDL
MODEL 2
REMARK VINA RESULT:     -12.8      4.885      9.776
REMARK SMILES O=C(NCCCNC(=O)[C@H]1CC2=c3ccccc3=N[C@H]2[C@H](c2ccccc2F)[NH2+]1)c1ccc(-c2c3nc(c(-c4cc(S(=O)(=O)[O-])ccc4F)c4ccc([nH]4)c(-c4cc(S(=O)(=O)[O-])ccc4F)c4nc(c(-c5cc(S(=O)(=O)[O-])ccc5F)c5ccc2[nH]5)C=C4)C=C3)cc1
REMARK SMILES IDX 4 1 3 2 1 3 2 4 30 6 31 7 92 8 32 9 91 10 33 11 34 12 35 13
REMARK SMILES IDX 85 14 36 15 90 16 84 17 86 18 37 19 89 20 83 21 82 22 38 24
REMARK SMILES IDX 70 25 50 26 69 27 51 28 54 29 68 30 87 31 52 32 53 33 67 35
REMARK SMILES IDX 88 36 55 37 39 38 40 39 48 40 41 41 47 42 49 43 46 44 42 45
REMARK SMILES IDX 43 46 44 47 45 48 71 49 72 50 80 51 73 52 79 53 81 54 78 55
REMARK SMILES IDX 74 56 75 57 76 58 77 59 56 60 57 61 65 62 58 63 64 64 66 65
REMARK SMILES IDX 63 66 59 67 60 68 61 69 62 70 5 71 6 72 7 73 8 74 9 76 10 77
REMARK SMILES IDX 11 78 29 79 12 80 21 81 13 84 20 85 14 86 18 87 19 88 15 89
REMARK SMILES IDX 17 90 16 91 22 92 23 93 27 94 24 95 26 96 28 97 25 98
REMARK H PARENT 3 5 86 23 54 34 7 75 29 82 29 83
REMARK Flexibility Score: inf
ROOT
ATOM      1  C   UNL A   1      36.666  22.564  25.650  1.00  0.00     0.118 C 
ENDROOT
BRANCH   1   2
ATOM      2  N   UNL A   1      37.647  21.500  25.767  1.00  0.00    -0.352 N 
ATOM      3  O   UNL A   1      39.668  20.557  26.028  1.00  0.00    -0.269 OA
ATOM      4  C   UNL A   1      38.972  21.566  26.124  1.00  0.00     0.251 C 
ATOM      5  H   UNL A   1      37.313  20.598  25.558  1.00  0.00     0.163 HD
BRANCH   4   6
ATOM      6  C   UNL A   1      39.572  22.838  26.596  1.00  0.00     0.039 A 
ATOM      7  C   UNL A   1      39.201  24.029  25.967  1.00  0.00     0.014 A 
ATOM      8  C   UNL A   1      40.509  22.868  27.633  1.00  0.00     0.014 A 
ATOM      9  C   UNL A   1      39.737  25.243  26.404  1.00  0.00     0.010 A 
ATOM     10  C   UNL A   1      40.951  24.086  28.142  1.00  0.00     0.010 A 
ATOM     11  C   UNL A   1      40.600  25.286  27.511  1.00  0.00    -0.014 A 
BRANCH  11  12
ATOM     12  C   UNL A   1      41.177  26.573  27.985  1.00  0.00     0.031 A 
ATOM     13  C   UNL A   1      42.619  26.908  27.707  1.00  0.00     0.074 A 
ATOM     14  C   UNL A   1      40.413  27.433  28.685  1.00  0.00     0.049 A 
ATOM     15  N   UNL A   1      43.289  27.989  28.015  1.00  0.00    -0.248 NA
ATOM     16  C   UNL A   1      43.425  25.884  27.022  1.00  0.00     0.031 C 
ATOM     17  C   UNL A   1      39.027  27.188  29.083  1.00  0.00     0.029 A 
ATOM     18  N   UNL A   1      40.686  28.684  29.179  1.00  0.00    -0.354 N 
ATOM     19  C   UNL A   1      44.585  27.773  27.562  1.00  0.00     0.074 A 
ATOM     20  C   UNL A   1      44.633  26.424  27.048  1.00  0.00     0.031 C 
ATOM     21  C   UNL A   1      38.557  28.272  29.718  1.00  0.00     0.029 A 
ATOM     22  C   UNL A   1      39.614  29.277  29.804  1.00  0.00     0.049 A 
ATOM     23  H   UNL A   1      41.568  29.115  29.096  1.00  0.00     0.167 HD
ATOM     24  C   UNL A   1      45.630  28.634  27.531  1.00  0.00     0.034 A 
ATOM     25  C   UNL A   1      39.489  30.497  30.368  1.00  0.00     0.034 A 
ATOM     26  C   UNL A   1      45.568  29.983  28.028  1.00  0.00     0.049 A 
ATOM     27  C   UNL A   1      40.654  31.451  30.307  1.00  0.00     0.074 A 
ATOM     28  C   UNL A   1      46.553  30.953  27.999  1.00  0.00     0.029 A 
ATOM     29  N   UNL A   1      44.459  30.557  28.636  1.00  0.00    -0.354 N 
ATOM     30  N   UNL A   1      41.846  31.267  29.788  1.00  0.00    -0.248 NA
ATOM     31  C   UNL A   1      40.458  32.785  30.890  1.00  0.00     0.031 C 
ATOM     32  C   UNL A   1      46.060  32.094  28.635  1.00  0.00     0.029 A 
ATOM     33  C   UNL A   1      44.745  31.861  29.007  1.00  0.00     0.049 A 
ATOM     34  H   UNL A   1      43.599  30.104  28.783  1.00  0.00     0.167 HD
ATOM     35  C   UNL A   1      42.539  32.458  29.977  1.00  0.00     0.074 A 
ATOM     36  C   UNL A   1      41.617  33.372  30.621  1.00  0.00     0.031 C 
ATOM     37  C   UNL A   1      43.824  32.763  29.660  1.00  0.00     0.034 A 
BRANCH  24  38
ATOM     38  C   UNL A   1      46.918  28.161  26.898  1.00  0.00     0.023 A 
ATOM     39  C   UNL A   1      47.062  28.140  25.499  1.00  0.00     0.031 A 
ATOM     40  C   UNL A   1      47.974  27.658  27.683  1.00  0.00     0.131 A 
ATOM     41  C   UNL A   1      48.230  27.617  24.930  1.00  0.00     0.055 A 
ATOM     42  C   UNL A   1      49.153  27.180  27.111  1.00  0.00     0.041 A 
ATOM     43  F   UNL A   1      47.886  27.654  29.023  1.00  0.00    -0.206 F 
ATOM     44  C   UNL A   1      49.281  27.149  25.727  1.00  0.00     0.022 A 
BRANCH  41  45
ATOM     45  S   UNL A   1      48.418  27.471  23.132  1.00  0.00     0.124 S 
ATOM     46  O   UNL A   1      47.262  28.223  22.648  1.00  0.00    -0.237 OA
ATOM     47  O   UNL A   1      49.713  28.106  22.909  1.00  0.00    -0.237 OA
ATOM     48  O   UNL A   1      48.369  26.033  22.890  1.00  0.00    -0.744 OA
ENDBRANCH  41  45
ENDBRANCH  24  38
BRANCH  25  49
ATOM     49  C   UNL A   1      38.170  30.886  30.948  1.00  0.00     0.023 A 
ATOM     50  C   UNL A   1      37.195  31.523  30.160  1.00  0.00     0.031 A 
ATOM     51  C   UNL A   1      37.927  30.757  32.325  1.00  0.00     0.131 A 
ATOM     52  C   UNL A   1      36.061  32.078  30.769  1.00  0.00     0.055 A 
ATOM     53  C   UNL A   1      36.760  31.244  32.916  1.00  0.00     0.041 A 
ATOM     54  F   UNL A   1      38.835  30.170  33.120  1.00  0.00    -0.206 F 
ATOM     55  C   UNL A   1      35.829  31.928  32.140  1.00  0.00     0.022 A 
BRANCH  52  56
ATOM     56  S   UNL A   1      34.930  33.142  29.829  1.00  0.00     0.124 S 
ATOM     57  O   UNL A   1      34.216  32.176  29.001  1.00  0.00    -0.237 OA
ATOM     58  O   UNL A   1      34.148  33.760  30.898  1.00  0.00    -0.237 OA
ATOM     59  O   UNL A   1      35.822  34.049  29.114  1.00  0.00    -0.744 OA
ENDBRANCH  52  56
ENDBRANCH  25  49
BRANCH  37  60
ATOM     60  C   UNL A   1      44.347  34.131  30.030  1.00  0.00     0.023 A 
ATOM     61  C   UNL A   1      44.277  35.195  29.110  1.00  0.00     0.031 A 
ATOM     62  C   UNL A   1      45.037  34.342  31.237  1.00  0.00     0.131 A 
ATOM     63  C   UNL A   1      44.914  36.409  29.397  1.00  0.00     0.055 A 
ATOM     64  C   UNL A   1      45.630  35.568  31.539  1.00  0.00     0.041 A 
ATOM     65  F   UNL A   1      45.144  33.356  32.142  1.00  0.00    -0.206 F 
ATOM     66  C   UNL A   1      45.581  36.605  30.610  1.00  0.00     0.022 A 
BRANCH  63  67
ATOM     67  S   UNL A   1      44.978  37.748  28.175  1.00  0.00     0.124 S 
ATOM     68  O   UNL A   1      45.788  38.748  28.866  1.00  0.00    -0.237 OA
ATOM     69  O   UNL A   1      45.625  37.097  27.038  1.00  0.00    -0.237 OA
ATOM     70  O   UNL A   1      43.579  38.109  27.975  1.00  0.00    -0.744 OA
ENDBRANCH  63  67
ENDBRANCH  37  60
ENDBRANCH  11  12
ENDBRANCH   4   6
ENDBRANCH   1   2
BRANCH   1  71
ATOM     71  C   UNL A   1      35.993  22.619  24.294  1.00  0.00     0.042 C 
BRANCH  71  72
ATOM     72  C   UNL A   1      35.029  23.773  24.087  1.00  0.00     0.118 C 
BRANCH  72  73
ATOM     73  N   UNL A   1      34.568  23.877  22.714  1.00  0.00    -0.351 N 
ATOM     74  C   UNL A   1      33.442  24.371  22.139  1.00  0.00     0.278 C 
ATOM     75  H   UNL A   1      35.209  23.512  22.061  1.00  0.00     0.163 HD
ATOM     76  O   UNL A   1      33.361  24.236  20.910  1.00  0.00    -0.268 OA
BRANCH  74  77
ATOM     77  C   UNL A   1      32.265  24.994  22.914  1.00  0.00     0.277 C 
ATOM     78  C   UNL A   1      31.307  23.904  23.460  1.00  0.00     0.109 C 
ATOM     79  N   UNL A   1      32.691  26.088  23.842  1.00  0.00    -0.327 N 
ATOM     80  C   UNL A   1      31.534  23.764  24.917  1.00  0.00    -0.024 C 
ATOM     81  C   UNL A   1      31.715  26.331  24.938  1.00  0.00     0.246 C 
ATOM     82  H   UNL A   1      32.797  26.948  23.304  1.00  0.00     0.347 HD
ATOM     83  H   UNL A   1      33.569  25.799  24.273  1.00  0.00     0.347 HD
ATOM     84  C   UNL A   1      32.022  22.738  25.599  1.00  0.00     0.002 A 
ATOM     85  C   UNL A   1      31.473  25.001  25.758  1.00  0.00     0.196 C 
ATOM     86  C   UNL A   1      32.279  21.369  25.307  1.00  0.00     0.010 A 
ATOM     87  C   UNL A   1      32.605  23.426  26.772  1.00  0.00     0.066 A 
ATOM     88  N   UNL A   1      32.454  24.723  26.854  1.00  0.00    -0.270 NA
ATOM     89  C   UNL A   1      33.006  20.654  26.180  1.00  0.00     0.001 A 
ATOM     90  C   UNL A   1      33.409  22.569  27.675  1.00  0.00     0.028 A 
ATOM     91  C   UNL A   1      33.569  21.268  27.373  1.00  0.00     0.002 A 
BRANCH  81  92
ATOM     92  C   UNL A   1      30.408  26.967  24.412  1.00  0.00     0.048 A 
ATOM     93  C   UNL A   1      29.173  26.304  24.550  1.00  0.00     0.013 A 
ATOM     94  C   UNL A   1      30.371  28.213  23.760  1.00  0.00     0.132 A 
ATOM     95  C   UNL A   1      28.021  26.762  23.902  1.00  0.00     0.001 A 
ATOM     96  C   UNL A   1      29.230  28.668  23.101  1.00  0.00     0.040 A 
ATOM     97  F   UNL A   1      31.445  29.015  23.714  1.00  0.00    -0.206 F 
ATOM     98  C   UNL A   1      28.059  27.924  23.142  1.00  0.00     0.003 A 
ENDBRANCH  81  92
ENDBRANCH  74  77
ENDBRANCH  72  73
ENDBRANCH  71  72
ENDBRANCH   1  71
TORSDOF 14
ENDMDL
MODEL 3
REMARK VINA RESULT:     -12.7      1.768      2.481
REMARK SMILES O=C(NCCCNC(=O)[C@H]1CC2=c3ccccc3=N[C@H]2[C@H](c2ccccc2F)[NH2+]1)c1ccc(-c2c3nc(c(-c4cc(S(=O)(=O)[O-])ccc4F)c4ccc([nH]4)c(-c4cc(S(=O)(=O)[O-])ccc4F)c4nc(c(-c5cc(S(=O)(=O)[O-])ccc5F)c5ccc2[nH]5)C=C4)C=C3)cc1
REMARK SMILES IDX 4 1 3 2 1 3 2 4 30 6 31 7 92 8 32 9 91 10 33 11 34 12 35 13
REMARK SMILES IDX 85 14 36 15 90 16 84 17 86 18 37 19 89 20 83 21 82 22 38 24
REMARK SMILES IDX 70 25 50 26 69 27 51 28 54 29 68 30 87 31 52 32 53 33 67 35
REMARK SMILES IDX 88 36 55 37 39 38 40 39 48 40 41 41 47 42 49 43 46 44 42 45
REMARK SMILES IDX 43 46 44 47 45 48 71 49 72 50 80 51 73 52 79 53 81 54 78 55
REMARK SMILES IDX 74 56 75 57 76 58 77 59 56 60 57 61 65 62 58 63 64 64 66 65
REMARK SMILES IDX 63 66 59 67 60 68 61 69 62 70 5 71 6 72 7 73 8 74 9 76 10 77
REMARK SMILES IDX 11 78 29 79 12 80 21 81 13 84 20 85 14 86 18 87 19 88 15 89
REMARK SMILES IDX 17 90 16 91 22 92 23 93 27 94 24 95 26 96 28 97 25 98
REMARK H PARENT 3 5 86 23 54 34 7 75 29 82 29 83
REMARK Flexibility Score: inf
ROOT
ATOM      1  C   UNL A   1      32.577  32.055  27.046  1.00  0.00     0.118 C 
ENDROOT
BRANCH   1   2
ATOM      2  N   UNL A   1      32.499  33.441  27.474  1.00  0.00    -0.352 N 
ATOM      3  O   UNL A   1      32.970  35.271  28.688  1.00  0.00    -0.269 OA
ATOM      4  C   UNL A   1      33.293  34.130  28.358  1.00  0.00     0.251 C 
ATOM      5  H   UNL A   1      31.769  33.963  27.070  1.00  0.00     0.163 HD
BRANCH   4   6
ATOM      6  C   UNL A   1      34.509  33.508  28.936  1.00  0.00     0.039 A 
ATOM      7  C   UNL A   1      34.359  32.467  29.855  1.00  0.00     0.014 A 
ATOM      8  C   UNL A   1      35.791  33.951  28.599  1.00  0.00     0.014 A 
ATOM      9  C   UNL A   1      35.489  31.851  30.400  1.00  0.00     0.010 A 
ATOM     10  C   UNL A   1      36.913  33.261  29.051  1.00  0.00     0.010 A 
ATOM     11  C   UNL A   1      36.777  32.226  29.986  1.00  0.00    -0.014 A 
BRANCH  11  12
ATOM     12  C   UNL A   1      37.987  31.578  30.559  1.00  0.00     0.031 A 
ATOM     13  C   UNL A   1      38.453  31.930  31.947  1.00  0.00     0.074 A 
ATOM     14  C   UNL A   1      38.682  30.688  29.824  1.00  0.00     0.049 A 
ATOM     15  N   UNL A   1      39.466  31.450  32.623  1.00  0.00    -0.248 NA
ATOM     16  C   UNL A   1      37.706  32.979  32.658  1.00  0.00     0.031 C 
ATOM     17  C   UNL A   1      38.376  30.323  28.442  1.00  0.00     0.029 A 
ATOM     18  N   UNL A   1      39.781  29.926  30.136  1.00  0.00    -0.354 N 
ATOM     19  C   UNL A   1      39.473  32.137  33.832  1.00  0.00     0.074 A 
ATOM     20  C   UNL A   1      38.427  33.131  33.757  1.00  0.00     0.031 C 
ATOM     21  C   UNL A   1      39.234  29.374  28.040  1.00  0.00     0.029 A 
ATOM     22  C   UNL A   1      40.174  29.085  29.121  1.00  0.00     0.049 A 
ATOM     23  H   UNL A   1      40.244  29.978  31.003  1.00  0.00     0.167 HD
ATOM     24  C   UNL A   1      40.245  31.929  34.925  1.00  0.00     0.034 A 
ATOM     25  C   UNL A   1      41.168  28.173  29.070  1.00  0.00     0.034 A 
ATOM     26  C   UNL A   1      41.270  30.922  34.996  1.00  0.00     0.049 A 
ATOM     27  C   UNL A   1      42.005  27.938  30.301  1.00  0.00     0.074 A 
ATOM     28  C   UNL A   1      42.076  30.595  36.072  1.00  0.00     0.029 A 
ATOM     29  N   UNL A   1      41.629  30.074  33.957  1.00  0.00    -0.354 N 
ATOM     30  N   UNL A   1      41.937  28.529  31.471  1.00  0.00    -0.248 NA
ATOM     31  C   UNL A   1      43.044  26.902  30.217  1.00  0.00     0.031 C 
ATOM     32  C   UNL A   1      42.955  29.588  35.668  1.00  0.00     0.029 A 
ATOM     33  C   UNL A   1      42.659  29.240  34.359  1.00  0.00     0.049 A 
ATOM     34  H   UNL A   1      41.213  30.068  33.065  1.00  0.00     0.167 HD
ATOM     35  C   UNL A   1      42.917  27.937  32.261  1.00  0.00     0.074 A 
ATOM     36  C   UNL A   1      43.535  26.909  31.449  1.00  0.00     0.031 C 
ATOM     37  C   UNL A   1      43.280  28.225  33.538  1.00  0.00     0.034 A 
BRANCH  24  38
ATOM     38  C   UNL A   1      39.981  32.773  36.149  1.00  0.00     0.023 A 
ATOM     39  C   UNL A   1      39.064  32.350  37.127  1.00  0.00     0.031 A 
ATOM     40  C   UNL A   1      40.584  34.037  36.307  1.00  0.00     0.131 A 
ATOM     41  C   UNL A   1      38.768  33.186  38.211  1.00  0.00     0.055 A 
ATOM     42  C   UNL A   1      40.319  34.846  37.411  1.00  0.00     0.041 A 
ATOM     43  F   UNL A   1      41.466  34.489  35.400  1.00  0.00    -0.206 F 
ATOM     44  C   UNL A   1      39.400  34.426  38.365  1.00  0.00     0.022 A 
BRANCH  41  45
ATOM     45  S   UNL A   1      37.515  32.729  39.439  1.00  0.00     0.124 S 
ATOM     46  O   UNL A   1      37.616  33.830  40.394  1.00  0.00    -0.237 OA
ATOM     47  O   UNL A   1      36.295  32.708  38.637  1.00  0.00    -0.237 OA
ATOM     48  O   UNL A   1      37.966  31.433  39.934  1.00  0.00    -0.744 OA
ENDBRANCH  41  45
ENDBRANCH  24  38
BRANCH  25  49
ATOM     49  C   UNL A   1      41.338  27.367  27.825  1.00  0.00     0.023 A 
ATOM     50  C   UNL A   1      40.972  26.009  27.789  1.00  0.00     0.031 A 
ATOM     51  C   UNL A   1      41.998  27.905  26.708  1.00  0.00     0.131 A 
ATOM     52  C   UNL A   1      41.342  25.218  26.694  1.00  0.00     0.055 A 
ATOM     53  C   UNL A   1      42.297  27.129  25.586  1.00  0.00     0.041 A 
ATOM     54  F   UNL A   1      42.380  29.191  26.703  1.00  0.00    -0.206 F 
ATOM     55  C   UNL A   1      41.988  25.773  25.584  1.00  0.00     0.022 A 
BRANCH  52  56
ATOM     56  S   UNL A   1      41.134  23.415  26.739  1.00  0.00     0.124 S 
ATOM     57  O   UNL A   1      39.710  23.263  26.459  1.00  0.00    -0.237 OA
ATOM     58  O   UNL A   1      42.038  22.985  25.673  1.00  0.00    -0.237 OA
ATOM     59  O   UNL A   1      41.555  23.053  28.088  1.00  0.00    -0.744 OA
ENDBRANCH  52  56
ENDBRANCH  25  49
BRANCH  37  60
ATOM     60  C   UNL A   1      44.427  27.455  34.148  1.00  0.00     0.023 A 
ATOM     61  C   UNL A   1      44.200  26.213  34.772  1.00  0.00     0.031 A 
ATOM     62  C   UNL A   1      45.714  28.014  34.231  1.00  0.00     0.131 A 
ATOM     63  C   UNL A   1      45.235  25.589  35.480  1.00  0.00     0.055 A 
ATOM     64  C   UNL A   1      46.755  27.366  34.897  1.00  0.00     0.041 A 
ATOM     65  F   UNL A   1      45.979  29.202  33.664  1.00  0.00    -0.206 F 
ATOM     66  C   UNL A   1      46.514  26.153  35.537  1.00  0.00     0.022 A 
BRANCH  63  67
ATOM     67  S   UNL A   1      44.943  24.069  36.426  1.00  0.00     0.124 S 
ATOM     68  O   UNL A   1      46.224  23.381  36.294  1.00  0.00    -0.237 OA
ATOM     69  O   UNL A   1      44.647  24.587  37.759  1.00  0.00    -0.237 OA
ATOM     70  O   UNL A   1      43.823  23.436  35.738  1.00  0.00    -0.744 OA
ENDBRANCH  63  67
ENDBRANCH  37  60
ENDBRANCH  11  12
ENDBRANCH   4   6
ENDBRANCH   1   2
BRANCH   1  71
ATOM     71  C   UNL A   1      31.409  31.624  26.183  1.00  0.00     0.042 C 
BRANCH  71  72
ATOM     72  C   UNL A   1      31.491  30.214  25.627  1.00  0.00     0.118 C 
BRANCH  72  73
ATOM     73  N   UNL A   1      31.339  29.199  26.654  1.00  0.00    -0.351 N 
ATOM     74  C   UNL A   1      31.482  27.848  26.664  1.00  0.00     0.278 C 
ATOM     75  H   UNL A   1      31.078  29.568  27.529  1.00  0.00     0.163 HD
ATOM     76  O   UNL A   1      31.207  27.286  27.734  1.00  0.00    -0.268 OA
BRANCH  74  77
ATOM     77  C   UNL A   1      31.873  27.001  25.438  1.00  0.00     0.277 C 
ATOM     78  C   UNL A   1      30.621  26.532  24.652  1.00  0.00     0.109 C 
ATOM     79  N   UNL A   1      33.014  27.583  24.666  1.00  0.00    -0.327 N 
ATOM     80  C   UNL A   1      30.507  27.346  23.420  1.00  0.00    -0.024 C 
ATOM     81  C   UNL A   1      33.064  27.107  23.258  1.00  0.00     0.246 C 
ATOM     82  H   UNL A   1      33.886  27.324  25.128  1.00  0.00     0.347 HD
ATOM     83  H   UNL A   1      32.882  28.594  24.642  1.00  0.00     0.347 HD
ATOM     84  C   UNL A   1      29.578  28.225  23.074  1.00  0.00     0.002 A 
ATOM     85  C   UNL A   1      31.702  27.433  22.524  1.00  0.00     0.196 C 
ATOM     86  C   UNL A   1      28.280  28.559  23.558  1.00  0.00     0.010 A 
ATOM     87  C   UNL A   1      30.345  29.113  22.173  1.00  0.00     0.066 A 
ATOM     88  N   UNL A   1      31.592  28.803  21.930  1.00  0.00    -0.270 NA
ATOM     89  C   UNL A   1      27.698  29.679  23.105  1.00  0.00     0.001 A 
ATOM     90  C   UNL A   1      29.636  30.339  21.736  1.00  0.00     0.028 A 
ATOM     91  C   UNL A   1      28.389  30.569  22.184  1.00  0.00     0.002 A 
BRANCH  81  92
ATOM     92  C   UNL A   1      33.461  25.616  23.170  1.00  0.00     0.048 A 
ATOM     93  C   UNL A   1      32.999  24.804  22.115  1.00  0.00     0.013 A 
ATOM     94  C   UNL A   1      34.274  24.982  24.127  1.00  0.00     0.132 A 
ATOM     95  C   UNL A   1      33.173  23.416  22.129  1.00  0.00     0.001 A 
ATOM     96  C   UNL A   1      34.440  23.597  24.155  1.00  0.00     0.040 A 
ATOM     97  F   UNL A   1      34.908  25.677  25.082  1.00  0.00    -0.206 F 
ATOM     98  C   UNL A   1      33.860  22.807  23.173  1.00  0.00     0.003 A 
ENDBRANCH  81  92
ENDBRANCH  74  77
ENDBRANCH  72  73
ENDBRANCH  71  72
ENDBRANCH   1  71
TORSDOF 14
ENDMDL
