MODEL 1
REMARK VINA RESULT:     -10.9      0.000      0.000
REMARK SMILES C[C@H](Nc1ccc(N(C)C)cc1)[C@@H](C)C(=O)NCCCNC(=O)c1ccc(-c2c3nc(c(-c4cc(S(=O)(=O)[O-])ccc4F)c4ccc([nH]4)c(-c4cc(S(=O)(=O)[O-])ccc4F)c4nc(c(-c5cc(S(=O)(=O)[O-])ccc5F)c5ccc2[nH]5)C=C4)C=C3)cc1
REMARK SMILES IDX 18 1 17 2 15 3 16 4 13 6 14 7 2 8 1 9 3 10 4 12 5 13 12 14
REMARK SMILES IDX 6 15 11 16 7 17 8 18 9 19 10 20 19 21 20 22 21 23 22 24
REMARK SMILES IDX 23 26 24 27 25 28 86 29 26 30 85 31 27 32 28 33 29 34 79 35
REMARK SMILES IDX 30 36 84 37 78 38 80 39 31 40 83 41 77 42 76 43 32 45 64 46
REMARK SMILES IDX 44 47 63 48 45 49 48 50 62 51 81 52 46 53 47 54 61 56 82 57
REMARK SMILES IDX 49 58 33 59 34 60 42 61 35 62 41 63 43 64 40 65 36 66 37 67
REMARK SMILES IDX 38 68 39 69 65 70 66 71 74 72 67 73 73 74 75 75 72 76 68 77
REMARK SMILES IDX 69 78 70 79 71 80 50 81 51 82 59 83 52 84 58 85 60 86 57 87
REMARK SMILES IDX 53 88 54 89 55 90 56 91
REMARK H PARENT 17 5 3 11 21 25 80 44 48 55
REMARK Flexibility Score: inf
ROOT
ATOM      1  C   UNL A   1      31.809  28.097  26.988  1.00  0.00     0.117 C 
ENDROOT
BRANCH   1   2
ATOM      2  N   UNL A   1      31.085  26.835  26.965  1.00  0.00    -0.356 N 
ATOM      3  C   UNL A   1      30.414  26.191  25.972  1.00  0.00     0.224 C 
ATOM      4  O   UNL A   1      29.900  25.103  26.254  1.00  0.00    -0.275 OA
ATOM      5  H   UNL A   1      31.079  26.360  27.827  1.00  0.00     0.163 HD
BRANCH   3   6
ATOM      6  C   UNL A   1      30.286  26.750  24.558  1.00  0.00     0.097 C 
ATOM      7  C   UNL A   1      28.864  26.556  24.029  1.00  0.00     0.020 C 
BRANCH   6   8
ATOM      8  C   UNL A   1      31.422  26.242  23.648  1.00  0.00     0.088 C 
ATOM      9  C   UNL A   1      31.602  27.159  22.429  1.00  0.00     0.031 C 
BRANCH   8  10
ATOM     10  N   UNL A   1      31.150  24.884  23.171  1.00  0.00    -0.382 N 
ATOM     11  H   UNL A   1      30.365  24.721  22.599  1.00  0.00     0.160 HD
BRANCH  10  12
ATOM     12  C   UNL A   1      31.978  23.821  23.509  1.00  0.00     0.034 A 
ATOM     13  C   UNL A   1      33.324  23.859  23.153  1.00  0.00     0.028 A 
ATOM     14  C   UNL A   1      31.551  22.710  24.231  1.00  0.00     0.028 A 
ATOM     15  C   UNL A   1      34.218  22.843  23.543  1.00  0.00     0.028 A 
ATOM     16  C   UNL A   1      32.446  21.695  24.610  1.00  0.00     0.028 A 
ATOM     17  C   UNL A   1      33.814  21.731  24.294  1.00  0.00     0.036 A 
BRANCH  17  18
ATOM     18  N   UNL A   1      34.682  20.720  24.685  1.00  0.00    -0.378 N 
ATOM     19  C   UNL A   1      35.995  20.959  25.273  1.00  0.00     0.143 C 
ATOM     20  C   UNL A   1      34.212  19.335  24.764  1.00  0.00     0.143 C 
ENDBRANCH  17  18
ENDBRANCH  10  12
ENDBRANCH   8  10
ENDBRANCH   6   8
ENDBRANCH   3   6
ENDBRANCH   1   2
BRANCH   1  21
ATOM     21  C   UNL A   1      33.318  27.912  26.859  1.00  0.00     0.042 C 
BRANCH  21  22
ATOM     22  C   UNL A   1      34.017  29.002  26.057  1.00  0.00     0.118 C 
BRANCH  22  23
ATOM     23  N   UNL A   1      33.752  30.334  26.579  1.00  0.00    -0.352 N 
ATOM     24  C   UNL A   1      34.366  31.032  27.586  1.00  0.00     0.251 C 
ATOM     25  H   UNL A   1      33.013  30.811  26.137  1.00  0.00     0.163 HD
ATOM     26  O   UNL A   1      33.830  32.060  28.009  1.00  0.00    -0.269 OA
BRANCH  24  27
ATOM     27  C   UNL A   1      35.637  30.562  28.180  1.00  0.00     0.039 A 
ATOM     28  C   UNL A   1      35.593  29.752  29.318  1.00  0.00     0.014 A 
ATOM     29  C   UNL A   1      36.872  30.939  27.645  1.00  0.00     0.014 A 
ATOM     30  C   UNL A   1      36.780  29.270  29.877  1.00  0.00     0.010 A 
ATOM     31  C   UNL A   1      38.048  30.386  28.147  1.00  0.00     0.010 A 
ATOM     32  C   UNL A   1      38.016  29.553  29.274  1.00  0.00    -0.014 A 
BRANCH  32  33
ATOM     33  C   UNL A   1      39.284  28.990  29.812  1.00  0.00     0.031 A 
ATOM     34  C   UNL A   1      39.961  29.635  30.991  1.00  0.00     0.074 A 
ATOM     35  C   UNL A   1      39.860  27.942  29.193  1.00  0.00     0.049 A 
ATOM     36  N   UNL A   1      41.102  29.337  31.558  1.00  0.00    -0.248 NA
ATOM     37  C   UNL A   1      39.280  30.794  31.586  1.00  0.00     0.031 C 
ATOM     38  C   UNL A   1      39.329  27.266  28.006  1.00  0.00     0.029 A 
ATOM     39  N   UNL A   1      41.025  27.267  29.464  1.00  0.00    -0.354 N 
ATOM     40  C   UNL A   1      41.286  30.283  32.562  1.00  0.00     0.074 A 
ATOM     41  C   UNL A   1      40.170  31.201  32.478  1.00  0.00     0.031 C 
ATOM     42  C   UNL A   1      40.152  26.263  27.666  1.00  0.00     0.029 A 
ATOM     43  C   UNL A   1      41.292  26.251  28.577  1.00  0.00     0.049 A 
ATOM     44  H   UNL A   1      41.612  27.490  30.222  1.00  0.00     0.167 HD
ATOM     45  C   UNL A   1      42.280  30.364  33.482  1.00  0.00     0.034 A 
ATOM     46  C   UNL A   1      42.344  25.412  28.494  1.00  0.00     0.034 A 
ATOM     47  C   UNL A   1      43.379  29.428  33.555  1.00  0.00     0.049 A 
ATOM     48  C   UNL A   1      43.442  25.519  29.520  1.00  0.00     0.074 A 
ATOM     49  C   UNL A   1      44.397  29.364  34.489  1.00  0.00     0.029 A 
ATOM     50  N   UNL A   1      43.613  28.403  32.646  1.00  0.00    -0.354 N 
ATOM     51  N   UNL A   1      43.566  26.372  30.511  1.00  0.00    -0.248 NA
ATOM     52  C   UNL A   1      44.531  24.541  29.425  1.00  0.00     0.031 C 
ATOM     53  C   UNL A   1      45.286  28.355  34.102  1.00  0.00     0.029 A 
ATOM     54  C   UNL A   1      44.781  27.728  32.974  1.00  0.00     0.049 A 
ATOM     55  H   UNL A   1      43.033  28.185  31.880  1.00  0.00     0.167 HD
ATOM     56  C   UNL A   1      44.739  26.019  31.171  1.00  0.00     0.074 A 
ATOM     57  C   UNL A   1      45.272  24.864  30.475  1.00  0.00     0.031 C 
ATOM     58  C   UNL A   1      45.319  26.593  32.257  1.00  0.00     0.034 A 
BRANCH  45  59
ATOM     59  C   UNL A   1      42.234  31.522  34.454  1.00  0.00     0.023 A 
ATOM     60  C   UNL A   1      41.395  31.511  35.583  1.00  0.00     0.031 A 
ATOM     61  C   UNL A   1      43.001  32.678  34.222  1.00  0.00     0.131 A 
ATOM     62  C   UNL A   1      41.263  32.664  36.373  1.00  0.00     0.055 A 
ATOM     63  C   UNL A   1      42.938  33.788  35.068  1.00  0.00     0.041 A 
ATOM     64  F   UNL A   1      43.807  32.761  33.152  1.00  0.00    -0.206 F 
ATOM     65  C   UNL A   1      42.049  33.794  36.139  1.00  0.00     0.022 A 
BRANCH  62  66
ATOM     66  S   UNL A   1      39.920  32.727  37.592  1.00  0.00     0.124 S 
ATOM     67  O   UNL A   1      39.399  34.077  37.386  1.00  0.00    -0.237 OA
ATOM     68  O   UNL A   1      39.054  31.635  37.163  1.00  0.00    -0.237 OA
ATOM     69  O   UNL A   1      40.605  32.521  38.866  1.00  0.00    -0.744 OA
ENDBRANCH  62  66
ENDBRANCH  45  59
BRANCH  46  70
ATOM     70  C   UNL A   1      42.412  24.411  27.392  1.00  0.00     0.023 A 
ATOM     71  C   UNL A   1      41.662  23.226  27.437  1.00  0.00     0.031 A 
ATOM     72  C   UNL A   1      43.236  24.630  26.273  1.00  0.00     0.131 A 
ATOM     73  C   UNL A   1      41.771  22.291  26.396  1.00  0.00     0.055 A 
ATOM     74  C   UNL A   1      43.305  23.719  25.218  1.00  0.00     0.041 A 
ATOM     75  F   UNL A   1      43.966  25.753  26.176  1.00  0.00    -0.206 F 
ATOM     76  C   UNL A   1      42.576  22.537  25.280  1.00  0.00     0.022 A 
BRANCH  73  77
ATOM     77  S   UNL A   1      40.881  20.717  26.541  1.00  0.00     0.124 S 
ATOM     78  O   UNL A   1      39.570  21.066  26.009  1.00  0.00    -0.237 OA
ATOM     79  O   UNL A   1      41.695  19.831  25.714  1.00  0.00    -0.237 OA
ATOM     80  O   UNL A   1      40.920  20.436  27.974  1.00  0.00    -0.744 OA
ENDBRANCH  73  77
ENDBRANCH  46  70
BRANCH  58  81
ATOM     81  C   UNL A   1      46.586  25.954  32.775  1.00  0.00     0.023 A 
ATOM     82  C   UNL A   1      46.558  24.900  33.705  1.00  0.00     0.031 A 
ATOM     83  C   UNL A   1      47.840  26.419  32.342  1.00  0.00     0.131 A 
ATOM     84  C   UNL A   1      47.760  24.385  34.215  1.00  0.00     0.055 A 
ATOM     85  C   UNL A   1      49.032  25.859  32.803  1.00  0.00     0.041 A 
ATOM     86  F   UNL A   1      47.929  27.427  31.459  1.00  0.00    -0.206 F 
ATOM     87  C   UNL A   1      48.996  24.845  33.756  1.00  0.00     0.022 A 
BRANCH  84  88
ATOM     88  S   UNL A   1      47.687  23.177  35.566  1.00  0.00     0.124 S 
ATOM     89  O   UNL A   1      46.292  23.275  35.985  1.00  0.00    -0.237 OA
ATOM     90  O   UNL A   1      48.066  21.937  34.897  1.00  0.00    -0.237 OA
ATOM     91  O   UNL A   1      48.661  23.683  36.532  1.00  0.00    -0.744 OA
ENDBRANCH  84  88
ENDBRANCH  58  81
ENDBRANCH  32  33
ENDBRANCH  24  27
ENDBRANCH  22  23
ENDBRANCH  21  22
ENDBRANCH   1  21
TORSDOF 17
ENDMDL
MODEL 2
REMARK VINA RESULT:     -10.8      3.156      8.552
REMARK SMILES C[C@H](Nc1ccc(N(C)C)cc1)[C@@H](C)C(=O)NCCCNC(=O)c1ccc(-c2c3nc(c(-c4cc(S(=O)(=O)[O-])ccc4F)c4ccc([nH]4)c(-c4cc(S(=O)(=O)[O-])ccc4F)c4nc(c(-c5cc(S(=O)(=O)[O-])ccc5F)c5ccc2[nH]5)C=C4)C=C3)cc1
REMARK SMILES IDX 18 1 17 2 15 3 16 4 13 6 14 7 2 8 1 9 3 10 4 12 5 13 12 14
REMARK SMILES IDX 6 15 11 16 7 17 8 18 9 19 10 20 19 21 20 22 21 23 22 24
REMARK SMILES IDX 23 26 24 27 25 28 86 29 26 30 85 31 27 32 28 33 29 34 79 35
REMARK SMILES IDX 30 36 84 37 78 38 80 39 31 40 83 41 77 42 76 43 32 45 64 46
REMARK SMILES IDX 44 47 63 48 45 49 48 50 62 51 81 52 46 53 47 54 61 56 82 57
REMARK SMILES IDX 49 58 33 59 34 60 42 61 35 62 41 63 43 64 40 65 36 66 37 67
REMARK SMILES IDX 38 68 39 69 65 70 66 71 74 72 67 73 73 74 75 75 72 76 68 77
REMARK SMILES IDX 69 78 70 79 71 80 50 81 51 82 59 83 52 84 58 85 60 86 57 87
REMARK SMILES IDX 53 88 54 89 55 90 56 91
REMARK H PARENT 17 5 3 11 21 25 80 44 48 55
REMARK Flexibility Score: inf
ROOT
ATOM      1  C   UNL A   1      31.829  30.366  25.767  1.00  0.00     0.117 C 
ENDROOT
BRANCH   1   2
ATOM      2  N   UNL A   1      31.645  29.183  26.594  1.00  0.00    -0.356 N 
ATOM      3  C   UNL A   1      31.507  27.867  26.280  1.00  0.00     0.224 C 
ATOM      4  O   UNL A   1      31.378  27.074  27.219  1.00  0.00    -0.275 OA
ATOM      5  H   UNL A   1      31.615  29.370  27.560  1.00  0.00     0.163 HD
BRANCH   3   6
ATOM      6  C   UNL A   1      31.515  27.351  24.844  1.00  0.00     0.097 C 
ATOM      7  C   UNL A   1      30.448  26.272  24.654  1.00  0.00     0.020 C 
BRANCH   6   8
ATOM      8  C   UNL A   1      32.940  26.981  24.387  1.00  0.00     0.088 C 
ATOM      9  C   UNL A   1      33.433  27.941  23.294  1.00  0.00     0.031 C 
BRANCH   8  10
ATOM     10  N   UNL A   1      32.990  25.615  23.862  1.00  0.00    -0.382 N 
ATOM     11  H   UNL A   1      32.320  25.329  23.198  1.00  0.00     0.160 HD
BRANCH  10  12
ATOM     12  C   UNL A   1      33.961  24.715  24.280  1.00  0.00     0.034 A 
ATOM     13  C   UNL A   1      34.196  23.562  23.535  1.00  0.00     0.028 A 
ATOM     14  C   UNL A   1      34.763  24.912  25.400  1.00  0.00     0.028 A 
ATOM     15  C   UNL A   1      35.224  22.662  23.875  1.00  0.00     0.028 A 
ATOM     16  C   UNL A   1      35.782  24.005  25.741  1.00  0.00     0.028 A 
ATOM     17  C   UNL A   1      36.061  22.856  24.983  1.00  0.00     0.036 A 
BRANCH  17  18
ATOM     18  N   UNL A   1      37.077  21.977  25.332  1.00  0.00    -0.378 N 
ATOM     19  C   UNL A   1      37.077  20.559  24.993  1.00  0.00     0.143 C 
ATOM     20  C   UNL A   1      38.348  22.490  25.848  1.00  0.00     0.143 C 
ENDBRANCH  17  18
ENDBRANCH  10  12
ENDBRANCH   8  10
ENDBRANCH   6   8
ENDBRANCH   3   6
ENDBRANCH   1   2
BRANCH   1  21
ATOM     21  C   UNL A   1      31.552  31.662  26.523  1.00  0.00     0.042 C 
BRANCH  21  22
ATOM     22  C   UNL A   1      32.754  32.217  27.276  1.00  0.00     0.118 C 
BRANCH  22  23
ATOM     23  N   UNL A   1      32.604  33.627  27.604  1.00  0.00    -0.352 N 
ATOM     24  C   UNL A   1      33.216  34.385  28.567  1.00  0.00     0.251 C 
ATOM     25  H   UNL A   1      31.959  34.114  27.043  1.00  0.00     0.163 HD
ATOM     26  O   UNL A   1      32.770  35.510  28.811  1.00  0.00    -0.269 OA
BRANCH  24  27
ATOM     27  C   UNL A   1      34.378  33.870  29.324  1.00  0.00     0.039 A 
ATOM     28  C   UNL A   1      34.158  32.973  30.374  1.00  0.00     0.014 A 
ATOM     29  C   UNL A   1      35.679  34.288  29.032  1.00  0.00     0.014 A 
ATOM     30  C   UNL A   1      35.242  32.450  31.083  1.00  0.00     0.010 A 
ATOM     31  C   UNL A   1      36.763  33.697  29.677  1.00  0.00     0.010 A 
ATOM     32  C   UNL A   1      36.557  32.779  30.716  1.00  0.00    -0.014 A 
BRANCH  32  33
ATOM     33  C   UNL A   1      37.726  32.176  31.411  1.00  0.00     0.031 A 
ATOM     34  C   UNL A   1      38.493  31.052  30.769  1.00  0.00     0.074 A 
ATOM     35  C   UNL A   1      38.050  32.594  32.650  1.00  0.00     0.049 A 
ATOM     36  N   UNL A   1      39.492  30.352  31.244  1.00  0.00    -0.248 NA
ATOM     37  C   UNL A   1      38.052  30.636  29.430  1.00  0.00     0.031 C 
ATOM     38  C   UNL A   1      37.346  33.637  33.399  1.00  0.00     0.029 A 
ATOM     39  N   UNL A   1      39.045  32.187  33.504  1.00  0.00    -0.354 N 
ATOM     40  C   UNL A   1      39.785  29.400  30.272  1.00  0.00     0.074 A 
ATOM     41  C   UNL A   1      38.813  29.574  29.214  1.00  0.00     0.031 C 
ATOM     42  C   UNL A   1      37.943  33.802  34.590  1.00  0.00     0.029 A 
ATOM     43  C   UNL A   1      39.040  32.847  34.710  1.00  0.00     0.049 A 
ATOM     44  H   UNL A   1      39.699  31.488  33.274  1.00  0.00     0.167 HD
ATOM     45  C   UNL A   1      40.786  28.483  30.254  1.00  0.00     0.034 A 
ATOM     46  C   UNL A   1      39.820  32.693  35.799  1.00  0.00     0.034 A 
ATOM     47  C   UNL A   1      41.752  28.336  31.317  1.00  0.00     0.049 A 
ATOM     48  C   UNL A   1      40.922  31.667  35.764  1.00  0.00     0.074 A 
ATOM     49  C   UNL A   1      42.853  27.498  31.372  1.00  0.00     0.029 A 
ATOM     50  N   UNL A   1      41.725  29.029  32.521  1.00  0.00    -0.354 N 
ATOM     51  N   UNL A   1      41.235  30.823  34.808  1.00  0.00    -0.248 NA
ATOM     52  C   UNL A   1      41.784  31.584  36.948  1.00  0.00     0.031 C 
ATOM     53  C   UNL A   1      43.441  27.628  32.635  1.00  0.00     0.029 A 
ATOM     54  C   UNL A   1      42.763  28.610  33.341  1.00  0.00     0.049 A 
ATOM     55  H   UNL A   1      41.064  29.720  32.758  1.00  0.00     0.167 HD
ATOM     56  C   UNL A   1      42.346  30.122  35.268  1.00  0.00     0.074 A 
ATOM     57  C   UNL A   1      42.656  30.657  36.579  1.00  0.00     0.031 C 
ATOM     58  C   UNL A   1      43.048  29.131  34.659  1.00  0.00     0.034 A 
BRANCH  45  59
ATOM     59  C   UNL A   1      40.853  27.554  29.062  1.00  0.00     0.023 A 
ATOM     60  C   UNL A   1      41.814  27.717  28.047  1.00  0.00     0.031 A 
ATOM     61  C   UNL A   1      39.913  26.519  28.909  1.00  0.00     0.131 A 
ATOM     62  C   UNL A   1      41.747  26.935  26.883  1.00  0.00     0.055 A 
ATOM     63  C   UNL A   1      39.912  25.680  27.793  1.00  0.00     0.041 A 
ATOM     64  F   UNL A   1      38.958  26.321  29.832  1.00  0.00    -0.206 F 
ATOM     65  C   UNL A   1      40.820  25.899  26.760  1.00  0.00     0.022 A 
BRANCH  62  66
ATOM     66  S   UNL A   1      42.770  27.412  25.461  1.00  0.00     0.124 S 
ATOM     67  O   UNL A   1      44.005  27.838  26.116  1.00  0.00    -0.237 OA
ATOM     68  O   UNL A   1      42.845  26.172  24.698  1.00  0.00    -0.237 OA
ATOM     69  O   UNL A   1      42.004  28.488  24.835  1.00  0.00    -0.744 OA
ENDBRANCH  62  66
ENDBRANCH  45  59
BRANCH  46  70
ATOM     70  C   UNL A   1      39.574  33.521  37.013  1.00  0.00     0.023 A 
ATOM     71  C   UNL A   1      38.824  33.028  38.092  1.00  0.00     0.031 A 
ATOM     72  C   UNL A   1      40.091  34.826  37.109  1.00  0.00     0.131 A 
ATOM     73  C   UNL A   1      38.588  33.844  39.209  1.00  0.00     0.055 A 
ATOM     74  C   UNL A   1      39.892  35.616  38.242  1.00  0.00     0.041 A 
ATOM     75  F   UNL A   1      40.824  35.341  36.110  1.00  0.00    -0.206 F 
ATOM     76  C   UNL A   1      39.129  35.129  39.297  1.00  0.00     0.022 A 
BRANCH  73  77
ATOM     77  S   UNL A   1      37.515  33.220  40.532  1.00  0.00     0.124 S 
ATOM     78  O   UNL A   1      38.327  32.147  41.092  1.00  0.00    -0.237 OA
ATOM     79  O   UNL A   1      37.349  34.404  41.370  1.00  0.00    -0.237 OA
ATOM     80  O   UNL A   1      36.313  32.791  39.821  1.00  0.00    -0.744 OA
ENDBRANCH  73  77
ENDBRANCH  46  70
BRANCH  58  81
ATOM     81  C   UNL A   1      44.245  28.584  35.402  1.00  0.00     0.023 A 
ATOM     82  C   UNL A   1      44.118  27.570  36.367  1.00  0.00     0.031 A 
ATOM     83  C   UNL A   1      45.529  29.098  35.149  1.00  0.00     0.131 A 
ATOM     84  C   UNL A   1      45.245  27.143  37.086  1.00  0.00     0.055 A 
ATOM     85  C   UNL A   1      46.657  28.623  35.819  1.00  0.00     0.041 A 
ATOM     86  F   UNL A   1      45.710  30.071  34.242  1.00  0.00    -0.206 F 
ATOM     87  C   UNL A   1      46.516  27.649  36.804  1.00  0.00     0.022 A 
BRANCH  84  88
ATOM     88  S   UNL A   1      45.013  25.990  38.466  1.00  0.00     0.124 S 
ATOM     89  O   UNL A   1      46.389  25.732  38.880  1.00  0.00    -0.237 OA
ATOM     90  O   UNL A   1      44.205  26.773  39.395  1.00  0.00    -0.237 OA
ATOM     91  O   UNL A   1      44.327  24.853  37.853  1.00  0.00    -0.744 OA
ENDBRANCH  84  88
ENDBRANCH  58  81
ENDBRANCH  32  33
ENDBRANCH  24  27
ENDBRANCH  22  23
ENDBRANCH  21  22
ENDBRANCH   1  21
TORSDOF 17
ENDMDL
MODEL 3
REMARK VINA RESULT:     -10.8      1.588      2.243
REMARK SMILES C[C@H](Nc1ccc(N(C)C)cc1)[C@@H](C)C(=O)NCCCNC(=O)c1ccc(-c2c3nc(c(-c4cc(S(=O)(=O)[O-])ccc4F)c4ccc([nH]4)c(-c4cc(S(=O)(=O)[O-])ccc4F)c4nc(c(-c5cc(S(=O)(=O)[O-])ccc5F)c5ccc2[nH]5)C=C4)C=C3)cc1
REMARK SMILES IDX 18 1 17 2 15 3 16 4 13 6 14 7 2 8 1 9 3 10 4 12 5 13 12 14
REMARK SMILES IDX 6 15 11 16 7 17 8 18 9 19 10 20 19 21 20 22 21 23 22 24
REMARK SMILES IDX 23 26 24 27 25 28 86 29 26 30 85 31 27 32 28 33 29 34 79 35
REMARK SMILES IDX 30 36 84 37 78 38 80 39 31 40 83 41 77 42 76 43 32 45 64 46
REMARK SMILES IDX 44 47 63 48 45 49 48 50 62 51 81 52 46 53 47 54 61 56 82 57
REMARK SMILES IDX 49 58 33 59 34 60 42 61 35 62 41 63 43 64 40 65 36 66 37 67
REMARK SMILES IDX 38 68 39 69 65 70 66 71 74 72 67 73 73 74 75 75 72 76 68 77
REMARK SMILES IDX 69 78 70 79 71 80 50 81 51 82 59 83 52 84 58 85 60 86 57 87
REMARK SMILES IDX 53 88 54 89 55 90 56 91
REMARK H PARENT 17 5 3 11 21 25 80 44 48 55
REMARK Flexibility Score: inf
ROOT
ATOM      1  C   UNL A   1      31.850  27.605  27.262  1.00  0.00     0.117 C 
ENDROOT
BRANCH   1   2
ATOM      2  N   UNL A   1      31.353  26.404  26.607  1.00  0.00    -0.356 N 
ATOM      3  C   UNL A   1      31.963  25.481  25.816  1.00  0.00     0.224 C 
ATOM      4  O   UNL A   1      31.272  24.542  25.410  1.00  0.00    -0.275 OA
ATOM      5  H   UNL A   1      30.397  26.228  26.765  1.00  0.00     0.163 HD
BRANCH   3   6
ATOM      6  C   UNL A   1      33.439  25.562  25.433  1.00  0.00     0.097 C 
ATOM      7  C   UNL A   1      33.629  26.462  24.211  1.00  0.00     0.020 C 
BRANCH   6   8
ATOM      8  C   UNL A   1      34.075  24.160  25.347  1.00  0.00     0.088 C 
ATOM      9  C   UNL A   1      35.608  24.252  25.343  1.00  0.00     0.031 C 
BRANCH   8  10
ATOM     10  N   UNL A   1      33.649  23.460  24.133  1.00  0.00    -0.382 N 
ATOM     11  H   UNL A   1      33.449  23.981  23.321  1.00  0.00     0.160 HD
BRANCH  10  12
ATOM     12  C   UNL A   1      33.521  22.077  24.104  1.00  0.00     0.034 A 
ATOM     13  C   UNL A   1      34.420  21.290  24.820  1.00  0.00     0.028 A 
ATOM     14  C   UNL A   1      32.507  21.411  23.424  1.00  0.00     0.028 A 
ATOM     15  C   UNL A   1      34.282  19.891  24.886  1.00  0.00     0.028 A 
ATOM     16  C   UNL A   1      32.380  20.012  23.486  1.00  0.00     0.028 A 
ATOM     17  C   UNL A   1      33.252  19.202  24.231  1.00  0.00     0.036 A 
BRANCH  17  18
ATOM     18  N   UNL A   1      33.104  17.823  24.284  1.00  0.00    -0.378 N 
ATOM     19  C   UNL A   1      33.734  16.901  23.347  1.00  0.00     0.143 C 
ATOM     20  C   UNL A   1      32.502  17.192  25.461  1.00  0.00     0.143 C 
ENDBRANCH  17  18
ENDBRANCH  10  12
ENDBRANCH   8  10
ENDBRANCH   6   8
ENDBRANCH   3   6
ENDBRANCH   1   2
BRANCH   1  21
ATOM     21  C   UNL A   1      31.763  28.840  26.371  1.00  0.00     0.042 C 
BRANCH  21  22
ATOM     22  C   UNL A   1      33.085  29.574  26.185  1.00  0.00     0.118 C 
BRANCH  22  23
ATOM     23  N   UNL A   1      33.004  30.975  26.569  1.00  0.00    -0.352 N 
ATOM     24  C   UNL A   1      33.755  31.698  27.459  1.00  0.00     0.251 C 
ATOM     25  H   UNL A   1      32.294  31.486  26.116  1.00  0.00     0.163 HD
ATOM     26  O   UNL A   1      33.364  32.820  27.792  1.00  0.00    -0.269 OA
BRANCH  24  27
ATOM     27  C   UNL A   1      35.002  31.147  28.033  1.00  0.00     0.039 A 
ATOM     28  C   UNL A   1      36.148  31.947  28.053  1.00  0.00     0.014 A 
ATOM     29  C   UNL A   1      35.061  29.839  28.520  1.00  0.00     0.014 A 
ATOM     30  C   UNL A   1      37.329  31.458  28.619  1.00  0.00     0.010 A 
ATOM     31  C   UNL A   1      36.209  29.385  29.165  1.00  0.00     0.010 A 
ATOM     32  C   UNL A   1      37.359  30.186  29.214  1.00  0.00    -0.014 A 
BRANCH  32  33
ATOM     33  C   UNL A   1      38.585  29.677  29.885  1.00  0.00     0.031 A 
ATOM     34  C   UNL A   1      38.994  30.217  31.229  1.00  0.00     0.074 A 
ATOM     35  C   UNL A   1      39.367  28.781  29.251  1.00  0.00     0.049 A 
ATOM     36  N   UNL A   1      40.061  29.953  31.939  1.00  0.00    -0.248 NA
ATOM     37  C   UNL A   1      38.102  31.215  31.835  1.00  0.00     0.031 C 
ATOM     38  C   UNL A   1      39.105  28.227  27.920  1.00  0.00     0.029 A 
ATOM     39  N   UNL A   1      40.545  28.189  29.630  1.00  0.00    -0.354 N 
ATOM     40  C   UNL A   1      39.979  30.766  33.065  1.00  0.00     0.074 A 
ATOM     41  C   UNL A   1      38.792  31.579  32.905  1.00  0.00     0.031 C 
ATOM     42  C   UNL A   1      40.080  27.361  27.606  1.00  0.00     0.029 A 
ATOM     43  C   UNL A   1      41.061  27.332  28.686  1.00  0.00     0.049 A 
ATOM     44  H   UNL A   1      40.979  28.361  30.497  1.00  0.00     0.167 HD
ATOM     45  C   UNL A   1      40.804  30.815  34.142  1.00  0.00     0.034 A 
ATOM     46  C   UNL A   1      42.202  26.615  28.682  1.00  0.00     0.034 A 
ATOM     47  C   UNL A   1      41.978  29.985  34.285  1.00  0.00     0.049 A 
ATOM     48  C   UNL A   1      43.109  26.684  29.882  1.00  0.00     0.074 A 
ATOM     49  C   UNL A   1      42.842  29.891  35.363  1.00  0.00     0.029 A 
ATOM     50  N   UNL A   1      42.466  29.120  33.313  1.00  0.00    -0.354 N 
ATOM     51  N   UNL A   1      42.981  27.403  30.974  1.00  0.00    -0.248 NA
ATOM     52  C   UNL A   1      44.305  25.835  29.855  1.00  0.00     0.031 C 
ATOM     53  C   UNL A   1      43.889  29.032  35.012  1.00  0.00     0.029 A 
ATOM     54  C   UNL A   1      43.639  28.519  33.749  1.00  0.00     0.049 A 
ATOM     55  H   UNL A   1      42.040  28.955  32.440  1.00  0.00     0.167 HD
ATOM     56  C   UNL A   1      44.071  27.075  31.775  1.00  0.00     0.074 A 
ATOM     57  C   UNL A   1      44.834  26.081  31.045  1.00  0.00     0.031 C 
ATOM     58  C   UNL A   1      44.407  27.548  33.003  1.00  0.00     0.034 A 
BRANCH  45  59
ATOM     59  C   UNL A   1      40.476  31.821  35.223  1.00  0.00     0.023 A 
ATOM     60  C   UNL A   1      39.506  31.563  36.208  1.00  0.00     0.031 A 
ATOM     61  C   UNL A   1      41.105  33.079  35.241  1.00  0.00     0.131 A 
ATOM     62  C   UNL A   1      39.119  32.577  37.097  1.00  0.00     0.055 A 
ATOM     63  C   UNL A   1      40.784  34.052  36.190  1.00  0.00     0.041 A 
ATOM     64  F   UNL A   1      42.026  33.396  34.317  1.00  0.00    -0.206 F 
ATOM     65  C   UNL A   1      39.770  33.812  37.112  1.00  0.00     0.022 A 
BRANCH  62  66
ATOM     66  S   UNL A   1      37.631  32.322  38.105  1.00  0.00     0.124 S 
ATOM     67  O   UNL A   1      38.075  32.801  39.412  1.00  0.00    -0.237 OA
ATOM     68  O   UNL A   1      36.643  33.149  37.422  1.00  0.00    -0.237 OA
ATOM     69  O   UNL A   1      37.405  30.881  38.023  1.00  0.00    -0.744 OA
ENDBRANCH  62  66
ENDBRANCH  45  59
BRANCH  46  70
ATOM     70  C   UNL A   1      42.553  25.784  27.495  1.00  0.00     0.023 A 
ATOM     71  C   UNL A   1      42.174  24.435  27.412  1.00  0.00     0.031 A 
ATOM     72  C   UNL A   1      43.278  26.334  26.423  1.00  0.00     0.131 A 
ATOM     73  C   UNL A   1      42.545  23.673  26.294  1.00  0.00     0.055 A 
ATOM     74  C   UNL A   1      43.605  25.584  25.292  1.00  0.00     0.041 A 
ATOM     75  F   UNL A   1      43.656  27.622  26.448  1.00  0.00    -0.206 F 
ATOM     76  C   UNL A   1      43.245  24.243  25.226  1.00  0.00     0.022 A 
BRANCH  73  77
ATOM     77  S   UNL A   1      42.143  21.905  26.272  1.00  0.00     0.124 S 
ATOM     78  O   UNL A   1      42.474  21.507  27.634  1.00  0.00    -0.237 OA
ATOM     79  O   UNL A   1      40.723  21.921  25.935  1.00  0.00    -0.237 OA
ATOM     80  O   UNL A   1      43.020  21.370  25.233  1.00  0.00    -0.744 OA
ENDBRANCH  73  77
ENDBRANCH  46  70
BRANCH  58  81
ATOM     81  C   UNL A   1      45.644  26.967  33.646  1.00  0.00     0.023 A 
ATOM     82  C   UNL A   1      45.601  25.778  34.395  1.00  0.00     0.031 A 
ATOM     83  C   UNL A   1      46.882  27.623  33.518  1.00  0.00     0.131 A 
ATOM     84  C   UNL A   1      46.760  25.312  35.035  1.00  0.00     0.055 A 
ATOM     85  C   UNL A   1      48.045  27.120  34.103  1.00  0.00     0.041 A 
ATOM     86  F   UNL A   1      46.982  28.765  32.820  1.00  0.00    -0.206 F 
ATOM     87  C   UNL A   1      47.985  25.966  34.879  1.00  0.00     0.022 A 
BRANCH  84  88
ATOM     88  S   UNL A   1      46.624  23.899  36.163  1.00  0.00     0.124 S 
ATOM     89  O   UNL A   1      46.965  22.780  35.291  1.00  0.00    -0.237 OA
ATOM     90  O   UNL A   1      47.604  24.226  37.194  1.00  0.00    -0.237 OA
ATOM     91  O   UNL A   1      45.229  23.941  36.599  1.00  0.00    -0.744 OA
ENDBRANCH  84  88
ENDBRANCH  58  81
ENDBRANCH  32  33
ENDBRANCH  24  27
ENDBRANCH  22  23
ENDBRANCH  21  22
ENDBRANCH   1  21
TORSDOF 17
ENDMDL
