MODEL 1
REMARK VINA RESULT:     -13.4      0.000      0.000
REMARK SMILES Cc1ccnc(C(=O)c2[nH]c3cc(Cl)c(F)cc3c2CC(=O)NCCCNC(=O)c2ccc(-c3c4nc(c(-c5cc(S(=O)(=O)[O-])ccc5F)c5ccc([nH]5)c(-c5cc(S(=O)(=O)[O-])ccc5F)c5nc(c(-c6cc(S(=O)(=O)[O-])ccc6F)c6ccc3[nH]6)C=C5)C=C4)cc2)c1
REMARK SMILES IDX 25 1 24 2 23 3 21 4 22 5 20 7 19 8 9 9 10 10 11 11 18 13
REMARK SMILES IDX 12 14 17 15 13 16 15 17 14 18 16 19 7 20 8 21 6 22 1 23 2 24
REMARK SMILES IDX 3 25 93 26 4 27 5 28 26 29 27 30 28 31 29 33 30 34 31 35
REMARK SMILES IDX 92 36 32 37 91 38 33 39 34 40 35 41 85 42 36 43 90 44 84 45
REMARK SMILES IDX 86 46 37 47 89 48 83 49 82 50 38 52 70 53 50 54 69 55 51 56
REMARK SMILES IDX 54 57 68 58 87 59 52 60 53 61 67 63 88 64 55 65 39 66 40 67
REMARK SMILES IDX 48 68 41 69 47 70 49 71 46 72 42 73 43 74 44 75 45 76 71 77
REMARK SMILES IDX 72 78 80 79 73 80 79 81 81 82 78 83 74 84 75 85 76 86 77 87
REMARK SMILES IDX 56 88 57 89 65 90 58 91 64 92 66 93 63 94 59 95 60 96 61 97
REMARK SMILES IDX 62 98
REMARK H PARENT 23 6 10 12 27 32 86 51 54 62
REMARK Flexibility Score: inf
ROOT
ATOM      1  C   UNL A   1      36.873  22.222  24.225  1.00  0.00     0.042 C 
ENDROOT
BRANCH   1   2
ATOM      2  C   UNL A   1      35.879  23.362  24.445  1.00  0.00     0.117 C 
BRANCH   2   3
ATOM      3  N   UNL A   1      34.922  23.586  23.377  1.00  0.00    -0.356 N 
ATOM      4  C   UNL A   1      33.899  24.476  23.239  1.00  0.00     0.224 C 
ATOM      5  O   UNL A   1      33.378  24.555  22.121  1.00  0.00    -0.275 OA
ATOM      6  H   UNL A   1      35.031  22.981  22.609  1.00  0.00     0.163 HD
BRANCH   4   7
ATOM      7  C   UNL A   1      33.432  25.385  24.356  1.00  0.00     0.138 C 
BRANCH   7   8
ATOM      8  C   UNL A   1      31.952  25.472  24.587  1.00  0.00    -0.002 A 
ATOM      9  C   UNL A   1      31.117  24.664  25.365  1.00  0.00     0.093 A 
ATOM     10  N   UNL A   1      29.822  25.089  25.120  1.00  0.00    -0.351 N 
ATOM     11  C   UNL A   1      29.796  26.192  24.305  1.00  0.00     0.048 A 
ATOM     12  H   UNL A   1      29.019  24.653  25.485  1.00  0.00     0.167 HD
ATOM     13  C   UNL A   1      31.105  26.417  23.896  1.00  0.00     0.007 A 
ATOM     14  C   UNL A   1      28.719  26.990  23.887  1.00  0.00     0.050 A 
ATOM     15  C   UNL A   1      31.346  27.460  22.976  1.00  0.00     0.051 A 
ATOM     16  C   UNL A   1      28.997  28.055  23.022  1.00  0.00     0.078 A 
ATOM     17  C   UNL A   1      30.291  28.276  22.569  1.00  0.00     0.142 A 
ATOM     18  Cl  UNL A   1      27.716  29.090  22.525  1.00  0.00    -0.081 Cl
ATOM     19  F   UNL A   1      30.565  29.292  21.736  1.00  0.00    -0.205 F 
BRANCH   9  20
ATOM     20  C   UNL A   1      31.325  23.487  26.213  1.00  0.00     0.227 C 
ATOM     21  O   UNL A   1      30.913  23.502  27.373  1.00  0.00    -0.285 OA
BRANCH  20  22
ATOM     22  C   UNL A   1      32.138  22.298  25.761  1.00  0.00     0.113 A 
ATOM     23  C   UNL A   1      32.313  19.653  23.027  1.00  0.00     0.044 C 
ATOM     24  C   UNL A   1      32.630  20.506  24.218  1.00  0.00    -0.047 A 
ATOM     25  C   UNL A   1      33.724  20.179  25.009  1.00  0.00     0.023 A 
ATOM     26  C   UNL A   1      31.864  21.625  24.577  1.00  0.00     0.036 A 
ATOM     27  C   UNL A   1      33.973  20.939  26.139  1.00  0.00     0.112 A 
ATOM     28  N   UNL A   1      33.206  21.977  26.537  1.00  0.00    -0.253 NA
ENDBRANCH  20  22
ENDBRANCH   9  20
ENDBRANCH   7   8
ENDBRANCH   4   7
ENDBRANCH   2   3
ENDBRANCH   1   2
BRANCH   1  29
ATOM     29  C   UNL A   1      37.649  21.714  25.432  1.00  0.00     0.118 C 
BRANCH  29  30
ATOM     30  N   UNL A   1      38.500  20.565  25.219  1.00  0.00    -0.352 N 
ATOM     31  C   UNL A   1      39.691  20.140  25.742  1.00  0.00     0.251 C 
ATOM     32  H   UNL A   1      38.141  19.947  24.542  1.00  0.00     0.163 HD
ATOM     33  O   UNL A   1      40.047  18.998  25.451  1.00  0.00    -0.269 OA
BRANCH  31  34
ATOM     34  C   UNL A   1      40.605  21.028  26.488  1.00  0.00     0.039 A 
ATOM     35  C   UNL A   1      40.827  20.960  27.862  1.00  0.00     0.014 A 
ATOM     36  C   UNL A   1      41.188  22.064  25.748  1.00  0.00     0.014 A 
ATOM     37  C   UNL A   1      41.336  22.058  28.527  1.00  0.00     0.010 A 
ATOM     38  C   UNL A   1      41.807  23.114  26.401  1.00  0.00     0.010 A 
ATOM     39  C   UNL A   1      41.756  23.166  27.791  1.00  0.00    -0.014 A 
BRANCH  39  40
ATOM     40  C   UNL A   1      42.183  24.352  28.524  1.00  0.00     0.031 A 
ATOM     41  C   UNL A   1      41.312  25.553  28.345  1.00  0.00     0.074 A 
ATOM     42  C   UNL A   1      43.219  24.297  29.385  1.00  0.00     0.049 A 
ATOM     43  N   UNL A   1      41.625  26.741  27.933  1.00  0.00    -0.248 NA
ATOM     44  C   UNL A   1      39.864  25.347  28.518  1.00  0.00     0.031 C 
ATOM     45  C   UNL A   1      43.961  23.115  29.843  1.00  0.00     0.029 A 
ATOM     46  N   UNL A   1      43.750  25.287  30.145  1.00  0.00    -0.354 N 
ATOM     47  C   UNL A   1      40.442  27.485  27.974  1.00  0.00     0.074 A 
ATOM     48  C   UNL A   1      39.376  26.541  28.186  1.00  0.00     0.031 C 
ATOM     49  C   UNL A   1      44.619  23.414  30.985  1.00  0.00     0.029 A 
ATOM     50  C   UNL A   1      44.478  24.837  31.236  1.00  0.00     0.049 A 
ATOM     51  H   UNL A   1      43.629  26.242  29.941  1.00  0.00     0.167 HD
ATOM     52  C   UNL A   1      40.424  28.848  28.019  1.00  0.00     0.034 A 
ATOM     53  C   UNL A   1      44.827  25.565  32.325  1.00  0.00     0.034 A 
ATOM     54  C   UNL A   1      41.676  29.414  27.609  1.00  0.00     0.049 A 
ATOM     55  C   UNL A   1      44.693  26.999  31.961  1.00  0.00     0.074 A 
ATOM     56  C   UNL A   1      42.372  29.470  26.420  1.00  0.00     0.029 A 
ATOM     57  N   UNL A   1      42.575  29.762  28.586  1.00  0.00    -0.354 N 
ATOM     58  N   UNL A   1      45.446  27.600  31.081  1.00  0.00    -0.248 NA
ATOM     59  C   UNL A   1      43.412  27.636  32.232  1.00  0.00     0.031 C 
ATOM     60  C   UNL A   1      43.741  29.365  26.792  1.00  0.00     0.029 A 
ATOM     61  C   UNL A   1      43.803  29.302  28.186  1.00  0.00     0.049 A 
ATOM     62  H   UNL A   1      42.376  30.251  29.418  1.00  0.00     0.167 HD
ATOM     63  C   UNL A   1      44.580  28.431  30.384  1.00  0.00     0.074 A 
ATOM     64  C   UNL A   1      43.356  28.463  31.184  1.00  0.00     0.031 C 
ATOM     65  C   UNL A   1      44.816  28.791  29.088  1.00  0.00     0.034 A 
BRANCH  52  66
ATOM     66  C   UNL A   1      39.359  29.650  28.729  1.00  0.00     0.023 A 
ATOM     67  C   UNL A   1      39.549  30.175  30.023  1.00  0.00     0.031 A 
ATOM     68  C   UNL A   1      38.216  30.107  28.044  1.00  0.00     0.131 A 
ATOM     69  C   UNL A   1      38.641  31.074  30.596  1.00  0.00     0.055 A 
ATOM     70  C   UNL A   1      37.344  31.061  28.588  1.00  0.00     0.041 A 
ATOM     71  F   UNL A   1      37.941  29.684  26.800  1.00  0.00    -0.206 F 
ATOM     72  C   UNL A   1      37.554  31.549  29.872  1.00  0.00     0.022 A 
BRANCH  69  73
ATOM     73  S   UNL A   1      38.876  31.641  32.302  1.00  0.00     0.124 S 
ATOM     74  O   UNL A   1      40.321  31.864  32.344  1.00  0.00    -0.237 OA
ATOM     75  O   UNL A   1      38.053  32.850  32.327  1.00  0.00    -0.237 OA
ATOM     76  O   UNL A   1      38.375  30.537  33.102  1.00  0.00    -0.744 OA
ENDBRANCH  69  73
ENDBRANCH  52  66
BRANCH  53  77
ATOM     77  C   UNL A   1      44.659  25.095  33.723  1.00  0.00     0.023 A 
ATOM     78  C   UNL A   1      43.510  25.467  34.450  1.00  0.00     0.031 A 
ATOM     79  C   UNL A   1      45.729  24.546  34.446  1.00  0.00     0.131 A 
ATOM     80  C   UNL A   1      43.465  25.323  35.842  1.00  0.00     0.055 A 
ATOM     81  C   UNL A   1      45.677  24.388  35.837  1.00  0.00     0.041 A 
ATOM     82  F   UNL A   1      46.868  24.212  33.821  1.00  0.00    -0.206 F 
ATOM     83  C   UNL A   1      44.545  24.788  36.543  1.00  0.00     0.022 A 
BRANCH  80  84
ATOM     84  S   UNL A   1      42.025  25.912  36.777  1.00  0.00     0.124 S 
ATOM     85  O   UNL A   1      42.637  26.387  38.016  1.00  0.00    -0.237 OA
ATOM     86  O   UNL A   1      41.503  26.950  35.895  1.00  0.00    -0.237 OA
ATOM     87  O   UNL A   1      41.197  24.718  36.917  1.00  0.00    -0.744 OA
ENDBRANCH  80  84
ENDBRANCH  53  77
BRANCH  65  88
ATOM     88  C   UNL A   1      46.131  28.402  28.444  1.00  0.00     0.023 A 
ATOM     89  C   UNL A   1      46.218  27.121  27.878  1.00  0.00     0.031 A 
ATOM     90  C   UNL A   1      47.331  29.120  28.612  1.00  0.00     0.131 A 
ATOM     91  C   UNL A   1      47.467  26.574  27.556  1.00  0.00     0.055 A 
ATOM     92  C   UNL A   1      48.570  28.598  28.224  1.00  0.00     0.041 A 
ATOM     93  F   UNL A   1      47.358  30.298  29.242  1.00  0.00    -0.206 F 
ATOM     94  C   UNL A   1      48.645  27.310  27.711  1.00  0.00     0.022 A 
BRANCH  91  95
ATOM     95  S   UNL A   1      47.601  24.831  27.083  1.00  0.00     0.124 S 
ATOM     96  O   UNL A   1      47.427  24.888  25.634  1.00  0.00    -0.237 OA
ATOM     97  O   UNL A   1      48.946  24.488  27.541  1.00  0.00    -0.237 OA
ATOM     98  O   UNL A   1      46.518  24.182  27.816  1.00  0.00    -0.744 OA
ENDBRANCH  91  95
ENDBRANCH  65  88
ENDBRANCH  39  40
ENDBRANCH  31  34
ENDBRANCH  29  30
ENDBRANCH   1  29
TORSDOF 16
ENDMDL
MODEL 2
REMARK VINA RESULT:     -13.2      3.572      7.684
REMARK SMILES Cc1ccnc(C(=O)c2[nH]c3cc(Cl)c(F)cc3c2CC(=O)NCCCNC(=O)c2ccc(-c3c4nc(c(-c5cc(S(=O)(=O)[O-])ccc5F)c5ccc([nH]5)c(-c5cc(S(=O)(=O)[O-])ccc5F)c5nc(c(-c6cc(S(=O)(=O)[O-])ccc6F)c6ccc3[nH]6)C=C5)C=C4)cc2)c1
REMARK SMILES IDX 25 1 24 2 23 3 21 4 22 5 20 7 19 8 9 9 10 10 11 11 18 13
REMARK SMILES IDX 12 14 17 15 13 16 15 17 14 18 16 19 7 20 8 21 6 22 1 23 2 24
REMARK SMILES IDX 3 25 93 26 4 27 5 28 26 29 27 30 28 31 29 33 30 34 31 35
REMARK SMILES IDX 92 36 32 37 91 38 33 39 34 40 35 41 85 42 36 43 90 44 84 45
REMARK SMILES IDX 86 46 37 47 89 48 83 49 82 50 38 52 70 53 50 54 69 55 51 56
REMARK SMILES IDX 54 57 68 58 87 59 52 60 53 61 67 63 88 64 55 65 39 66 40 67
REMARK SMILES IDX 48 68 41 69 47 70 49 71 46 72 42 73 43 74 44 75 45 76 71 77
REMARK SMILES IDX 72 78 80 79 73 80 79 81 81 82 78 83 74 84 75 85 76 86 77 87
REMARK SMILES IDX 56 88 57 89 65 90 58 91 64 92 66 93 63 94 59 95 60 96 61 97
REMARK SMILES IDX 62 98
REMARK H PARENT 23 6 10 12 27 32 86 51 54 62
REMARK Flexibility Score: inf
ROOT
ATOM      1  C   UNL A   1      33.108  28.970  27.316  1.00  0.00     0.042 C 
ENDROOT
BRANCH   1   2
ATOM      2  C   UNL A   1      33.404  27.743  26.455  1.00  0.00     0.117 C 
BRANCH   2   3
ATOM      3  N   UNL A   1      32.296  26.828  26.248  1.00  0.00    -0.356 N 
ATOM      4  C   UNL A   1      32.230  25.583  25.698  1.00  0.00     0.224 C 
ATOM      5  O   UNL A   1      31.166  24.969  25.840  1.00  0.00    -0.275 OA
ATOM      6  H   UNL A   1      31.429  27.173  26.561  1.00  0.00     0.163 HD
BRANCH   4   7
ATOM      7  C   UNL A   1      33.396  24.922  24.994  1.00  0.00     0.138 C 
BRANCH   7   8
ATOM      8  C   UNL A   1      33.065  23.956  23.894  1.00  0.00    -0.002 A 
ATOM      9  C   UNL A   1      32.792  24.195  22.543  1.00  0.00     0.093 A 
ATOM     10  N   UNL A   1      32.411  22.979  22.000  1.00  0.00    -0.351 N 
ATOM     11  C   UNL A   1      32.527  21.960  22.909  1.00  0.00     0.048 A 
ATOM     12  H   UNL A   1      32.097  22.862  21.075  1.00  0.00     0.167 HD
ATOM     13  C   UNL A   1      32.866  22.544  24.124  1.00  0.00     0.007 A 
ATOM     14  C   UNL A   1      32.340  20.576  22.755  1.00  0.00     0.050 A 
ATOM     15  C   UNL A   1      32.969  21.711  25.259  1.00  0.00     0.051 A 
ATOM     16  C   UNL A   1      32.509  19.768  23.886  1.00  0.00     0.078 A 
ATOM     17  C   UNL A   1      32.809  20.333  25.118  1.00  0.00     0.142 A 
ATOM     18  Cl  UNL A   1      32.340  18.063  23.731  1.00  0.00    -0.081 Cl
ATOM     19  F   UNL A   1      32.967  19.566  26.207  1.00  0.00    -0.205 F 
BRANCH   9  20
ATOM     20  C   UNL A   1      32.720  25.396  21.706  1.00  0.00     0.227 C 
ATOM     21  O   UNL A   1      33.206  25.369  20.575  1.00  0.00    -0.285 OA
BRANCH  20  22
ATOM     22  C   UNL A   1      32.185  26.710  22.220  1.00  0.00     0.113 A 
ATOM     23  C   UNL A   1      28.927  28.507  23.033  1.00  0.00     0.044 C 
ATOM     24  C   UNL A   1      30.381  28.168  22.894  1.00  0.00    -0.047 A 
ATOM     25  C   UNL A   1      31.331  29.130  23.215  1.00  0.00     0.023 A 
ATOM     26  C   UNL A   1      30.830  26.918  22.445  1.00  0.00     0.036 A 
ATOM     27  C   UNL A   1      32.668  28.825  23.027  1.00  0.00     0.112 A 
ATOM     28  N   UNL A   1      33.114  27.651  22.532  1.00  0.00    -0.253 NA
ENDBRANCH  20  22
ENDBRANCH   9  20
ENDBRANCH   7   8
ENDBRANCH   4   7
ENDBRANCH   2   3
ENDBRANCH   1   2
BRANCH   1  29
ATOM     29  C   UNL A   1      34.022  30.179  27.167  1.00  0.00     0.118 C 
BRANCH  29  30
ATOM     30  N   UNL A   1      34.251  30.968  28.356  1.00  0.00    -0.352 N 
ATOM     31  C   UNL A   1      35.361  31.467  28.980  1.00  0.00     0.251 C 
ATOM     32  H   UNL A   1      33.416  31.199  28.825  1.00  0.00     0.163 HD
ATOM     33  O   UNL A   1      35.169  32.265  29.898  1.00  0.00    -0.269 OA
BRANCH  31  34
ATOM     34  C   UNL A   1      36.727  30.980  28.703  1.00  0.00     0.039 A 
ATOM     35  C   UNL A   1      37.023  29.800  28.023  1.00  0.00     0.014 A 
ATOM     36  C   UNL A   1      37.767  31.726  29.270  1.00  0.00     0.014 A 
ATOM     37  C   UNL A   1      38.264  29.214  28.182  1.00  0.00     0.010 A 
ATOM     38  C   UNL A   1      39.043  31.197  29.329  1.00  0.00     0.010 A 
ATOM     39  C   UNL A   1      39.249  29.888  28.903  1.00  0.00    -0.014 A 
BRANCH  39  40
ATOM     40  C   UNL A   1      40.510  29.197  29.149  1.00  0.00     0.031 A 
ATOM     41  C   UNL A   1      40.781  28.869  30.581  1.00  0.00     0.074 A 
ATOM     42  C   UNL A   1      41.287  28.790  28.125  1.00  0.00     0.049 A 
ATOM     43  N   UNL A   1      41.797  29.190  31.319  1.00  0.00    -0.248 NA
ATOM     44  C   UNL A   1      39.692  28.212  31.324  1.00  0.00     0.031 C 
ATOM     45  C   UNL A   1      40.985  28.812  26.687  1.00  0.00     0.029 A 
ATOM     46  N   UNL A   1      42.477  28.141  28.163  1.00  0.00    -0.354 N 
ATOM     47  C   UNL A   1      41.560  28.612  32.570  1.00  0.00     0.074 A 
ATOM     48  C   UNL A   1      40.191  28.165  32.557  1.00  0.00     0.031 C 
ATOM     49  C   UNL A   1      41.811  27.958  26.044  1.00  0.00     0.029 A 
ATOM     50  C   UNL A   1      42.795  27.469  26.992  1.00  0.00     0.049 A 
ATOM     51  H   UNL A   1      43.065  28.145  28.952  1.00  0.00     0.167 HD
ATOM     52  C   UNL A   1      42.550  28.365  33.474  1.00  0.00     0.034 A 
ATOM     53  C   UNL A   1      43.721  26.488  26.855  1.00  0.00     0.034 A 
ATOM     54  C   UNL A   1      43.737  29.117  33.185  1.00  0.00     0.049 A 
ATOM     55  C   UNL A   1      44.626  26.565  28.030  1.00  0.00     0.074 A 
ATOM     56  C   UNL A   1      44.065  30.456  33.202  1.00  0.00     0.029 A 
ATOM     57  N   UNL A   1      44.735  28.496  32.477  1.00  0.00    -0.354 N 
ATOM     58  N   UNL A   1      45.437  27.562  28.260  1.00  0.00    -0.248 NA
ATOM     59  C   UNL A   1      44.279  25.757  29.190  1.00  0.00     0.031 C 
ATOM     60  C   UNL A   1      44.955  30.629  32.105  1.00  0.00     0.029 A 
ATOM     61  C   UNL A   1      45.157  29.378  31.516  1.00  0.00     0.049 A 
ATOM     62  H   UNL A   1      45.084  27.587  32.630  1.00  0.00     0.167 HD
ATOM     63  C   UNL A   1      45.364  27.767  29.631  1.00  0.00     0.074 A 
ATOM     64  C   UNL A   1      44.691  26.580  30.158  1.00  0.00     0.031 C 
ATOM     65  C   UNL A   1      45.592  28.992  30.188  1.00  0.00     0.034 A 
BRANCH  52  66
ATOM     66  C   UNL A   1      42.533  27.208  34.443  1.00  0.00     0.023 A 
ATOM     67  C   UNL A   1      43.293  26.040  34.235  1.00  0.00     0.031 A 
ATOM     68  C   UNL A   1      41.938  27.333  35.715  1.00  0.00     0.131 A 
ATOM     69  C   UNL A   1      43.423  25.057  35.224  1.00  0.00     0.055 A 
ATOM     70  C   UNL A   1      42.126  26.385  36.729  1.00  0.00     0.041 A 
ATOM     71  F   UNL A   1      41.202  28.410  36.029  1.00  0.00    -0.206 F 
ATOM     72  C   UNL A   1      42.871  25.237  36.486  1.00  0.00     0.022 A 
BRANCH  69  73
ATOM     73  S   UNL A   1      44.326  23.525  34.870  1.00  0.00     0.124 S 
ATOM     74  O   UNL A   1      44.564  23.003  36.216  1.00  0.00    -0.237 OA
ATOM     75  O   UNL A   1      43.349  22.783  34.073  1.00  0.00    -0.237 OA
ATOM     76  O   UNL A   1      45.499  23.979  34.143  1.00  0.00    -0.744 OA
ENDBRANCH  69  73
ENDBRANCH  52  66
BRANCH  53  77
ATOM     77  C   UNL A   1      43.472  25.210  26.143  1.00  0.00     0.023 A 
ATOM     78  C   UNL A   1      42.503  24.314  26.637  1.00  0.00     0.031 A 
ATOM     79  C   UNL A   1      44.364  24.725  25.174  1.00  0.00     0.131 A 
ATOM     80  C   UNL A   1      42.466  22.985  26.198  1.00  0.00     0.055 A 
ATOM     81  C   UNL A   1      44.316  23.398  24.724  1.00  0.00     0.041 A 
ATOM     82  F   UNL A   1      45.338  25.512  24.694  1.00  0.00    -0.206 F 
ATOM     83  C   UNL A   1      43.370  22.519  25.245  1.00  0.00     0.022 A 
BRANCH  80  84
ATOM     84  S   UNL A   1      41.287  21.813  26.927  1.00  0.00     0.124 S 
ATOM     85  O   UNL A   1      40.894  22.498  28.157  1.00  0.00    -0.237 OA
ATOM     86  O   UNL A   1      40.262  21.741  25.892  1.00  0.00    -0.237 OA
ATOM     87  O   UNL A   1      42.082  20.605  27.123  1.00  0.00    -0.744 OA
ENDBRANCH  80  84
ENDBRANCH  53  77
BRANCH  65  88
ATOM     88  C   UNL A   1      46.088  30.120  29.308  1.00  0.00     0.023 A 
ATOM     89  C   UNL A   1      45.136  30.799  28.531  1.00  0.00     0.031 A 
ATOM     90  C   UNL A   1      47.446  30.351  29.015  1.00  0.00     0.131 A 
ATOM     91  C   UNL A   1      45.543  31.621  27.473  1.00  0.00     0.055 A 
ATOM     92  C   UNL A   1      47.850  31.228  28.002  1.00  0.00     0.041 A 
ATOM     93  F   UNL A   1      48.417  29.667  29.627  1.00  0.00    -0.206 F 
ATOM     94  C   UNL A   1      46.896  31.853  27.211  1.00  0.00     0.022 A 
BRANCH  91  95
ATOM     95  S   UNL A   1      44.321  32.276  26.308  1.00  0.00     0.124 S 
ATOM     96  O   UNL A   1      43.422  31.139  26.130  1.00  0.00    -0.237 OA
ATOM     97  O   UNL A   1      43.764  33.408  27.046  1.00  0.00    -0.237 OA
ATOM     98  O   UNL A   1      45.110  32.636  25.134  1.00  0.00    -0.744 OA
ENDBRANCH  91  95
ENDBRANCH  65  88
ENDBRANCH  39  40
ENDBRANCH  31  34
ENDBRANCH  29  30
ENDBRANCH   1  29
TORSDOF 16
ENDMDL
MODEL 3
REMARK VINA RESULT:     -13.2      3.653      8.476
REMARK SMILES Cc1ccnc(C(=O)c2[nH]c3cc(Cl)c(F)cc3c2CC(=O)NCCCNC(=O)c2ccc(-c3c4nc(c(-c5cc(S(=O)(=O)[O-])ccc5F)c5ccc([nH]5)c(-c5cc(S(=O)(=O)[O-])ccc5F)c5nc(c(-c6cc(S(=O)(=O)[O-])ccc6F)c6ccc3[nH]6)C=C5)C=C4)cc2)c1
REMARK SMILES IDX 25 1 24 2 23 3 21 4 22 5 20 7 19 8 9 9 10 10 11 11 18 13
REMARK SMILES IDX 12 14 17 15 13 16 15 17 14 18 16 19 7 20 8 21 6 22 1 23 2 24
REMARK SMILES IDX 3 25 93 26 4 27 5 28 26 29 27 30 28 31 29 33 30 34 31 35
REMARK SMILES IDX 92 36 32 37 91 38 33 39 34 40 35 41 85 42 36 43 90 44 84 45
REMARK SMILES IDX 86 46 37 47 89 48 83 49 82 50 38 52 70 53 50 54 69 55 51 56
REMARK SMILES IDX 54 57 68 58 87 59 52 60 53 61 67 63 88 64 55 65 39 66 40 67
REMARK SMILES IDX 48 68 41 69 47 70 49 71 46 72 42 73 43 74 44 75 45 76 71 77
REMARK SMILES IDX 72 78 80 79 73 80 79 81 81 82 78 83 74 84 75 85 76 86 77 87
REMARK SMILES IDX 56 88 57 89 65 90 58 91 64 92 66 93 63 94 59 95 60 96 61 97
REMARK SMILES IDX 62 98
REMARK H PARENT 23 6 10 12 27 32 86 51 54 62
REMARK Flexibility Score: inf
ROOT
ATOM      1  C   UNL A   1      33.162  28.557  27.198  1.00  0.00     0.042 C 
ENDROOT
BRANCH   1   2
ATOM      2  C   UNL A   1      32.703  27.630  26.074  1.00  0.00     0.117 C 
BRANCH   2   3
ATOM      3  N   UNL A   1      31.950  26.458  26.483  1.00  0.00    -0.356 N 
ATOM      4  C   UNL A   1      32.210  25.124  26.380  1.00  0.00     0.224 C 
ATOM      5  O   UNL A   1      31.461  24.362  27.002  1.00  0.00    -0.275 OA
ATOM      6  H   UNL A   1      31.091  26.664  26.914  1.00  0.00     0.163 HD
BRANCH   4   7
ATOM      7  C   UNL A   1      33.382  24.562  25.602  1.00  0.00     0.138 C 
BRANCH   7   8
ATOM      8  C   UNL A   1      33.062  23.760  24.376  1.00  0.00    -0.002 A 
ATOM      9  C   UNL A   1      32.803  24.185  23.069  1.00  0.00     0.093 A 
ATOM     10  N   UNL A   1      32.426  23.057  22.358  1.00  0.00    -0.351 N 
ATOM     11  C   UNL A   1      32.529  21.921  23.118  1.00  0.00     0.048 A 
ATOM     12  H   UNL A   1      32.121  23.071  21.423  1.00  0.00     0.167 HD
ATOM     13  C   UNL A   1      32.856  22.330  24.406  1.00  0.00     0.007 A 
ATOM     14  C   UNL A   1      32.341  20.573  22.771  1.00  0.00     0.050 A 
ATOM     15  C   UNL A   1      32.946  21.347  25.416  1.00  0.00     0.051 A 
ATOM     16  C   UNL A   1      32.497  19.615  23.781  1.00  0.00     0.078 A 
ATOM     17  C   UNL A   1      32.785  20.002  25.083  1.00  0.00     0.142 A 
ATOM     18  Cl  UNL A   1      32.326  17.949  23.389  1.00  0.00    -0.081 Cl
ATOM     19  F   UNL A   1      32.930  19.091  26.056  1.00  0.00    -0.205 F 
BRANCH   9  20
ATOM     20  C   UNL A   1      32.742  25.490  22.405  1.00  0.00     0.227 C 
ATOM     21  O   UNL A   1      33.652  25.819  21.644  1.00  0.00    -0.285 OA
BRANCH  20  22
ATOM     22  C   UNL A   1      31.670  26.507  22.716  1.00  0.00     0.113 A 
ATOM     23  C   UNL A   1      28.055  26.787  23.878  1.00  0.00     0.044 C 
ATOM     24  C   UNL A   1      29.456  27.119  23.461  1.00  0.00    -0.047 A 
ATOM     25  C   UNL A   1      29.813  28.452  23.299  1.00  0.00     0.023 A 
ATOM     26  C   UNL A   1      30.429  26.138  23.219  1.00  0.00     0.036 A 
ATOM     27  C   UNL A   1      31.092  28.743  22.858  1.00  0.00     0.112 A 
ATOM     28  N   UNL A   1      32.020  27.810  22.555  1.00  0.00    -0.253 NA
ENDBRANCH  20  22
ENDBRANCH   9  20
ENDBRANCH   7   8
ENDBRANCH   4   7
ENDBRANCH   2   3
ENDBRANCH   1   2
BRANCH   1  29
ATOM     29  C   UNL A   1      34.633  28.947  27.240  1.00  0.00     0.118 C 
BRANCH  29  30
ATOM     30  N   UNL A   1      35.029  29.872  28.278  1.00  0.00    -0.352 N 
ATOM     31  C   UNL A   1      36.217  30.200  28.872  1.00  0.00     0.251 C 
ATOM     32  H   UNL A   1      34.269  30.382  28.642  1.00  0.00     0.163 HD
ATOM     33  O   UNL A   1      36.211  31.181  29.615  1.00  0.00    -0.269 OA
BRANCH  31  34
ATOM     34  C   UNL A   1      37.424  29.355  28.778  1.00  0.00     0.039 A 
ATOM     35  C   UNL A   1      37.873  28.503  29.785  1.00  0.00     0.014 A 
ATOM     36  C   UNL A   1      38.201  29.529  27.626  1.00  0.00     0.014 A 
ATOM     37  C   UNL A   1      39.193  28.095  29.796  1.00  0.00     0.010 A 
ATOM     38  C   UNL A   1      39.487  29.021  27.579  1.00  0.00     0.010 A 
ATOM     39  C   UNL A   1      40.017  28.424  28.720  1.00  0.00    -0.014 A 
BRANCH  39  40
ATOM     40  C   UNL A   1      41.430  28.078  28.810  1.00  0.00     0.031 A 
ATOM     41  C   UNL A   1      41.801  26.771  28.188  1.00  0.00     0.074 A 
ATOM     42  C   UNL A   1      42.326  28.952  29.311  1.00  0.00     0.049 A 
ATOM     43  N   UNL A   1      42.395  25.748  28.718  1.00  0.00    -0.248 NA
ATOM     44  C   UNL A   1      41.307  26.529  26.821  1.00  0.00     0.031 C 
ATOM     45  C   UNL A   1      42.116  30.356  29.689  1.00  0.00     0.029 A 
ATOM     46  N   UNL A   1      43.665  28.805  29.469  1.00  0.00    -0.354 N 
ATOM     47  C   UNL A   1      42.516  24.803  27.694  1.00  0.00     0.074 A 
ATOM     48  C   UNL A   1      41.695  25.273  26.608  1.00  0.00     0.031 C 
ATOM     49  C   UNL A   1      43.309  30.987  29.743  1.00  0.00     0.029 A 
ATOM     50  C   UNL A   1      44.359  30.001  29.573  1.00  0.00     0.049 A 
ATOM     51  H   UNL A   1      44.107  27.926  29.507  1.00  0.00     0.167 HD
ATOM     52  C   UNL A   1      43.426  23.788  27.725  1.00  0.00     0.034 A 
ATOM     53  C   UNL A   1      45.694  30.172  29.401  1.00  0.00     0.034 A 
ATOM     54  C   UNL A   1      43.927  23.559  29.049  1.00  0.00     0.049 A 
ATOM     55  C   UNL A   1      46.332  28.837  29.527  1.00  0.00     0.074 A 
ATOM     56  C   UNL A   1      43.380  23.093  30.226  1.00  0.00     0.029 A 
ATOM     57  N   UNL A   1      45.119  24.144  29.396  1.00  0.00    -0.354 N 
ATOM     58  N   UNL A   1      46.370  28.149  30.636  1.00  0.00    -0.248 NA
ATOM     59  C   UNL A   1      46.509  28.067  28.304  1.00  0.00     0.031 C 
ATOM     60  C   UNL A   1      44.018  23.847  31.250  1.00  0.00     0.029 A 
ATOM     61  C   UNL A   1      44.952  24.690  30.643  1.00  0.00     0.049 A 
ATOM     62  H   UNL A   1      45.940  24.167  28.853  1.00  0.00     0.167 HD
ATOM     63  C   UNL A   1      46.147  26.837  30.245  1.00  0.00     0.074 A 
ATOM     64  C   UNL A   1      46.311  26.839  28.791  1.00  0.00     0.031 C 
ATOM     65  C   UNL A   1      45.572  25.925  31.082  1.00  0.00     0.034 A 
BRANCH  52  66
ATOM     66  C   UNL A   1      44.082  23.211  26.493  1.00  0.00     0.023 A 
ATOM     67  C   UNL A   1      43.964  21.852  26.143  1.00  0.00     0.031 A 
ATOM     68  C   UNL A   1      44.650  24.050  25.512  1.00  0.00     0.131 A 
ATOM     69  C   UNL A   1      44.408  21.366  24.907  1.00  0.00     0.055 A 
ATOM     70  C   UNL A   1      45.030  23.577  24.249  1.00  0.00     0.041 A 
ATOM     71  F   UNL A   1      44.801  25.365  25.731  1.00  0.00    -0.206 F 
ATOM     72  C   UNL A   1      44.912  22.227  23.940  1.00  0.00     0.022 A 
BRANCH  69  73
ATOM     73  S   UNL A   1      44.327  19.591  24.546  1.00  0.00     0.124 S 
ATOM     74  O   UNL A   1      45.415  19.069  25.373  1.00  0.00    -0.237 OA
ATOM     75  O   UNL A   1      42.977  19.258  25.003  1.00  0.00    -0.237 OA
ATOM     76  O   UNL A   1      44.525  19.524  23.109  1.00  0.00    -0.744 OA
ENDBRANCH  69  73
ENDBRANCH  52  66
BRANCH  53  77
ATOM     77  C   UNL A   1      46.289  31.248  28.570  1.00  0.00     0.023 A 
ATOM     78  C   UNL A   1      45.456  32.034  27.747  1.00  0.00     0.031 A 
ATOM     79  C   UNL A   1      47.672  31.320  28.343  1.00  0.00     0.131 A 
ATOM     80  C   UNL A   1      45.997  32.823  26.725  1.00  0.00     0.055 A 
ATOM     81  C   UNL A   1      48.214  32.122  27.329  1.00  0.00     0.041 A 
ATOM     82  F   UNL A   1      48.517  30.564  29.061  1.00  0.00    -0.206 F 
ATOM     83  C   UNL A   1      47.374  32.869  26.507  1.00  0.00     0.022 A 
BRANCH  80  84
ATOM     84  S   UNL A   1      44.907  33.740  25.601  1.00  0.00     0.124 S 
ATOM     85  O   UNL A   1      45.799  34.774  25.083  1.00  0.00    -0.237 OA
ATOM     86  O   UNL A   1      44.525  32.703  24.647  1.00  0.00    -0.237 OA
ATOM     87  O   UNL A   1      43.844  34.225  26.476  1.00  0.00    -0.744 OA
ENDBRANCH  80  84
ENDBRANCH  53  77
BRANCH  65  88
ATOM     88  C   UNL A   1      45.313  26.310  32.524  1.00  0.00     0.023 A 
ATOM     89  C   UNL A   1      46.192  25.804  33.495  1.00  0.00     0.031 A 
ATOM     90  C   UNL A   1      44.119  26.903  32.977  1.00  0.00     0.131 A 
ATOM     91  C   UNL A   1      45.846  25.846  34.852  1.00  0.00     0.055 A 
ATOM     92  C   UNL A   1      43.809  27.006  34.338  1.00  0.00     0.041 A 
ATOM     93  F   UNL A   1      43.175  27.311  32.124  1.00  0.00    -0.206 F 
ATOM     94  C   UNL A   1      44.665  26.457  35.283  1.00  0.00     0.022 A 
BRANCH  91  95
ATOM     95  S   UNL A   1      46.845  24.957  36.072  1.00  0.00     0.124 S 
ATOM     96  O   UNL A   1      48.189  25.064  35.510  1.00  0.00    -0.237 OA
ATOM     97  O   UNL A   1      46.609  25.730  37.289  1.00  0.00    -0.237 OA
ATOM     98  O   UNL A   1      46.279  23.610  36.079  1.00  0.00    -0.744 OA
ENDBRANCH  91  95
ENDBRANCH  65  88
ENDBRANCH  39  40
ENDBRANCH  31  34
ENDBRANCH  29  30
ENDBRANCH   1  29
TORSDOF 16
ENDMDL
