MODEL 1
REMARK VINA RESULT:     -12.2      0.000      0.000
REMARK SMILES O=C(NCCCNC(=O)[C@@H]1[C@H](C(=O)Nc2ccccc2OC(F)F)[C@@H]2C=C[C@H]1C2)c1ccc(-c2c3nc(c(-c4cc(S(=O)(=O)[O-])ccc4F)c4ccc([nH]4)c(-c4cc(S(=O)(=O)[O-])ccc4F)c4nc(c(-c5cc(S(=O)(=O)[O-])ccc5F)c5ccc2[nH]5)C=C4)C=C3)cc1
REMARK SMILES IDX 5 1 4 2 3 3 1 4 2 5 30 7 31 8 92 9 32 10 91 11 33 12 34 13
REMARK SMILES IDX 35 14 85 15 36 16 90 17 84 18 86 19 37 20 89 21 83 22 82 23
REMARK SMILES IDX 38 25 70 26 50 27 69 28 51 29 54 30 68 31 87 32 52 33 53 34
REMARK SMILES IDX 67 36 88 37 55 38 39 39 40 40 48 41 41 42 47 43 49 44 46 45
REMARK SMILES IDX 42 46 43 47 44 48 45 49 71 50 72 51 80 52 73 53 79 54 81 55
REMARK SMILES IDX 78 56 74 57 75 58 76 59 77 60 56 61 57 62 65 63 58 64 64 65
REMARK SMILES IDX 66 66 63 67 59 68 60 69 61 70 62 71 6 72 7 73 8 74 9 76
REMARK SMILES IDX 10 77 11 78 28 79 25 80 27 81 29 82 26 83 12 84 13 85 14 86
REMARK SMILES IDX 15 88 16 89 20 90 17 91 19 92 18 93 21 94 22 95 23 96 24 97
REMARK H PARENT 3 6 86 24 54 35 7 75 14 87
REMARK Flexibility Score: inf
ROOT
ATOM      1  C   UNL A   1      36.351  22.268  23.880  1.00  0.00     0.042 C 
ENDROOT
BRANCH   1   2
ATOM      2  C   UNL A   1      36.347  21.555  25.241  1.00  0.00     0.118 C 
BRANCH   2   3
ATOM      3  N   UNL A   1      37.584  20.779  25.419  1.00  0.00    -0.352 N 
ATOM      4  O   UNL A   1      39.706  20.158  25.531  1.00  0.00    -0.269 OA
ATOM      5  C   UNL A   1      38.886  21.047  25.785  1.00  0.00     0.251 C 
ATOM      6  H   UNL A   1      37.446  19.823  25.230  1.00  0.00     0.163 HD
BRANCH   5   7
ATOM      7  C   UNL A   1      39.379  22.271  26.488  1.00  0.00     0.039 A 
ATOM      8  C   UNL A   1      40.445  22.271  27.382  1.00  0.00     0.014 A 
ATOM      9  C   UNL A   1      38.858  23.525  26.095  1.00  0.00     0.014 A 
ATOM     10  C   UNL A   1      40.945  23.476  27.902  1.00  0.00     0.010 A 
ATOM     11  C   UNL A   1      39.411  24.738  26.553  1.00  0.00     0.010 A 
ATOM     12  C   UNL A   1      40.478  24.728  27.457  1.00  0.00    -0.014 A 
BRANCH  12  13
ATOM     13  C   UNL A   1      41.235  25.964  27.838  1.00  0.00     0.031 A 
ATOM     14  C   UNL A   1      42.634  26.244  27.354  1.00  0.00     0.074 A 
ATOM     15  C   UNL A   1      40.609  26.883  28.607  1.00  0.00     0.049 A 
ATOM     16  N   UNL A   1      43.362  27.323  27.514  1.00  0.00    -0.248 NA
ATOM     17  C   UNL A   1      43.310  25.175  26.607  1.00  0.00     0.031 C 
ATOM     18  C   UNL A   1      39.278  26.709  29.195  1.00  0.00     0.029 A 
ATOM     19  N   UNL A   1      40.973  28.149  28.997  1.00  0.00    -0.354 N 
ATOM     20  C   UNL A   1      44.578  27.072  26.885  1.00  0.00     0.074 A 
ATOM     21  C   UNL A   1      44.500  25.716  26.377  1.00  0.00     0.031 C 
ATOM     22  C   UNL A   1      38.905  27.847  29.795  1.00  0.00     0.029 A 
ATOM     23  C   UNL A   1      39.992  28.815  29.700  1.00  0.00     0.049 A 
ATOM     24  H   UNL A   1      41.852  28.544  28.794  1.00  0.00     0.167 HD
ATOM     25  C   UNL A   1      45.650  27.894  26.736  1.00  0.00     0.034 A 
ATOM     26  C   UNL A   1      39.961  30.059  30.220  1.00  0.00     0.034 A 
ATOM     27  C   UNL A   1      45.723  29.241  27.263  1.00  0.00     0.049 A 
ATOM     28  C   UNL A   1      41.158  30.952  30.031  1.00  0.00     0.074 A 
ATOM     29  C   UNL A   1      46.763  30.152  27.167  1.00  0.00     0.029 A 
ATOM     30  N   UNL A   1      44.721  29.870  27.991  1.00  0.00    -0.354 N 
ATOM     31  N   UNL A   1      42.285  30.697  29.408  1.00  0.00    -0.248 NA
ATOM     32  C   UNL A   1      41.078  32.298  30.610  1.00  0.00     0.031 C 
ATOM     33  C   UNL A   1      46.412  31.306  27.879  1.00  0.00     0.029 A 
ATOM     34  C   UNL A   1      45.124  31.145  28.363  1.00  0.00     0.049 A 
ATOM     35  H   UNL A   1      43.849  29.468  28.212  1.00  0.00     0.167 HD
ATOM     36  C   UNL A   1      43.050  31.853  29.524  1.00  0.00     0.074 A 
ATOM     37  C   UNL A   1      42.234  32.820  30.230  1.00  0.00     0.031 C 
ATOM     38  C   UNL A   1      44.316  32.091  29.097  1.00  0.00     0.034 A 
BRANCH  25  39
ATOM     39  C   UNL A   1      46.849  27.350  25.993  1.00  0.00     0.023 A 
ATOM     40  C   UNL A   1      47.146  27.758  24.679  1.00  0.00     0.031 A 
ATOM     41  C   UNL A   1      47.709  26.416  26.600  1.00  0.00     0.131 A 
ATOM     42  C   UNL A   1      48.236  27.191  23.997  1.00  0.00     0.055 A 
ATOM     43  C   UNL A   1      48.831  25.909  25.940  1.00  0.00     0.041 A 
ATOM     44  F   UNL A   1      47.472  25.979  27.846  1.00  0.00    -0.206 F 
ATOM     45  C   UNL A   1      49.093  26.287  24.626  1.00  0.00     0.022 A 
BRANCH  42  46
ATOM     46  S   UNL A   1      48.448  27.583  22.239  1.00  0.00     0.124 S 
ATOM     47  O   UNL A   1      47.152  28.204  21.919  1.00  0.00    -0.237 OA
ATOM     48  O   UNL A   1      49.591  28.458  22.235  1.00  0.00    -0.237 OA
ATOM     49  O   UNL A   1      48.653  26.263  21.620  1.00  0.00    -0.744 OA
ENDBRANCH  42  46
ENDBRANCH  25  39
BRANCH  26  50
ATOM     50  C   UNL A   1      38.773  30.525  30.998  1.00  0.00     0.023 A 
ATOM     51  C   UNL A   1      37.681  31.145  30.371  1.00  0.00     0.031 A 
ATOM     52  C   UNL A   1      38.735  30.385  32.398  1.00  0.00     0.131 A 
ATOM     53  C   UNL A   1      36.618  31.639  31.144  1.00  0.00     0.055 A 
ATOM     54  C   UNL A   1      37.648  30.822  33.156  1.00  0.00     0.041 A 
ATOM     55  F   UNL A   1      39.752  29.801  33.050  1.00  0.00    -0.206 F 
ATOM     56  C   UNL A   1      36.587  31.467  32.530  1.00  0.00     0.022 A 
BRANCH  53  57
ATOM     57  S   UNL A   1      35.314  32.599  30.324  1.00  0.00     0.124 S 
ATOM     58  O   UNL A   1      36.014  33.835  29.993  1.00  0.00    -0.237 OA
ATOM     59  O   UNL A   1      34.967  31.737  29.198  1.00  0.00    -0.237 OA
ATOM     60  O   UNL A   1      34.284  32.722  31.353  1.00  0.00    -0.744 OA
ENDBRANCH  53  57
ENDBRANCH  26  50
BRANCH  38  61
ATOM     61  C   UNL A   1      44.875  33.463  29.386  1.00  0.00     0.023 A 
ATOM     62  C   UNL A   1      44.873  34.476  28.410  1.00  0.00     0.031 A 
ATOM     63  C   UNL A   1      45.471  33.744  30.628  1.00  0.00     0.131 A 
ATOM     64  C   UNL A   1      45.521  35.694  28.663  1.00  0.00     0.055 A 
ATOM     65  C   UNL A   1      46.058  34.981  30.897  1.00  0.00     0.041 A 
ATOM     66  F   UNL A   1      45.506  32.813  31.595  1.00  0.00    -0.206 F 
ATOM     67  C   UNL A   1      46.102  35.958  29.906  1.00  0.00     0.022 A 
BRANCH  64  68
ATOM     68  S   UNL A   1      45.701  36.883  27.304  1.00  0.00     0.124 S 
ATOM     69  O   UNL A   1      46.999  37.483  27.595  1.00  0.00    -0.237 OA
ATOM     70  O   UNL A   1      45.646  36.022  26.127  1.00  0.00    -0.237 OA
ATOM     71  O   UNL A   1      44.554  37.773  27.474  1.00  0.00    -0.744 OA
ENDBRANCH  64  68
ENDBRANCH  38  61
ENDBRANCH  12  13
ENDBRANCH   5   7
ENDBRANCH   2   3
ENDBRANCH   1   2
BRANCH   1  72
ATOM     72  C   UNL A   1      35.763  23.705  23.670  1.00  0.00     0.117 C 
BRANCH  72  73
ATOM     73  N   UNL A   1      34.385  24.063  23.147  1.00  0.00    -0.356 N 
ATOM     74  C   UNL A   1      33.033  24.137  23.245  1.00  0.00     0.224 C 
ATOM     75  H   UNL A   1      34.570  24.451  22.262  1.00  0.00     0.163 HD
ATOM     76  O   UNL A   1      32.686  24.937  22.335  1.00  0.00    -0.275 OA
BRANCH  74  77
ATOM     77  C   UNL A   1      31.800  23.671  24.218  1.00  0.00     0.098 C 
ATOM     78  C   UNL A   1      30.673  24.123  25.340  1.00  0.00     0.099 C 
ATOM     79  C   UNL A   1      32.411  22.444  25.045  1.00  0.00     0.025 C 
ATOM     80  C   UNL A   1      30.870  23.091  26.502  1.00  0.00     0.025 C 
ATOM     81  C   UNL A   1      33.136  22.985  26.261  1.00  0.00    -0.027 C 
ATOM     82  C   UNL A   1      31.200  21.826  25.741  1.00  0.00     0.017 C 
ATOM     83  C   UNL A   1      32.204  23.352  27.147  1.00  0.00    -0.027 C 
BRANCH  78  84
ATOM     84  C   UNL A   1      30.083  25.340  26.133  1.00  0.00     0.229 C 
ATOM     85  O   UNL A   1      28.958  25.205  26.638  1.00  0.00    -0.274 OA
ATOM     86  N   UNL A   1      30.730  26.503  26.422  1.00  0.00    -0.323 N 
ATOM     87  H   UNL A   1      30.369  27.039  27.165  1.00  0.00     0.170 HD
BRANCH  86  88
ATOM     88  C   UNL A   1      31.845  27.005  25.773  1.00  0.00     0.084 A 
ATOM     89  C   UNL A   1      33.123  26.623  26.188  1.00  0.00     0.030 A 
ATOM     90  C   UNL A   1      31.672  27.771  24.647  1.00  0.00     0.149 A 
ATOM     91  C   UNL A   1      34.213  26.801  25.330  1.00  0.00     0.002 A 
ATOM     92  C   UNL A   1      32.769  27.913  23.777  1.00  0.00     0.049 A 
ATOM     93  C   UNL A   1      34.024  27.400  24.093  1.00  0.00     0.004 A 
BRANCH  90  94
ATOM     94  O   UNL A   1      30.447  28.252  24.268  1.00  0.00    -0.433 OA
BRANCH  94  95
ATOM     95  C   UNL A   1      29.668  27.798  23.151  1.00  0.00     0.542 C 
ATOM     96  F   UNL A   1      30.104  28.347  22.001  1.00  0.00    -0.167 F 
ATOM     97  F   UNL A   1      29.888  26.453  23.063  1.00  0.00    -0.167 F 
ENDBRANCH  94  95
ENDBRANCH  90  94
ENDBRANCH  86  88
ENDBRANCH  78  84
ENDBRANCH  74  77
ENDBRANCH  72  73
ENDBRANCH   1  72
TORSDOF 17
ENDMDL
MODEL 2
REMARK VINA RESULT:     -12.2      4.916      9.880
REMARK SMILES O=C(NCCCNC(=O)[C@@H]1[C@H](C(=O)Nc2ccccc2OC(F)F)[C@@H]2C=C[C@H]1C2)c1ccc(-c2c3nc(c(-c4cc(S(=O)(=O)[O-])ccc4F)c4ccc([nH]4)c(-c4cc(S(=O)(=O)[O-])ccc4F)c4nc(c(-c5cc(S(=O)(=O)[O-])ccc5F)c5ccc2[nH]5)C=C4)C=C3)cc1
REMARK SMILES IDX 5 1 4 2 3 3 1 4 2 5 30 7 31 8 92 9 32 10 91 11 33 12 34 13
REMARK SMILES IDX 35 14 85 15 36 16 90 17 84 18 86 19 37 20 89 21 83 22 82 23
REMARK SMILES IDX 38 25 70 26 50 27 69 28 51 29 54 30 68 31 87 32 52 33 53 34
REMARK SMILES IDX 67 36 88 37 55 38 39 39 40 40 48 41 41 42 47 43 49 44 46 45
REMARK SMILES IDX 42 46 43 47 44 48 45 49 71 50 72 51 80 52 73 53 79 54 81 55
REMARK SMILES IDX 78 56 74 57 75 58 76 59 77 60 56 61 57 62 65 63 58 64 64 65
REMARK SMILES IDX 66 66 63 67 59 68 60 69 61 70 62 71 6 72 7 73 8 74 9 76
REMARK SMILES IDX 10 77 11 78 28 79 25 80 27 81 29 82 26 83 12 84 13 85 14 86
REMARK SMILES IDX 15 88 16 89 20 90 17 91 19 92 18 93 21 94 22 95 23 96 24 97
REMARK H PARENT 3 6 86 24 54 35 7 75 14 87
REMARK Flexibility Score: inf
ROOT
ATOM      1  C   UNL A   1      31.804  28.506  26.505  1.00  0.00     0.042 C 
ENDROOT
BRANCH   1   2
ATOM      2  C   UNL A   1      32.624  29.501  25.669  1.00  0.00     0.118 C 
BRANCH   2   3
ATOM      3  N   UNL A   1      32.632  30.826  26.308  1.00  0.00    -0.352 N 
ATOM      4  O   UNL A   1      32.916  32.497  27.733  1.00  0.00    -0.269 OA
ATOM      5  C   UNL A   1      33.414  31.482  27.235  1.00  0.00     0.251 C 
ATOM      6  H   UNL A   1      31.890  31.390  25.991  1.00  0.00     0.163 HD
BRANCH   5   7
ATOM      7  C   UNL A   1      34.802  31.110  27.652  1.00  0.00     0.039 A 
ATOM      8  C   UNL A   1      35.778  32.039  27.999  1.00  0.00     0.014 A 
ATOM      9  C   UNL A   1      35.089  29.745  27.879  1.00  0.00     0.014 A 
ATOM     10  C   UNL A   1      37.016  31.619  28.512  1.00  0.00     0.010 A 
ATOM     11  C   UNL A   1      36.300  29.327  28.469  1.00  0.00     0.010 A 
ATOM     12  C   UNL A   1      37.279  30.267  28.808  1.00  0.00    -0.014 A 
BRANCH  12  13
ATOM     13  C   UNL A   1      38.499  29.921  29.606  1.00  0.00     0.031 A 
ATOM     14  C   UNL A   1      38.741  30.449  30.996  1.00  0.00     0.074 A 
ATOM     15  C   UNL A   1      39.389  29.058  29.066  1.00  0.00     0.049 A 
ATOM     16  N   UNL A   1      39.696  30.142  31.841  1.00  0.00    -0.248 NA
ATOM     17  C   UNL A   1      37.802  31.459  31.501  1.00  0.00     0.031 C 
ATOM     18  C   UNL A   1      39.307  28.522  27.704  1.00  0.00     0.029 A 
ATOM     19  N   UNL A   1      40.505  28.449  29.588  1.00  0.00    -0.354 N 
ATOM     20  C   UNL A   1      39.475  30.911  32.978  1.00  0.00     0.074 A 
ATOM     21  C   UNL A   1      38.313  31.733  32.694  1.00  0.00     0.031 C 
ATOM     22  C   UNL A   1      40.272  27.608  27.529  1.00  0.00     0.029 A 
ATOM     23  C   UNL A   1      41.088  27.537  28.735  1.00  0.00     0.049 A 
ATOM     24  H   UNL A   1      40.854  28.645  30.488  1.00  0.00     0.167 HD
ATOM     25  C   UNL A   1      40.165  30.926  34.149  1.00  0.00     0.034 A 
ATOM     26  C   UNL A   1      42.161  26.735  28.891  1.00  0.00     0.034 A 
ATOM     27  C   UNL A   1      41.334  30.114  34.415  1.00  0.00     0.049 A 
ATOM     28  C   UNL A   1      42.900  26.764  30.202  1.00  0.00     0.074 A 
ATOM     29  C   UNL A   1      42.102  30.055  35.567  1.00  0.00     0.029 A 
ATOM     30  N   UNL A   1      41.909  29.222  33.519  1.00  0.00    -0.354 N 
ATOM     31  N   UNL A   1      42.652  27.483  31.273  1.00  0.00    -0.248 NA
ATOM     32  C   UNL A   1      44.058  25.871  30.329  1.00  0.00     0.031 C 
ATOM     33  C   UNL A   1      43.168  29.173  35.348  1.00  0.00     0.029 A 
ATOM     34  C   UNL A   1      43.028  28.626  34.083  1.00  0.00     0.049 A 
ATOM     35  H   UNL A   1      41.571  29.039  32.612  1.00  0.00     0.167 HD
ATOM     36  C   UNL A   1      43.627  27.129  32.199  1.00  0.00     0.074 A 
ATOM     37  C   UNL A   1      44.433  26.097  31.578  1.00  0.00     0.031 C 
ATOM     38  C   UNL A   1      43.846  27.621  33.444  1.00  0.00     0.034 A 
BRANCH  25  39
ATOM     39  C   UNL A   1      39.688  31.871  35.229  1.00  0.00     0.023 A 
ATOM     40  C   UNL A   1      38.938  31.414  36.328  1.00  0.00     0.031 A 
ATOM     41  C   UNL A   1      39.988  33.244  35.166  1.00  0.00     0.131 A 
ATOM     42  C   UNL A   1      38.464  32.327  37.284  1.00  0.00     0.055 A 
ATOM     43  C   UNL A   1      39.573  34.137  36.157  1.00  0.00     0.041 A 
ATOM     44  F   UNL A   1      40.689  33.744  34.137  1.00  0.00    -0.206 F 
ATOM     45  C   UNL A   1      38.795  33.681  37.219  1.00  0.00     0.022 A 
BRANCH  42  46
ATOM     46  S   UNL A   1      37.322  31.724  38.557  1.00  0.00     0.124 S 
ATOM     47  O   UNL A   1      36.225  32.699  38.452  1.00  0.00    -0.237 OA
ATOM     48  O   UNL A   1      37.027  30.384  38.123  1.00  0.00    -0.237 OA
ATOM     49  O   UNL A   1      38.109  31.833  39.798  1.00  0.00    -0.744 OA
ENDBRANCH  42  46
ENDBRANCH  25  39
BRANCH  26  50
ATOM     50  C   UNL A   1      42.624  25.864  27.769  1.00  0.00     0.023 A 
ATOM     51  C   UNL A   1      42.100  24.576  27.574  1.00  0.00     0.031 A 
ATOM     52  C   UNL A   1      43.634  26.302  26.893  1.00  0.00     0.131 A 
ATOM     53  C   UNL A   1      42.615  23.757  26.557  1.00  0.00     0.055 A 
ATOM     54  C   UNL A   1      44.099  25.508  25.844  1.00  0.00     0.041 A 
ATOM     55  F   UNL A   1      44.172  27.523  27.033  1.00  0.00    -0.206 F 
ATOM     56  C   UNL A   1      43.599  24.221  25.681  1.00  0.00     0.022 A 
BRANCH  53  57
ATOM     57  S   UNL A   1      42.049  22.036  26.450  1.00  0.00     0.124 S 
ATOM     58  O   UNL A   1      42.348  21.538  27.787  1.00  0.00    -0.237 OA
ATOM     59  O   UNL A   1      40.635  22.203  26.128  1.00  0.00    -0.237 OA
ATOM     60  O   UNL A   1      42.868  21.475  25.377  1.00  0.00    -0.744 OA
ENDBRANCH  53  57
ENDBRANCH  26  50
BRANCH  38  61
ATOM     61  C   UNL A   1      45.007  27.028  34.206  1.00  0.00     0.023 A 
ATOM     62  C   UNL A   1      44.843  25.896  35.026  1.00  0.00     0.031 A 
ATOM     63  C   UNL A   1      46.274  27.633  34.161  1.00  0.00     0.131 A 
ATOM     64  C   UNL A   1      45.906  25.452  35.826  1.00  0.00     0.055 A 
ATOM     65  C   UNL A   1      47.347  27.147  34.911  1.00  0.00     0.041 A 
ATOM     66  F   UNL A   1      46.487  28.717  33.399  1.00  0.00    -0.206 F 
ATOM     67  C   UNL A   1      47.161  26.061  35.763  1.00  0.00     0.022 A 
BRANCH  64  68
ATOM     68  S   UNL A   1      45.591  24.140  37.041  1.00  0.00     0.124 S 
ATOM     69  O   UNL A   1      46.934  23.853  37.532  1.00  0.00    -0.237 OA
ATOM     70  O   UNL A   1      44.694  24.800  37.985  1.00  0.00    -0.237 OA
ATOM     71  O   UNL A   1      44.980  23.077  36.246  1.00  0.00    -0.744 OA
ENDBRANCH  64  68
ENDBRANCH  38  61
ENDBRANCH  12  13
ENDBRANCH   5   7
ENDBRANCH   2   3
ENDBRANCH   1   2
BRANCH   1  72
ATOM     72  C   UNL A   1      31.052  27.284  25.876  1.00  0.00     0.117 C 
BRANCH  72  73
ATOM     73  N   UNL A   1      31.168  25.828  26.287  1.00  0.00    -0.356 N 
ATOM     74  C   UNL A   1      31.868  24.697  26.557  1.00  0.00     0.224 C 
ATOM     75  H   UNL A   1      30.233  25.559  26.439  1.00  0.00     0.163 HD
ATOM     76  O   UNL A   1      31.057  23.954  27.173  1.00  0.00    -0.275 OA
BRANCH  74  77
ATOM     77  C   UNL A   1      33.390  24.095  26.485  1.00  0.00     0.098 C 
ATOM     78  C   UNL A   1      34.671  23.676  25.528  1.00  0.00     0.099 C 
ATOM     79  C   UNL A   1      33.290  22.713  27.288  1.00  0.00     0.025 C 
ATOM     80  C   UNL A   1      35.014  22.217  25.984  1.00  0.00     0.025 C 
ATOM     81  C   UNL A   1      32.839  21.625  26.334  1.00  0.00    -0.027 C 
ATOM     82  C   UNL A   1      34.745  22.285  27.471  1.00  0.00     0.017 C 
ATOM     83  C   UNL A   1      33.888  21.311  25.566  1.00  0.00    -0.027 C 
BRANCH  78  84
ATOM     84  C   UNL A   1      35.202  23.647  24.053  1.00  0.00     0.229 C 
ATOM     85  O   UNL A   1      36.432  23.627  23.887  1.00  0.00    -0.274 OA
ATOM     86  N   UNL A   1      34.447  23.532  22.927  1.00  0.00    -0.323 N 
ATOM     87  H   UNL A   1      34.908  23.225  22.112  1.00  0.00     0.170 HD
BRANCH  86  88
ATOM     88  C   UNL A   1      33.094  23.802  22.814  1.00  0.00     0.084 A 
ATOM     89  C   UNL A   1      32.157  22.821  23.149  1.00  0.00     0.030 A 
ATOM     90  C   UNL A   1      32.693  25.076  22.498  1.00  0.00     0.149 A 
ATOM     91  C   UNL A   1      30.832  23.187  23.410  1.00  0.00     0.002 A 
ATOM     92  C   UNL A   1      31.367  25.438  22.797  1.00  0.00     0.049 A 
ATOM     93  C   UNL A   1      30.448  24.514  23.287  1.00  0.00     0.004 A 
BRANCH  90  94
ATOM     94  O   UNL A   1      33.570  26.035  22.063  1.00  0.00    -0.433 OA
BRANCH  94  95
ATOM     95  C   UNL A   1      33.910  27.247  22.753  1.00  0.00     0.542 C 
ATOM     96  F   UNL A   1      32.932  28.165  22.630  1.00  0.00    -0.167 F 
ATOM     97  F   UNL A   1      33.986  26.915  24.077  1.00  0.00    -0.167 F 
ENDBRANCH  94  95
ENDBRANCH  90  94
ENDBRANCH  86  88
ENDBRANCH  78  84
ENDBRANCH  74  77
ENDBRANCH  72  73
ENDBRANCH   1  72
TORSDOF 17
ENDMDL
MODEL 3
REMARK VINA RESULT:     -12.2      1.855      2.962
REMARK SMILES O=C(NCCCNC(=O)[C@@H]1[C@H](C(=O)Nc2ccccc2OC(F)F)[C@@H]2C=C[C@H]1C2)c1ccc(-c2c3nc(c(-c4cc(S(=O)(=O)[O-])ccc4F)c4ccc([nH]4)c(-c4cc(S(=O)(=O)[O-])ccc4F)c4nc(c(-c5cc(S(=O)(=O)[O-])ccc5F)c5ccc2[nH]5)C=C4)C=C3)cc1
REMARK SMILES IDX 5 1 4 2 3 3 1 4 2 5 30 7 31 8 92 9 32 10 91 11 33 12 34 13
REMARK SMILES IDX 35 14 85 15 36 16 90 17 84 18 86 19 37 20 89 21 83 22 82 23
REMARK SMILES IDX 38 25 70 26 50 27 69 28 51 29 54 30 68 31 87 32 52 33 53 34
REMARK SMILES IDX 67 36 88 37 55 38 39 39 40 40 48 41 41 42 47 43 49 44 46 45
REMARK SMILES IDX 42 46 43 47 44 48 45 49 71 50 72 51 80 52 73 53 79 54 81 55
REMARK SMILES IDX 78 56 74 57 75 58 76 59 77 60 56 61 57 62 65 63 58 64 64 65
REMARK SMILES IDX 66 66 63 67 59 68 60 69 61 70 62 71 6 72 7 73 8 74 9 76
REMARK SMILES IDX 10 77 11 78 28 79 25 80 27 81 29 82 26 83 12 84 13 85 14 86
REMARK SMILES IDX 15 88 16 89 20 90 17 91 19 92 18 93 21 94 22 95 23 96 24 97
REMARK H PARENT 3 6 86 24 54 35 7 75 14 87
REMARK Flexibility Score: inf
ROOT
ATOM      1  C   UNL A   1      35.501  22.278  24.606  1.00  0.00     0.042 C 
ENDROOT
BRANCH   1   2
ATOM      2  C   UNL A   1      36.964  22.243  24.139  1.00  0.00     0.118 C 
BRANCH   2   3
ATOM      3  N   UNL A   1      37.728  21.251  24.912  1.00  0.00    -0.352 N 
ATOM      4  O   UNL A   1      39.336  20.177  25.991  1.00  0.00    -0.269 OA
ATOM      5  C   UNL A   1      38.804  21.271  25.773  1.00  0.00     0.251 C 
ATOM      6  H   UNL A   1      37.381  20.339  24.780  1.00  0.00     0.163 HD
BRANCH   5   7
ATOM      7  C   UNL A   1      39.348  22.466  26.492  1.00  0.00     0.039 A 
ATOM      8  C   UNL A   1      40.457  22.423  27.330  1.00  0.00     0.014 A 
ATOM      9  C   UNL A   1      38.821  23.737  26.168  1.00  0.00     0.014 A 
ATOM     10  C   UNL A   1      40.997  23.605  27.864  1.00  0.00     0.010 A 
ATOM     11  C   UNL A   1      39.412  24.928  26.639  1.00  0.00     0.010 A 
ATOM     12  C   UNL A   1      40.523  24.876  27.487  1.00  0.00    -0.014 A 
BRANCH  12  13
ATOM     13  C   UNL A   1      41.313  26.090  27.870  1.00  0.00     0.031 A 
ATOM     14  C   UNL A   1      42.734  26.313  27.421  1.00  0.00     0.074 A 
ATOM     15  C   UNL A   1      40.700  27.043  28.607  1.00  0.00     0.049 A 
ATOM     16  N   UNL A   1      43.496  27.368  27.585  1.00  0.00    -0.248 NA
ATOM     17  C   UNL A   1      43.391  25.209  26.709  1.00  0.00     0.031 C 
ATOM     18  C   UNL A   1      39.347  26.925  29.161  1.00  0.00     0.029 A 
ATOM     19  N   UNL A   1      41.098  28.302  28.989  1.00  0.00    -0.354 N 
ATOM     20  C   UNL A   1      44.718  27.064  26.994  1.00  0.00     0.074 A 
ATOM     21  C   UNL A   1      44.606  25.703  26.504  1.00  0.00     0.031 C 
ATOM     22  C   UNL A   1      39.000  28.086  29.733  1.00  0.00     0.029 A 
ATOM     23  C   UNL A   1      40.122  29.012  29.655  1.00  0.00     0.049 A 
ATOM     24  H   UNL A   1      41.996  28.662  28.804  1.00  0.00     0.167 HD
ATOM     25  C   UNL A   1      45.823  27.845  26.863  1.00  0.00     0.034 A 
ATOM     26  C   UNL A   1      40.122  30.265  30.155  1.00  0.00     0.034 A 
ATOM     27  C   UNL A   1      45.930  29.196  27.372  1.00  0.00     0.049 A 
ATOM     28  C   UNL A   1      41.355  31.111  29.986  1.00  0.00     0.074 A 
ATOM     29  C   UNL A   1      47.003  30.069  27.291  1.00  0.00     0.029 A 
ATOM     30  N   UNL A   1      44.931  29.872  28.062  1.00  0.00    -0.354 N 
ATOM     31  N   UNL A   1      42.489  30.807  29.398  1.00  0.00    -0.248 NA
ATOM     32  C   UNL A   1      41.307  32.469  30.543  1.00  0.00     0.031 C 
ATOM     33  C   UNL A   1      46.675  31.246  27.976  1.00  0.00     0.029 A 
ATOM     34  C   UNL A   1      45.369  31.138  28.426  1.00  0.00     0.049 A 
ATOM     35  H   UNL A   1      44.039  29.505  28.264  1.00  0.00     0.167 HD
ATOM     36  C   UNL A   1      43.291  31.938  29.518  1.00  0.00     0.074 A 
ATOM     37  C   UNL A   1      42.491  32.943  30.187  1.00  0.00     0.031 C 
ATOM     38  C   UNL A   1      44.576  32.123  29.123  1.00  0.00     0.034 A 
BRANCH  25  39
ATOM     39  C   UNL A   1      47.022  27.247  26.161  1.00  0.00     0.023 A 
ATOM     40  C   UNL A   1      48.016  26.549  26.871  1.00  0.00     0.031 A 
ATOM     41  C   UNL A   1      47.175  27.371  24.768  1.00  0.00     0.131 A 
ATOM     42  C   UNL A   1      49.144  26.054  26.196  1.00  0.00     0.055 A 
ATOM     43  C   UNL A   1      48.265  26.816  24.094  1.00  0.00     0.041 A 
ATOM     44  F   UNL A   1      46.267  28.036  24.038  1.00  0.00    -0.206 F 
ATOM     45  C   UNL A   1      49.265  26.164  24.810  1.00  0.00     0.022 A 
BRANCH  42  46
ATOM     46  S   UNL A   1      50.498  25.358  27.181  1.00  0.00     0.124 S 
ATOM     47  O   UNL A   1      51.454  24.968  26.132  1.00  0.00    -0.237 OA
ATOM     48  O   UNL A   1      50.890  26.458  28.022  1.00  0.00    -0.237 OA
ATOM     49  O   UNL A   1      49.865  24.221  27.872  1.00  0.00    -0.744 OA
ENDBRANCH  42  46
ENDBRANCH  25  39
BRANCH  26  50
ATOM     50  C   UNL A   1      38.931  30.784  30.892  1.00  0.00     0.023 A 
ATOM     51  C   UNL A   1      37.940  31.543  30.248  1.00  0.00     0.031 A 
ATOM     52  C   UNL A   1      38.788  30.556  32.273  1.00  0.00     0.131 A 
ATOM     53  C   UNL A   1      36.876  32.080  30.990  1.00  0.00     0.055 A 
ATOM     54  C   UNL A   1      37.696  31.039  32.995  1.00  0.00     0.041 A 
ATOM     55  F   UNL A   1      39.706  29.839  32.941  1.00  0.00    -0.206 F 
ATOM     56  C   UNL A   1      36.739  31.818  32.355  1.00  0.00     0.022 A 
BRANCH  53  57
ATOM     57  S   UNL A   1      35.718  33.208  30.165  1.00  0.00     0.124 S 
ATOM     58  O   UNL A   1      35.266  34.038  31.275  1.00  0.00    -0.237 OA
ATOM     59  O   UNL A   1      36.580  33.861  29.184  1.00  0.00    -0.237 OA
ATOM     60  O   UNL A   1      34.709  32.310  29.606  1.00  0.00    -0.744 OA
ENDBRANCH  53  57
ENDBRANCH  26  50
BRANCH  38  61
ATOM     61  C   UNL A   1      45.176  33.479  29.408  1.00  0.00     0.023 A 
ATOM     62  C   UNL A   1      45.031  34.549  28.505  1.00  0.00     0.031 A 
ATOM     63  C   UNL A   1      45.950  33.689  30.562  1.00  0.00     0.131 A 
ATOM     64  C   UNL A   1      45.713  35.753  28.732  1.00  0.00     0.055 A 
ATOM     65  C   UNL A   1      46.575  34.912  30.814  1.00  0.00     0.041 A 
ATOM     66  F   UNL A   1      46.126  32.703  31.455  1.00  0.00    -0.206 F 
ATOM     67  C   UNL A   1      46.473  35.946  29.888  1.00  0.00     0.022 A 
BRANCH  64  68
ATOM     68  S   UNL A   1      45.692  37.022  27.434  1.00  0.00     0.124 S 
ATOM     69  O   UNL A   1      46.617  36.467  26.452  1.00  0.00    -0.237 OA
ATOM     70  O   UNL A   1      44.286  37.045  27.044  1.00  0.00    -0.237 OA
ATOM     71  O   UNL A   1      46.164  38.222  28.122  1.00  0.00    -0.744 OA
ENDBRANCH  64  68
ENDBRANCH  38  61
ENDBRANCH  12  13
ENDBRANCH   5   7
ENDBRANCH   2   3
ENDBRANCH   1   2
BRANCH   1  72
ATOM     72  C   UNL A   1      34.303  22.547  23.632  1.00  0.00     0.117 C 
BRANCH  72  73
ATOM     73  N   UNL A   1      33.921  23.868  22.993  1.00  0.00    -0.356 N 
ATOM     74  C   UNL A   1      33.762  25.217  22.999  1.00  0.00     0.224 C 
ATOM     75  H   UNL A   1      33.636  23.610  22.087  1.00  0.00     0.163 HD
ATOM     76  O   UNL A   1      33.644  25.534  21.785  1.00  0.00    -0.275 OA
BRANCH  74  77
ATOM     77  C   UNL A   1      33.836  26.502  24.012  1.00  0.00     0.098 C 
ATOM     78  C   UNL A   1      33.229  27.239  25.362  1.00  0.00     0.099 C 
ATOM     79  C   UNL A   1      33.717  27.764  23.034  1.00  0.00     0.025 C 
ATOM     80  C   UNL A   1      32.925  28.699  24.882  1.00  0.00     0.025 C 
ATOM     81  C   UNL A   1      32.250  28.063  22.798  1.00  0.00    -0.027 C 
ATOM     82  C   UNL A   1      34.066  28.956  23.923  1.00  0.00     0.017 C 
ATOM     83  C   UNL A   1      31.782  28.650  23.905  1.00  0.00    -0.027 C 
BRANCH  78  84
ATOM     84  C   UNL A   1      32.197  27.101  26.533  1.00  0.00     0.229 C 
ATOM     85  O   UNL A   1      32.416  27.744  27.571  1.00  0.00    -0.274 OA
ATOM     86  N   UNL A   1      31.015  26.426  26.489  1.00  0.00    -0.323 N 
ATOM     87  H   UNL A   1      30.340  26.667  27.165  1.00  0.00     0.170 HD
BRANCH  86  88
ATOM     88  C   UNL A   1      30.669  25.434  25.587  1.00  0.00     0.084 A 
ATOM     89  C   UNL A   1      30.133  25.779  24.344  1.00  0.00     0.030 A 
ATOM     90  C   UNL A   1      30.979  24.130  25.879  1.00  0.00     0.149 A 
ATOM     91  C   UNL A   1      30.141  24.847  23.301  1.00  0.00     0.002 A 
ATOM     92  C   UNL A   1      31.016  23.211  24.814  1.00  0.00     0.049 A 
ATOM     93  C   UNL A   1      30.638  23.572  23.524  1.00  0.00     0.004 A 
BRANCH  90  94
ATOM     94  O   UNL A   1      31.407  23.738  27.120  1.00  0.00    -0.433 OA
BRANCH  94  95
ATOM     95  C   UNL A   1      32.719  23.259  27.451  1.00  0.00     0.542 C 
ATOM     96  F   UNL A   1      32.882  21.981  27.059  1.00  0.00    -0.167 F 
ATOM     97  F   UNL A   1      33.589  24.019  26.721  1.00  0.00    -0.167 F 
ENDBRANCH  94  95
ENDBRANCH  90  94
ENDBRANCH  86  88
ENDBRANCH  78  84
ENDBRANCH  74  77
ENDBRANCH  72  73
ENDBRANCH   1  72
TORSDOF 17
ENDMDL
