MODEL 1
REMARK VINA RESULT:     -12.0      0.000      0.000
REMARK SMILES Cc1cc(C)c2c(OCCCC(=O)NCCCNC(=O)c3ccc(-c4c5nc(c(-c6cc(S(=O)(=O)[O-])ccc6F)c6ccc([nH]6)c(-c6cc(S(=O)(=O)[O-])ccc6F)c6nc(c(-c7cc(S(=O)(=O)[O-])ccc7F)c7ccc4[nH]7)C=C6)C=C5)cc3)nsc2n1
REMARK SMILES IDX 15 1 14 2 12 3 13 4 11 6 10 7 9 8 8 9 7 10 1 11 2 12 3 13
REMARK SMILES IDX 87 14 4 15 86 16 5 17 6 18 85 19 84 20 16 21 17 22 18 23
REMARK SMILES IDX 19 24 20 26 21 27 22 28 83 29 23 30 82 31 24 32 25 33 26 34
REMARK SMILES IDX 76 35 27 36 81 37 75 38 77 39 28 40 80 41 74 42 73 43 29 45
REMARK SMILES IDX 61 46 41 47 60 48 42 49 45 50 59 51 78 52 43 53 44 54 58 56
REMARK SMILES IDX 79 57 46 58 30 59 31 60 39 61 32 62 38 63 40 64 37 65 33 66
REMARK SMILES IDX 34 67 35 68 36 69 62 70 63 71 71 72 64 73 70 74 72 75 69 76
REMARK SMILES IDX 65 77 66 78 67 79 68 80 47 81 48 82 56 83 49 84 55 85 57 86
REMARK SMILES IDX 54 87 50 88 51 89 52 90 53 91
REMARK H PARENT 14 5 18 25 77 44 45 55
REMARK Flexibility Score: inf
ROOT
ATOM      1  C   UNL A   1      33.180  30.684  27.540  1.00  0.00     0.117 C 
ENDROOT
BRANCH   1   2
ATOM      2  N   UNL A   1      32.316  29.348  27.474  1.00  0.00    -0.356 N 
ATOM      3  C   UNL A   1      31.794  28.286  26.758  1.00  0.00     0.220 C 
ATOM      4  O   UNL A   1      31.253  27.494  27.567  1.00  0.00    -0.275 OA
ATOM      5  H   UNL A   1      31.997  29.211  28.394  1.00  0.00     0.163 HD
BRANCH   3   6
ATOM      6  C   UNL A   1      31.849  27.655  25.188  1.00  0.00     0.103 C 
BRANCH   6   7
ATOM      7  C   UNL A   1      32.299  26.340  24.285  1.00  0.00     0.051 C 
BRANCH   7   8
ATOM      8  C   UNL A   1      33.516  25.265  24.322  1.00  0.00     0.232 C 
BRANCH   8   9
ATOM      9  O   UNL A   1      34.280  24.851  25.477  1.00  0.00    -0.477 OA
BRANCH   9  10
ATOM     10  C   UNL A   1      34.721  23.581  25.696  1.00  0.00     0.235 A 
ATOM     11  C   UNL A   1      32.578  18.915  23.751  1.00  0.00     0.067 C 
ATOM     12  C   UNL A   1      33.115  20.036  24.605  1.00  0.00     0.039 A 
ATOM     13  C   UNL A   1      32.223  20.914  25.214  1.00  0.00     0.027 A 
ATOM     14  N   UNL A   1      34.457  20.136  24.756  1.00  0.00    -0.240 NA
ATOM     15  C   UNL A   1      32.695  22.069  25.865  1.00  0.00    -0.034 A 
ATOM     16  C   UNL A   1      34.840  21.325  25.269  1.00  0.00     0.147 A 
ATOM     17  C   UNL A   1      32.024  23.012  26.773  1.00  0.00     0.045 C 
ATOM     18  C   UNL A   1      34.014  22.364  25.645  1.00  0.00     0.078 A 
ATOM     19  S   UNL A   1      36.425  21.827  25.637  1.00  0.00    -0.012 S 
ATOM     20  N   UNL A   1      36.039  23.454  25.848  1.00  0.00    -0.153 NA
ENDBRANCH   9  10
ENDBRANCH   8   9
ENDBRANCH   7   8
ENDBRANCH   6   7
ENDBRANCH   3   6
ENDBRANCH   1   2
BRANCH   1  21
ATOM     21  C   UNL A   1      34.729  30.519  27.303  1.00  0.00     0.042 C 
BRANCH  21  22
ATOM     22  C   UNL A   1      35.550  29.495  28.038  1.00  0.00     0.118 C 
BRANCH  22  23
ATOM     23  N   UNL A   1      35.966  29.899  29.384  1.00  0.00    -0.352 N 
ATOM     24  C   UNL A   1      36.974  29.280  30.119  1.00  0.00     0.251 C 
ATOM     25  H   UNL A   1      35.501  30.662  29.797  1.00  0.00     0.163 HD
ATOM     26  O   UNL A   1      36.965  29.245  31.326  1.00  0.00    -0.269 OA
BRANCH  24  27
ATOM     27  C   UNL A   1      38.035  28.652  29.306  1.00  0.00     0.039 A 
ATOM     28  C   UNL A   1      38.606  29.327  28.233  1.00  0.00     0.014 A 
ATOM     29  C   UNL A   1      38.625  27.516  29.860  1.00  0.00     0.014 A 
ATOM     30  C   UNL A   1      39.855  28.900  27.796  1.00  0.00     0.010 A 
ATOM     31  C   UNL A   1      39.942  27.257  29.573  1.00  0.00     0.010 A 
ATOM     32  C   UNL A   1      40.557  27.904  28.513  1.00  0.00    -0.014 A 
BRANCH  32  33
ATOM     33  C   UNL A   1      41.970  27.631  28.242  1.00  0.00     0.031 A 
ATOM     34  C   UNL A   1      42.203  26.482  27.336  1.00  0.00     0.074 A 
ATOM     35  C   UNL A   1      43.019  28.344  28.713  1.00  0.00     0.049 A 
ATOM     36  N   UNL A   1      42.380  25.267  27.729  1.00  0.00    -0.248 NA
ATOM     37  C   UNL A   1      42.006  26.606  25.886  1.00  0.00     0.031 C 
ATOM     38  C   UNL A   1      43.041  29.606  29.459  1.00  0.00     0.029 A 
ATOM     39  N   UNL A   1      44.347  28.058  28.591  1.00  0.00    -0.354 N 
ATOM     40  C   UNL A   1      42.597  24.513  26.590  1.00  0.00     0.074 A 
ATOM     41  C   UNL A   1      42.148  25.334  25.496  1.00  0.00     0.031 C 
ATOM     42  C   UNL A   1      44.306  30.075  29.544  1.00  0.00     0.029 A 
ATOM     43  C   UNL A   1      45.208  29.065  29.022  1.00  0.00     0.049 A 
ATOM     44  H   UNL A   1      44.673  27.204  28.227  1.00  0.00     0.167 HD
ATOM     45  C   UNL A   1      43.365  23.392  26.666  1.00  0.00     0.034 A 
ATOM     46  C   UNL A   1      46.570  29.049  29.060  1.00  0.00     0.034 A 
ATOM     47  C   UNL A   1      43.557  22.994  28.051  1.00  0.00     0.049 A 
ATOM     48  C   UNL A   1      46.945  27.619  29.200  1.00  0.00     0.074 A 
ATOM     49  C   UNL A   1      42.700  22.686  29.095  1.00  0.00     0.029 A 
ATOM     50  N   UNL A   1      44.763  23.298  28.651  1.00  0.00    -0.354 N 
ATOM     51  N   UNL A   1      46.653  26.916  30.264  1.00  0.00    -0.248 NA
ATOM     52  C   UNL A   1      47.148  26.847  27.983  1.00  0.00     0.031 C 
ATOM     53  C   UNL A   1      43.267  23.334  30.234  1.00  0.00     0.029 A 
ATOM     54  C   UNL A   1      44.483  23.904  29.852  1.00  0.00     0.049 A 
ATOM     55  H   UNL A   1      45.658  23.116  28.284  1.00  0.00     0.167 HD
ATOM     56  C   UNL A   1      46.204  25.697  29.775  1.00  0.00     0.074 A 
ATOM     57  C   UNL A   1      46.600  25.689  28.365  1.00  0.00     0.031 C 
ATOM     58  C   UNL A   1      45.315  24.924  30.466  1.00  0.00     0.034 A 
BRANCH  45  59
ATOM     59  C   UNL A   1      44.275  22.896  25.571  1.00  0.00     0.023 A 
ATOM     60  C   UNL A   1      44.322  21.504  25.374  1.00  0.00     0.031 A 
ATOM     61  C   UNL A   1      45.304  23.642  24.956  1.00  0.00     0.131 A 
ATOM     62  C   UNL A   1      45.415  20.904  24.730  1.00  0.00     0.055 A 
ATOM     63  C   UNL A   1      46.358  23.044  24.260  1.00  0.00     0.041 A 
ATOM     64  F   UNL A   1      45.402  24.972  25.065  1.00  0.00    -0.206 F 
ATOM     65  C   UNL A   1      46.440  21.665  24.178  1.00  0.00     0.022 A 
BRANCH  62  66
ATOM     66  S   UNL A   1      45.547  19.101  24.791  1.00  0.00     0.124 S 
ATOM     67  O   UNL A   1      46.821  18.928  25.481  1.00  0.00    -0.237 OA
ATOM     68  O   UNL A   1      44.352  18.738  25.544  1.00  0.00    -0.237 OA
ATOM     69  O   UNL A   1      45.538  18.714  23.382  1.00  0.00    -0.744 OA
ENDBRANCH  62  66
ENDBRANCH  45  59
BRANCH  46  70
ATOM     70  C   UNL A   1      47.484  30.128  28.564  1.00  0.00     0.023 A 
ATOM     71  C   UNL A   1      47.063  31.149  27.676  1.00  0.00     0.031 A 
ATOM     72  C   UNL A   1      48.759  30.304  29.153  1.00  0.00     0.131 A 
ATOM     73  C   UNL A   1      47.892  32.274  27.426  1.00  0.00     0.055 A 
ATOM     74  C   UNL A   1      49.568  31.417  28.905  1.00  0.00     0.041 A 
ATOM     75  F   UNL A   1      49.237  29.438  30.058  1.00  0.00    -0.206 F 
ATOM     76  C   UNL A   1      49.133  32.413  28.048  1.00  0.00     0.022 A 
BRANCH  73  77
ATOM     77  S   UNL A   1      47.329  33.645  26.358  1.00  0.00     0.124 S 
ATOM     78  O   UNL A   1      46.104  33.104  25.781  1.00  0.00    -0.237 OA
ATOM     79  O   UNL A   1      47.170  34.743  27.306  1.00  0.00    -0.237 OA
ATOM     80  O   UNL A   1      48.432  33.813  25.411  1.00  0.00    -0.744 OA
ENDBRANCH  73  77
ENDBRANCH  46  70
BRANCH  58  81
ATOM     81  C   UNL A   1      45.026  25.235  31.923  1.00  0.00     0.023 A 
ATOM     82  C   UNL A   1      45.782  24.778  33.027  1.00  0.00     0.031 A 
ATOM     83  C   UNL A   1      44.024  26.191  32.169  1.00  0.00     0.131 A 
ATOM     84  C   UNL A   1      45.522  25.294  34.317  1.00  0.00     0.055 A 
ATOM     85  C   UNL A   1      43.785  26.713  33.438  1.00  0.00     0.041 A 
ATOM     86  F   UNL A   1      43.289  26.681  31.156  1.00  0.00    -0.206 F 
ATOM     87  C   UNL A   1      44.535  26.267  34.518  1.00  0.00     0.022 A 
BRANCH  84  88
ATOM     88  S   UNL A   1      46.486  24.734  35.761  1.00  0.00     0.124 S 
ATOM     89  O   UNL A   1      46.696  23.316  35.493  1.00  0.00    -0.237 OA
ATOM     90  O   UNL A   1      47.677  25.578  35.704  1.00  0.00    -0.237 OA
ATOM     91  O   UNL A   1      45.602  25.013  36.895  1.00  0.00    -0.744 OA
ENDBRANCH  84  88
ENDBRANCH  58  81
ENDBRANCH  32  33
ENDBRANCH  24  27
ENDBRANCH  22  23
ENDBRANCH  21  22
ENDBRANCH   1  21
TORSDOF 17
ENDMDL
MODEL 2
REMARK VINA RESULT:     -11.9      1.622      2.318
REMARK SMILES Cc1cc(C)c2c(OCCCC(=O)NCCCNC(=O)c3ccc(-c4c5nc(c(-c6cc(S(=O)(=O)[O-])ccc6F)c6ccc([nH]6)c(-c6cc(S(=O)(=O)[O-])ccc6F)c6nc(c(-c7cc(S(=O)(=O)[O-])ccc7F)c7ccc4[nH]7)C=C6)C=C5)cc3)nsc2n1
REMARK SMILES IDX 15 1 14 2 12 3 13 4 11 6 10 7 9 8 8 9 7 10 1 11 2 12 3 13
REMARK SMILES IDX 87 14 4 15 86 16 5 17 6 18 85 19 84 20 16 21 17 22 18 23
REMARK SMILES IDX 19 24 20 26 21 27 22 28 83 29 23 30 82 31 24 32 25 33 26 34
REMARK SMILES IDX 76 35 27 36 81 37 75 38 77 39 28 40 80 41 74 42 73 43 29 45
REMARK SMILES IDX 61 46 41 47 60 48 42 49 45 50 59 51 78 52 43 53 44 54 58 56
REMARK SMILES IDX 79 57 46 58 30 59 31 60 39 61 32 62 38 63 40 64 37 65 33 66
REMARK SMILES IDX 34 67 35 68 36 69 62 70 63 71 71 72 64 73 70 74 72 75 69 76
REMARK SMILES IDX 65 77 66 78 67 79 68 80 47 81 48 82 56 83 49 84 55 85 57 86
REMARK SMILES IDX 54 87 50 88 51 89 52 90 53 91
REMARK H PARENT 14 5 18 25 77 44 45 55
REMARK Flexibility Score: inf
ROOT
ATOM      1  C   UNL A   1      34.183  28.859  26.427  1.00  0.00     0.117 C 
ENDROOT
BRANCH   1   2
ATOM      2  N   UNL A   1      32.798  28.094  26.605  1.00  0.00    -0.356 N 
ATOM      3  C   UNL A   1      32.055  26.927  26.588  1.00  0.00     0.220 C 
ATOM      4  O   UNL A   1      30.906  27.185  27.022  1.00  0.00    -0.275 OA
ATOM      5  H   UNL A   1      32.152  28.797  26.845  1.00  0.00     0.163 HD
BRANCH   3   6
ATOM      6  C   UNL A   1      32.293  25.266  26.361  1.00  0.00     0.103 C 
BRANCH   6   7
ATOM      7  C   UNL A   1      31.676  23.764  26.693  1.00  0.00     0.051 C 
BRANCH   7   8
ATOM      8  C   UNL A   1      31.213  22.478  25.817  1.00  0.00     0.232 C 
BRANCH   8   9
ATOM      9  O   UNL A   1      31.797  22.006  24.582  1.00  0.00    -0.477 OA
BRANCH   9  10
ATOM     10  C   UNL A   1      33.038  21.455  24.477  1.00  0.00     0.235 A 
ATOM     11  C   UNL A   1      37.811  23.624  26.112  1.00  0.00     0.067 C 
ATOM     12  C   UNL A   1      36.667  23.011  25.343  1.00  0.00     0.039 A 
ATOM     13  C   UNL A   1      35.856  23.829  24.562  1.00  0.00     0.027 A 
ATOM     14  N   UNL A   1      36.482  21.672  25.433  1.00  0.00    -0.240 NA
ATOM     15  C   UNL A   1      34.681  23.320  23.980  1.00  0.00    -0.034 A 
ATOM     16  C   UNL A   1      35.276  21.277  24.970  1.00  0.00     0.147 A 
ATOM     17  C   UNL A   1      33.794  23.872  22.944  1.00  0.00     0.045 C 
ATOM     18  C   UNL A   1      34.298  22.083  24.427  1.00  0.00     0.078 A 
ATOM     19  S   UNL A   1      34.677  19.685  24.882  1.00  0.00    -0.012 S 
ATOM     20  N   UNL A   1      33.082  20.126  24.568  1.00  0.00    -0.153 NA
ENDBRANCH   9  10
ENDBRANCH   8   9
ENDBRANCH   7   8
ENDBRANCH   6   7
ENDBRANCH   3   6
ENDBRANCH   1   2
BRANCH   1  21
ATOM     21  C   UNL A   1      34.465  30.025  27.448  1.00  0.00     0.042 C 
BRANCH  21  22
ATOM     22  C   UNL A   1      35.859  30.420  27.852  1.00  0.00     0.118 C 
BRANCH  22  23
ATOM     23  N   UNL A   1      36.095  30.429  29.298  1.00  0.00    -0.352 N 
ATOM     24  C   UNL A   1      36.825  29.462  29.986  1.00  0.00     0.251 C 
ATOM     25  H   UNL A   1      35.712  31.170  29.820  1.00  0.00     0.163 HD
ATOM     26  O   UNL A   1      36.595  29.176  31.136  1.00  0.00    -0.269 OA
BRANCH  24  27
ATOM     27  C   UNL A   1      37.881  28.803  29.190  1.00  0.00     0.039 A 
ATOM     28  C   UNL A   1      38.345  29.372  28.009  1.00  0.00     0.014 A 
ATOM     29  C   UNL A   1      38.577  27.784  29.841  1.00  0.00     0.014 A 
ATOM     30  C   UNL A   1      39.595  28.971  27.551  1.00  0.00     0.010 A 
ATOM     31  C   UNL A   1      39.890  27.572  29.505  1.00  0.00     0.010 A 
ATOM     32  C   UNL A   1      40.401  28.118  28.338  1.00  0.00    -0.014 A 
BRANCH  32  33
ATOM     33  C   UNL A   1      41.813  27.900  28.015  1.00  0.00     0.031 A 
ATOM     34  C   UNL A   1      42.068  26.690  27.197  1.00  0.00     0.074 A 
ATOM     35  C   UNL A   1      42.840  28.706  28.367  1.00  0.00     0.049 A 
ATOM     36  N   UNL A   1      42.336  25.525  27.680  1.00  0.00    -0.248 NA
ATOM     37  C   UNL A   1      41.792  26.677  25.754  1.00  0.00     0.031 C 
ATOM     38  C   UNL A   1      42.824  30.028  29.002  1.00  0.00     0.029 A 
ATOM     39  N   UNL A   1      44.174  28.484  28.197  1.00  0.00    -0.354 N 
ATOM     40  C   UNL A   1      42.541  24.688  26.599  1.00  0.00     0.074 A 
ATOM     41  C   UNL A   1      41.989  25.385  25.465  1.00  0.00     0.031 C 
ATOM     42  C   UNL A   1      44.062  30.571  28.978  1.00  0.00     0.029 A 
ATOM     43  C   UNL A   1      44.995  29.570  28.494  1.00  0.00     0.049 A 
ATOM     44  H   UNL A   1      44.532  27.620  27.888  1.00  0.00     0.167 HD
ATOM     45  C   UNL A   1      43.375  23.621  26.727  1.00  0.00     0.034 A 
ATOM     46  C   UNL A   1      46.356  29.632  28.459  1.00  0.00     0.034 A 
ATOM     47  C   UNL A   1      43.659  23.356  28.128  1.00  0.00     0.049 A 
ATOM     48  C   UNL A   1      46.821  28.242  28.698  1.00  0.00     0.074 A 
ATOM     49  C   UNL A   1      42.875  23.095  29.238  1.00  0.00     0.029 A 
ATOM     50  N   UNL A   1      44.873  23.777  28.633  1.00  0.00    -0.354 N 
ATOM     51  N   UNL A   1      46.625  27.619  29.832  1.00  0.00    -0.248 NA
ATOM     52  C   UNL A   1      47.009  27.380  27.541  1.00  0.00     0.031 C 
ATOM     53  C   UNL A   1      43.459  23.869  30.287  1.00  0.00     0.029 A 
ATOM     54  C   UNL A   1      44.618  24.469  29.792  1.00  0.00     0.049 A 
ATOM     55  H   UNL A   1      45.758  23.613  28.234  1.00  0.00     0.167 HD
ATOM     56  C   UNL A   1      46.225  26.340  29.472  1.00  0.00     0.074 A 
ATOM     57  C   UNL A   1      46.549  26.231  28.048  1.00  0.00     0.031 C 
ATOM     58  C   UNL A   1      45.418  25.582  30.273  1.00  0.00     0.034 A 
BRANCH  45  59
ATOM     59  C   UNL A   1      44.259  23.083  25.629  1.00  0.00     0.023 A 
ATOM     60  C   UNL A   1      44.225  21.692  25.419  1.00  0.00     0.031 A 
ATOM     61  C   UNL A   1      45.330  23.774  25.022  1.00  0.00     0.131 A 
ATOM     62  C   UNL A   1      45.282  21.035  24.773  1.00  0.00     0.055 A 
ATOM     63  C   UNL A   1      46.349  23.122  24.323  1.00  0.00     0.041 A 
ATOM     64  F   UNL A   1      45.506  25.094  25.143  1.00  0.00    -0.206 F 
ATOM     65  C   UNL A   1      46.351  21.741  24.230  1.00  0.00     0.022 A 
BRANCH  62  66
ATOM     66  S   UNL A   1      45.310  19.227  24.818  1.00  0.00     0.124 S 
ATOM     67  O   UNL A   1      46.636  18.972  25.369  1.00  0.00    -0.237 OA
ATOM     68  O   UNL A   1      44.180  18.933  25.694  1.00  0.00    -0.237 OA
ATOM     69  O   UNL A   1      45.128  18.852  23.418  1.00  0.00    -0.744 OA
ENDBRANCH  62  66
ENDBRANCH  45  59
BRANCH  46  70
ATOM     70  C   UNL A   1      47.179  30.712  27.826  1.00  0.00     0.023 A 
ATOM     71  C   UNL A   1      46.611  31.795  27.109  1.00  0.00     0.031 A 
ATOM     72  C   UNL A   1      48.559  30.818  28.120  1.00  0.00     0.131 A 
ATOM     73  C   UNL A   1      47.408  32.909  26.736  1.00  0.00     0.055 A 
ATOM     74  C   UNL A   1      49.336  31.920  27.753  1.00  0.00     0.041 A 
ATOM     75  F   UNL A   1      49.192  29.887  28.849  1.00  0.00    -0.206 F 
ATOM     76  C   UNL A   1      48.762  32.977  27.068  1.00  0.00     0.022 A 
BRANCH  73  77
ATOM     77  S   UNL A   1      46.677  34.356  25.893  1.00  0.00     0.124 S 
ATOM     78  O   UNL A   1      47.753  34.772  25.003  1.00  0.00    -0.237 OA
ATOM     79  O   UNL A   1      45.492  33.789  25.258  1.00  0.00    -0.237 OA
ATOM     80  O   UNL A   1      46.395  35.282  26.991  1.00  0.00    -0.744 OA
ENDBRANCH  73  77
ENDBRANCH  46  70
BRANCH  58  81
ATOM     81  C   UNL A   1      45.183  26.002  31.712  1.00  0.00     0.023 A 
ATOM     82  C   UNL A   1      44.035  26.671  32.196  1.00  0.00     0.031 A 
ATOM     83  C   UNL A   1      46.113  25.533  32.658  1.00  0.00     0.131 A 
ATOM     84  C   UNL A   1      43.854  26.835  33.589  1.00  0.00     0.055 A 
ATOM     85  C   UNL A   1      45.920  25.678  34.030  1.00  0.00     0.041 A 
ATOM     86  F   UNL A   1      47.211  24.868  32.259  1.00  0.00    -0.206 F 
ATOM     87  C   UNL A   1      44.788  26.330  34.501  1.00  0.00     0.022 A 
BRANCH  84  88
ATOM     88  S   UNL A   1      42.379  27.684  34.247  1.00  0.00     0.124 S 
ATOM     89  O   UNL A   1      42.929  28.900  34.837  1.00  0.00    -0.237 OA
ATOM     90  O   UNL A   1      41.553  27.868  33.057  1.00  0.00    -0.237 OA
ATOM     91  O   UNL A   1      41.838  26.730  35.218  1.00  0.00    -0.744 OA
ENDBRANCH  84  88
ENDBRANCH  58  81
ENDBRANCH  32  33
ENDBRANCH  24  27
ENDBRANCH  22  23
ENDBRANCH  21  22
ENDBRANCH   1  21
TORSDOF 17
ENDMDL
MODEL 3
REMARK VINA RESULT:     -11.8      1.686      2.221
REMARK SMILES Cc1cc(C)c2c(OCCCC(=O)NCCCNC(=O)c3ccc(-c4c5nc(c(-c6cc(S(=O)(=O)[O-])ccc6F)c6ccc([nH]6)c(-c6cc(S(=O)(=O)[O-])ccc6F)c6nc(c(-c7cc(S(=O)(=O)[O-])ccc7F)c7ccc4[nH]7)C=C6)C=C5)cc3)nsc2n1
REMARK SMILES IDX 15 1 14 2 12 3 13 4 11 6 10 7 9 8 8 9 7 10 1 11 2 12 3 13
REMARK SMILES IDX 87 14 4 15 86 16 5 17 6 18 85 19 84 20 16 21 17 22 18 23
REMARK SMILES IDX 19 24 20 26 21 27 22 28 83 29 23 30 82 31 24 32 25 33 26 34
REMARK SMILES IDX 76 35 27 36 81 37 75 38 77 39 28 40 80 41 74 42 73 43 29 45
REMARK SMILES IDX 61 46 41 47 60 48 42 49 45 50 59 51 78 52 43 53 44 54 58 56
REMARK SMILES IDX 79 57 46 58 30 59 31 60 39 61 32 62 38 63 40 64 37 65 33 66
REMARK SMILES IDX 34 67 35 68 36 69 62 70 63 71 71 72 64 73 70 74 72 75 69 76
REMARK SMILES IDX 65 77 66 78 67 79 68 80 47 81 48 82 56 83 49 84 55 85 57 86
REMARK SMILES IDX 54 87 50 88 51 89 52 90 53 91
REMARK H PARENT 14 5 18 25 77 44 45 55
REMARK Flexibility Score: inf
ROOT
ATOM      1  C   UNL A   1      34.228  28.717  26.385  1.00  0.00     0.117 C 
ENDROOT
BRANCH   1   2
ATOM      2  N   UNL A   1      32.870  27.895  26.509  1.00  0.00    -0.356 N 
ATOM      3  C   UNL A   1      32.176  26.700  26.449  1.00  0.00     0.220 C 
ATOM      4  O   UNL A   1      31.006  26.904  26.855  1.00  0.00    -0.275 OA
ATOM      5  H   UNL A   1      32.191  28.568  26.744  1.00  0.00     0.163 HD
BRANCH   3   6
ATOM      6  C   UNL A   1      32.485  25.055  26.196  1.00  0.00     0.103 C 
BRANCH   6   7
ATOM      7  C   UNL A   1      32.173  23.529  26.761  1.00  0.00     0.051 C 
BRANCH   7   8
ATOM      8  C   UNL A   1      31.160  22.324  26.360  1.00  0.00     0.232 C 
BRANCH   8   9
ATOM      9  O   UNL A   1      31.211  21.499  25.175  1.00  0.00    -0.477 OA
BRANCH   9  10
ATOM     10  C   UNL A   1      32.278  20.733  24.814  1.00  0.00     0.235 A 
ATOM     11  C   UNL A   1      37.601  22.026  25.188  1.00  0.00     0.067 C 
ATOM     12  C   UNL A   1      36.221  21.621  24.736  1.00  0.00     0.039 A 
ATOM     13  C   UNL A   1      35.401  22.565  24.124  1.00  0.00     0.027 A 
ATOM     14  N   UNL A   1      35.834  20.338  24.935  1.00  0.00    -0.240 NA
ATOM     15  C   UNL A   1      34.052  22.269  23.856  1.00  0.00    -0.034 A 
ATOM     16  C   UNL A   1      34.504  20.161  24.784  1.00  0.00     0.147 A 
ATOM     17  C   UNL A   1      33.053  22.962  23.027  1.00  0.00     0.045 C 
ATOM     18  C   UNL A   1      33.579  21.125  24.442  1.00  0.00     0.078 A 
ATOM     19  S   UNL A   1      33.636  18.702  24.918  1.00  0.00    -0.012 S 
ATOM     20  N   UNL A   1      32.112  19.419  24.960  1.00  0.00    -0.153 NA
ENDBRANCH   9  10
ENDBRANCH   8   9
ENDBRANCH   7   8
ENDBRANCH   6   7
ENDBRANCH   3   6
ENDBRANCH   1   2
BRANCH   1  21
ATOM     21  C   UNL A   1      34.527  29.740  27.545  1.00  0.00     0.042 C 
BRANCH  21  22
ATOM     22  C   UNL A   1      35.922  30.183  27.887  1.00  0.00     0.118 C 
BRANCH  22  23
ATOM     23  N   UNL A   1      36.199  30.272  29.324  1.00  0.00    -0.352 N 
ATOM     24  C   UNL A   1      37.007  29.384  30.029  1.00  0.00     0.251 C 
ATOM     25  H   UNL A   1      35.785  31.011  29.825  1.00  0.00     0.163 HD
ATOM     26  O   UNL A   1      36.829  29.137  31.197  1.00  0.00    -0.269 OA
BRANCH  24  27
ATOM     27  C   UNL A   1      38.079  28.755  29.230  1.00  0.00     0.039 A 
ATOM     28  C   UNL A   1      38.715  29.457  28.212  1.00  0.00     0.014 A 
ATOM     29  C   UNL A   1      38.608  27.576  29.755  1.00  0.00     0.014 A 
ATOM     30  C   UNL A   1      39.967  29.006  27.806  1.00  0.00     0.010 A 
ATOM     31  C   UNL A   1      39.925  27.284  29.508  1.00  0.00     0.010 A 
ATOM     32  C   UNL A   1      40.605  27.955  28.504  1.00  0.00    -0.014 A 
BRANCH  32  33
ATOM     33  C   UNL A   1      42.017  27.644  28.276  1.00  0.00     0.031 A 
ATOM     34  C   UNL A   1      42.248  26.513  27.346  1.00  0.00     0.074 A 
ATOM     35  C   UNL A   1      43.070  28.309  28.806  1.00  0.00     0.049 A 
ATOM     36  N   UNL A   1      42.373  25.283  27.710  1.00  0.00    -0.248 NA
ATOM     37  C   UNL A   1      42.108  26.684  25.894  1.00  0.00     0.031 C 
ATOM     38  C   UNL A   1      43.103  29.549  29.588  1.00  0.00     0.029 A 
ATOM     39  N   UNL A   1      44.392  27.984  28.723  1.00  0.00    -0.354 N 
ATOM     40  C   UNL A   1      42.608  24.554  26.559  1.00  0.00     0.074 A 
ATOM     41  C   UNL A   1      42.225  25.419  25.473  1.00  0.00     0.031 C 
ATOM     42  C   UNL A   1      44.379  29.974  29.732  1.00  0.00     0.029 A 
ATOM     43  C   UNL A   1      45.267  28.950  29.214  1.00  0.00     0.049 A 
ATOM     44  H   UNL A   1      44.705  27.130  28.346  1.00  0.00     0.167 HD
ATOM     45  C   UNL A   1      43.337  23.407  26.630  1.00  0.00     0.034 A 
ATOM     46  C   UNL A   1      46.626  28.889  29.300  1.00  0.00     0.034 A 
ATOM     47  C   UNL A   1      43.465  22.965  28.009  1.00  0.00     0.049 A 
ATOM     48  C   UNL A   1      46.951  27.444  29.412  1.00  0.00     0.074 A 
ATOM     49  C   UNL A   1      42.562  22.656  29.011  1.00  0.00     0.029 A 
ATOM     50  N   UNL A   1      44.657  23.213  28.659  1.00  0.00    -0.354 N 
ATOM     51  N   UNL A   1      46.598  26.722  30.445  1.00  0.00    -0.248 NA
ATOM     52  C   UNL A   1      47.175  26.701  28.182  1.00  0.00     0.031 C 
ATOM     53  C   UNL A   1      43.106  23.254  30.188  1.00  0.00     0.029 A 
ATOM     54  C   UNL A   1      44.352  23.795  29.867  1.00  0.00     0.049 A 
ATOM     55  H   UNL A   1      45.559  23.013  28.320  1.00  0.00     0.167 HD
ATOM     56  C   UNL A   1      46.130  25.532  29.905  1.00  0.00     0.074 A 
ATOM     57  C   UNL A   1      46.577  25.551  28.510  1.00  0.00     0.031 C 
ATOM     58  C   UNL A   1      45.192  24.769  30.540  1.00  0.00     0.034 A 
BRANCH  45  59
ATOM     59  C   UNL A   1      44.272  22.913  25.554  1.00  0.00     0.023 A 
ATOM     60  C   UNL A   1      44.298  21.524  25.333  1.00  0.00     0.031 A 
ATOM     61  C   UNL A   1      45.332  23.650  24.984  1.00  0.00     0.131 A 
ATOM     62  C   UNL A   1      45.399  20.914  24.713  1.00  0.00     0.055 A 
ATOM     63  C   UNL A   1      46.396  23.044  24.310  1.00  0.00     0.041 A 
ATOM     64  F   UNL A   1      45.452  24.975  25.120  1.00  0.00    -0.206 F 
ATOM     65  C   UNL A   1      46.455  21.665  24.206  1.00  0.00     0.022 A 
BRANCH  62  66
ATOM     66  S   UNL A   1      45.496  19.108  24.745  1.00  0.00     0.124 S 
ATOM     67  O   UNL A   1      46.641  18.896  25.624  1.00  0.00    -0.237 OA
ATOM     68  O   UNL A   1      44.191  18.748  25.289  1.00  0.00    -0.237 OA
ATOM     69  O   UNL A   1      45.707  18.756  23.344  1.00  0.00    -0.744 OA
ENDBRANCH  62  66
ENDBRANCH  45  59
BRANCH  46  70
ATOM     70  C   UNL A   1      47.591  29.952  28.870  1.00  0.00     0.023 A 
ATOM     71  C   UNL A   1      48.455  30.621  29.772  1.00  0.00     0.031 A 
ATOM     72  C   UNL A   1      47.844  30.166  27.494  1.00  0.00     0.131 A 
ATOM     73  C   UNL A   1      49.509  31.440  29.288  1.00  0.00     0.055 A 
ATOM     74  C   UNL A   1      48.885  30.971  27.025  1.00  0.00     0.041 A 
ATOM     75  F   UNL A   1      47.134  29.537  26.546  1.00  0.00    -0.206 F 
ATOM     76  C   UNL A   1      49.730  31.604  27.920  1.00  0.00     0.022 A 
BRANCH  73  77
ATOM     77  S   UNL A   1      50.690  32.237  30.432  1.00  0.00     0.124 S 
ATOM     78  O   UNL A   1      51.965  31.680  29.997  1.00  0.00    -0.237 OA
ATOM     79  O   UNL A   1      50.479  33.657  30.169  1.00  0.00    -0.237 OA
ATOM     80  O   UNL A   1      50.241  31.788  31.751  1.00  0.00    -0.744 OA
ENDBRANCH  73  77
ENDBRANCH  46  70
BRANCH  58  81
ATOM     81  C   UNL A   1      44.859  25.049  31.994  1.00  0.00     0.023 A 
ATOM     82  C   UNL A   1      45.515  24.483  33.111  1.00  0.00     0.031 A 
ATOM     83  C   UNL A   1      43.935  26.083  32.234  1.00  0.00     0.131 A 
ATOM     84  C   UNL A   1      45.237  24.970  34.409  1.00  0.00     0.055 A 
ATOM     85  C   UNL A   1      43.681  26.575  33.512  1.00  0.00     0.041 A 
ATOM     86  F   UNL A   1      43.299  26.677  31.210  1.00  0.00    -0.206 F 
ATOM     87  C   UNL A   1      44.332  26.020  34.606  1.00  0.00     0.022 A 
BRANCH  84  88
ATOM     88  S   UNL A   1      46.074  24.268  35.871  1.00  0.00     0.124 S 
ATOM     89  O   UNL A   1      46.873  23.184  35.310  1.00  0.00    -0.237 OA
ATOM     90  O   UNL A   1      46.821  25.408  36.396  1.00  0.00    -0.237 OA
ATOM     91  O   UNL A   1      44.967  23.827  36.722  1.00  0.00    -0.744 OA
ENDBRANCH  84  88
ENDBRANCH  58  81
ENDBRANCH  32  33
ENDBRANCH  24  27
ENDBRANCH  22  23
ENDBRANCH  21  22
ENDBRANCH   1  21
TORSDOF 17
ENDMDL
