MODEL 1
REMARK VINA RESULT:     -10.4      0.000      0.000
REMARK SMILES CC[N@@H+](C[C@@H](C)C(=O)NCCCNC(=O)c1ccc(-c2c3nc(c(-c4cc(S(=O)(=O)[O-])ccc4F)c4ccc([nH]4)c(-c4cc(S(=O)(=O)[O-])ccc4F)c4nc(c(-c5cc(S(=O)(=O)[O-])ccc5F)c5ccc2[nH]5)C=C4)C=C3)cc1)[C@@H](C)c1ccoc1
REMARK SMILES IDX 10 1 9 2 7 3 8 4 5 6 6 7 4 8 3 9 2 11 1 12 79 13 80 14 81 15
REMARK SMILES IDX 82 16 85 17 83 18 84 19 11 20 12 21 13 22 14 23 15 25 16 26
REMARK SMILES IDX 17 27 78 28 18 29 77 30 19 31 20 32 21 33 71 34 22 35 76 36
REMARK SMILES IDX 70 37 72 38 23 39 75 40 69 41 68 42 24 44 56 45 36 46 55 47
REMARK SMILES IDX 37 48 40 49 54 50 73 51 38 52 39 53 53 55 74 56 41 57 25 58
REMARK SMILES IDX 26 59 34 60 27 61 33 62 35 63 32 64 28 65 29 66 30 67 31 68
REMARK SMILES IDX 57 69 58 70 66 71 59 72 65 73 67 74 64 75 60 76 61 77 62 78
REMARK SMILES IDX 63 79 42 80 43 81 51 82 44 83 50 84 52 85 49 86 45 87 46 88
REMARK SMILES IDX 47 89 48 90
REMARK H PARENT 9 5 3 10 13 24 72 43 40 54
REMARK Flexibility Score: inf
ROOT
ATOM      1  C   UNL A   1      31.986  27.760  27.041  1.00  0.00     0.117 C 
ENDROOT
BRANCH   1   2
ATOM      2  N   UNL A   1      30.915  26.826  26.733  1.00  0.00    -0.356 N 
ATOM      3  C   UNL A   1      30.395  26.460  25.531  1.00  0.00     0.228 C 
ATOM      4  O   UNL A   1      29.475  25.640  25.520  1.00  0.00    -0.275 OA
ATOM      5  H   UNL A   1      30.503  26.393  27.515  1.00  0.00     0.163 HD
BRANCH   3   6
ATOM      6  C   UNL A   1      30.970  27.013  24.236  1.00  0.00     0.130 C 
ATOM      7  C   UNL A   1      30.116  28.212  23.795  1.00  0.00     0.024 C 
BRANCH   6   8
ATOM      8  C   UNL A   1      31.214  25.877  23.202  1.00  0.00     0.275 C 
BRANCH   8   9
ATOM      9  N   UNL A   1      32.570  25.272  23.087  1.00  0.00    -0.328 N 
ATOM     10  H   UNL A   1      33.156  25.583  23.862  1.00  0.00     0.348 HD
BRANCH   9  11
ATOM     11  C   UNL A   1      33.268  25.792  21.903  1.00  0.00     0.259 C 
ATOM     12  C   UNL A   1      32.546  25.593  20.578  1.00  0.00     0.071 C 
ENDBRANCH   9  11
BRANCH   9  13
ATOM     13  C   UNL A   1      32.583  23.817  23.328  1.00  0.00     0.215 C 
ATOM     14  C   UNL A   1      33.773  23.047  22.737  1.00  0.00     0.081 C 
BRANCH  13  15
ATOM     15  C   UNL A   1      32.369  23.487  24.789  1.00  0.00     0.047 A 
ATOM     16  C   UNL A   1      33.110  23.990  25.906  1.00  0.00     0.052 A 
ATOM     17  C   UNL A   1      31.353  22.740  25.362  1.00  0.00     0.204 A 
ATOM     18  C   UNL A   1      32.482  23.533  27.041  1.00  0.00     0.195 A 
ATOM     19  O   UNL A   1      31.415  22.765  26.714  1.00  0.00    -0.472 OA
ENDBRANCH  13  15
ENDBRANCH   9  13
ENDBRANCH   8   9
ENDBRANCH   6   8
ENDBRANCH   3   6
ENDBRANCH   1   2
BRANCH   1  20
ATOM     20  C   UNL A   1      31.515  29.195  26.921  1.00  0.00     0.042 C 
BRANCH  20  21
ATOM     21  C   UNL A   1      32.513  30.060  26.171  1.00  0.00     0.118 C 
BRANCH  21  22
ATOM     22  N   UNL A   1      32.296  31.482  26.420  1.00  0.00    -0.352 N 
ATOM     23  C   UNL A   1      32.978  32.331  27.261  1.00  0.00     0.251 C 
ATOM     24  H   UNL A   1      31.556  31.892  25.915  1.00  0.00     0.163 HD
ATOM     25  O   UNL A   1      32.506  33.419  27.550  1.00  0.00    -0.269 OA
BRANCH  23  26
ATOM     26  C   UNL A   1      34.272  31.884  27.812  1.00  0.00     0.039 A 
ATOM     27  C   UNL A   1      35.306  32.805  27.976  1.00  0.00     0.014 A 
ATOM     28  C   UNL A   1      34.429  30.555  28.214  1.00  0.00     0.014 A 
ATOM     29  C   UNL A   1      36.477  32.405  28.619  1.00  0.00     0.010 A 
ATOM     30  C   UNL A   1      35.543  30.193  28.953  1.00  0.00     0.010 A 
ATOM     31  C   UNL A   1      36.584  31.110  29.153  1.00  0.00    -0.014 A 
BRANCH  31  32
ATOM     32  C   UNL A   1      37.782  30.676  29.911  1.00  0.00     0.031 A 
ATOM     33  C   UNL A   1      38.777  29.755  29.263  1.00  0.00     0.074 A 
ATOM     34  C   UNL A   1      37.927  31.044  31.198  1.00  0.00     0.049 A 
ATOM     35  N   UNL A   1      39.838  29.187  29.776  1.00  0.00    -0.248 NA
ATOM     36  C   UNL A   1      38.517  29.391  27.862  1.00  0.00     0.031 C 
ATOM     37  C   UNL A   1      37.003  31.901  31.943  1.00  0.00     0.029 A 
ATOM     38  N   UNL A   1      38.906  30.744  32.108  1.00  0.00    -0.354 N 
ATOM     39  C   UNL A   1      40.364  28.391  28.764  1.00  0.00     0.074 A 
ATOM     40  C   UNL A   1      39.449  28.479  27.645  1.00  0.00     0.031 C 
ATOM     41  C   UNL A   1      37.485  32.097  33.180  1.00  0.00     0.029 A 
ATOM     42  C   UNL A   1      38.720  31.336  33.336  1.00  0.00     0.049 A 
ATOM     43  H   UNL A   1      39.671  30.158  31.904  1.00  0.00     0.167 HD
ATOM     44  C   UNL A   1      41.520  27.682  28.754  1.00  0.00     0.034 A 
ATOM     45  C   UNL A   1      39.461  31.269  34.458  1.00  0.00     0.034 A 
ATOM     46  C   UNL A   1      42.414  27.610  29.883  1.00  0.00     0.049 A 
ATOM     47  C   UNL A   1      40.709  30.423  34.450  1.00  0.00     0.074 A 
ATOM     48  C   UNL A   1      43.633  26.963  29.981  1.00  0.00     0.029 A 
ATOM     49  N   UNL A   1      42.177  28.197  31.122  1.00  0.00    -0.354 N 
ATOM     50  N   UNL A   1      41.224  29.715  33.471  1.00  0.00    -0.248 NA
ATOM     51  C   UNL A   1      41.476  30.371  35.701  1.00  0.00     0.031 C 
ATOM     52  C   UNL A   1      44.092  27.092  31.296  1.00  0.00     0.029 A 
ATOM     53  C   UNL A   1      43.206  27.893  31.999  1.00  0.00     0.049 A 
ATOM     54  H   UNL A   1      41.391  28.748  31.343  1.00  0.00     0.167 HD
ATOM     55  C   UNL A   1      42.396  29.162  33.979  1.00  0.00     0.074 A 
ATOM     56  C   UNL A   1      42.513  29.627  35.347  1.00  0.00     0.031 C 
ATOM     57  C   UNL A   1      43.298  28.350  33.368  1.00  0.00     0.034 A 
BRANCH  44  58
ATOM     58  C   UNL A   1      41.845  26.917  27.490  1.00  0.00     0.023 A 
ATOM     59  C   UNL A   1      41.561  25.544  27.368  1.00  0.00     0.031 A 
ATOM     60  C   UNL A   1      42.516  27.542  26.426  1.00  0.00     0.131 A 
ATOM     61  C   UNL A   1      42.050  24.820  26.270  1.00  0.00     0.055 A 
ATOM     62  C   UNL A   1      42.908  26.837  25.285  1.00  0.00     0.041 A 
ATOM     63  F   UNL A   1      42.836  28.845  26.487  1.00  0.00    -0.206 F 
ATOM     64  C   UNL A   1      42.697  25.462  25.213  1.00  0.00     0.022 A 
BRANCH  61  65
ATOM     65  S   UNL A   1      42.013  23.008  26.350  1.00  0.00     0.124 S 
ATOM     66  O   UNL A   1      40.586  22.749  26.532  1.00  0.00    -0.237 OA
ATOM     67  O   UNL A   1      42.573  22.625  25.060  1.00  0.00    -0.237 OA
ATOM     68  O   UNL A   1      42.846  22.699  27.511  1.00  0.00    -0.744 OA
ENDBRANCH  61  65
ENDBRANCH  44  58
BRANCH  45  69
ATOM     69  C   UNL A   1      39.061  32.032  35.673  1.00  0.00     0.023 A 
ATOM     70  C   UNL A   1      38.345  31.407  36.705  1.00  0.00     0.031 A 
ATOM     71  C   UNL A   1      39.369  33.397  35.815  1.00  0.00     0.131 A 
ATOM     72  C   UNL A   1      37.926  32.152  37.817  1.00  0.00     0.055 A 
ATOM     73  C   UNL A   1      38.993  34.122  36.947  1.00  0.00     0.041 A 
ATOM     74  F   UNL A   1      40.057  34.041  34.860  1.00  0.00    -0.206 F 
ATOM     75  C   UNL A   1      38.258  33.501  37.953  1.00  0.00     0.022 A 
BRANCH  72  76
ATOM     76  S   UNL A   1      36.879  31.342  39.057  1.00  0.00     0.124 S 
ATOM     77  O   UNL A   1      35.717  32.223  39.083  1.00  0.00    -0.237 OA
ATOM     78  O   UNL A   1      36.674  30.024  38.467  1.00  0.00    -0.237 OA
ATOM     79  O   UNL A   1      37.705  31.361  40.263  1.00  0.00    -0.744 OA
ENDBRANCH  72  76
ENDBRANCH  45  69
BRANCH  57  80
ATOM     80  C   UNL A   1      44.513  27.952  34.169  1.00  0.00     0.023 A 
ATOM     81  C   UNL A   1      44.562  26.749  34.895  1.00  0.00     0.031 A 
ATOM     82  C   UNL A   1      45.637  28.796  34.213  1.00  0.00     0.131 A 
ATOM     83  C   UNL A   1      45.689  26.449  35.674  1.00  0.00     0.055 A 
ATOM     84  C   UNL A   1      46.782  28.461  34.936  1.00  0.00     0.041 A 
ATOM     85  F   UNL A   1      45.645  29.961  33.543  1.00  0.00    -0.206 F 
ATOM     86  C   UNL A   1      46.807  27.288  35.684  1.00  0.00     0.022 A 
BRANCH  83  87
ATOM     87  S   UNL A   1      45.639  24.992  36.753  1.00  0.00     0.124 S 
ATOM     88  O   UNL A   1      44.433  24.313  36.288  1.00  0.00    -0.237 OA
ATOM     89  O   UNL A   1      46.902  24.330  36.444  1.00  0.00    -0.237 OA
ATOM     90  O   UNL A   1      45.550  25.562  38.096  1.00  0.00    -0.744 OA
ENDBRANCH  83  87
ENDBRANCH  57  80
ENDBRANCH  31  32
ENDBRANCH  23  26
ENDBRANCH  21  22
ENDBRANCH  20  21
ENDBRANCH   1  20
TORSDOF 18
ENDMDL
MODEL 2
REMARK VINA RESULT:     -10.4      5.091      7.706
REMARK SMILES CC[N@@H+](C[C@@H](C)C(=O)NCCCNC(=O)c1ccc(-c2c3nc(c(-c4cc(S(=O)(=O)[O-])ccc4F)c4ccc([nH]4)c(-c4cc(S(=O)(=O)[O-])ccc4F)c4nc(c(-c5cc(S(=O)(=O)[O-])ccc5F)c5ccc2[nH]5)C=C4)C=C3)cc1)[C@@H](C)c1ccoc1
REMARK SMILES IDX 10 1 9 2 7 3 8 4 5 6 6 7 4 8 3 9 2 11 1 12 79 13 80 14 81 15
REMARK SMILES IDX 82 16 85 17 83 18 84 19 11 20 12 21 13 22 14 23 15 25 16 26
REMARK SMILES IDX 17 27 78 28 18 29 77 30 19 31 20 32 21 33 71 34 22 35 76 36
REMARK SMILES IDX 70 37 72 38 23 39 75 40 69 41 68 42 24 44 56 45 36 46 55 47
REMARK SMILES IDX 37 48 40 49 54 50 73 51 38 52 39 53 53 55 74 56 41 57 25 58
REMARK SMILES IDX 26 59 34 60 27 61 33 62 35 63 32 64 28 65 29 66 30 67 31 68
REMARK SMILES IDX 57 69 58 70 66 71 59 72 65 73 67 74 64 75 60 76 61 77 62 78
REMARK SMILES IDX 63 79 42 80 43 81 51 82 44 83 50 84 52 85 49 86 45 87 46 88
REMARK SMILES IDX 47 89 48 90
REMARK H PARENT 9 5 3 10 13 24 72 43 40 54
REMARK Flexibility Score: inf
ROOT
ATOM      1  C   UNL A   1      34.620  21.786  25.160  1.00  0.00     0.117 C 
ENDROOT
BRANCH   1   2
ATOM      2  N   UNL A   1      34.646  22.411  23.848  1.00  0.00    -0.356 N 
ATOM      3  C   UNL A   1      33.786  23.304  23.289  1.00  0.00     0.228 C 
ATOM      4  O   UNL A   1      34.017  23.696  22.144  1.00  0.00    -0.275 OA
ATOM      5  H   UNL A   1      35.402  22.148  23.277  1.00  0.00     0.163 HD
BRANCH   3   6
ATOM      6  C   UNL A   1      32.599  23.838  24.077  1.00  0.00     0.130 C 
ATOM      7  C   UNL A   1      31.311  23.250  23.478  1.00  0.00     0.024 C 
BRANCH   6   8
ATOM      8  C   UNL A   1      32.685  25.381  24.242  1.00  0.00     0.275 C 
BRANCH   8   9
ATOM      9  N   UNL A   1      31.662  26.245  23.590  1.00  0.00    -0.328 N 
ATOM     10  H   UNL A   1      30.883  25.674  23.263  1.00  0.00     0.348 HD
BRANCH   9  11
ATOM     11  C   UNL A   1      32.197  26.832  22.354  1.00  0.00     0.259 C 
ATOM     12  C   UNL A   1      33.629  27.341  22.435  1.00  0.00     0.071 C 
ENDBRANCH   9  11
BRANCH   9  13
ATOM     13  C   UNL A   1      30.951  27.125  24.536  1.00  0.00     0.215 C 
ATOM     14  C   UNL A   1      31.790  27.687  25.693  1.00  0.00     0.081 C 
BRANCH  13  15
ATOM     15  C   UNL A   1      30.178  28.211  23.821  1.00  0.00     0.047 A 
ATOM     16  C   UNL A   1      28.963  28.062  23.080  1.00  0.00     0.052 A 
ATOM     17  C   UNL A   1      30.405  29.577  23.833  1.00  0.00     0.204 A 
ATOM     18  C   UNL A   1      28.550  29.326  22.729  1.00  0.00     0.195 A 
ATOM     19  O   UNL A   1      29.430  30.252  23.179  1.00  0.00    -0.472 OA
ENDBRANCH  13  15
ENDBRANCH   9  13
ENDBRANCH   8   9
ENDBRANCH   6   8
ENDBRANCH   3   6
ENDBRANCH   1   2
BRANCH   1  20
ATOM     20  C   UNL A   1      35.763  22.277  26.025  1.00  0.00     0.042 C 
BRANCH  20  21
ATOM     21  C   UNL A   1      37.059  22.396  25.241  1.00  0.00     0.118 C 
BRANCH  21  22
ATOM     22  N   UNL A   1      38.016  21.358  25.608  1.00  0.00    -0.352 N 
ATOM     23  C   UNL A   1      39.273  21.487  26.151  1.00  0.00     0.251 C 
ATOM     24  H   UNL A   1      37.720  20.433  25.444  1.00  0.00     0.163 HD
ATOM     25  O   UNL A   1      40.043  20.540  26.152  1.00  0.00    -0.269 OA
BRANCH  23  26
ATOM     26  C   UNL A   1      39.667  22.796  26.706  1.00  0.00     0.039 A 
ATOM     27  C   UNL A   1      40.624  22.854  27.719  1.00  0.00     0.014 A 
ATOM     28  C   UNL A   1      39.117  23.966  26.175  1.00  0.00     0.014 A 
ATOM     29  C   UNL A   1      41.087  24.099  28.146  1.00  0.00     0.010 A 
ATOM     30  C   UNL A   1      39.661  25.192  26.519  1.00  0.00     0.010 A 
ATOM     31  C   UNL A   1      40.643  25.274  27.515  1.00  0.00    -0.014 A 
BRANCH  31  32
ATOM     32  C   UNL A   1      41.172  26.607  27.889  1.00  0.00     0.031 A 
ATOM     33  C   UNL A   1      42.606  26.947  27.592  1.00  0.00     0.074 A 
ATOM     34  C   UNL A   1      40.389  27.471  28.562  1.00  0.00     0.049 A 
ATOM     35  N   UNL A   1      43.290  28.015  27.914  1.00  0.00    -0.248 NA
ATOM     36  C   UNL A   1      43.385  25.927  26.874  1.00  0.00     0.031 C 
ATOM     37  C   UNL A   1      38.995  27.233  28.940  1.00  0.00     0.029 A 
ATOM     38  N   UNL A   1      40.654  28.725  29.047  1.00  0.00    -0.354 N 
ATOM     39  C   UNL A   1      44.580  27.789  27.448  1.00  0.00     0.074 A 
ATOM     40  C   UNL A   1      44.601  26.445  26.910  1.00  0.00     0.031 C 
ATOM     41  C   UNL A   1      38.514  28.324  29.555  1.00  0.00     0.029 A 
ATOM     42  C   UNL A   1      39.577  29.317  29.666  1.00  0.00     0.049 A 
ATOM     43  H   UNL A   1      41.533  29.162  28.963  1.00  0.00     0.167 HD
ATOM     44  C   UNL A   1      45.640  28.635  27.437  1.00  0.00     0.034 A 
ATOM     45  C   UNL A   1      39.465  30.522  30.257  1.00  0.00     0.034 A 
ATOM     46  C   UNL A   1      45.592  29.970  27.980  1.00  0.00     0.049 A 
ATOM     47  C   UNL A   1      40.672  31.424  30.293  1.00  0.00     0.074 A 
ATOM     48  C   UNL A   1      46.583  30.936  27.988  1.00  0.00     0.029 A 
ATOM     49  N   UNL A   1      44.494  30.524  28.628  1.00  0.00    -0.354 N 
ATOM     50  N   UNL A   1      41.874  31.221  29.803  1.00  0.00    -0.248 NA
ATOM     51  C   UNL A   1      40.503  32.721  30.959  1.00  0.00     0.031 C 
ATOM     52  C   UNL A   1      46.112  32.039  28.707  1.00  0.00     0.029 A 
ATOM     53  C   UNL A   1      44.797  31.802  29.074  1.00  0.00     0.049 A 
ATOM     54  H   UNL A   1      43.627  30.075  28.752  1.00  0.00     0.167 HD
ATOM     55  C   UNL A   1      42.595  32.381  30.073  1.00  0.00     0.074 A 
ATOM     56  C   UNL A   1      41.687  33.280  30.760  1.00  0.00     0.031 C 
ATOM     57  C   UNL A   1      43.885  32.679  29.774  1.00  0.00     0.034 A 
BRANCH  44  58
ATOM     58  C   UNL A   1      46.928  28.113  26.841  1.00  0.00     0.023 A 
ATOM     59  C   UNL A   1      47.205  28.232  25.467  1.00  0.00     0.031 A 
ATOM     60  C   UNL A   1      47.856  27.417  27.636  1.00  0.00     0.131 A 
ATOM     61  C   UNL A   1      48.308  27.566  24.911  1.00  0.00     0.055 A 
ATOM     62  C   UNL A   1      49.010  26.847  27.093  1.00  0.00     0.041 A 
ATOM     63  F   UNL A   1      47.643  27.249  28.951  1.00  0.00    -0.206 F 
ATOM     64  C   UNL A   1      49.229  26.898  25.719  1.00  0.00     0.022 A 
BRANCH  61  65
ATOM     65  S   UNL A   1      48.399  27.412  23.106  1.00  0.00     0.124 S 
ATOM     66  O   UNL A   1      47.222  28.168  22.685  1.00  0.00    -0.237 OA
ATOM     67  O   UNL A   1      49.690  28.018  22.803  1.00  0.00    -0.237 OA
ATOM     68  O   UNL A   1      48.316  25.970  22.881  1.00  0.00    -0.744 OA
ENDBRANCH  61  65
ENDBRANCH  44  58
BRANCH  45  69
ATOM     69  C   UNL A   1      38.166  30.955  30.843  1.00  0.00     0.023 A 
ATOM     70  C   UNL A   1      37.217  31.624  30.057  1.00  0.00     0.031 A 
ATOM     71  C   UNL A   1      37.860  30.726  32.197  1.00  0.00     0.131 A 
ATOM     72  C   UNL A   1      36.022  32.076  30.636  1.00  0.00     0.055 A 
ATOM     73  C   UNL A   1      36.647  31.132  32.756  1.00  0.00     0.041 A 
ATOM     74  F   UNL A   1      38.731  30.083  32.990  1.00  0.00    -0.206 F 
ATOM     75  C   UNL A   1      35.723  31.822  31.976  1.00  0.00     0.022 A 
BRANCH  72  76
ATOM     76  S   UNL A   1      34.887  33.064  29.622  1.00  0.00     0.124 S 
ATOM     77  O   UNL A   1      34.033  33.669  30.638  1.00  0.00    -0.237 OA
ATOM     78  O   UNL A   1      35.804  33.966  28.932  1.00  0.00    -0.237 OA
ATOM     79  O   UNL A   1      34.238  32.068  28.771  1.00  0.00    -0.744 OA
ENDBRANCH  72  76
ENDBRANCH  45  69
BRANCH  57  80
ATOM     80  C   UNL A   1      44.375  34.056  30.152  1.00  0.00     0.023 A 
ATOM     81  C   UNL A   1      44.215  35.161  29.297  1.00  0.00     0.031 A 
ATOM     82  C   UNL A   1      45.019  34.262  31.385  1.00  0.00     0.131 A 
ATOM     83  C   UNL A   1      44.740  36.409  29.664  1.00  0.00     0.055 A 
ATOM     84  C   UNL A   1      45.480  35.520  31.773  1.00  0.00     0.041 A 
ATOM     85  F   UNL A   1      45.204  33.242  32.239  1.00  0.00    -0.206 F 
ATOM     86  C   UNL A   1      45.354  36.600  30.904  1.00  0.00     0.022 A 
BRANCH  83  87
ATOM     87  S   UNL A   1      44.694  37.761  28.456  1.00  0.00     0.124 S 
ATOM     88  O   UNL A   1      43.365  37.603  27.874  1.00  0.00    -0.237 OA
ATOM     89  O   UNL A   1      44.886  38.938  29.297  1.00  0.00    -0.237 OA
ATOM     90  O   UNL A   1      45.805  37.455  27.556  1.00  0.00    -0.744 OA
ENDBRANCH  83  87
ENDBRANCH  57  80
ENDBRANCH  31  32
ENDBRANCH  23  26
ENDBRANCH  21  22
ENDBRANCH  20  21
ENDBRANCH   1  20
TORSDOF 18
ENDMDL
MODEL 3
REMARK VINA RESULT:     -10.4      2.779      8.369
REMARK SMILES CC[N@@H+](C[C@@H](C)C(=O)NCCCNC(=O)c1ccc(-c2c3nc(c(-c4cc(S(=O)(=O)[O-])ccc4F)c4ccc([nH]4)c(-c4cc(S(=O)(=O)[O-])ccc4F)c4nc(c(-c5cc(S(=O)(=O)[O-])ccc5F)c5ccc2[nH]5)C=C4)C=C3)cc1)[C@@H](C)c1ccoc1
REMARK SMILES IDX 10 1 9 2 7 3 8 4 5 6 6 7 4 8 3 9 2 11 1 12 79 13 80 14 81 15
REMARK SMILES IDX 82 16 85 17 83 18 84 19 11 20 12 21 13 22 14 23 15 25 16 26
REMARK SMILES IDX 17 27 78 28 18 29 77 30 19 31 20 32 21 33 71 34 22 35 76 36
REMARK SMILES IDX 70 37 72 38 23 39 75 40 69 41 68 42 24 44 56 45 36 46 55 47
REMARK SMILES IDX 37 48 40 49 54 50 73 51 38 52 39 53 53 55 74 56 41 57 25 58
REMARK SMILES IDX 26 59 34 60 27 61 33 62 35 63 32 64 28 65 29 66 30 67 31 68
REMARK SMILES IDX 57 69 58 70 66 71 59 72 65 73 67 74 64 75 60 76 61 77 62 78
REMARK SMILES IDX 63 79 42 80 43 81 51 82 44 83 50 84 52 85 49 86 45 87 46 88
REMARK SMILES IDX 47 89 48 90
REMARK H PARENT 9 5 3 10 13 24 72 43 40 54
REMARK Flexibility Score: inf
ROOT
ATOM      1  C   UNL A   1      31.094  31.103  26.430  1.00  0.00     0.117 C 
ENDROOT
BRANCH   1   2
ATOM      2  N   UNL A   1      31.904  30.560  25.352  1.00  0.00    -0.356 N 
ATOM      3  C   UNL A   1      32.852  29.586  25.377  1.00  0.00     0.228 C 
ATOM      4  O   UNL A   1      33.415  29.293  24.322  1.00  0.00    -0.275 OA
ATOM      5  H   UNL A   1      31.741  30.960  24.468  1.00  0.00     0.163 HD
BRANCH   3   6
ATOM      6  C   UNL A   1      33.171  28.846  26.668  1.00  0.00     0.130 C 
ATOM      7  C   UNL A   1      34.678  28.969  26.943  1.00  0.00     0.024 C 
BRANCH   6   8
ATOM      8  C   UNL A   1      32.547  27.422  26.666  1.00  0.00     0.275 C 
BRANCH   8   9
ATOM      9  N   UNL A   1      32.364  26.705  25.373  1.00  0.00    -0.328 N 
ATOM     10  H   UNL A   1      32.379  27.372  24.602  1.00  0.00     0.348 HD
BRANCH   9  11
ATOM     11  C   UNL A   1      31.017  26.123  25.293  1.00  0.00     0.259 C 
ATOM     12  C   UNL A   1      30.075  26.783  24.297  1.00  0.00     0.071 C 
ENDBRANCH   9  11
BRANCH   9  13
ATOM     13  C   UNL A   1      33.516  25.864  25.003  1.00  0.00     0.215 C 
ATOM     14  C   UNL A   1      33.751  24.622  25.875  1.00  0.00     0.081 C 
BRANCH  13  15
ATOM     15  C   UNL A   1      33.514  25.523  23.529  1.00  0.00     0.047 A 
ATOM     16  C   UNL A   1      33.313  24.235  22.940  1.00  0.00     0.052 A 
ATOM     17  C   UNL A   1      33.580  26.386  22.447  1.00  0.00     0.204 A 
ATOM     18  C   UNL A   1      33.253  24.421  21.579  1.00  0.00     0.195 A 
ATOM     19  O   UNL A   1      33.423  25.729  21.274  1.00  0.00    -0.472 OA
ENDBRANCH  13  15
ENDBRANCH   9  13
ENDBRANCH   8   9
ENDBRANCH   6   8
ENDBRANCH   3   6
ENDBRANCH   1   2
BRANCH   1  20
ATOM     20  C   UNL A   1      31.300  32.597  26.573  1.00  0.00     0.042 C 
BRANCH  20  21
ATOM     21  C   UNL A   1      32.648  32.929  27.190  1.00  0.00     0.118 C 
BRANCH  21  22
ATOM     22  N   UNL A   1      32.645  34.240  27.832  1.00  0.00    -0.352 N 
ATOM     23  C   UNL A   1      33.370  34.678  28.916  1.00  0.00     0.251 C 
ATOM     24  H   UNL A   1      32.038  34.905  27.432  1.00  0.00     0.163 HD
ATOM     25  O   UNL A   1      33.058  35.711  29.486  1.00  0.00    -0.269 OA
BRANCH  23  26
ATOM     26  C   UNL A   1      34.509  33.861  29.376  1.00  0.00     0.039 A 
ATOM     27  C   UNL A   1      35.810  34.259  29.069  1.00  0.00     0.014 A 
ATOM     28  C   UNL A   1      34.275  32.728  30.159  1.00  0.00     0.014 A 
ATOM     29  C   UNL A   1      36.883  33.557  29.619  1.00  0.00     0.010 A 
ATOM     30  C   UNL A   1      35.337  32.106  30.794  1.00  0.00     0.010 A 
ATOM     31  C   UNL A   1      36.653  32.506  30.522  1.00  0.00    -0.014 A 
BRANCH  31  32
ATOM     32  C   UNL A   1      37.768  31.789  31.186  1.00  0.00     0.031 A 
ATOM     33  C   UNL A   1      38.190  32.193  32.571  1.00  0.00     0.074 A 
ATOM     34  C   UNL A   1      38.446  30.840  30.513  1.00  0.00     0.049 A 
ATOM     35  N   UNL A   1      39.192  31.761  33.292  1.00  0.00    -0.248 NA
ATOM     36  C   UNL A   1      37.401  33.256  33.212  1.00  0.00     0.031 C 
ATOM     37  C   UNL A   1      38.152  30.395  29.149  1.00  0.00     0.029 A 
ATOM     38  N   UNL A   1      39.521  30.077  30.885  1.00  0.00    -0.354 N 
ATOM     39  C   UNL A   1      39.161  32.508  34.464  1.00  0.00     0.074 A 
ATOM     40  C   UNL A   1      38.100  33.481  34.312  1.00  0.00     0.031 C 
ATOM     41  C   UNL A   1      38.994  29.405  28.819  1.00  0.00     0.029 A 
ATOM     42  C   UNL A   1      39.924  29.182  29.921  1.00  0.00     0.049 A 
ATOM     43  H   UNL A   1      39.966  30.162  31.760  1.00  0.00     0.167 HD
ATOM     44  C   UNL A   1      39.921  32.372  35.579  1.00  0.00     0.034 A 
ATOM     45  C   UNL A   1      40.930  28.288  29.928  1.00  0.00     0.034 A 
ATOM     46  C   UNL A   1      40.972  31.394  35.706  1.00  0.00     0.049 A 
ATOM     47  C   UNL A   1      41.807  28.195  31.151  1.00  0.00     0.074 A 
ATOM     48  C   UNL A   1      41.781  31.129  36.797  1.00  0.00     0.029 A 
ATOM     49  N   UNL A   1      41.374  30.525  34.696  1.00  0.00    -0.354 N 
ATOM     50  N   UNL A   1      41.736  28.871  32.274  1.00  0.00    -0.248 NA
ATOM     51  C   UNL A   1      42.897  27.214  31.105  1.00  0.00     0.031 C 
ATOM     52  C   UNL A   1      42.717  30.159  36.423  1.00  0.00     0.029 A 
ATOM     53  C   UNL A   1      42.443  29.753  35.127  1.00  0.00     0.049 A 
ATOM     54  H   UNL A   1      40.959  30.467  33.805  1.00  0.00     0.167 HD
ATOM     55  C   UNL A   1      42.752  28.371  33.083  1.00  0.00     0.074 A 
ATOM     56  C   UNL A   1      43.414  27.331  32.319  1.00  0.00     0.031 C 
ATOM     57  C   UNL A   1      43.103  28.732  34.344  1.00  0.00     0.034 A 
BRANCH  44  58
ATOM     58  C   UNL A   1      39.644  33.328  36.718  1.00  0.00     0.023 A 
ATOM     59  C   UNL A   1      40.421  34.485  36.912  1.00  0.00     0.031 A 
ATOM     60  C   UNL A   1      38.649  33.043  37.669  1.00  0.00     0.131 A 
ATOM     61  C   UNL A   1      40.272  35.244  38.083  1.00  0.00     0.055 A 
ATOM     62  C   UNL A   1      38.434  33.863  38.780  1.00  0.00     0.041 A 
ATOM     63  F   UNL A   1      37.887  31.944  37.555  1.00  0.00    -0.206 F 
ATOM     64  C   UNL A   1      39.264  34.958  39.005  1.00  0.00     0.022 A 
BRANCH  61  65
ATOM     65  S   UNL A   1      41.547  36.472  38.479  1.00  0.00     0.124 S 
ATOM     66  O   UNL A   1      40.737  37.617  38.890  1.00  0.00    -0.237 OA
ATOM     67  O   UNL A   1      42.303  35.812  39.536  1.00  0.00    -0.237 OA
ATOM     68  O   UNL A   1      42.260  36.646  37.215  1.00  0.00    -0.744 OA
ENDBRANCH  61  65
ENDBRANCH  44  58
BRANCH  45  69
ATOM     69  C   UNL A   1      41.155  27.397  28.755  1.00  0.00     0.023 A 
ATOM     70  C   UNL A   1      42.145  27.700  27.808  1.00  0.00     0.031 A 
ATOM     71  C   UNL A   1      40.376  26.244  28.551  1.00  0.00     0.131 A 
ATOM     72  C   UNL A   1      42.308  26.884  26.680  1.00  0.00     0.055 A 
ATOM     73  C   UNL A   1      40.576  25.406  27.452  1.00  0.00     0.041 A 
ATOM     74  F   UNL A   1      39.420  25.905  29.430  1.00  0.00    -0.206 F 
ATOM     75  C   UNL A   1      41.540  25.731  26.502  1.00  0.00     0.022 A 
BRANCH  72  76
ATOM     76  S   UNL A   1      43.497  27.390  25.408  1.00  0.00     0.124 S 
ATOM     77  O   UNL A   1      44.159  26.127  25.102  1.00  0.00    -0.237 OA
ATOM     78  O   UNL A   1      42.622  27.926  24.370  1.00  0.00    -0.237 OA
ATOM     79  O   UNL A   1      44.326  28.380  26.093  1.00  0.00    -0.744 OA
ENDBRANCH  72  76
ENDBRANCH  45  69
BRANCH  57  80
ATOM     80  C   UNL A   1      44.228  27.961  34.990  1.00  0.00     0.023 A 
ATOM     81  C   UNL A   1      45.575  28.324  34.812  1.00  0.00     0.031 A 
ATOM     82  C   UNL A   1      43.947  26.838  35.789  1.00  0.00     0.131 A 
ATOM     83  C   UNL A   1      46.590  27.542  35.381  1.00  0.00     0.055 A 
ATOM     84  C   UNL A   1      44.959  26.103  36.408  1.00  0.00     0.041 A 
ATOM     85  F   UNL A   1      42.679  26.442  35.990  1.00  0.00    -0.206 F 
ATOM     86  C   UNL A   1      46.290  26.446  36.194  1.00  0.00     0.022 A 
BRANCH  83  87
ATOM     87  S   UNL A   1      48.315  27.920  34.968  1.00  0.00     0.124 S 
ATOM     88  O   UNL A   1      48.785  28.564  36.191  1.00  0.00    -0.237 OA
ATOM     89  O   UNL A   1      48.868  26.598  34.691  1.00  0.00    -0.237 OA
ATOM     90  O   UNL A   1      48.205  28.801  33.806  1.00  0.00    -0.744 OA
ENDBRANCH  83  87
ENDBRANCH  57  80
ENDBRANCH  31  32
ENDBRANCH  23  26
ENDBRANCH  21  22
ENDBRANCH  20  21
ENDBRANCH   1  20
TORSDOF 18
ENDMDL
