MODEL 1
REMARK VINA RESULT:     -12.9      0.000      0.000
REMARK SMILES O=C(NCCCNC(=O)[C@@H]1CC=CC[C@H]1C(=O)N1CC[NH+](Cc2ccc3c(c2)OCO3)CC1)c1ccc(-c2c3nc(c(-c4cc(S(=O)(=O)[O-])ccc4F)c4ccc([nH]4)c(-c4cc(S(=O)(=O)[O-])ccc4F)c4nc(c(-c5cc(S(=O)(=O)[O-])ccc5F)c5ccc2[nH]5)C=C4)C=C3)cc1
REMARK SMILES IDX 5 1 4 2 3 3 1 4 2 5 34 7 35 8 96 9 36 10 95 11 37 12 38 13
REMARK SMILES IDX 39 14 89 15 40 16 94 17 88 18 90 19 41 20 93 21 87 22 86 23
REMARK SMILES IDX 42 25 74 26 54 27 73 28 55 29 58 30 72 31 91 32 56 33 57 34
REMARK SMILES IDX 71 36 92 37 59 38 43 39 44 40 52 41 45 42 51 43 53 44 50 45
REMARK SMILES IDX 46 46 47 47 48 48 49 49 75 50 76 51 84 52 77 53 83 54 85 55
REMARK SMILES IDX 82 56 78 57 79 58 80 59 81 60 60 61 61 62 69 63 62 64 68 65
REMARK SMILES IDX 70 66 67 67 63 68 64 69 65 70 66 71 6 72 7 73 8 74 9 76
REMARK SMILES IDX 10 77 11 78 15 79 12 80 14 81 13 82 16 83 17 84 18 85 19 86
REMARK SMILES IDX 33 87 20 88 32 89 21 90 22 92 23 93 24 94 28 95 25 96 27 97
REMARK SMILES IDX 26 98 29 99 31 100 30 101
REMARK H PARENT 3 6 90 24 58 35 7 75 21 91
REMARK Flexibility Score: inf
ROOT
ATOM      1  C   UNL A   1      34.151  27.643  26.500  1.00  0.00     0.042 C 
ENDROOT
BRANCH   1   2
ATOM      2  C   UNL A   1      34.008  28.794  25.519  1.00  0.00     0.118 C 
BRANCH   2   3
ATOM      3  N   UNL A   1      33.567  30.034  26.149  1.00  0.00    -0.352 N 
ATOM      4  O   UNL A   1      33.485  31.698  27.663  1.00  0.00    -0.269 OA
ATOM      5  C   UNL A   1      34.087  30.719  27.223  1.00  0.00     0.251 C 
ATOM      6  H   UNL A   1      32.770  30.444  25.743  1.00  0.00     0.163 HD
BRANCH   5   7
ATOM      7  C   UNL A   1      35.358  30.286  27.849  1.00  0.00     0.039 A 
ATOM      8  C   UNL A   1      35.357  29.657  29.094  1.00  0.00     0.014 A 
ATOM      9  C   UNL A   1      36.568  30.477  27.172  1.00  0.00     0.014 A 
ATOM     10  C   UNL A   1      36.556  29.360  29.726  1.00  0.00     0.010 A 
ATOM     11  C   UNL A   1      37.773  30.072  27.762  1.00  0.00     0.010 A 
ATOM     12  C   UNL A   1      37.778  29.525  29.054  1.00  0.00    -0.014 A 
BRANCH  12  13
ATOM     13  C   UNL A   1      39.013  29.006  29.701  1.00  0.00     0.031 A 
ATOM     14  C   UNL A   1      39.806  27.880  29.100  1.00  0.00     0.074 A 
ATOM     15  C   UNL A   1      39.445  29.622  30.821  1.00  0.00     0.049 A 
ATOM     16  N   UNL A   1      40.933  27.358  29.512  1.00  0.00    -0.248 NA
ATOM     17  C   UNL A   1      39.265  27.254  27.884  1.00  0.00     0.031 C 
ATOM     18  C   UNL A   1      38.745  30.721  31.494  1.00  0.00     0.029 A 
ATOM     19  N   UNL A   1      40.577  29.446  31.573  1.00  0.00    -0.354 N 
ATOM     20  C   UNL A   1      41.240  26.343  28.614  1.00  0.00     0.074 A 
ATOM     21  C   UNL A   1      40.156  26.298  27.653  1.00  0.00     0.031 C 
ATOM     22  C   UNL A   1      39.493  31.163  32.514  1.00  0.00     0.029 A 
ATOM     23  C   UNL A   1      40.679  30.326  32.627  1.00  0.00     0.049 A 
ATOM     24  H   UNL A   1      41.253  28.757  31.378  1.00  0.00     0.167 HD
ATOM     25  C   UNL A   1      42.329  25.534  28.592  1.00  0.00     0.034 A 
ATOM     26  C   UNL A   1      41.611  30.435  33.594  1.00  0.00     0.034 A 
ATOM     27  C   UNL A   1      43.394  25.590  29.567  1.00  0.00     0.049 A 
ATOM     28  C   UNL A   1      42.780  29.488  33.569  1.00  0.00     0.074 A 
ATOM     29  C   UNL A   1      44.547  24.824  29.631  1.00  0.00     0.029 A 
ATOM     30  N   UNL A   1      43.438  26.455  30.654  1.00  0.00    -0.354 N 
ATOM     31  N   UNL A   1      43.060  28.545  32.698  1.00  0.00    -0.248 NA
ATOM     32  C   UNL A   1      43.759  29.621  34.652  1.00  0.00     0.031 C 
ATOM     33  C   UNL A   1      45.248  25.176  30.789  1.00  0.00     0.029 A 
ATOM     34  C   UNL A   1      44.579  26.219  31.409  1.00  0.00     0.049 A 
ATOM     35  H   UNL A   1      42.758  27.136  30.860  1.00  0.00     0.167 HD
ATOM     36  C   UNL A   1      44.260  27.986  33.122  1.00  0.00     0.074 A 
ATOM     37  C   UNL A   1      44.667  28.724  34.301  1.00  0.00     0.031 C 
ATOM     38  C   UNL A   1      44.960  26.950  32.593  1.00  0.00     0.034 A 
BRANCH  25  39
ATOM     39  C   UNL A   1      42.408  24.492  27.501  1.00  0.00     0.023 A 
ATOM     40  C   UNL A   1      41.617  23.331  27.526  1.00  0.00     0.031 A 
ATOM     41  C   UNL A   1      43.279  24.669  26.409  1.00  0.00     0.131 A 
ATOM     42  C   UNL A   1      41.745  22.372  26.509  1.00  0.00     0.055 A 
ATOM     43  C   UNL A   1      43.350  23.746  25.364  1.00  0.00     0.041 A 
ATOM     44  F   UNL A   1      44.076  25.747  26.339  1.00  0.00    -0.206 F 
ATOM     45  C   UNL A   1      42.588  22.583  25.415  1.00  0.00     0.022 A 
BRANCH  42  46
ATOM     46  S   UNL A   1      40.878  20.788  26.693  1.00  0.00     0.124 S 
ATOM     47  O   UNL A   1      39.594  21.079  26.060  1.00  0.00    -0.237 OA
ATOM     48  O   UNL A   1      41.749  19.866  25.975  1.00  0.00    -0.237 OA
ATOM     49  O   UNL A   1      40.822  20.595  28.140  1.00  0.00    -0.744 OA
ENDBRANCH  42  46
ENDBRANCH  25  39
BRANCH  26  50
ATOM     50  C   UNL A   1      41.455  31.437  34.688  1.00  0.00     0.023 A 
ATOM     51  C   UNL A   1      40.396  31.355  35.605  1.00  0.00     0.031 A 
ATOM     52  C   UNL A   1      42.334  32.532  34.795  1.00  0.00     0.131 A 
ATOM     53  C   UNL A   1      40.206  32.380  36.545  1.00  0.00     0.055 A 
ATOM     54  C   UNL A   1      42.183  33.509  35.779  1.00  0.00     0.041 A 
ATOM     55  F   UNL A   1      43.365  32.662  33.944  1.00  0.00    -0.206 F 
ATOM     56  C   UNL A   1      41.101  33.446  36.649  1.00  0.00     0.022 A 
BRANCH  53  57
ATOM     57  S   UNL A   1      38.697  32.361  37.551  1.00  0.00     0.124 S 
ATOM     58  O   UNL A   1      38.219  30.999  37.343  1.00  0.00    -0.237 OA
ATOM     59  O   UNL A   1      39.216  32.663  38.880  1.00  0.00    -0.237 OA
ATOM     60  O   UNL A   1      37.875  33.409  36.948  1.00  0.00    -0.744 OA
ENDBRANCH  53  57
ENDBRANCH  26  50
BRANCH  38  61
ATOM     61  C   UNL A   1      46.254  26.590  33.284  1.00  0.00     0.023 A 
ATOM     62  C   UNL A   1      46.270  25.810  34.454  1.00  0.00     0.031 A 
ATOM     63  C   UNL A   1      47.480  27.074  32.795  1.00  0.00     0.131 A 
ATOM     64  C   UNL A   1      47.476  25.603  35.140  1.00  0.00     0.055 A 
ATOM     65  C   UNL A   1      48.686  26.804  33.443  1.00  0.00     0.041 A 
ATOM     66  F   UNL A   1      47.524  27.827  31.685  1.00  0.00    -0.206 F 
ATOM     67  C   UNL A   1      48.687  26.081  34.633  1.00  0.00     0.022 A 
BRANCH  64  68
ATOM     68  S   UNL A   1      47.422  24.812  36.771  1.00  0.00     0.124 S 
ATOM     69  O   UNL A   1      48.840  24.661  37.082  1.00  0.00    -0.237 OA
ATOM     70  O   UNL A   1      46.696  25.794  37.569  1.00  0.00    -0.237 OA
ATOM     71  O   UNL A   1      46.705  23.563  36.523  1.00  0.00    -0.744 OA
ENDBRANCH  64  68
ENDBRANCH  38  61
ENDBRANCH  12  13
ENDBRANCH   5   7
ENDBRANCH   2   3
ENDBRANCH   1   2
BRANCH   1  72
ATOM     72  C   UNL A   1      33.664  26.300  25.977  1.00  0.00     0.117 C 
BRANCH  72  73
ATOM     73  N   UNL A   1      34.376  25.812  24.816  1.00  0.00    -0.356 N 
ATOM     74  C   UNL A   1      34.337  24.613  24.171  1.00  0.00     0.224 C 
ATOM     75  H   UNL A   1      35.001  26.463  24.421  1.00  0.00     0.163 HD
ATOM     76  O   UNL A   1      34.798  24.607  23.025  1.00  0.00    -0.275 OA
BRANCH  74  77
ATOM     77  C   UNL A   1      33.810  23.330  24.839  1.00  0.00     0.095 C 
ATOM     78  C   UNL A   1      34.964  22.291  24.729  1.00  0.00     0.041 C 
ATOM     79  C   UNL A   1      32.514  22.809  24.185  1.00  0.00     0.095 C 
ATOM     80  C   UNL A   1      34.581  20.854  24.886  1.00  0.00    -0.030 C 
ATOM     81  C   UNL A   1      32.191  21.308  24.406  1.00  0.00     0.041 C 
ATOM     82  C   UNL A   1      33.334  20.413  24.721  1.00  0.00    -0.030 C 
BRANCH  79  83
ATOM     83  C   UNL A   1      31.210  23.553  24.497  1.00  0.00     0.227 C 
ATOM     84  O   UNL A   1      30.316  22.977  25.124  1.00  0.00    -0.275 OA
ATOM     85  N   UNL A   1      31.149  24.926  24.244  1.00  0.00    -0.331 N 
ATOM     86  C   UNL A   1      30.438  25.727  25.235  1.00  0.00     0.181 C 
ATOM     87  C   UNL A   1      31.077  25.444  22.881  1.00  0.00     0.181 C 
ATOM     88  C   UNL A   1      30.591  27.251  25.039  1.00  0.00     0.284 C 
ATOM     89  C   UNL A   1      31.266  26.958  22.743  1.00  0.00     0.284 C 
ATOM     90  N   UNL A   1      30.458  27.752  23.669  1.00  0.00    -0.328 N 
ATOM     91  H   UNL A   1      30.857  28.690  23.689  1.00  0.00     0.348 HD
BRANCH  90  92
ATOM     92  C   UNL A   1      29.112  28.107  23.203  1.00  0.00     0.299 C 
BRANCH  92  93
ATOM     93  C   UNL A   1      28.848  29.544  22.800  1.00  0.00     0.010 A 
ATOM     94  C   UNL A   1      29.105  30.599  23.706  1.00  0.00     0.013 A 
ATOM     95  C   UNL A   1      28.352  29.852  21.523  1.00  0.00     0.060 A 
ATOM     96  C   UNL A   1      28.783  31.924  23.396  1.00  0.00     0.051 A 
ATOM     97  C   UNL A   1      28.070  31.173  21.234  1.00  0.00     0.166 A 
ATOM     98  C   UNL A   1      28.264  32.179  22.148  1.00  0.00     0.165 A 
ATOM     99  O   UNL A   1      27.564  31.635  20.062  1.00  0.00    -0.454 OA
ATOM    100  O   UNL A   1      27.896  33.397  21.670  1.00  0.00    -0.454 OA
ATOM    101  C   UNL A   1      27.515  33.053  20.319  1.00  0.00     0.468 C 
ENDBRANCH  92  93
ENDBRANCH  90  92
ENDBRANCH  79  83
ENDBRANCH  74  77
ENDBRANCH  72  73
ENDBRANCH   1  72
TORSDOF 16
ENDMDL
MODEL 2
REMARK VINA RESULT:     -12.9      0.728      7.246
REMARK SMILES O=C(NCCCNC(=O)[C@@H]1CC=CC[C@H]1C(=O)N1CC[NH+](Cc2ccc3c(c2)OCO3)CC1)c1ccc(-c2c3nc(c(-c4cc(S(=O)(=O)[O-])ccc4F)c4ccc([nH]4)c(-c4cc(S(=O)(=O)[O-])ccc4F)c4nc(c(-c5cc(S(=O)(=O)[O-])ccc5F)c5ccc2[nH]5)C=C4)C=C3)cc1
REMARK SMILES IDX 5 1 4 2 3 3 1 4 2 5 34 7 35 8 96 9 36 10 95 11 37 12 38 13
REMARK SMILES IDX 39 14 89 15 40 16 94 17 88 18 90 19 41 20 93 21 87 22 86 23
REMARK SMILES IDX 42 25 74 26 54 27 73 28 55 29 58 30 72 31 91 32 56 33 57 34
REMARK SMILES IDX 71 36 92 37 59 38 43 39 44 40 52 41 45 42 51 43 53 44 50 45
REMARK SMILES IDX 46 46 47 47 48 48 49 49 75 50 76 51 84 52 77 53 83 54 85 55
REMARK SMILES IDX 82 56 78 57 79 58 80 59 81 60 60 61 61 62 69 63 62 64 68 65
REMARK SMILES IDX 70 66 67 67 63 68 64 69 65 70 66 71 6 72 7 73 8 74 9 76
REMARK SMILES IDX 10 77 11 78 15 79 12 80 14 81 13 82 16 83 17 84 18 85 19 86
REMARK SMILES IDX 33 87 20 88 32 89 21 90 22 92 23 93 24 94 28 95 25 96 27 97
REMARK SMILES IDX 26 98 29 99 31 100 30 101
REMARK H PARENT 3 6 90 24 58 35 7 75 21 91
REMARK Flexibility Score: inf
ROOT
ATOM      1  C   UNL A   1      33.329  27.895  26.941  1.00  0.00     0.042 C 
ENDROOT
BRANCH   1   2
ATOM      2  C   UNL A   1      33.895  28.998  26.064  1.00  0.00     0.118 C 
BRANCH   2   3
ATOM      3  N   UNL A   1      33.588  30.337  26.556  1.00  0.00    -0.352 N 
ATOM      4  O   UNL A   1      33.740  32.184  27.835  1.00  0.00    -0.269 OA
ATOM      5  C   UNL A   1      34.241  31.116  27.484  1.00  0.00     0.251 C 
ATOM      6  H   UNL A   1      32.785  30.749  26.162  1.00  0.00     0.163 HD
BRANCH   5   7
ATOM      7  C   UNL A   1      35.533  30.676  28.060  1.00  0.00     0.039 A 
ATOM      8  C   UNL A   1      35.580  29.625  28.975  1.00  0.00     0.014 A 
ATOM      9  C   UNL A   1      36.722  31.297  27.658  1.00  0.00     0.014 A 
ATOM     10  C   UNL A   1      36.776  29.296  29.597  1.00  0.00     0.010 A 
ATOM     11  C   UNL A   1      37.946  30.886  28.202  1.00  0.00     0.010 A 
ATOM     12  C   UNL A   1      37.982  29.893  29.191  1.00  0.00    -0.014 A 
BRANCH  12  13
ATOM     13  C   UNL A   1      39.253  29.361  29.751  1.00  0.00     0.031 A 
ATOM     14  C   UNL A   1      39.844  29.904  31.021  1.00  0.00     0.074 A 
ATOM     15  C   UNL A   1      39.837  28.323  29.116  1.00  0.00     0.049 A 
ATOM     16  N   UNL A   1      40.912  29.505  31.665  1.00  0.00    -0.248 NA
ATOM     17  C   UNL A   1      39.156  31.041  31.649  1.00  0.00     0.031 C 
ATOM     18  C   UNL A   1      39.350  27.725  27.868  1.00  0.00     0.029 A 
ATOM     19  N   UNL A   1      40.933  27.566  29.435  1.00  0.00    -0.354 N 
ATOM     20  C   UNL A   1      41.029  30.338  32.772  1.00  0.00     0.074 A 
ATOM     21  C   UNL A   1      39.940  31.292  32.689  1.00  0.00     0.031 C 
ATOM     22  C   UNL A   1      40.102  26.657  27.567  1.00  0.00     0.029 A 
ATOM     23  C   UNL A   1      41.175  26.546  28.544  1.00  0.00     0.049 A 
ATOM     24  H   UNL A   1      41.494  27.734  30.227  1.00  0.00     0.167 HD
ATOM     25  C   UNL A   1      41.953  30.301  33.764  1.00  0.00     0.034 A 
ATOM     26  C   UNL A   1      42.166  25.633  28.500  1.00  0.00     0.034 A 
ATOM     27  C   UNL A   1      43.036  29.347  33.822  1.00  0.00     0.049 A 
ATOM     28  C   UNL A   1      43.204  25.653  29.589  1.00  0.00     0.074 A 
ATOM     29  C   UNL A   1      44.020  29.215  34.788  1.00  0.00     0.029 A 
ATOM     30  N   UNL A   1      43.286  28.363  32.872  1.00  0.00    -0.354 N 
ATOM     31  N   UNL A   1      43.285  26.441  30.638  1.00  0.00    -0.248 NA
ATOM     32  C   UNL A   1      44.279  24.661  29.493  1.00  0.00     0.031 C 
ATOM     33  C   UNL A   1      44.900  28.204  34.388  1.00  0.00     0.029 A 
ATOM     34  C   UNL A   1      44.424  27.645  33.213  1.00  0.00     0.049 A 
ATOM     35  H   UNL A   1      42.736  28.199  32.072  1.00  0.00     0.167 HD
ATOM     36  C   UNL A   1      44.414  26.023  31.334  1.00  0.00     0.074 A 
ATOM     37  C   UNL A   1      44.954  24.892  30.608  1.00  0.00     0.031 C 
ATOM     38  C   UNL A   1      44.961  26.532  32.467  1.00  0.00     0.034 A 
BRANCH  25  39
ATOM     39  C   UNL A   1      41.857  31.345  34.852  1.00  0.00     0.023 A 
ATOM     40  C   UNL A   1      40.763  31.400  35.733  1.00  0.00     0.031 A 
ATOM     41  C   UNL A   1      42.884  32.293  35.022  1.00  0.00     0.131 A 
ATOM     42  C   UNL A   1      40.697  32.407  36.709  1.00  0.00     0.055 A 
ATOM     43  C   UNL A   1      42.846  33.248  36.039  1.00  0.00     0.041 A 
ATOM     44  F   UNL A   1      43.944  32.306  34.199  1.00  0.00    -0.206 F 
ATOM     45  C   UNL A   1      41.743  33.316  36.885  1.00  0.00     0.022 A 
BRANCH  42  46
ATOM     46  S   UNL A   1      39.170  32.584  37.673  1.00  0.00     0.124 S 
ATOM     47  O   UNL A   1      38.620  33.824  37.130  1.00  0.00    -0.237 OA
ATOM     48  O   UNL A   1      38.443  31.365  37.339  1.00  0.00    -0.237 OA
ATOM     49  O   UNL A   1      39.643  32.671  39.052  1.00  0.00    -0.744 OA
ENDBRANCH  42  46
ENDBRANCH  25  39
BRANCH  26  50
ATOM     50  C   UNL A   1      42.255  24.663  27.369  1.00  0.00     0.023 A 
ATOM     51  C   UNL A   1      41.518  23.470  27.375  1.00  0.00     0.031 A 
ATOM     52  C   UNL A   1      43.131  24.891  26.291  1.00  0.00     0.131 A 
ATOM     53  C   UNL A   1      41.717  22.522  26.358  1.00  0.00     0.055 A 
ATOM     54  C   UNL A   1      43.270  23.978  25.245  1.00  0.00     0.041 A 
ATOM     55  F   UNL A   1      43.862  26.016  26.234  1.00  0.00    -0.206 F 
ATOM     56  C   UNL A   1      42.574  22.776  25.286  1.00  0.00     0.022 A 
BRANCH  53  57
ATOM     57  S   UNL A   1      40.928  20.897  26.525  1.00  0.00     0.124 S 
ATOM     58  O   UNL A   1      39.658  21.113  25.841  1.00  0.00    -0.237 OA
ATOM     59  O   UNL A   1      41.883  20.028  25.846  1.00  0.00    -0.237 OA
ATOM     60  O   UNL A   1      40.836  20.713  27.972  1.00  0.00    -0.744 OA
ENDBRANCH  53  57
ENDBRANCH  26  50
BRANCH  38  61
ATOM     61  C   UNL A   1      46.194  25.834  32.992  1.00  0.00     0.023 A 
ATOM     62  C   UNL A   1      46.101  24.747  33.879  1.00  0.00     0.031 A 
ATOM     63  C   UNL A   1      47.475  26.294  32.641  1.00  0.00     0.131 A 
ATOM     64  C   UNL A   1      47.264  24.207  34.447  1.00  0.00     0.055 A 
ATOM     65  C   UNL A   1      48.631  25.706  33.153  1.00  0.00     0.041 A 
ATOM     66  F   UNL A   1      47.623  27.332  31.802  1.00  0.00    -0.206 F 
ATOM     67  C   UNL A   1      48.531  24.668  34.076  1.00  0.00     0.022 A 
BRANCH  64  68
ATOM     68  S   UNL A   1      47.095  22.981  35.772  1.00  0.00     0.124 S 
ATOM     69  O   UNL A   1      48.385  23.083  36.447  1.00  0.00    -0.237 OA
ATOM     70  O   UNL A   1      45.945  23.483  36.516  1.00  0.00    -0.237 OA
ATOM     71  O   UNL A   1      46.869  21.728  35.053  1.00  0.00    -0.744 OA
ENDBRANCH  64  68
ENDBRANCH  38  61
ENDBRANCH  12  13
ENDBRANCH   5   7
ENDBRANCH   2   3
ENDBRANCH   1   2
BRANCH   1  72
ATOM     72  C   UNL A   1      33.225  26.537  26.263  1.00  0.00     0.117 C 
BRANCH  72  73
ATOM     73  N   UNL A   1      34.111  26.359  25.133  1.00  0.00    -0.356 N 
ATOM     74  C   UNL A   1      34.300  25.306  24.290  1.00  0.00     0.224 C 
ATOM     75  H   UNL A   1      34.680  27.139  24.938  1.00  0.00     0.163 HD
ATOM     76  O   UNL A   1      34.872  25.568  23.227  1.00  0.00    -0.275 OA
BRANCH  74  77
ATOM     77  C   UNL A   1      33.883  23.870  24.654  1.00  0.00     0.095 C 
ATOM     78  C   UNL A   1      35.211  23.067  24.794  1.00  0.00     0.041 C 
ATOM     79  C   UNL A   1      32.947  23.238  23.604  1.00  0.00     0.095 C 
ATOM     80  C   UNL A   1      35.100  21.580  24.700  1.00  0.00    -0.030 C 
ATOM     81  C   UNL A   1      32.888  21.689  23.583  1.00  0.00     0.041 C 
ATOM     82  C   UNL A   1      34.061  20.963  24.136  1.00  0.00    -0.030 C 
BRANCH  79  83
ATOM     83  C   UNL A   1      31.484  23.698  23.586  1.00  0.00     0.227 C 
ATOM     84  O   UNL A   1      30.581  22.857  23.635  1.00  0.00    -0.275 OA
ATOM     85  N   UNL A   1      31.213  25.062  23.722  1.00  0.00    -0.331 N 
ATOM     86  C   UNL A   1      30.058  25.404  24.545  1.00  0.00     0.181 C 
ATOM     87  C   UNL A   1      31.484  26.002  22.638  1.00  0.00     0.181 C 
ATOM     88  C   UNL A   1      29.930  26.912  24.856  1.00  0.00     0.284 C 
ATOM     89  C   UNL A   1      31.373  27.483  23.011  1.00  0.00     0.284 C 
ATOM     90  N   UNL A   1      30.152  27.831  23.737  1.00  0.00    -0.328 N 
ATOM     91  H   UNL A   1      30.307  28.742  24.170  1.00  0.00     0.348 HD
BRANCH  90  92
ATOM     92  C   UNL A   1      28.992  28.187  22.911  1.00  0.00     0.299 C 
BRANCH  92  93
ATOM     93  C   UNL A   1      28.759  29.650  22.594  1.00  0.00     0.010 A 
ATOM     94  C   UNL A   1      29.057  30.646  23.554  1.00  0.00     0.013 A 
ATOM     95  C   UNL A   1      28.250  30.043  21.345  1.00  0.00     0.060 A 
ATOM     96  C   UNL A   1      28.764  31.994  23.325  1.00  0.00     0.051 A 
ATOM     97  C   UNL A   1      27.997  31.385  21.137  1.00  0.00     0.166 A 
ATOM     98  C   UNL A   1      28.232  32.332  22.104  1.00  0.00     0.165 A 
ATOM     99  O   UNL A   1      27.484  31.925  20.002  1.00  0.00    -0.454 OA
ATOM    100  O   UNL A   1      27.886  33.584  21.701  1.00  0.00    -0.454 OA
ATOM    101  C   UNL A   1      27.475  33.327  20.340  1.00  0.00     0.468 C 
ENDBRANCH  92  93
ENDBRANCH  90  92
ENDBRANCH  79  83
ENDBRANCH  74  77
ENDBRANCH  72  73
ENDBRANCH   1  72
TORSDOF 16
ENDMDL
MODEL 3
REMARK VINA RESULT:     -12.9      1.693      7.377
REMARK SMILES O=C(NCCCNC(=O)[C@@H]1CC=CC[C@H]1C(=O)N1CC[NH+](Cc2ccc3c(c2)OCO3)CC1)c1ccc(-c2c3nc(c(-c4cc(S(=O)(=O)[O-])ccc4F)c4ccc([nH]4)c(-c4cc(S(=O)(=O)[O-])ccc4F)c4nc(c(-c5cc(S(=O)(=O)[O-])ccc5F)c5ccc2[nH]5)C=C4)C=C3)cc1
REMARK SMILES IDX 5 1 4 2 3 3 1 4 2 5 34 7 35 8 96 9 36 10 95 11 37 12 38 13
REMARK SMILES IDX 39 14 89 15 40 16 94 17 88 18 90 19 41 20 93 21 87 22 86 23
REMARK SMILES IDX 42 25 74 26 54 27 73 28 55 29 58 30 72 31 91 32 56 33 57 34
REMARK SMILES IDX 71 36 92 37 59 38 43 39 44 40 52 41 45 42 51 43 53 44 50 45
REMARK SMILES IDX 46 46 47 47 48 48 49 49 75 50 76 51 84 52 77 53 83 54 85 55
REMARK SMILES IDX 82 56 78 57 79 58 80 59 81 60 60 61 61 62 69 63 62 64 68 65
REMARK SMILES IDX 70 66 67 67 63 68 64 69 65 70 66 71 6 72 7 73 8 74 9 76
REMARK SMILES IDX 10 77 11 78 15 79 12 80 14 81 13 82 16 83 17 84 18 85 19 86
REMARK SMILES IDX 33 87 20 88 32 89 21 90 22 92 23 93 24 94 28 95 25 96 27 97
REMARK SMILES IDX 26 98 29 99 31 100 30 101
REMARK H PARENT 3 6 90 24 58 35 7 75 21 91
REMARK Flexibility Score: inf
ROOT
ATOM      1  C   UNL A   1      33.789  27.698  26.567  1.00  0.00     0.042 C 
ENDROOT
BRANCH   1   2
ATOM      2  C   UNL A   1      33.792  28.808  25.530  1.00  0.00     0.118 C 
BRANCH   2   3
ATOM      3  N   UNL A   1      33.179  30.042  26.009  1.00  0.00    -0.352 N 
ATOM      4  O   UNL A   1      32.828  31.828  27.333  1.00  0.00    -0.269 OA
ATOM      5  C   UNL A   1      33.562  30.891  27.023  1.00  0.00     0.251 C 
ATOM      6  H   UNL A   1      32.360  30.310  25.532  1.00  0.00     0.163 HD
BRANCH   5   7
ATOM      7  C   UNL A   1      34.842  30.680  27.737  1.00  0.00     0.039 A 
ATOM      8  C   UNL A   1      35.028  29.556  28.542  1.00  0.00     0.014 A 
ATOM      9  C   UNL A   1      35.887  31.597  27.579  1.00  0.00     0.014 A 
ATOM     10  C   UNL A   1      36.183  29.425  29.299  1.00  0.00     0.010 A 
ATOM     11  C   UNL A   1      37.099  31.404  28.256  1.00  0.00     0.010 A 
ATOM     12  C   UNL A   1      37.251  30.323  29.137  1.00  0.00    -0.014 A 
BRANCH  12  13
ATOM     13  C   UNL A   1      38.536  30.022  29.823  1.00  0.00     0.031 A 
ATOM     14  C   UNL A   1      38.843  30.557  31.193  1.00  0.00     0.074 A 
ATOM     15  C   UNL A   1      39.402  29.192  29.205  1.00  0.00     0.049 A 
ATOM     16  N   UNL A   1      39.891  30.334  31.945  1.00  0.00    -0.248 NA
ATOM     17  C   UNL A   1      37.854  31.462  31.797  1.00  0.00     0.031 C 
ATOM     18  C   UNL A   1      39.205  28.622  27.868  1.00  0.00     0.029 A 
ATOM     19  N   UNL A   1      40.594  28.656  29.617  1.00  0.00    -0.354 N 
ATOM     20  C   UNL A   1      39.694  31.068  33.109  1.00  0.00     0.074 A 
ATOM     21  C   UNL A   1      38.440  31.776  32.945  1.00  0.00     0.031 C 
ATOM     22  C   UNL A   1      40.202  27.768  27.600  1.00  0.00     0.029 A 
ATOM     23  C   UNL A   1      41.155  27.795  28.701  1.00  0.00     0.049 A 
ATOM     24  H   UNL A   1      41.009  28.865  30.485  1.00  0.00     0.167 HD
ATOM     25  C   UNL A   1      40.483  31.136  34.211  1.00  0.00     0.034 A 
ATOM     26  C   UNL A   1      42.320  27.119  28.729  1.00  0.00     0.034 A 
ATOM     27  C   UNL A   1      41.736  30.428  34.348  1.00  0.00     0.049 A 
ATOM     28  C   UNL A   1      43.196  27.256  29.945  1.00  0.00     0.074 A 
ATOM     29  C   UNL A   1      42.607  30.418  35.425  1.00  0.00     0.029 A 
ATOM     30  N   UNL A   1      42.303  29.610  33.378  1.00  0.00    -0.354 N 
ATOM     31  N   UNL A   1      42.981  27.944  31.043  1.00  0.00    -0.248 NA
ATOM     32  C   UNL A   1      44.467  26.525  29.927  1.00  0.00     0.031 C 
ATOM     33  C   UNL A   1      43.728  29.655  35.080  1.00  0.00     0.029 A 
ATOM     34  C   UNL A   1      43.524  29.118  33.819  1.00  0.00     0.049 A 
ATOM     35  H   UNL A   1      41.898  29.409  32.504  1.00  0.00     0.167 HD
ATOM     36  C   UNL A   1      44.086  27.711  31.854  1.00  0.00     0.074 A 
ATOM     37  C   UNL A   1      44.942  26.789  31.134  1.00  0.00     0.031 C 
ATOM     38  C   UNL A   1      44.375  28.217  33.080  1.00  0.00     0.034 A 
BRANCH  25  39
ATOM     39  C   UNL A   1      40.037  32.032  35.341  1.00  0.00     0.023 A 
ATOM     40  C   UNL A   1      39.164  31.578  36.346  1.00  0.00     0.031 A 
ATOM     41  C   UNL A   1      40.502  33.358  35.426  1.00  0.00     0.131 A 
ATOM     42  C   UNL A   1      38.747  32.453  37.361  1.00  0.00     0.055 A 
ATOM     43  C   UNL A   1      40.140  34.201  36.477  1.00  0.00     0.041 A 
ATOM     44  F   UNL A   1      41.321  33.855  34.486  1.00  0.00    -0.206 F 
ATOM     45  C   UNL A   1      39.249  33.755  37.448  1.00  0.00     0.022 A 
BRANCH  42  46
ATOM     46  S   UNL A   1      37.448  31.904  38.503  1.00  0.00     0.124 S 
ATOM     47  O   UNL A   1      38.130  31.997  39.793  1.00  0.00    -0.237 OA
ATOM     48  O   UNL A   1      36.390  32.878  38.271  1.00  0.00    -0.237 OA
ATOM     49  O   UNL A   1      37.154  30.543  38.059  1.00  0.00    -0.744 OA
ENDBRANCH  42  46
ENDBRANCH  25  39
BRANCH  26  50
ATOM     50  C   UNL A   1      42.749  26.298  27.560  1.00  0.00     0.023 A 
ATOM     51  C   UNL A   1      42.240  25.007  27.351  1.00  0.00     0.031 A 
ATOM     52  C   UNL A   1      43.727  26.772  26.664  1.00  0.00     0.131 A 
ATOM     53  C   UNL A   1      42.755  24.213  26.314  1.00  0.00     0.055 A 
ATOM     54  C   UNL A   1      44.181  26.006  25.591  1.00  0.00     0.041 A 
ATOM     55  F   UNL A   1      44.250  27.999  26.816  1.00  0.00    -0.206 F 
ATOM     56  C   UNL A   1      43.708  24.710  25.423  1.00  0.00     0.022 A 
BRANCH  53  57
ATOM     57  S   UNL A   1      42.246  22.474  26.222  1.00  0.00     0.124 S 
ATOM     58  O   UNL A   1      42.720  22.097  24.896  1.00  0.00    -0.237 OA
ATOM     59  O   UNL A   1      42.964  21.891  27.350  1.00  0.00    -0.237 OA
ATOM     60  O   UNL A   1      40.794  22.538  26.372  1.00  0.00    -0.744 OA
ENDBRANCH  53  57
ENDBRANCH  26  50
BRANCH  38  61
ATOM     61  C   UNL A   1      45.662  27.748  33.717  1.00  0.00     0.023 A 
ATOM     62  C   UNL A   1      46.875  28.428  33.508  1.00  0.00     0.031 A 
ATOM     63  C   UNL A   1      45.685  26.580  34.498  1.00  0.00     0.131 A 
ATOM     64  C   UNL A   1      48.072  27.893  34.007  1.00  0.00     0.055 A 
ATOM     65  C   UNL A   1      46.867  26.091  35.053  1.00  0.00     0.041 A 
ATOM     66  F   UNL A   1      44.557  25.888  34.726  1.00  0.00    -0.206 F 
ATOM     67  C   UNL A   1      48.074  26.737  34.794  1.00  0.00     0.022 A 
BRANCH  64  68
ATOM     68  S   UNL A   1      49.639  28.655  33.508  1.00  0.00     0.124 S 
ATOM     69  O   UNL A   1      50.139  29.179  34.775  1.00  0.00    -0.237 OA
ATOM     70  O   UNL A   1      50.373  27.523  32.953  1.00  0.00    -0.237 OA
ATOM     71  O   UNL A   1      49.234  29.668  32.535  1.00  0.00    -0.744 OA
ENDBRANCH  64  68
ENDBRANCH  38  61
ENDBRANCH  12  13
ENDBRANCH   5   7
ENDBRANCH   2   3
ENDBRANCH   1   2
BRANCH   1  72
ATOM     72  C   UNL A   1      33.497  26.312  26.009  1.00  0.00     0.117 C 
BRANCH  72  73
ATOM     73  N   UNL A   1      34.315  25.934  24.878  1.00  0.00    -0.356 N 
ATOM     74  C   UNL A   1      34.394  24.774  24.169  1.00  0.00     0.224 C 
ATOM     75  H   UNL A   1      34.924  26.641  24.564  1.00  0.00     0.163 HD
ATOM     76  O   UNL A   1      34.931  24.860  23.060  1.00  0.00    -0.275 OA
BRANCH  74  77
ATOM     77  C   UNL A   1      33.902  23.426  24.728  1.00  0.00     0.095 C 
ATOM     78  C   UNL A   1      35.133  22.474  24.682  1.00  0.00     0.041 C 
ATOM     79  C   UNL A   1      32.712  22.852  23.931  1.00  0.00     0.095 C 
ATOM     80  C   UNL A   1      34.842  21.009  24.740  1.00  0.00    -0.030 C 
ATOM     81  C   UNL A   1      32.479  21.324  24.056  1.00  0.00     0.041 C 
ATOM     82  C   UNL A   1      33.651  20.494  24.438  1.00  0.00    -0.030 C 
BRANCH  79  83
ATOM     83  C   UNL A   1      31.334  23.490  24.151  1.00  0.00     0.227 C 
ATOM     84  O   UNL A   1      30.405  22.798  24.580  1.00  0.00    -0.275 OA
ATOM     85  N   UNL A   1      31.221  24.879  24.056  1.00  0.00    -0.331 N 
ATOM     86  C   UNL A   1      30.340  25.516  25.030  1.00  0.00     0.181 C 
ATOM     87  C   UNL A   1      31.290  25.560  22.766  1.00  0.00     0.181 C 
ATOM     88  C   UNL A   1      30.421  27.058  25.038  1.00  0.00     0.284 C 
ATOM     89  C   UNL A   1      31.400  27.086  22.835  1.00  0.00     0.284 C 
ATOM     90  N   UNL A   1      30.432  27.719  23.731  1.00  0.00    -0.328 N 
ATOM     91  H   UNL A   1      30.766  28.665  23.915  1.00  0.00     0.348 HD
BRANCH  90  92
ATOM     92  C   UNL A   1      29.137  28.067  23.134  1.00  0.00     0.299 C 
BRANCH  92  93
ATOM     93  C   UNL A   1      28.881  29.514  22.768  1.00  0.00     0.010 A 
ATOM     94  C   UNL A   1      29.150  30.546  23.698  1.00  0.00     0.013 A 
ATOM     95  C   UNL A   1      28.379  29.857  21.502  1.00  0.00     0.060 A 
ATOM     96  C   UNL A   1      28.836  31.880  23.422  1.00  0.00     0.051 A 
ATOM     97  C   UNL A   1      28.105  31.187  21.247  1.00  0.00     0.166 A 
ATOM     98  C   UNL A   1      28.312  32.169  22.185  1.00  0.00     0.165 A 
ATOM     99  O   UNL A   1      27.596  31.682  20.089  1.00  0.00    -0.454 OA
ATOM    100  O   UNL A   1      27.949  33.401  21.738  1.00  0.00    -0.454 OA
ATOM    101  C   UNL A   1      27.558  33.093  20.382  1.00  0.00     0.468 C 
ENDBRANCH  92  93
ENDBRANCH  90  92
ENDBRANCH  79  83
ENDBRANCH  74  77
ENDBRANCH  72  73
ENDBRANCH   1  72
TORSDOF 16
ENDMDL
