MODEL 1
REMARK VINA RESULT:     -11.1      0.000      0.000
REMARK SMILES O=C(Cc1csc(NC(=O)Cc2cc[nH]n2)n1)NCCCNC(=O)c1ccc(-c2c3nc(c(-c4cc(S(=O)(=O)[O-])ccc4F)c4ccc([nH]4)c(-c4cc(S(=O)(=O)[O-])ccc4F)c4nc(c(-c5cc(S(=O)(=O)[O-])ccc5F)c5ccc2[nH]5)C=C4)C=C3)cc1
REMARK SMILES IDX 19 1 18 2 1 3 2 4 3 6 4 7 5 8 17 9 6 10 7 11 8 12 9 13 10 15
REMARK SMILES IDX 11 16 12 17 13 18 16 19 14 20 15 21 20 23 21 24 22 25 23 26
REMARK SMILES IDX 24 28 25 29 26 30 87 31 27 32 86 33 28 34 29 35 30 36 80 37
REMARK SMILES IDX 31 38 85 39 79 40 81 41 32 42 84 43 78 44 77 45 33 47 65 48
REMARK SMILES IDX 45 49 64 50 46 51 49 52 63 53 82 54 47 55 48 56 62 58 83 59
REMARK SMILES IDX 50 60 34 61 35 62 43 63 36 64 42 65 44 66 41 67 37 68 38 69
REMARK SMILES IDX 39 70 40 71 66 72 67 73 75 74 68 75 74 76 76 77 73 78 69 79
REMARK SMILES IDX 70 80 71 81 72 82 51 83 52 84 60 85 53 86 59 87 61 88 58 89
REMARK SMILES IDX 54 90 55 91 56 92 57 93
REMARK H PARENT 18 5 8 14 15 22 22 27 81 46 49 57
REMARK Flexibility Score: inf
ROOT
ATOM      1  C   UNL A   1      32.455  28.810  24.237  1.00  0.00     0.117 C 
ENDROOT
BRANCH   1   2
ATOM      2  N   UNL A   1      31.565  27.712  24.540  1.00  0.00    -0.356 N 
ATOM      3  O   UNL A   1      30.326  27.790  22.604  1.00  0.00    -0.275 OA
ATOM      4  C   UNL A   1      30.574  27.272  23.690  1.00  0.00     0.226 C 
ATOM      5  H   UNL A   1      31.673  27.251  25.403  1.00  0.00     0.163 HD
BRANCH   4   6
ATOM      6  C   UNL A   1      29.760  26.113  24.237  1.00  0.00     0.157 C 
BRANCH   6   7
ATOM      7  C   UNL A   1      30.612  25.157  25.005  1.00  0.00     0.063 A 
ATOM      8  C   UNL A   1      30.344  24.629  26.254  1.00  0.00     0.093 A 
ATOM      9  N   UNL A   1      31.817  24.734  24.451  1.00  0.00    -0.224 NA
ATOM     10  S   UNL A   1      31.591  23.549  26.704  1.00  0.00    -0.105 S 
ATOM     11  C   UNL A   1      32.444  23.937  25.286  1.00  0.00     0.189 A 
BRANCH  11  12
ATOM     12  N   UNL A   1      33.642  23.373  24.950  1.00  0.00    -0.302 N 
ATOM     13  C   UNL A   1      33.970  22.270  24.224  1.00  0.00     0.232 C 
ATOM     14  H   UNL A   1      34.422  23.860  25.302  1.00  0.00     0.172 HD
ATOM     15  O   UNL A   1      35.172  22.105  23.971  1.00  0.00    -0.274 OA
BRANCH  13  16
ATOM     16  C   UNL A   1      32.969  21.234  23.759  1.00  0.00     0.158 C 
BRANCH  16  17
ATOM     17  C   UNL A   1      32.840  20.069  24.686  1.00  0.00     0.071 A 
ATOM     18  C   UNL A   1      32.449  18.738  24.400  1.00  0.00     0.045 A 
ATOM     19  N   UNL A   1      33.145  20.217  25.984  1.00  0.00    -0.180 NA
ATOM     20  C   UNL A   1      32.591  18.062  25.586  1.00  0.00     0.105 A 
ATOM     21  N   UNL A   1      32.997  18.986  26.499  1.00  0.00    -0.285 N 
ATOM     22  H   UNL A   1      33.165  18.773  27.445  1.00  0.00     0.189 HD
ENDBRANCH  16  17
ENDBRANCH  13  16
ENDBRANCH  11  12
ENDBRANCH   6   7
ENDBRANCH   4   6
ENDBRANCH   1   2
BRANCH   1  23
ATOM     23  C   UNL A   1      33.710  28.802  25.102  1.00  0.00     0.042 C 
BRANCH  23  24
ATOM     24  C   UNL A   1      33.462  29.004  26.596  1.00  0.00     0.118 C 
BRANCH  24  25
ATOM     25  N   UNL A   1      33.414  30.404  26.985  1.00  0.00    -0.352 N 
ATOM     26  C   UNL A   1      34.254  31.143  27.780  1.00  0.00     0.251 C 
ATOM     27  H   UNL A   1      32.653  30.907  26.617  1.00  0.00     0.163 HD
ATOM     28  O   UNL A   1      33.917  32.291  28.077  1.00  0.00    -0.269 OA
BRANCH  26  29
ATOM     29  C   UNL A   1      35.528  30.592  28.302  1.00  0.00     0.039 A 
ATOM     30  C   UNL A   1      36.714  30.914  27.632  1.00  0.00     0.014 A 
ATOM     31  C   UNL A   1      35.572  29.723  29.396  1.00  0.00     0.014 A 
ATOM     32  C   UNL A   1      37.936  30.404  28.081  1.00  0.00     0.010 A 
ATOM     33  C   UNL A   1      36.801  29.277  29.889  1.00  0.00     0.010 A 
ATOM     34  C   UNL A   1      37.997  29.598  29.229  1.00  0.00    -0.014 A 
BRANCH  34  35
ATOM     35  C   UNL A   1      39.300  29.069  29.719  1.00  0.00     0.031 A 
ATOM     36  C   UNL A   1      39.984  29.704  30.903  1.00  0.00     0.074 A 
ATOM     37  C   UNL A   1      39.882  28.031  29.086  1.00  0.00     0.049 A 
ATOM     38  N   UNL A   1      41.122  29.390  31.470  1.00  0.00    -0.248 NA
ATOM     39  C   UNL A   1      39.313  30.862  31.509  1.00  0.00     0.031 C 
ATOM     40  C   UNL A   1      39.346  27.357  27.901  1.00  0.00     0.029 A 
ATOM     41  N   UNL A   1      41.049  27.356  29.350  1.00  0.00    -0.354 N 
ATOM     42  C   UNL A   1      41.307  30.316  32.493  1.00  0.00     0.074 A 
ATOM     43  C   UNL A   1      40.197  31.242  32.419  1.00  0.00     0.031 C 
ATOM     44  C   UNL A   1      40.164  26.347  27.562  1.00  0.00     0.029 A 
ATOM     45  C   UNL A   1      41.299  26.321  28.479  1.00  0.00     0.049 A 
ATOM     46  H   UNL A   1      41.649  27.592  30.093  1.00  0.00     0.167 HD
ATOM     47  C   UNL A   1      42.294  30.374  33.424  1.00  0.00     0.034 A 
ATOM     48  C   UNL A   1      42.324  25.447  28.425  1.00  0.00     0.034 A 
ATOM     49  C   UNL A   1      43.390  29.436  33.494  1.00  0.00     0.049 A 
ATOM     50  C   UNL A   1      43.407  25.527  29.472  1.00  0.00     0.074 A 
ATOM     51  C   UNL A   1      44.421  29.379  34.416  1.00  0.00     0.029 A 
ATOM     52  N   UNL A   1      43.601  28.390  32.604  1.00  0.00    -0.354 N 
ATOM     53  N   UNL A   1      43.540  26.378  30.463  1.00  0.00    -0.248 NA
ATOM     54  C   UNL A   1      44.464  24.510  29.405  1.00  0.00     0.031 C 
ATOM     55  C   UNL A   1      45.286  28.342  34.048  1.00  0.00     0.029 A 
ATOM     56  C   UNL A   1      44.754  27.697  32.944  1.00  0.00     0.049 A 
ATOM     57  H   UNL A   1      43.016  28.171  31.842  1.00  0.00     0.167 HD
ATOM     58  C   UNL A   1      44.676  25.973  31.161  1.00  0.00     0.074 A 
ATOM     59  C   UNL A   1      45.175  24.793  30.486  1.00  0.00     0.031 C 
ATOM     60  C   UNL A   1      45.250  26.524  32.261  1.00  0.00     0.034 A 
BRANCH  47  61
ATOM     61  C   UNL A   1      42.237  31.507  34.424  1.00  0.00     0.023 A 
ATOM     62  C   UNL A   1      41.314  31.511  35.486  1.00  0.00     0.031 A 
ATOM     63  C   UNL A   1      43.094  32.616  34.298  1.00  0.00     0.131 A 
ATOM     64  C   UNL A   1      41.211  32.633  36.324  1.00  0.00     0.055 A 
ATOM     65  C   UNL A   1      43.047  33.690  35.190  1.00  0.00     0.041 A 
ATOM     66  F   UNL A   1      43.983  32.682  33.294  1.00  0.00    -0.206 F 
ATOM     67  C   UNL A   1      42.090  33.711  36.200  1.00  0.00     0.022 A 
BRANCH  64  68
ATOM     68  S   UNL A   1      39.812  32.730  37.475  1.00  0.00     0.124 S 
ATOM     69  O   UNL A   1      39.035  31.553  37.091  1.00  0.00    -0.237 OA
ATOM     70  O   UNL A   1      40.467  32.667  38.775  1.00  0.00    -0.237 OA
ATOM     71  O   UNL A   1      39.189  34.011  37.150  1.00  0.00    -0.744 OA
ENDBRANCH  64  68
ENDBRANCH  47  61
BRANCH  48  72
ATOM     72  C   UNL A   1      42.382  24.412  27.352  1.00  0.00     0.023 A 
ATOM     73  C   UNL A   1      41.635  23.227  27.447  1.00  0.00     0.031 A 
ATOM     74  C   UNL A   1      43.223  24.573  26.236  1.00  0.00     0.131 A 
ATOM     75  C   UNL A   1      41.784  22.225  26.476  1.00  0.00     0.055 A 
ATOM     76  C   UNL A   1      43.326  23.597  25.244  1.00  0.00     0.041 A 
ATOM     77  F   UNL A   1      43.953  25.691  26.092  1.00  0.00    -0.206 F 
ATOM     78  C   UNL A   1      42.615  22.407  25.368  1.00  0.00     0.022 A 
BRANCH  75  79
ATOM     79  S   UNL A   1      40.943  20.638  26.728  1.00  0.00     0.124 S 
ATOM     80  O   UNL A   1      40.794  20.607  28.177  1.00  0.00    -0.237 OA
ATOM     81  O   UNL A   1      39.715  20.820  25.959  1.00  0.00    -0.237 OA
ATOM     82  O   UNL A   1      41.882  19.663  26.175  1.00  0.00    -0.744 OA
ENDBRANCH  75  79
ENDBRANCH  48  72
BRANCH  60  83
ATOM     83  C   UNL A   1      46.453  25.810  32.833  1.00  0.00     0.023 A 
ATOM     84  C   UNL A   1      47.755  26.048  32.358  1.00  0.00     0.031 A 
ATOM     85  C   UNL A   1      46.286  24.846  33.843  1.00  0.00     0.131 A 
ATOM     86  C   UNL A   1      48.826  25.273  32.832  1.00  0.00     0.055 A 
ATOM     87  C   UNL A   1      47.366  24.128  34.362  1.00  0.00     0.041 A 
ATOM     88  F   UNL A   1      45.067  24.575  34.337  1.00  0.00    -0.206 F 
ATOM     89  C   UNL A   1      48.641  24.326  33.842  1.00  0.00     0.022 A 
BRANCH  86  90
ATOM     90  S   UNL A   1      50.439  25.428  32.018  1.00  0.00     0.124 S 
ATOM     91  O   UNL A   1      51.285  25.908  33.106  1.00  0.00    -0.237 OA
ATOM     92  O   UNL A   1      50.693  24.063  31.567  1.00  0.00    -0.237 OA
ATOM     93  O   UNL A   1      50.193  26.397  30.951  1.00  0.00    -0.744 OA
ENDBRANCH  86  90
ENDBRANCH  60  83
ENDBRANCH  34  35
ENDBRANCH  26  29
ENDBRANCH  24  25
ENDBRANCH  23  24
ENDBRANCH   1  23
TORSDOF 17
ENDMDL
MODEL 2
REMARK VINA RESULT:     -11.0      5.197     11.347
REMARK SMILES O=C(Cc1csc(NC(=O)Cc2cc[nH]n2)n1)NCCCNC(=O)c1ccc(-c2c3nc(c(-c4cc(S(=O)(=O)[O-])ccc4F)c4ccc([nH]4)c(-c4cc(S(=O)(=O)[O-])ccc4F)c4nc(c(-c5cc(S(=O)(=O)[O-])ccc5F)c5ccc2[nH]5)C=C4)C=C3)cc1
REMARK SMILES IDX 19 1 18 2 1 3 2 4 3 6 4 7 5 8 17 9 6 10 7 11 8 12 9 13 10 15
REMARK SMILES IDX 11 16 12 17 13 18 16 19 14 20 15 21 20 23 21 24 22 25 23 26
REMARK SMILES IDX 24 28 25 29 26 30 87 31 27 32 86 33 28 34 29 35 30 36 80 37
REMARK SMILES IDX 31 38 85 39 79 40 81 41 32 42 84 43 78 44 77 45 33 47 65 48
REMARK SMILES IDX 45 49 64 50 46 51 49 52 63 53 82 54 47 55 48 56 62 58 83 59
REMARK SMILES IDX 50 60 34 61 35 62 43 63 36 64 42 65 44 66 41 67 37 68 38 69
REMARK SMILES IDX 39 70 40 71 66 72 67 73 75 74 68 75 74 76 76 77 73 78 69 79
REMARK SMILES IDX 70 80 71 81 72 82 51 83 52 84 60 85 53 86 59 87 61 88 58 89
REMARK SMILES IDX 54 90 55 91 56 92 57 93
REMARK H PARENT 18 5 8 14 15 22 22 27 81 46 49 57
REMARK Flexibility Score: inf
ROOT
ATOM      1  C   UNL A   1      41.775  19.642  27.596  1.00  0.00     0.117 C 
ENDROOT
BRANCH   1   2
ATOM      2  N   UNL A   1      42.551  19.556  26.380  1.00  0.00    -0.356 N 
ATOM      3  O   UNL A   1      43.585  17.551  26.825  1.00  0.00    -0.275 OA
ATOM      4  C   UNL A   1      43.388  18.505  26.077  1.00  0.00     0.226 C 
ATOM      5  H   UNL A   1      42.477  20.292  25.729  1.00  0.00     0.163 HD
BRANCH   4   6
ATOM      6  C   UNL A   1      44.106  18.650  24.747  1.00  0.00     0.157 C 
BRANCH   6   7
ATOM      7  C   UNL A   1      44.767  19.983  24.621  1.00  0.00     0.063 A 
ATOM      8  C   UNL A   1      46.125  20.230  24.537  1.00  0.00     0.093 A 
ATOM      9  N   UNL A   1      43.974  21.127  24.593  1.00  0.00    -0.224 NA
ATOM     10  S   UNL A   1      46.397  21.908  24.363  1.00  0.00    -0.105 S 
ATOM     11  C   UNL A   1      44.730  22.200  24.525  1.00  0.00     0.189 A 
BRANCH  11  12
ATOM     12  N   UNL A   1      44.174  23.446  24.460  1.00  0.00    -0.302 N 
ATOM     13  C   UNL A   1      43.890  24.379  25.408  1.00  0.00     0.232 C 
ATOM     14  H   UNL A   1      43.931  23.724  23.547  1.00  0.00     0.172 HD
ATOM     15  O   UNL A   1      43.518  25.490  25.005  1.00  0.00    -0.274 OA
BRANCH  13  16
ATOM     16  C   UNL A   1      43.963  24.121  26.899  1.00  0.00     0.158 C 
BRANCH  16  17
ATOM     17  C   UNL A   1      45.280  24.482  27.504  1.00  0.00     0.071 A 
ATOM     18  C   UNL A   1      46.522  24.720  26.864  1.00  0.00     0.045 A 
ATOM     19  N   UNL A   1      45.378  24.651  28.832  1.00  0.00    -0.180 NA
ATOM     20  C   UNL A   1      47.374  25.104  27.871  1.00  0.00     0.105 A 
ATOM     21  N   UNL A   1      46.649  25.038  29.021  1.00  0.00    -0.285 N 
ATOM     22  H   UNL A   1      47.022  25.251  29.907  1.00  0.00     0.189 HD
ENDBRANCH  16  17
ENDBRANCH  13  16
ENDBRANCH  11  12
ENDBRANCH   6   7
ENDBRANCH   4   6
ENDBRANCH   1   2
BRANCH   1  23
ATOM     23  C   UNL A   1      41.190  21.031  27.821  1.00  0.00     0.042 C 
BRANCH  23  24
ATOM     24  C   UNL A   1      41.023  21.871  26.556  1.00  0.00     0.118 C 
BRANCH  24  25
ATOM     25  N   UNL A   1      39.632  22.067  26.177  1.00  0.00    -0.352 N 
ATOM     26  C   UNL A   1      38.808  23.154  26.326  1.00  0.00     0.251 C 
ATOM     27  H   UNL A   1      39.212  21.291  25.742  1.00  0.00     0.163 HD
ATOM     28  O   UNL A   1      37.614  23.022  26.049  1.00  0.00    -0.269 OA
BRANCH  26  29
ATOM     29  C   UNL A   1      39.308  24.456  26.828  1.00  0.00     0.039 A 
ATOM     30  C   UNL A   1      39.009  24.818  28.147  1.00  0.00     0.014 A 
ATOM     31  C   UNL A   1      40.012  25.349  26.015  1.00  0.00     0.014 A 
ATOM     32  C   UNL A   1      39.448  26.044  28.657  1.00  0.00     0.010 A 
ATOM     33  C   UNL A   1      40.515  26.538  26.549  1.00  0.00     0.010 A 
ATOM     34  C   UNL A   1      40.227  26.908  27.871  1.00  0.00    -0.014 A 
BRANCH  34  35
ATOM     35  C   UNL A   1      40.710  28.205  28.419  1.00  0.00     0.031 A 
ATOM     36  C   UNL A   1      42.186  28.456  28.596  1.00  0.00     0.074 A 
ATOM     37  C   UNL A   1      39.822  29.153  28.780  1.00  0.00     0.049 A 
ATOM     38  N   UNL A   1      42.798  29.517  29.061  1.00  0.00    -0.248 NA
ATOM     39  C   UNL A   1      43.090  27.358  28.227  1.00  0.00     0.031 C 
ATOM     40  C   UNL A   1      38.365  29.018  28.703  1.00  0.00     0.029 A 
ATOM     41  N   UNL A   1      40.009  30.418  29.280  1.00  0.00    -0.354 N 
ATOM     42  C   UNL A   1      44.156  29.210  29.050  1.00  0.00     0.074 A 
ATOM     43  C   UNL A   1      44.267  27.840  28.596  1.00  0.00     0.031 C 
ATOM     44  C   UNL A   1      37.795  30.164  29.108  1.00  0.00     0.029 A 
ATOM     45  C   UNL A   1      38.838  31.104  29.508  1.00  0.00     0.049 A 
ATOM     46  H   UNL A   1      40.899  30.799  29.459  1.00  0.00     0.167 HD
ATOM     47  C   UNL A   1      45.213  30.003  29.361  1.00  0.00     0.034 A 
ATOM     48  C   UNL A   1      38.626  32.348  29.981  1.00  0.00     0.034 A 
ATOM     49  C   UNL A   1      45.088  31.372  29.802  1.00  0.00     0.049 A 
ATOM     50  C   UNL A   1      39.815  33.213  30.317  1.00  0.00     0.074 A 
ATOM     51  C   UNL A   1      46.091  32.277  30.107  1.00  0.00     0.029 A 
ATOM     52  N   UNL A   1      43.885  32.038  30.004  1.00  0.00    -0.354 N 
ATOM     53  N   UNL A   1      41.095  32.924  30.252  1.00  0.00    -0.248 NA
ATOM     54  C   UNL A   1      39.528  34.582  30.765  1.00  0.00     0.031 C 
ATOM     55  C   UNL A   1      45.497  33.463  30.552  1.00  0.00     0.029 A 
ATOM     56  C   UNL A   1      44.122  33.331  30.449  1.00  0.00     0.049 A 
ATOM     57  H   UNL A   1      42.993  31.648  29.853  1.00  0.00     0.167 HD
ATOM     58  C   UNL A   1      41.765  34.091  30.614  1.00  0.00     0.074 A 
ATOM     59  C   UNL A   1      40.747  35.087  30.877  1.00  0.00     0.031 C 
ATOM     60  C   UNL A   1      43.100  34.318  30.715  1.00  0.00     0.034 A 
BRANCH  47  61
ATOM     61  C   UNL A   1      46.592  29.392  29.256  1.00  0.00     0.023 A 
ATOM     62  C   UNL A   1      47.305  29.379  28.043  1.00  0.00     0.031 A 
ATOM     63  C   UNL A   1      47.192  28.784  30.374  1.00  0.00     0.131 A 
ATOM     64  C   UNL A   1      48.531  28.700  27.955  1.00  0.00     0.055 A 
ATOM     65  C   UNL A   1      48.454  28.188  30.301  1.00  0.00     0.041 A 
ATOM     66  F   UNL A   1      46.556  28.746  31.555  1.00  0.00    -0.206 F 
ATOM     67  C   UNL A   1      49.123  28.128  29.083  1.00  0.00     0.022 A 
BRANCH  64  68
ATOM     68  S   UNL A   1      49.262  28.440  26.315  1.00  0.00     0.124 S 
ATOM     69  O   UNL A   1      50.107  29.625  26.180  1.00  0.00    -0.237 OA
ATOM     70  O   UNL A   1      49.961  27.171  26.477  1.00  0.00    -0.237 OA
ATOM     71  O   UNL A   1      48.104  28.407  25.425  1.00  0.00    -0.744 OA
ENDBRANCH  64  68
ENDBRANCH  47  61
BRANCH  48  72
ATOM     72  C   UNL A   1      37.238  32.863  30.162  1.00  0.00     0.023 A 
ATOM     73  C   UNL A   1      36.702  33.068  31.444  1.00  0.00     0.031 A 
ATOM     74  C   UNL A   1      36.409  33.114  29.054  1.00  0.00     0.131 A 
ATOM     75  C   UNL A   1      35.361  33.456  31.588  1.00  0.00     0.055 A 
ATOM     76  C   UNL A   1      35.093  33.554  29.202  1.00  0.00     0.041 A 
ATOM     77  F   UNL A   1      36.875  32.942  27.806  1.00  0.00    -0.206 F 
ATOM     78  C   UNL A   1      34.556  33.713  30.476  1.00  0.00     0.022 A 
BRANCH  75  79
ATOM     79  S   UNL A   1      34.654  33.535  33.257  1.00  0.00     0.124 S 
ATOM     80  O   UNL A   1      34.741  34.960  33.550  1.00  0.00    -0.237 OA
ATOM     81  O   UNL A   1      33.311  33.004  33.042  1.00  0.00    -0.237 OA
ATOM     82  O   UNL A   1      35.540  32.679  34.043  1.00  0.00    -0.744 OA
ENDBRANCH  75  79
ENDBRANCH  48  72
BRANCH  60  83
ATOM     83  C   UNL A   1      43.529  35.722  31.073  1.00  0.00     0.023 A 
ATOM     84  C   UNL A   1      43.504  36.194  32.398  1.00  0.00     0.031 A 
ATOM     85  C   UNL A   1      43.929  36.616  30.063  1.00  0.00     0.131 A 
ATOM     86  C   UNL A   1      43.792  37.542  32.666  1.00  0.00     0.055 A 
ATOM     87  C   UNL A   1      44.283  37.937  30.346  1.00  0.00     0.041 A 
ATOM     88  F   UNL A   1      43.972  36.223  28.779  1.00  0.00    -0.206 F 
ATOM     89  C   UNL A   1      44.196  38.411  31.650  1.00  0.00     0.022 A 
BRANCH  86  90
ATOM     90  S   UNL A   1      43.503  38.175  34.341  1.00  0.00     0.124 S 
ATOM     91  O   UNL A   1      42.933  39.492  34.075  1.00  0.00    -0.237 OA
ATOM     92  O   UNL A   1      42.587  37.184  34.896  1.00  0.00    -0.237 OA
ATOM     93  O   UNL A   1      44.838  38.188  34.938  1.00  0.00    -0.744 OA
ENDBRANCH  86  90
ENDBRANCH  60  83
ENDBRANCH  34  35
ENDBRANCH  26  29
ENDBRANCH  24  25
ENDBRANCH  23  24
ENDBRANCH   1  23
TORSDOF 17
ENDMDL
MODEL 3
REMARK VINA RESULT:     -10.8      5.325     11.081
REMARK SMILES O=C(Cc1csc(NC(=O)Cc2cc[nH]n2)n1)NCCCNC(=O)c1ccc(-c2c3nc(c(-c4cc(S(=O)(=O)[O-])ccc4F)c4ccc([nH]4)c(-c4cc(S(=O)(=O)[O-])ccc4F)c4nc(c(-c5cc(S(=O)(=O)[O-])ccc5F)c5ccc2[nH]5)C=C4)C=C3)cc1
REMARK SMILES IDX 19 1 18 2 1 3 2 4 3 6 4 7 5 8 17 9 6 10 7 11 8 12 9 13 10 15
REMARK SMILES IDX 11 16 12 17 13 18 16 19 14 20 15 21 20 23 21 24 22 25 23 26
REMARK SMILES IDX 24 28 25 29 26 30 87 31 27 32 86 33 28 34 29 35 30 36 80 37
REMARK SMILES IDX 31 38 85 39 79 40 81 41 32 42 84 43 78 44 77 45 33 47 65 48
REMARK SMILES IDX 45 49 64 50 46 51 49 52 63 53 82 54 47 55 48 56 62 58 83 59
REMARK SMILES IDX 50 60 34 61 35 62 43 63 36 64 42 65 44 66 41 67 37 68 38 69
REMARK SMILES IDX 39 70 40 71 66 72 67 73 75 74 68 75 74 76 76 77 73 78 69 79
REMARK SMILES IDX 70 80 71 81 72 82 51 83 52 84 60 85 53 86 59 87 61 88 58 89
REMARK SMILES IDX 54 90 55 91 56 92 57 93
REMARK H PARENT 18 5 8 14 15 22 22 27 81 46 49 57
REMARK Flexibility Score: inf
ROOT
ATOM      1  C   UNL A   1      41.932  19.556  27.383  1.00  0.00     0.117 C 
ENDROOT
BRANCH   1   2
ATOM      2  N   UNL A   1      42.673  19.638  26.145  1.00  0.00    -0.356 N 
ATOM      3  O   UNL A   1      43.924  17.728  26.421  1.00  0.00    -0.275 OA
ATOM      4  C   UNL A   1      43.606  18.705  25.748  1.00  0.00     0.226 C 
ATOM      5  H   UNL A   1      42.502  20.404  25.551  1.00  0.00     0.163 HD
BRANCH   4   6
ATOM      6  C   UNL A   1      44.262  19.016  24.415  1.00  0.00     0.157 C 
BRANCH   6   7
ATOM      7  C   UNL A   1      44.942  20.346  24.434  1.00  0.00     0.063 A 
ATOM      8  C   UNL A   1      46.303  20.579  24.486  1.00  0.00     0.093 A 
ATOM      9  N   UNL A   1      44.164  21.500  24.409  1.00  0.00    -0.224 NA
ATOM     10  S   UNL A   1      46.603  22.262  24.445  1.00  0.00    -0.105 S 
ATOM     11  C   UNL A   1      44.930  22.564  24.477  1.00  0.00     0.189 A 
BRANCH  11  12
ATOM     12  N   UNL A   1      44.392  23.820  24.443  1.00  0.00    -0.302 N 
ATOM     13  C   UNL A   1      43.506  24.464  25.249  1.00  0.00     0.232 C 
ATOM     14  H   UNL A   1      44.707  24.366  23.687  1.00  0.00     0.172 HD
ATOM     15  O   UNL A   1      43.328  25.671  25.031  1.00  0.00    -0.274 OA
BRANCH  13  16
ATOM     16  C   UNL A   1      42.710  23.787  26.346  1.00  0.00     0.158 C 
BRANCH  16  17
ATOM     17  C   UNL A   1      43.468  23.634  27.625  1.00  0.00     0.071 A 
ATOM     18  C   UNL A   1      42.984  23.645  28.957  1.00  0.00     0.045 A 
ATOM     19  N   UNL A   1      44.793  23.426  27.591  1.00  0.00    -0.180 NA
ATOM     20  C   UNL A   1      44.081  23.370  29.736  1.00  0.00     0.105 A 
ATOM     21  N   UNL A   1      45.132  23.258  28.879  1.00  0.00    -0.285 N 
ATOM     22  H   UNL A   1      46.053  23.074  29.175  1.00  0.00     0.189 HD
ENDBRANCH  16  17
ENDBRANCH  13  16
ENDBRANCH  11  12
ENDBRANCH   6   7
ENDBRANCH   4   6
ENDBRANCH   1   2
BRANCH   1  23
ATOM     23  C   UNL A   1      41.002  20.746  27.588  1.00  0.00     0.042 C 
BRANCH  23  24
ATOM     24  C   UNL A   1      40.821  21.639  26.362  1.00  0.00     0.118 C 
BRANCH  24  25
ATOM     25  N   UNL A   1      39.426  21.835  25.997  1.00  0.00    -0.352 N 
ATOM     26  C   UNL A   1      38.591  22.907  26.191  1.00  0.00     0.251 C 
ATOM     27  H   UNL A   1      39.012  21.072  25.534  1.00  0.00     0.163 HD
ATOM     28  O   UNL A   1      37.397  22.773  25.913  1.00  0.00    -0.269 OA
BRANCH  26  29
ATOM     29  C   UNL A   1      39.080  24.194  26.740  1.00  0.00     0.039 A 
ATOM     30  C   UNL A   1      38.889  24.448  28.103  1.00  0.00     0.014 A 
ATOM     31  C   UNL A   1      39.666  25.175  25.934  1.00  0.00     0.014 A 
ATOM     32  C   UNL A   1      39.322  25.657  28.660  1.00  0.00     0.010 A 
ATOM     33  C   UNL A   1      40.165  26.347  26.506  1.00  0.00     0.010 A 
ATOM     34  C   UNL A   1      39.986  26.610  27.873  1.00  0.00    -0.014 A 
BRANCH  34  35
ATOM     35  C   UNL A   1      40.462  27.889  28.469  1.00  0.00     0.031 A 
ATOM     36  C   UNL A   1      41.938  28.147  28.642  1.00  0.00     0.074 A 
ATOM     37  C   UNL A   1      39.569  28.812  28.876  1.00  0.00     0.049 A 
ATOM     38  N   UNL A   1      42.544  29.193  29.145  1.00  0.00    -0.248 NA
ATOM     39  C   UNL A   1      42.848  27.073  28.220  1.00  0.00     0.031 C 
ATOM     40  C   UNL A   1      38.113  28.666  28.807  1.00  0.00     0.029 A 
ATOM     41  N   UNL A   1      39.749  30.058  29.426  1.00  0.00    -0.354 N 
ATOM     42  C   UNL A   1      43.905  28.901  29.108  1.00  0.00     0.074 A 
ATOM     43  C   UNL A   1      44.024  27.551  28.598  1.00  0.00     0.031 C 
ATOM     44  C   UNL A   1      37.535  29.790  29.264  1.00  0.00     0.029 A 
ATOM     45  C   UNL A   1      38.574  30.722  29.692  1.00  0.00     0.049 A 
ATOM     46  H   UNL A   1      40.637  30.440  29.612  1.00  0.00     0.167 HD
ATOM     47  C   UNL A   1      44.957  29.690  29.441  1.00  0.00     0.034 A 
ATOM     48  C   UNL A   1      38.355  31.944  30.218  1.00  0.00     0.034 A 
ATOM     49  C   UNL A   1      44.824  31.040  29.939  1.00  0.00     0.049 A 
ATOM     50  C   UNL A   1      39.539  32.806  30.578  1.00  0.00     0.074 A 
ATOM     51  C   UNL A   1      45.821  31.940  30.272  1.00  0.00     0.029 A 
ATOM     52  N   UNL A   1      43.616  31.685  30.180  1.00  0.00    -0.354 N 
ATOM     53  N   UNL A   1      40.821  32.533  30.489  1.00  0.00    -0.248 NA
ATOM     54  C   UNL A   1      39.244  34.152  31.084  1.00  0.00     0.031 C 
ATOM     55  C   UNL A   1      45.220  33.102  30.770  1.00  0.00     0.029 A 
ATOM     56  C   UNL A   1      43.846  32.961  30.674  1.00  0.00     0.049 A 
ATOM     57  H   UNL A   1      42.727  31.293  30.021  1.00  0.00     0.167 HD
ATOM     58  C   UNL A   1      41.484  33.690  30.892  1.00  0.00     0.074 A 
ATOM     59  C   UNL A   1      40.459  34.665  31.205  1.00  0.00     0.031 C 
ATOM     60  C   UNL A   1      42.817  33.926  30.990  1.00  0.00     0.034 A 
BRANCH  47  61
ATOM     61  C   UNL A   1      46.341  29.098  29.298  1.00  0.00     0.023 A 
ATOM     62  C   UNL A   1      47.086  29.235  28.112  1.00  0.00     0.031 A 
ATOM     63  C   UNL A   1      46.913  28.357  30.348  1.00  0.00     0.131 A 
ATOM     64  C   UNL A   1      48.316  28.572  27.974  1.00  0.00     0.055 A 
ATOM     65  C   UNL A   1      48.179  27.775  30.236  1.00  0.00     0.041 A 
ATOM     66  F   UNL A   1      46.246  28.172  31.498  1.00  0.00    -0.206 F 
ATOM     67  C   UNL A   1      48.881  27.865  29.038  1.00  0.00     0.022 A 
BRANCH  64  68
ATOM     68  S   UNL A   1      49.091  28.518  26.335  1.00  0.00     0.124 S 
ATOM     69  O   UNL A   1      49.802  27.242  26.389  1.00  0.00    -0.237 OA
ATOM     70  O   UNL A   1      47.942  28.573  25.439  1.00  0.00    -0.237 OA
ATOM     71  O   UNL A   1      49.950  29.700  26.324  1.00  0.00    -0.744 OA
ENDBRANCH  64  68
ENDBRANCH  47  61
BRANCH  48  72
ATOM     72  C   UNL A   1      36.964  32.438  30.433  1.00  0.00     0.023 A 
ATOM     73  C   UNL A   1      36.242  33.046  29.393  1.00  0.00     0.031 A 
ATOM     74  C   UNL A   1      36.353  32.351  31.697  1.00  0.00     0.131 A 
ATOM     75  C   UNL A   1      34.975  33.594  29.648  1.00  0.00     0.055 A 
ATOM     76  C   UNL A   1      35.069  32.848  31.931  1.00  0.00     0.041 A 
ATOM     77  F   UNL A   1      36.995  31.772  32.723  1.00  0.00    -0.206 F 
ATOM     78  C   UNL A   1      34.378  33.487  30.906  1.00  0.00     0.022 A 
BRANCH  75  79
ATOM     79  S   UNL A   1      34.152  34.530  28.330  1.00  0.00     0.124 S 
ATOM     80  O   UNL A   1      35.027  34.273  27.192  1.00  0.00    -0.237 OA
ATOM     81  O   UNL A   1      32.837  33.896  28.284  1.00  0.00    -0.237 OA
ATOM     82  O   UNL A   1      34.163  35.903  28.829  1.00  0.00    -0.744 OA
ENDBRANCH  75  79
ENDBRANCH  48  72
BRANCH  60  83
ATOM     83  C   UNL A   1      43.236  35.319  31.401  1.00  0.00     0.023 A 
ATOM     84  C   UNL A   1      43.552  36.310  30.454  1.00  0.00     0.031 A 
ATOM     85  C   UNL A   1      43.361  35.645  32.763  1.00  0.00     0.131 A 
ATOM     86  C   UNL A   1      44.055  37.550  30.881  1.00  0.00     0.055 A 
ATOM     87  C   UNL A   1      43.794  36.905  33.182  1.00  0.00     0.041 A 
ATOM     88  F   UNL A   1      43.074  34.740  33.713  1.00  0.00    -0.206 F 
ATOM     89  C   UNL A   1      44.163  37.858  32.239  1.00  0.00     0.022 A 
BRANCH  86  90
ATOM     90  S   UNL A   1      44.690  38.705  29.635  1.00  0.00     0.124 S 
ATOM     91  O   UNL A   1      43.571  38.793  28.702  1.00  0.00    -0.237 OA
ATOM     92  O   UNL A   1      44.957  39.902  30.427  1.00  0.00    -0.237 OA
ATOM     93  O   UNL A   1      45.878  38.029  29.114  1.00  0.00    -0.744 OA
ENDBRANCH  86  90
ENDBRANCH  60  83
ENDBRANCH  34  35
ENDBRANCH  26  29
ENDBRANCH  24  25
ENDBRANCH  23  24
ENDBRANCH   1  23
TORSDOF 17
ENDMDL
