MODEL 1
REMARK VINA RESULT:     -12.7      0.000      0.000
REMARK SMILES C[C@H]1[C@@H](C(=O)NCCCNC(=O)c2ccc(-c3c4nc(c(-c5cc(S(=O)(=O)[O-])ccc5F)c5ccc([nH]5)c(-c5cc(S(=O)(=O)[O-])ccc5F)c5nc(c(-c6cc(S(=O)(=O)[O-])ccc6F)c6ccc3[nH]6)C=C5)C=C4)cc2)CCN1C(=O)c1cc2cc(F)ccc2s1
REMARK SMILES IDX 8 1 7 2 6 3 4 4 5 5 3 7 1 8 2 9 78 10 76 11 77 12 79 13
REMARK SMILES IDX 80 14 81 15 82 16 90 17 83 18 89 19 84 20 88 21 85 22 87 23
REMARK SMILES IDX 86 24 9 25 10 26 11 27 12 29 13 30 14 31 75 32 15 33 74 34
REMARK SMILES IDX 16 35 17 36 18 37 68 38 19 39 73 40 67 41 69 42 20 43 72 44
REMARK SMILES IDX 66 45 65 46 21 48 53 49 33 50 52 51 34 52 37 53 51 54 70 55
REMARK SMILES IDX 35 56 36 57 50 59 71 60 38 61 22 62 23 63 31 64 24 65 30 66
REMARK SMILES IDX 32 67 29 68 25 69 26 70 27 71 28 72 54 73 55 74 63 75 56 76
REMARK SMILES IDX 62 77 64 78 61 79 57 80 58 81 59 82 60 83 39 84 40 85 48 86
REMARK SMILES IDX 41 87 47 88 49 89 46 90 42 91 43 92 44 93 45 94
REMARK H PARENT 6 6 10 28 69 47 37 58
REMARK Flexibility Score: inf
ROOT
ATOM      1  C   UNL A   1      38.082  19.702  25.076  1.00  0.00     0.042 C 
ENDROOT
BRANCH   1   2
ATOM      2  C   UNL A   1      36.894  20.655  24.946  1.00  0.00     0.117 C 
BRANCH   2   3
ATOM      3  N   UNL A   1      35.649  19.919  25.061  1.00  0.00    -0.356 N 
ATOM      4  C   UNL A   1      34.355  20.339  25.084  1.00  0.00     0.225 C 
ATOM      5  O   UNL A   1      33.511  19.478  25.340  1.00  0.00    -0.275 OA
ATOM      6  H   UNL A   1      35.760  18.944  25.135  1.00  0.00     0.163 HD
BRANCH   4   7
ATOM      7  C   UNL A   1      33.976  21.769  24.693  1.00  0.00     0.102 C 
ATOM      8  C   UNL A   1      34.445  22.794  27.064  1.00  0.00     0.032 C 
ATOM      9  C   UNL A   1      33.611  22.778  25.802  1.00  0.00     0.094 C 
ATOM     10  N   UNL A   1      32.176  22.608  26.051  1.00  0.00    -0.334 N 
ATOM     11  C   UNL A   1      32.647  21.732  23.914  1.00  0.00     0.037 C 
ATOM     12  C   UNL A   1      31.608  21.746  25.028  1.00  0.00     0.121 C 
BRANCH  10  13
ATOM     13  C   UNL A   1      31.445  23.735  26.419  1.00  0.00     0.264 C 
ATOM     14  O   UNL A   1      30.677  23.691  27.381  1.00  0.00    -0.268 OA
BRANCH  13  15
ATOM     15  C   UNL A   1      31.618  24.943  25.637  1.00  0.00     0.093 A 
ATOM     16  C   UNL A   1      31.182  25.143  24.344  1.00  0.00     0.034 A 
ATOM     17  S   UNL A   1      32.216  26.389  26.316  1.00  0.00    -0.130 S 
ATOM     18  C   UNL A   1      31.033  26.530  24.023  1.00  0.00    -0.004 A 
ATOM     19  C   UNL A   1      31.526  27.342  25.050  1.00  0.00     0.035 A 
ATOM     20  C   UNL A   1      30.406  27.143  22.916  1.00  0.00     0.048 A 
ATOM     21  C   UNL A   1      31.401  28.746  25.001  1.00  0.00     0.022 A 
ATOM     22  C   UNL A   1      30.223  28.522  22.909  1.00  0.00     0.123 A 
ATOM     23  C   UNL A   1      30.708  29.319  23.931  1.00  0.00     0.041 A 
ATOM     24  F   UNL A   1      29.526  29.081  21.910  1.00  0.00    -0.207 F 
ENDBRANCH  13  15
ENDBRANCH  10  13
ENDBRANCH   4   7
ENDBRANCH   2   3
ENDBRANCH   1   2
BRANCH   1  25
ATOM     25  C   UNL A   1      39.222  20.260  25.921  1.00  0.00     0.118 C 
BRANCH  25  26
ATOM     26  N   UNL A   1      40.293  19.293  26.067  1.00  0.00    -0.352 N 
ATOM     27  C   UNL A   1      41.654  19.479  26.093  1.00  0.00     0.251 C 
ATOM     28  H   UNL A   1      39.998  18.358  26.161  1.00  0.00     0.163 HD
ATOM     29  O   UNL A   1      42.374  18.496  25.924  1.00  0.00    -0.269 OA
BRANCH  27  30
ATOM     30  C   UNL A   1      42.266  20.818  26.307  1.00  0.00     0.039 A 
ATOM     31  C   UNL A   1      42.559  21.212  27.617  1.00  0.00     0.014 A 
ATOM     32  C   UNL A   1      42.468  21.726  25.263  1.00  0.00     0.014 A 
ATOM     33  C   UNL A   1      43.067  22.491  27.875  1.00  0.00     0.010 A 
ATOM     34  C   UNL A   1      43.053  22.971  25.511  1.00  0.00     0.010 A 
ATOM     35  C   UNL A   1      43.331  23.381  26.823  1.00  0.00    -0.014 A 
BRANCH  35  36
ATOM     36  C   UNL A   1      43.827  24.761  27.088  1.00  0.00     0.031 A 
ATOM     37  C   UNL A   1      42.900  25.800  27.668  1.00  0.00     0.074 A 
ATOM     38  C   UNL A   1      45.097  25.095  26.785  1.00  0.00     0.049 A 
ATOM     39  N   UNL A   1      43.122  27.066  27.921  1.00  0.00    -0.248 NA
ATOM     40  C   UNL A   1      41.530  25.361  27.971  1.00  0.00     0.031 C 
ATOM     41  C   UNL A   1      46.086  24.202  26.178  1.00  0.00     0.029 A 
ATOM     42  N   UNL A   1      45.771  26.282  26.939  1.00  0.00    -0.354 N 
ATOM     43  C   UNL A   1      41.916  27.578  28.392  1.00  0.00     0.074 A 
ATOM     44  C   UNL A   1      40.955  26.498  28.331  1.00  0.00     0.031 C 
ATOM     45  C   UNL A   1      47.244  24.866  26.030  1.00  0.00     0.029 A 
ATOM     46  C   UNL A   1      47.074  26.238  26.500  1.00  0.00     0.049 A 
ATOM     47  H   UNL A   1      45.361  27.088  27.327  1.00  0.00     0.167 HD
ATOM     48  C   UNL A   1      41.639  28.824  28.856  1.00  0.00     0.034 A 
ATOM     49  C   UNL A   1      48.024  27.193  26.475  1.00  0.00     0.034 A 
ATOM     50  C   UNL A   1      42.611  29.888  28.938  1.00  0.00     0.049 A 
ATOM     51  C   UNL A   1      47.705  28.561  27.018  1.00  0.00     0.074 A 
ATOM     52  C   UNL A   1      42.450  31.170  29.437  1.00  0.00     0.029 A 
ATOM     53  N   UNL A   1      43.930  29.794  28.512  1.00  0.00    -0.354 N 
ATOM     54  N   UNL A   1      46.570  29.018  27.493  1.00  0.00    -0.248 NA
ATOM     55  C   UNL A   1      48.804  29.536  27.038  1.00  0.00     0.031 C 
ATOM     56  C   UNL A   1      43.655  31.863  29.269  1.00  0.00     0.029 A 
ATOM     57  C   UNL A   1      44.587  30.998  28.720  1.00  0.00     0.049 A 
ATOM     58  H   UNL A   1      44.339  28.989  28.120  1.00  0.00     0.167 HD
ATOM     59  C   UNL A   1      46.824  30.330  27.882  1.00  0.00     0.074 A 
ATOM     60  C   UNL A   1      48.224  30.583  27.605  1.00  0.00     0.031 C 
ATOM     61  C   UNL A   1      45.977  31.244  28.420  1.00  0.00     0.034 A 
BRANCH  48  62
ATOM     62  C   UNL A   1      40.217  29.099  29.284  1.00  0.00     0.023 A 
ATOM     63  C   UNL A   1      39.836  29.066  30.637  1.00  0.00     0.031 A 
ATOM     64  C   UNL A   1      39.218  29.347  28.326  1.00  0.00     0.131 A 
ATOM     65  C   UNL A   1      38.484  29.190  30.988  1.00  0.00     0.055 A 
ATOM     66  C   UNL A   1      37.885  29.554  28.689  1.00  0.00     0.041 A 
ATOM     67  F   UNL A   1      39.517  29.374  27.018  1.00  0.00    -0.206 F 
ATOM     68  C   UNL A   1      37.509  29.458  30.025  1.00  0.00     0.022 A 
BRANCH  65  69
ATOM     69  S   UNL A   1      37.998  28.840  32.700  1.00  0.00     0.124 S 
ATOM     70  O   UNL A   1      36.682  29.470  32.767  1.00  0.00    -0.237 OA
ATOM     71  O   UNL A   1      38.010  27.382  32.740  1.00  0.00    -0.237 OA
ATOM     72  O   UNL A   1      39.036  29.494  33.492  1.00  0.00    -0.744 OA
ENDBRANCH  65  69
ENDBRANCH  48  62
BRANCH  49  73
ATOM     73  C   UNL A   1      49.368  26.896  25.908  1.00  0.00     0.023 A 
ATOM     74  C   UNL A   1      49.696  27.257  24.593  1.00  0.00     0.031 A 
ATOM     75  C   UNL A   1      50.335  26.219  26.671  1.00  0.00     0.131 A 
ATOM     76  C   UNL A   1      50.948  26.908  24.065  1.00  0.00     0.055 A 
ATOM     77  C   UNL A   1      51.593  25.909  26.155  1.00  0.00     0.041 A 
ATOM     78  F   UNL A   1      50.071  25.862  27.938  1.00  0.00    -0.206 F 
ATOM     79  C   UNL A   1      51.902  26.244  24.840  1.00  0.00     0.022 A 
BRANCH  76  80
ATOM     80  S   UNL A   1      51.293  27.285  22.325  1.00  0.00     0.124 S 
ATOM     81  O   UNL A   1      51.471  28.733  22.362  1.00  0.00    -0.237 OA
ATOM     82  O   UNL A   1      52.495  26.497  22.076  1.00  0.00    -0.237 OA
ATOM     83  O   UNL A   1      50.092  26.821  21.633  1.00  0.00    -0.744 OA
ENDBRANCH  76  80
ENDBRANCH  49  73
BRANCH  61  84
ATOM     84  C   UNL A   1      46.562  32.588  28.768  1.00  0.00     0.023 A 
ATOM     85  C   UNL A   1      46.542  33.658  27.856  1.00  0.00     0.031 A 
ATOM     86  C   UNL A   1      47.171  32.794  30.019  1.00  0.00     0.131 A 
ATOM     87  C   UNL A   1      47.170  34.868  28.186  1.00  0.00     0.055 A 
ATOM     88  C   UNL A   1      47.751  34.016  30.361  1.00  0.00     0.041 A 
ATOM     89  F   UNL A   1      47.218  31.804  30.926  1.00  0.00    -0.206 F 
ATOM     90  C   UNL A   1      47.764  35.058  29.437  1.00  0.00     0.022 A 
BRANCH  87  91
ATOM     91  S   UNL A   1      47.280  36.165  26.923  1.00  0.00     0.124 S 
ATOM     92  O   UNL A   1      48.063  37.190  27.605  1.00  0.00    -0.237 OA
ATOM     93  O   UNL A   1      47.951  35.475  25.825  1.00  0.00    -0.237 OA
ATOM     94  O   UNL A   1      45.884  36.518  26.670  1.00  0.00    -0.744 OA
ENDBRANCH  87  91
ENDBRANCH  61  84
ENDBRANCH  35  36
ENDBRANCH  27  30
ENDBRANCH  25  26
ENDBRANCH   1  25
TORSDOF 15
ENDMDL
MODEL 2
REMARK VINA RESULT:     -12.7      6.078     11.922
REMARK SMILES C[C@H]1[C@@H](C(=O)NCCCNC(=O)c2ccc(-c3c4nc(c(-c5cc(S(=O)(=O)[O-])ccc5F)c5ccc([nH]5)c(-c5cc(S(=O)(=O)[O-])ccc5F)c5nc(c(-c6cc(S(=O)(=O)[O-])ccc6F)c6ccc3[nH]6)C=C5)C=C4)cc2)CCN1C(=O)c1cc2cc(F)ccc2s1
REMARK SMILES IDX 8 1 7 2 6 3 4 4 5 5 3 7 1 8 2 9 78 10 76 11 77 12 79 13
REMARK SMILES IDX 80 14 81 15 82 16 90 17 83 18 89 19 84 20 88 21 85 22 87 23
REMARK SMILES IDX 86 24 9 25 10 26 11 27 12 29 13 30 14 31 75 32 15 33 74 34
REMARK SMILES IDX 16 35 17 36 18 37 68 38 19 39 73 40 67 41 69 42 20 43 72 44
REMARK SMILES IDX 66 45 65 46 21 48 53 49 33 50 52 51 34 52 37 53 51 54 70 55
REMARK SMILES IDX 35 56 36 57 50 59 71 60 38 61 22 62 23 63 31 64 24 65 30 66
REMARK SMILES IDX 32 67 29 68 25 69 26 70 27 71 28 72 54 73 55 74 63 75 56 76
REMARK SMILES IDX 62 77 64 78 61 79 57 80 58 81 59 82 60 83 39 84 40 85 48 86
REMARK SMILES IDX 41 87 47 88 49 89 46 90 42 91 43 92 44 93 45 94
REMARK H PARENT 6 6 10 28 69 47 37 58
REMARK Flexibility Score: inf
ROOT
ATOM      1  C   UNL A   1      31.603  32.085  26.765  1.00  0.00     0.042 C 
ENDROOT
BRANCH   1   2
ATOM      2  C   UNL A   1      31.748  30.665  26.220  1.00  0.00     0.117 C 
BRANCH   2   3
ATOM      3  N   UNL A   1      30.941  30.504  25.025  1.00  0.00    -0.356 N 
ATOM      4  C   UNL A   1      30.778  29.446  24.186  1.00  0.00     0.225 C 
ATOM      5  O   UNL A   1      30.129  29.663  23.160  1.00  0.00    -0.275 OA
ATOM      6  H   UNL A   1      30.420  31.301  24.778  1.00  0.00     0.163 HD
BRANCH   4   7
ATOM      7  C   UNL A   1      31.271  28.048  24.564  1.00  0.00     0.102 C 
ATOM      8  C   UNL A   1      33.765  28.482  23.871  1.00  0.00     0.032 C 
ATOM      9  C   UNL A   1      32.593  27.530  23.960  1.00  0.00     0.094 C 
ATOM     10  N   UNL A   1      32.241  26.913  22.678  1.00  0.00    -0.334 N 
ATOM     11  C   UNL A   1      30.288  27.007  23.995  1.00  0.00     0.037 C 
ATOM     12  C   UNL A   1      30.794  26.816  22.570  1.00  0.00     0.121 C 
BRANCH  10  13
ATOM     13  C   UNL A   1      32.990  25.816  22.259  1.00  0.00     0.264 C 
ATOM     14  O   UNL A   1      33.548  25.826  21.161  1.00  0.00    -0.268 OA
BRANCH  13  15
ATOM     15  C   UNL A   1      33.086  24.678  23.151  1.00  0.00     0.093 A 
ATOM     16  C   UNL A   1      32.207  23.615  23.208  1.00  0.00     0.034 A 
ATOM     17  S   UNL A   1      34.458  24.396  24.125  1.00  0.00    -0.130 S 
ATOM     18  C   UNL A   1      32.799  22.445  23.782  1.00  0.00    -0.004 A 
ATOM     19  C   UNL A   1      34.072  22.720  24.292  1.00  0.00     0.035 A 
ATOM     20  C   UNL A   1      32.331  21.112  23.810  1.00  0.00     0.048 A 
ATOM     21  C   UNL A   1      34.888  21.699  24.822  1.00  0.00     0.022 A 
ATOM     22  C   UNL A   1      33.169  20.101  24.267  1.00  0.00     0.123 A 
ATOM     23  C   UNL A   1      34.430  20.379  24.766  1.00  0.00     0.041 A 
ATOM     24  F   UNL A   1      32.758  18.828  24.184  1.00  0.00    -0.207 F 
ENDBRANCH  13  15
ENDBRANCH  10  13
ENDBRANCH   4   7
ENDBRANCH   2   3
ENDBRANCH   1   2
BRANCH   1  25
ATOM     25  C   UNL A   1      32.921  32.702  27.221  1.00  0.00     0.118 C 
BRANCH  25  26
ATOM     26  N   UNL A   1      32.737  34.065  27.678  1.00  0.00    -0.352 N 
ATOM     27  C   UNL A   1      33.224  34.696  28.797  1.00  0.00     0.251 C 
ATOM     28  H   UNL A   1      32.174  34.625  27.097  1.00  0.00     0.163 HD
ATOM     29  O   UNL A   1      32.699  35.755  29.138  1.00  0.00    -0.269 OA
BRANCH  27  30
ATOM     30  C   UNL A   1      34.345  34.133  29.598  1.00  0.00     0.039 A 
ATOM     31  C   UNL A   1      35.654  34.371  29.165  1.00  0.00     0.014 A 
ATOM     32  C   UNL A   1      34.135  33.303  30.704  1.00  0.00     0.014 A 
ATOM     33  C   UNL A   1      36.738  33.802  29.843  1.00  0.00     0.010 A 
ATOM     34  C   UNL A   1      35.220  32.803  31.429  1.00  0.00     0.010 A 
ATOM     35  C   UNL A   1      36.534  33.020  30.991  1.00  0.00    -0.014 A 
BRANCH  35  36
ATOM     36  C   UNL A   1      37.676  32.371  31.693  1.00  0.00     0.031 A 
ATOM     37  C   UNL A   1      38.435  31.248  31.027  1.00  0.00     0.074 A 
ATOM     38  C   UNL A   1      38.019  32.761  32.936  1.00  0.00     0.049 A 
ATOM     39  N   UNL A   1      39.420  30.520  31.490  1.00  0.00    -0.248 NA
ATOM     40  C   UNL A   1      38.002  30.878  29.672  1.00  0.00     0.031 C 
ATOM     41  C   UNL A   1      37.342  33.801  33.713  1.00  0.00     0.029 A 
ATOM     42  N   UNL A   1      39.020  32.322  33.769  1.00  0.00    -0.354 N 
ATOM     43  C   UNL A   1      39.709  29.592  30.494  1.00  0.00     0.074 A 
ATOM     44  C   UNL A   1      38.754  29.816  29.429  1.00  0.00     0.031 C 
ATOM     45  C   UNL A   1      37.958  33.932  34.900  1.00  0.00     0.029 A 
ATOM     46  C   UNL A   1      39.052  32.968  34.982  1.00  0.00     0.049 A 
ATOM     47  H   UNL A   1      39.654  31.612  33.520  1.00  0.00     0.167 HD
ATOM     48  C   UNL A   1      40.693  28.657  30.455  1.00  0.00     0.034 A 
ATOM     49  C   UNL A   1      39.866  32.802  36.043  1.00  0.00     0.034 A 
ATOM     50  C   UNL A   1      41.658  28.459  31.510  1.00  0.00     0.049 A 
ATOM     51  C   UNL A   1      40.968  31.778  35.971  1.00  0.00     0.074 A 
ATOM     52  C   UNL A   1      42.725  27.576  31.552  1.00  0.00     0.029 A 
ATOM     53  N   UNL A   1      41.677  29.156  32.711  1.00  0.00    -0.354 N 
ATOM     54  N   UNL A   1      41.251  30.934  35.006  1.00  0.00    -0.248 NA
ATOM     55  C   UNL A   1      41.873  31.699  37.126  1.00  0.00     0.031 C 
ATOM     56  C   UNL A   1      43.356  27.706  32.795  1.00  0.00     0.029 A 
ATOM     57  C   UNL A   1      42.723  28.712  33.507  1.00  0.00     0.049 A 
ATOM     58  H   UNL A   1      41.040  29.864  32.962  1.00  0.00     0.167 HD
ATOM     59  C   UNL A   1      42.375  30.234  35.434  1.00  0.00     0.074 A 
ATOM     60  C   UNL A   1      42.730  30.770  36.732  1.00  0.00     0.031 C 
ATOM     61  C   UNL A   1      43.054  29.239  34.808  1.00  0.00     0.034 A 
BRANCH  48  62
ATOM     62  C   UNL A   1      40.749  27.767  29.237  1.00  0.00     0.023 A 
ATOM     63  C   UNL A   1      41.685  27.981  28.209  1.00  0.00     0.031 A 
ATOM     64  C   UNL A   1      39.824  26.720  29.074  1.00  0.00     0.131 A 
ATOM     65  C   UNL A   1      41.620  27.222  27.032  1.00  0.00     0.055 A 
ATOM     66  C   UNL A   1      39.819  25.911  27.935  1.00  0.00     0.041 A 
ATOM     67  F   UNL A   1      38.896  26.476  30.012  1.00  0.00    -0.206 F 
ATOM     68  C   UNL A   1      40.709  26.172  26.897  1.00  0.00     0.022 A 
BRANCH  65  69
ATOM     69  S   UNL A   1      42.638  27.728  25.618  1.00  0.00     0.124 S 
ATOM     70  O   UNL A   1      42.041  29.015  25.272  1.00  0.00    -0.237 OA
ATOM     71  O   UNL A   1      43.977  27.780  26.197  1.00  0.00    -0.237 OA
ATOM     72  O   UNL A   1      42.422  26.665  24.641  1.00  0.00    -0.744 OA
ENDBRANCH  65  69
ENDBRANCH  48  62
BRANCH  49  73
ATOM     73  C   UNL A   1      39.669  33.619  37.272  1.00  0.00     0.023 A 
ATOM     74  C   UNL A   1      39.148  33.050  38.444  1.00  0.00     0.031 A 
ATOM     75  C   UNL A   1      39.974  34.991  37.279  1.00  0.00     0.131 A 
ATOM     76  C   UNL A   1      38.913  33.858  39.567  1.00  0.00     0.055 A 
ATOM     77  C   UNL A   1      39.776  35.782  38.410  1.00  0.00     0.041 A 
ATOM     78  F   UNL A   1      40.484  35.577  36.184  1.00  0.00    -0.206 F 
ATOM     79  C   UNL A   1      39.233  35.218  39.560  1.00  0.00     0.022 A 
BRANCH  76  80
ATOM     80  S   UNL A   1      38.129  33.115  41.023  1.00  0.00     0.124 S 
ATOM     81  O   UNL A   1      39.124  33.365  42.060  1.00  0.00    -0.237 OA
ATOM     82  O   UNL A   1      36.891  33.880  41.124  1.00  0.00    -0.237 OA
ATOM     83  O   UNL A   1      37.963  31.714  40.641  1.00  0.00    -0.744 OA
ENDBRANCH  76  80
ENDBRANCH  49  73
BRANCH  61  84
ATOM     84  C   UNL A   1      44.266  28.694  35.519  1.00  0.00     0.023 A 
ATOM     85  C   UNL A   1      44.160  27.663  36.469  1.00  0.00     0.031 A 
ATOM     86  C   UNL A   1      45.540  29.232  35.262  1.00  0.00     0.131 A 
ATOM     87  C   UNL A   1      45.299  27.240  37.170  1.00  0.00     0.055 A 
ATOM     88  C   UNL A   1      46.677  28.773  35.927  1.00  0.00     0.041 A 
ATOM     89  F   UNL A   1      45.695  30.220  34.365  1.00  0.00    -0.206 F 
ATOM     90  C   UNL A   1      46.559  27.781  36.896  1.00  0.00     0.022 A 
BRANCH  87  91
ATOM     91  S   UNL A   1      45.100  26.035  38.511  1.00  0.00     0.124 S 
ATOM     92  O   UNL A   1      44.553  24.881  37.805  1.00  0.00    -0.237 OA
ATOM     93  O   UNL A   1      46.465  25.892  39.006  1.00  0.00    -0.237 OA
ATOM     94  O   UNL A   1      44.174  26.695  39.430  1.00  0.00    -0.744 OA
ENDBRANCH  87  91
ENDBRANCH  61  84
ENDBRANCH  35  36
ENDBRANCH  27  30
ENDBRANCH  25  26
ENDBRANCH   1  25
TORSDOF 15
ENDMDL
MODEL 3
REMARK VINA RESULT:     -12.7      5.914     11.924
REMARK SMILES C[C@H]1[C@@H](C(=O)NCCCNC(=O)c2ccc(-c3c4nc(c(-c5cc(S(=O)(=O)[O-])ccc5F)c5ccc([nH]5)c(-c5cc(S(=O)(=O)[O-])ccc5F)c5nc(c(-c6cc(S(=O)(=O)[O-])ccc6F)c6ccc3[nH]6)C=C5)C=C4)cc2)CCN1C(=O)c1cc2cc(F)ccc2s1
REMARK SMILES IDX 8 1 7 2 6 3 4 4 5 5 3 7 1 8 2 9 78 10 76 11 77 12 79 13
REMARK SMILES IDX 80 14 81 15 82 16 90 17 83 18 89 19 84 20 88 21 85 22 87 23
REMARK SMILES IDX 86 24 9 25 10 26 11 27 12 29 13 30 14 31 75 32 15 33 74 34
REMARK SMILES IDX 16 35 17 36 18 37 68 38 19 39 73 40 67 41 69 42 20 43 72 44
REMARK SMILES IDX 66 45 65 46 21 48 53 49 33 50 52 51 34 52 37 53 51 54 70 55
REMARK SMILES IDX 35 56 36 57 50 59 71 60 38 61 22 62 23 63 31 64 24 65 30 66
REMARK SMILES IDX 32 67 29 68 25 69 26 70 27 71 28 72 54 73 55 74 63 75 56 76
REMARK SMILES IDX 62 77 64 78 61 79 57 80 58 81 59 82 60 83 39 84 40 85 48 86
REMARK SMILES IDX 41 87 47 88 49 89 46 90 42 91 43 92 44 93 45 94
REMARK H PARENT 6 6 10 28 69 47 37 58
REMARK Flexibility Score: inf
ROOT
ATOM      1  C   UNL A   1      31.549  32.127  26.444  1.00  0.00     0.042 C 
ENDROOT
BRANCH   1   2
ATOM      2  C   UNL A   1      31.458  30.609  26.291  1.00  0.00     0.117 C 
BRANCH   2   3
ATOM      3  N   UNL A   1      31.625  30.236  24.899  1.00  0.00    -0.356 N 
ATOM      4  C   UNL A   1      31.593  29.025  24.283  1.00  0.00     0.225 C 
ATOM      5  O   UNL A   1      31.917  29.012  23.094  1.00  0.00    -0.275 OA
ATOM      6  H   UNL A   1      31.789  30.994  24.294  1.00  0.00     0.163 HD
BRANCH   4   7
ATOM      7  C   UNL A   1      31.067  27.780  25.002  1.00  0.00     0.102 C 
ATOM      8  C   UNL A   1      33.254  27.371  26.395  1.00  0.00     0.032 C 
ATOM      9  C   UNL A   1      32.075  26.801  25.639  1.00  0.00     0.094 C 
ATOM     10  N   UNL A   1      32.456  25.862  24.580  1.00  0.00    -0.334 N 
ATOM     11  C   UNL A   1      30.407  26.852  23.965  1.00  0.00     0.037 C 
ATOM     12  C   UNL A   1      31.592  26.058  23.427  1.00  0.00     0.121 C 
BRANCH  10  13
ATOM     13  C   UNL A   1      32.746  24.551  24.949  1.00  0.00     0.264 C 
ATOM     14  O   UNL A   1      31.875  23.839  25.450  1.00  0.00    -0.268 OA
BRANCH  13  15
ATOM     15  C   UNL A   1      34.092  24.064  24.725  1.00  0.00     0.093 A 
ATOM     16  C   UNL A   1      35.248  24.598  25.258  1.00  0.00     0.034 A 
ATOM     17  S   UNL A   1      34.407  22.593  23.920  1.00  0.00    -0.130 S 
ATOM     18  C   UNL A   1      36.323  23.654  25.291  1.00  0.00    -0.004 A 
ATOM     19  C   UNL A   1      35.982  22.474  24.624  1.00  0.00     0.035 A 
ATOM     20  C   UNL A   1      37.570  23.722  25.953  1.00  0.00     0.048 A 
ATOM     21  C   UNL A   1      36.848  21.361  24.606  1.00  0.00     0.022 A 
ATOM     22  C   UNL A   1      38.387  22.596  25.992  1.00  0.00     0.123 A 
ATOM     23  C   UNL A   1      38.040  21.430  25.334  1.00  0.00     0.041 A 
ATOM     24  F   UNL A   1      39.513  22.636  26.717  1.00  0.00    -0.207 F 
ENDBRANCH  13  15
ENDBRANCH  10  13
ENDBRANCH   4   7
ENDBRANCH   2   3
ENDBRANCH   1   2
BRANCH   1  25
ATOM     25  C   UNL A   1      32.742  32.586  27.276  1.00  0.00     0.118 C 
BRANCH  25  26
ATOM     26  N   UNL A   1      32.635  33.990  27.623  1.00  0.00    -0.352 N 
ATOM     27  C   UNL A   1      33.188  34.687  28.669  1.00  0.00     0.251 C 
ATOM     28  H   UNL A   1      32.078  34.527  27.013  1.00  0.00     0.163 HD
ATOM     29  O   UNL A   1      32.724  35.794  28.936  1.00  0.00    -0.269 OA
BRANCH  27  30
ATOM     30  C   UNL A   1      34.309  34.140  29.480  1.00  0.00     0.039 A 
ATOM     31  C   UNL A   1      35.619  34.449  29.097  1.00  0.00     0.014 A 
ATOM     32  C   UNL A   1      34.105  33.256  30.545  1.00  0.00     0.014 A 
ATOM     33  C   UNL A   1      36.707  33.899  29.784  1.00  0.00     0.010 A 
ATOM     34  C   UNL A   1      35.189  32.773  31.282  1.00  0.00     0.010 A 
ATOM     35  C   UNL A   1      36.504  33.062  30.892  1.00  0.00    -0.014 A 
BRANCH  35  36
ATOM     36  C   UNL A   1      37.653  32.433  31.602  1.00  0.00     0.031 A 
ATOM     37  C   UNL A   1      38.415  31.302  30.955  1.00  0.00     0.074 A 
ATOM     38  C   UNL A   1      37.999  32.849  32.836  1.00  0.00     0.049 A 
ATOM     39  N   UNL A   1      39.406  30.589  31.427  1.00  0.00    -0.248 NA
ATOM     40  C   UNL A   1      37.979  30.903  29.609  1.00  0.00     0.031 C 
ATOM     41  C   UNL A   1      37.320  33.900  33.596  1.00  0.00     0.029 A 
ATOM     42  N   UNL A   1      39.005  32.432  33.672  1.00  0.00    -0.354 N 
ATOM     43  C   UNL A   1      39.696  29.643  30.448  1.00  0.00     0.074 A 
ATOM     44  C   UNL A   1      38.736  29.841  29.383  1.00  0.00     0.031 C 
ATOM     45  C   UNL A   1      37.940  34.058  34.777  1.00  0.00     0.029 A 
ATOM     46  C   UNL A   1      39.039  33.102  34.873  1.00  0.00     0.049 A 
ATOM     47  H   UNL A   1      39.643  31.721  33.435  1.00  0.00     0.167 HD
ATOM     48  C   UNL A   1      40.685  28.713  30.423  1.00  0.00     0.034 A 
ATOM     49  C   UNL A   1      39.859  32.961  35.933  1.00  0.00     0.034 A 
ATOM     50  C   UNL A   1      41.656  28.541  31.477  1.00  0.00     0.049 A 
ATOM     51  C   UNL A   1      40.966  31.942  35.876  1.00  0.00     0.074 A 
ATOM     52  C   UNL A   1      42.727  27.665  31.531  1.00  0.00     0.029 A 
ATOM     53  N   UNL A   1      41.676  29.261  32.664  1.00  0.00    -0.354 N 
ATOM     54  N   UNL A   1      41.249  31.081  34.926  1.00  0.00    -0.248 NA
ATOM     55  C   UNL A   1      41.876  31.890  37.029  1.00  0.00     0.031 C 
ATOM     56  C   UNL A   1      43.364  27.822  32.769  1.00  0.00     0.029 A 
ATOM     57  C   UNL A   1      42.728  28.838  33.464  1.00  0.00     0.049 A 
ATOM     58  H   UNL A   1      41.036  29.970  32.904  1.00  0.00     0.167 HD
ATOM     59  C   UNL A   1      42.380  30.395  35.363  1.00  0.00     0.074 A 
ATOM     60  C   UNL A   1      42.737  30.958  36.649  1.00  0.00     0.031 C 
ATOM     61  C   UNL A   1      43.061  29.393  34.754  1.00  0.00     0.034 A 
BRANCH  48  62
ATOM     62  C   UNL A   1      40.741  27.800  29.221  1.00  0.00     0.023 A 
ATOM     63  C   UNL A   1      41.686  27.986  28.197  1.00  0.00     0.031 A 
ATOM     64  C   UNL A   1      39.807  26.759  29.072  1.00  0.00     0.131 A 
ATOM     65  C   UNL A   1      41.622  27.205  27.033  1.00  0.00     0.055 A 
ATOM     66  C   UNL A   1      39.802  25.930  27.947  1.00  0.00     0.041 A 
ATOM     67  F   UNL A   1      38.869  26.542  30.007  1.00  0.00    -0.206 F 
ATOM     68  C   UNL A   1      40.702  26.163  26.912  1.00  0.00     0.022 A 
BRANCH  65  69
ATOM     69  S   UNL A   1      42.656  27.675  25.619  1.00  0.00     0.124 S 
ATOM     70  O   UNL A   1      41.940  28.840  25.106  1.00  0.00    -0.237 OA
ATOM     71  O   UNL A   1      43.946  27.942  26.246  1.00  0.00    -0.237 OA
ATOM     72  O   UNL A   1      42.614  26.497  24.756  1.00  0.00    -0.744 OA
ENDBRANCH  65  69
ENDBRANCH  48  62
BRANCH  49  73
ATOM     73  C   UNL A   1      39.662  33.800  37.147  1.00  0.00     0.023 A 
ATOM     74  C   UNL A   1      38.946  33.317  38.253  1.00  0.00     0.031 A 
ATOM     75  C   UNL A   1      40.166  35.111  37.202  1.00  0.00     0.131 A 
ATOM     76  C   UNL A   1      38.723  34.154  39.358  1.00  0.00     0.055 A 
ATOM     77  C   UNL A   1      39.974  35.925  38.319  1.00  0.00     0.041 A 
ATOM     78  F   UNL A   1      40.865  35.613  36.172  1.00  0.00    -0.206 F 
ATOM     79  C   UNL A   1      39.240  35.451  39.401  1.00  0.00     0.022 A 
BRANCH  76  80
ATOM     80  S   UNL A   1      37.693  33.538  40.718  1.00  0.00     0.124 S 
ATOM     81  O   UNL A   1      36.672  32.782  40.002  1.00  0.00    -0.237 OA
ATOM     82  O   UNL A   1      38.649  32.753  41.490  1.00  0.00    -0.237 OA
ATOM     83  O   UNL A   1      37.225  34.760  41.369  1.00  0.00    -0.744 OA
ENDBRANCH  76  80
ENDBRANCH  49  73
BRANCH  61  84
ATOM     84  C   UNL A   1      44.279  28.868  35.469  1.00  0.00     0.023 A 
ATOM     85  C   UNL A   1      44.186  27.840  36.424  1.00  0.00     0.031 A 
ATOM     86  C   UNL A   1      45.546  29.423  35.213  1.00  0.00     0.131 A 
ATOM     87  C   UNL A   1      45.329  27.436  37.129  1.00  0.00     0.055 A 
ATOM     88  C   UNL A   1      46.688  28.984  35.882  1.00  0.00     0.041 A 
ATOM     89  F   UNL A   1      45.689  30.409  34.312  1.00  0.00    -0.206 F 
ATOM     90  C   UNL A   1      46.582  27.993  36.855  1.00  0.00     0.022 A 
BRANCH  87  91
ATOM     91  S   UNL A   1      45.145  26.234  38.475  1.00  0.00     0.124 S 
ATOM     92  O   UNL A   1      45.271  24.964  37.768  1.00  0.00    -0.237 OA
ATOM     93  O   UNL A   1      46.250  26.586  39.360  1.00  0.00    -0.237 OA
ATOM     94  O   UNL A   1      43.812  26.517  39.007  1.00  0.00    -0.744 OA
ENDBRANCH  87  91
ENDBRANCH  61  84
ENDBRANCH  35  36
ENDBRANCH  27  30
ENDBRANCH  25  26
ENDBRANCH   1  25
TORSDOF 15
ENDMDL
