MODEL 1
REMARK VINA RESULT:     -13.6      0.000      0.000
REMARK SMILES Cc1ccc2[nH]cc([C@@H](C(=O)NCCCNC(=O)c3ccc(-c4c5nc(c(-c6cc(S(=O)(=O)[O-])ccc6F)c6ccc([nH]6)c(-c6cc(S(=O)(=O)[O-])ccc6F)c6nc(c(-c7cc(S(=O)(=O)[O-])ccc7F)c7ccc4[nH]7)C=C6)C=C5)cc3)[NH+]3CCN(c4cccc(Cl)c4)CC3)c2c1
REMARK SMILES IDX 14 1 13 2 12 3 10 4 11 5 9 7 8 8 1 9 2 10 3 11 96 12 4 13
REMARK SMILES IDX 95 14 5 15 6 16 7 17 82 19 83 20 94 21 84 23 93 24 85 25
REMARK SMILES IDX 86 26 87 27 92 28 88 29 90 30 89 31 91 32 15 33 16 34 17 35
REMARK SMILES IDX 18 37 19 38 20 39 81 40 21 41 80 42 22 43 23 44 24 45 74 46
REMARK SMILES IDX 25 47 79 48 73 49 75 50 26 51 78 52 72 53 71 54 27 56 59 57
REMARK SMILES IDX 39 58 58 59 40 60 43 61 57 62 76 63 41 64 42 65 56 67 77 68
REMARK SMILES IDX 44 69 28 70 29 71 37 72 30 73 36 74 38 75 35 76 31 77 32 78
REMARK SMILES IDX 33 79 34 80 60 81 61 82 69 83 62 84 68 85 70 86 67 87 63 88
REMARK SMILES IDX 64 89 65 90 66 91 45 92 46 93 54 94 47 95 53 96 55 97 52 98
REMARK SMILES IDX 48 99 49 100 50 101 51 102
REMARK H PARENT 12 6 6 18 82 22 16 36 75 55 43 66
REMARK Flexibility Score: inf
ROOT
ATOM      1  C   UNL A   1      32.777  29.738  25.717  1.00  0.00     0.042 C 
ENDROOT
BRANCH   1   2
ATOM      2  C   UNL A   1      33.744  28.561  25.814  1.00  0.00     0.118 C 
BRANCH   2   3
ATOM      3  N   UNL A   1      33.088  27.322  26.185  1.00  0.00    -0.351 N 
ATOM      4  C   UNL A   1      32.158  26.577  25.503  1.00  0.00     0.283 C 
ATOM      5  O   UNL A   1      31.766  25.558  26.081  1.00  0.00    -0.268 OA
ATOM      6  H   UNL A   1      33.349  26.960  27.062  1.00  0.00     0.163 HD
BRANCH   4   7
ATOM      7  C   UNL A   1      31.711  27.007  24.066  1.00  0.00     0.307 C 
BRANCH   7   8
ATOM      8  C   UNL A   1      30.212  27.033  23.909  1.00  0.00     0.044 A 
ATOM      9  C   UNL A   1      29.008  31.917  22.887  1.00  0.00     0.044 C 
ATOM     10  C   UNL A   1      28.688  30.458  23.033  1.00  0.00    -0.050 A 
ATOM     11  C   UNL A   1      27.367  30.007  22.973  1.00  0.00     0.005 A 
ATOM     12  C   UNL A   1      29.723  29.542  23.291  1.00  0.00     0.014 A 
ATOM     13  C   UNL A   1      27.044  28.666  23.199  1.00  0.00     0.027 A 
ATOM     14  C   UNL A   1      29.422  28.186  23.552  1.00  0.00     0.009 A 
ATOM     15  C   UNL A   1      28.087  27.790  23.515  1.00  0.00     0.046 A 
ATOM     16  N   UNL A   1      28.048  26.460  23.861  1.00  0.00    -0.361 N 
ATOM     17  C   UNL A   1      29.306  26.017  24.166  1.00  0.00     0.094 A 
ATOM     18  H   UNL A   1      27.233  25.908  23.886  1.00  0.00     0.166 HD
ENDBRANCH   7   8
BRANCH   7  19
ATOM     19  N   UNL A   1      32.414  26.261  22.992  1.00  0.00    -0.318 N 
ATOM     20  C   UNL A   1      33.873  26.090  23.087  1.00  0.00     0.284 C 
ATOM     21  C   UNL A   1      31.774  24.997  22.589  1.00  0.00     0.284 C 
ATOM     22  H   UNL A   1      32.293  26.946  22.245  1.00  0.00     0.349 HD
ATOM     23  C   UNL A   1      34.406  24.824  23.791  1.00  0.00     0.178 C 
ATOM     24  C   UNL A   1      32.216  23.721  23.345  1.00  0.00     0.178 C 
ATOM     25  N   UNL A   1      33.682  23.610  23.391  1.00  0.00    -0.360 N 
BRANCH  25  26
ATOM     26  C   UNL A   1      34.158  22.404  23.912  1.00  0.00     0.038 A 
ATOM     27  C   UNL A   1      33.318  21.313  24.185  1.00  0.00     0.026 A 
ATOM     28  C   UNL A   1      35.526  22.268  24.172  1.00  0.00     0.046 A 
ATOM     29  C   UNL A   1      33.821  20.132  24.736  1.00  0.00     0.004 A 
ATOM     30  C   UNL A   1      36.029  21.090  24.725  1.00  0.00     0.043 A 
ATOM     31  C   UNL A   1      35.181  20.023  25.014  1.00  0.00     0.020 A 
ATOM     32  Cl  UNL A   1      37.710  20.957  25.067  1.00  0.00    -0.084 Cl
ENDBRANCH  25  26
ENDBRANCH   7  19
ENDBRANCH   4   7
ENDBRANCH   2   3
ENDBRANCH   1   2
BRANCH   1  33
ATOM     33  C   UNL A   1      32.467  30.411  27.048  1.00  0.00     0.118 C 
BRANCH  33  34
ATOM     34  N   UNL A   1      32.669  31.848  26.998  1.00  0.00    -0.352 N 
ATOM     35  C   UNL A   1      33.626  32.631  27.594  1.00  0.00     0.251 C 
ATOM     36  H   UNL A   1      32.015  32.340  26.450  1.00  0.00     0.163 HD
ATOM     37  O   UNL A   1      33.466  33.848  27.606  1.00  0.00    -0.269 OA
BRANCH  35  38
ATOM     38  C   UNL A   1      34.825  32.032  28.227  1.00  0.00     0.039 A 
ATOM     39  C   UNL A   1      35.987  32.805  28.313  1.00  0.00     0.014 A 
ATOM     40  C   UNL A   1      34.841  30.708  28.680  1.00  0.00     0.014 A 
ATOM     41  C   UNL A   1      37.144  32.268  28.882  1.00  0.00     0.010 A 
ATOM     42  C   UNL A   1      35.973  30.199  29.318  1.00  0.00     0.010 A 
ATOM     43  C   UNL A   1      37.141  30.968  29.412  1.00  0.00    -0.014 A 
BRANCH  43  44
ATOM     44  C   UNL A   1      38.362  30.411  30.054  1.00  0.00     0.031 A 
ATOM     45  C   UNL A   1      38.747  30.818  31.452  1.00  0.00     0.074 A 
ATOM     46  C   UNL A   1      39.142  29.558  29.360  1.00  0.00     0.049 A 
ATOM     47  N   UNL A   1      39.762  30.423  32.178  1.00  0.00    -0.248 NA
ATOM     48  C   UNL A   1      37.897  31.822  32.105  1.00  0.00     0.031 C 
ATOM     49  C   UNL A   1      38.908  29.140  27.977  1.00  0.00     0.029 A 
ATOM     50  N   UNL A   1      40.284  28.889  29.721  1.00  0.00    -0.354 N 
ATOM     51  C   UNL A   1      39.679  31.139  33.370  1.00  0.00     0.074 A 
ATOM     52  C   UNL A   1      38.551  32.037  33.236  1.00  0.00     0.031 C 
ATOM     53  C   UNL A   1      39.857  28.261  27.618  1.00  0.00     0.029 A 
ATOM     54  C   UNL A   1      40.783  28.076  28.730  1.00  0.00     0.049 A 
ATOM     55  H   UNL A   1      40.707  28.981  30.604  1.00  0.00     0.167 HD
ATOM     56  C   UNL A   1      40.454  31.038  34.479  1.00  0.00     0.034 A 
ATOM     57  C   UNL A   1      41.862  27.269  28.718  1.00  0.00     0.034 A 
ATOM     58  C   UNL A   1      41.568  30.127  34.598  1.00  0.00     0.049 A 
ATOM     59  C   UNL A   1      42.694  27.151  29.968  1.00  0.00     0.074 A 
ATOM     60  C   UNL A   1      42.382  29.894  35.693  1.00  0.00     0.029 A 
ATOM     61  N   UNL A   1      42.031  29.300  33.580  1.00  0.00    -0.354 N 
ATOM     62  N   UNL A   1      42.560  27.780  31.112  1.00  0.00    -0.248 NA
ATOM     63  C   UNL A   1      43.808  26.196  29.931  1.00  0.00     0.031 C 
ATOM     64  C   UNL A   1      43.374  28.979  35.318  1.00  0.00     0.029 A 
ATOM     65  C   UNL A   1      43.135  28.580  34.013  1.00  0.00     0.049 A 
ATOM     66  H   UNL A   1      41.633  29.235  32.682  1.00  0.00     0.167 HD
ATOM     67  C   UNL A   1      43.556  27.274  31.942  1.00  0.00     0.074 A 
ATOM     68  C   UNL A   1      44.271  26.278  31.170  1.00  0.00     0.031 C 
ATOM     69  C   UNL A   1      43.850  27.600  33.228  1.00  0.00     0.034 A 
BRANCH  56  70
ATOM     70  C   UNL A   1      40.134  31.958  35.636  1.00  0.00     0.023 A 
ATOM     71  C   UNL A   1      39.161  31.630  36.597  1.00  0.00     0.031 A 
ATOM     72  C   UNL A   1      40.783  33.200  35.761  1.00  0.00     0.131 A 
ATOM     73  C   UNL A   1      38.804  32.562  37.583  1.00  0.00     0.055 A 
ATOM     74  C   UNL A   1      40.485  34.088  36.797  1.00  0.00     0.041 A 
ATOM     75  F   UNL A   1      41.708  33.581  34.866  1.00  0.00    -0.206 F 
ATOM     76  C   UNL A   1      39.476  33.779  37.705  1.00  0.00     0.022 A 
BRANCH  73  77
ATOM     77  S   UNL A   1      37.339  32.228  38.600  1.00  0.00     0.124 S 
ATOM     78  O   UNL A   1      37.194  30.782  38.442  1.00  0.00    -0.237 OA
ATOM     79  O   UNL A   1      37.758  32.688  39.918  1.00  0.00    -0.237 OA
ATOM     80  O   UNL A   1      36.291  33.024  37.963  1.00  0.00    -0.744 OA
ENDBRANCH  73  77
ENDBRANCH  56  70
BRANCH  57  81
ATOM     81  C   UNL A   1      42.206  26.500  27.489  1.00  0.00     0.023 A 
ATOM     82  C   UNL A   1      41.936  25.127  27.391  1.00  0.00     0.031 A 
ATOM     83  C   UNL A   1      42.826  27.132  26.396  1.00  0.00     0.131 A 
ATOM     84  C   UNL A   1      42.316  24.421  26.240  1.00  0.00     0.055 A 
ATOM     85  C   UNL A   1      43.160  26.435  25.234  1.00  0.00     0.041 A 
ATOM     86  F   UNL A   1      43.093  28.447  26.434  1.00  0.00    -0.206 F 
ATOM     87  C   UNL A   1      42.915  25.067  25.156  1.00  0.00     0.022 A 
BRANCH  84  88
ATOM     88  S   UNL A   1      42.070  22.623  26.201  1.00  0.00     0.124 S 
ATOM     89  O   UNL A   1      42.718  22.262  24.946  1.00  0.00    -0.237 OA
ATOM     90  O   UNL A   1      42.749  22.199  27.420  1.00  0.00    -0.237 OA
ATOM     91  O   UNL A   1      40.615  22.480  26.218  1.00  0.00    -0.744 OA
ENDBRANCH  84  88
ENDBRANCH  57  81
BRANCH  69  92
ATOM     92  C   UNL A   1      44.973  26.834  33.886  1.00  0.00     0.023 A 
ATOM     93  C   UNL A   1      44.758  25.595  34.512  1.00  0.00     0.031 A 
ATOM     94  C   UNL A   1      46.273  27.371  33.910  1.00  0.00     0.131 A 
ATOM     95  C   UNL A   1      45.811  24.963  35.191  1.00  0.00     0.055 A 
ATOM     96  C   UNL A   1      47.330  26.708  34.533  1.00  0.00     0.041 A 
ATOM     97  F   UNL A   1      46.536  28.553  33.330  1.00  0.00    -0.206 F 
ATOM     98  C   UNL A   1      47.099  25.503  35.192  1.00  0.00     0.022 A 
BRANCH  95  99
ATOM     99  S   UNL A   1      45.449  23.477  36.167  1.00  0.00     0.124 S 
ATOM    100  O   UNL A   1      45.290  24.026  37.510  1.00  0.00    -0.237 OA
ATOM    101  O   UNL A   1      44.232  22.977  35.535  1.00  0.00    -0.237 OA
ATOM    102  O   UNL A   1      46.634  22.643  35.975  1.00  0.00    -0.744 OA
ENDBRANCH  95  99
ENDBRANCH  69  92
ENDBRANCH  43  44
ENDBRANCH  35  38
ENDBRANCH  33  34
ENDBRANCH   1  33
TORSDOF 16
ENDMDL
MODEL 2
REMARK VINA RESULT:     -13.5      4.778      9.735
REMARK SMILES Cc1ccc2[nH]cc([C@@H](C(=O)NCCCNC(=O)c3ccc(-c4c5nc(c(-c6cc(S(=O)(=O)[O-])ccc6F)c6ccc([nH]6)c(-c6cc(S(=O)(=O)[O-])ccc6F)c6nc(c(-c7cc(S(=O)(=O)[O-])ccc7F)c7ccc4[nH]7)C=C6)C=C5)cc3)[NH+]3CCN(c4cccc(Cl)c4)CC3)c2c1
REMARK SMILES IDX 14 1 13 2 12 3 10 4 11 5 9 7 8 8 1 9 2 10 3 11 96 12 4 13
REMARK SMILES IDX 95 14 5 15 6 16 7 17 82 19 83 20 94 21 84 23 93 24 85 25
REMARK SMILES IDX 86 26 87 27 92 28 88 29 90 30 89 31 91 32 15 33 16 34 17 35
REMARK SMILES IDX 18 37 19 38 20 39 81 40 21 41 80 42 22 43 23 44 24 45 74 46
REMARK SMILES IDX 25 47 79 48 73 49 75 50 26 51 78 52 72 53 71 54 27 56 59 57
REMARK SMILES IDX 39 58 58 59 40 60 43 61 57 62 76 63 41 64 42 65 56 67 77 68
REMARK SMILES IDX 44 69 28 70 29 71 37 72 30 73 36 74 38 75 35 76 31 77 32 78
REMARK SMILES IDX 33 79 34 80 60 81 61 82 69 83 62 84 68 85 70 86 67 87 63 88
REMARK SMILES IDX 64 89 65 90 66 91 45 92 46 93 54 94 47 95 53 96 55 97 52 98
REMARK SMILES IDX 48 99 49 100 50 101 51 102
REMARK H PARENT 12 6 6 18 82 22 16 36 75 55 43 66
REMARK Flexibility Score: inf
ROOT
ATOM      1  C   UNL A   1      36.063  22.923  26.059  1.00  0.00     0.042 C 
ENDROOT
BRANCH   1   2
ATOM      2  C   UNL A   1      34.911  23.844  25.666  1.00  0.00     0.118 C 
BRANCH   2   3
ATOM      3  N   UNL A   1      34.162  23.353  24.525  1.00  0.00    -0.351 N 
ATOM      4  C   UNL A   1      33.375  24.030  23.628  1.00  0.00     0.283 C 
ATOM      5  O   UNL A   1      32.847  23.335  22.753  1.00  0.00    -0.268 OA
ATOM      6  H   UNL A   1      34.229  22.382  24.371  1.00  0.00     0.163 HD
BRANCH   4   7
ATOM      7  C   UNL A   1      33.243  25.586  23.721  1.00  0.00     0.307 C 
BRANCH   7   8
ATOM      8  C   UNL A   1      32.400  26.028  24.891  1.00  0.00     0.044 A 
ATOM      9  C   UNL A   1      35.120  29.681  27.258  1.00  0.00     0.044 C 
ATOM     10  C   UNL A   1      33.885  28.856  27.039  1.00  0.00    -0.050 A 
ATOM     11  C   UNL A   1      32.808  28.931  27.927  1.00  0.00     0.005 A 
ATOM     12  C   UNL A   1      33.833  27.956  25.961  1.00  0.00     0.014 A 
ATOM     13  C   UNL A   1      31.691  28.103  27.788  1.00  0.00     0.027 A 
ATOM     14  C   UNL A   1      32.729  27.087  25.814  1.00  0.00     0.009 A 
ATOM     15  C   UNL A   1      31.695  27.174  26.743  1.00  0.00     0.046 A 
ATOM     16  N   UNL A   1      30.782  26.196  26.428  1.00  0.00    -0.361 N 
ATOM     17  C   UNL A   1      31.229  25.461  25.364  1.00  0.00     0.094 A 
ATOM     18  H   UNL A   1      29.931  26.047  26.901  1.00  0.00     0.166 HD
ENDBRANCH   7   8
BRANCH   7  19
ATOM     19  N   UNL A   1      32.855  26.215  22.432  1.00  0.00    -0.318 N 
ATOM     20  C   UNL A   1      31.457  26.107  21.985  1.00  0.00     0.284 C 
ATOM     21  C   UNL A   1      33.354  27.586  22.232  1.00  0.00     0.284 C 
ATOM     22  H   UNL A   1      33.363  25.584  21.811  1.00  0.00     0.349 HD
ATOM     23  C   UNL A   1      30.481  27.232  22.389  1.00  0.00     0.178 C 
ATOM     24  C   UNL A   1      32.440  28.737  22.718  1.00  0.00     0.178 C 
ATOM     25  N   UNL A   1      31.065  28.570  22.225  1.00  0.00    -0.360 N 
BRANCH  25  26
ATOM     26  C   UNL A   1      30.219  29.652  22.483  1.00  0.00     0.038 A 
ATOM     27  C   UNL A   1      29.989  30.140  23.778  1.00  0.00     0.026 A 
ATOM     28  C   UNL A   1      29.573  30.280  21.413  1.00  0.00     0.046 A 
ATOM     29  C   UNL A   1      29.112  31.204  24.006  1.00  0.00     0.004 A 
ATOM     30  C   UNL A   1      28.694  31.340  21.639  1.00  0.00     0.043 A 
ATOM     31  C   UNL A   1      28.456  31.801  22.933  1.00  0.00     0.020 A 
ATOM     32  Cl  UNL A   1      27.886  32.077  20.311  1.00  0.00    -0.084 Cl
ENDBRANCH  25  26
ENDBRANCH   7  19
ENDBRANCH   4   7
ENDBRANCH   2   3
ENDBRANCH   1   2
BRANCH   1  33
ATOM     33  C   UNL A   1      37.376  23.217  25.346  1.00  0.00     0.118 C 
BRANCH  33  34
ATOM     34  N   UNL A   1      38.408  22.248  25.670  1.00  0.00    -0.352 N 
ATOM     35  C   UNL A   1      39.666  22.431  26.188  1.00  0.00     0.251 C 
ATOM     36  H   UNL A   1      38.167  21.310  25.488  1.00  0.00     0.163 HD
ATOM     37  O   UNL A   1      40.455  21.490  26.161  1.00  0.00    -0.269 OA
BRANCH  35  38
ATOM     38  C   UNL A   1      40.081  23.734  26.757  1.00  0.00     0.039 A 
ATOM     39  C   UNL A   1      40.237  24.819  25.889  1.00  0.00     0.014 A 
ATOM     40  C   UNL A   1      40.377  23.889  28.116  1.00  0.00     0.014 A 
ATOM     41  C   UNL A   1      40.649  26.058  26.385  1.00  0.00     0.010 A 
ATOM     42  C   UNL A   1      40.713  25.146  28.622  1.00  0.00     0.010 A 
ATOM     43  C   UNL A   1      40.868  26.240  27.760  1.00  0.00    -0.014 A 
BRANCH  43  44
ATOM     44  C   UNL A   1      41.267  27.570  28.292  1.00  0.00     0.031 A 
ATOM     45  C   UNL A   1      42.720  27.954  28.384  1.00  0.00     0.074 A 
ATOM     46  C   UNL A   1      40.315  28.423  28.720  1.00  0.00     0.049 A 
ATOM     47  N   UNL A   1      43.255  29.074  28.801  1.00  0.00    -0.248 NA
ATOM     48  C   UNL A   1      43.700  26.934  27.984  1.00  0.00     0.031 C 
ATOM     49  C   UNL A   1      38.879  28.139  28.741  1.00  0.00     0.029 A 
ATOM     50  N   UNL A   1      40.409  29.699  29.217  1.00  0.00    -0.354 N 
ATOM     51  C   UNL A   1      44.633  28.890  28.725  1.00  0.00     0.074 A 
ATOM     52  C   UNL A   1      44.845  27.527  28.283  1.00  0.00     0.031 C 
ATOM     53  C   UNL A   1      38.225  29.220  29.194  1.00  0.00     0.029 A 
ATOM     54  C   UNL A   1      39.192  30.261  29.525  1.00  0.00     0.049 A 
ATOM     55  H   UNL A   1      41.265  30.167  29.341  1.00  0.00     0.167 HD
ATOM     56  C   UNL A   1      45.626  29.781  28.974  1.00  0.00     0.034 A 
ATOM     57  C   UNL A   1      38.888  31.479  30.014  1.00  0.00     0.034 A 
ATOM     58  C   UNL A   1      45.394  31.140  29.402  1.00  0.00     0.049 A 
ATOM     59  C   UNL A   1      40.002  32.462  30.260  1.00  0.00     0.074 A 
ATOM     60  C   UNL A   1      46.318  32.146  29.623  1.00  0.00     0.029 A 
ATOM     61  N   UNL A   1      44.145  31.683  29.682  1.00  0.00    -0.354 N 
ATOM     62  N   UNL A   1      41.296  32.298  30.114  1.00  0.00    -0.248 NA
ATOM     63  C   UNL A   1      39.611  33.802  30.714  1.00  0.00     0.031 C 
ATOM     64  C   UNL A   1      45.637  33.274  30.098  1.00  0.00     0.029 A 
ATOM     65  C   UNL A   1      44.278  32.999  30.101  1.00  0.00     0.049 A 
ATOM     66  H   UNL A   1      43.290  31.203  29.596  1.00  0.00     0.167 HD
ATOM     67  C   UNL A   1      41.873  33.524  30.429  1.00  0.00     0.074 A 
ATOM     68  C   UNL A   1      40.783  34.421  30.758  1.00  0.00     0.031 C 
ATOM     69  C   UNL A   1      43.184  33.879  30.441  1.00  0.00     0.034 A 
BRANCH  56  70
ATOM     70  C   UNL A   1      47.050  29.296  28.814  1.00  0.00     0.023 A 
ATOM     71  C   UNL A   1      47.656  29.177  27.551  1.00  0.00     0.031 A 
ATOM     72  C   UNL A   1      47.803  28.910  29.938  1.00  0.00     0.131 A 
ATOM     73  C   UNL A   1      48.933  28.607  27.433  1.00  0.00     0.055 A 
ATOM     74  C   UNL A   1      49.107  28.424  29.822  1.00  0.00     0.041 A 
ATOM     75  F   UNL A   1      47.276  28.981  31.171  1.00  0.00    -0.206 F 
ATOM     76  C   UNL A   1      49.673  28.253  28.562  1.00  0.00     0.022 A 
BRANCH  73  77
ATOM     77  S   UNL A   1      49.543  28.186  25.777  1.00  0.00     0.124 S 
ATOM     78  O   UNL A   1      48.309  28.208  24.993  1.00  0.00    -0.237 OA
ATOM     79  O   UNL A   1      50.490  29.260  25.507  1.00  0.00    -0.237 OA
ATOM     80  O   UNL A   1      50.134  26.861  25.957  1.00  0.00    -0.744 OA
ENDBRANCH  73  77
ENDBRANCH  56  70
BRANCH  57  81
ATOM     81  C   UNL A   1      37.469  31.840  30.290  1.00  0.00     0.023 A 
ATOM     82  C   UNL A   1      36.659  32.414  29.298  1.00  0.00     0.031 A 
ATOM     83  C   UNL A   1      36.906  31.626  31.561  1.00  0.00     0.131 A 
ATOM     84  C   UNL A   1      35.341  32.787  29.602  1.00  0.00     0.055 A 
ATOM     85  C   UNL A   1      35.580  31.956  31.845  1.00  0.00     0.041 A 
ATOM     86  F   UNL A   1      37.634  31.067  32.541  1.00  0.00    -0.206 F 
ATOM     87  C   UNL A   1      34.792  32.551  30.865  1.00  0.00     0.022 A 
BRANCH  84  88
ATOM     88  S   UNL A   1      34.366  33.645  28.335  1.00  0.00     0.124 S 
ATOM     89  O   UNL A   1      33.794  34.749  29.096  1.00  0.00    -0.237 OA
ATOM     90  O   UNL A   1      35.388  34.000  27.356  1.00  0.00    -0.237 OA
ATOM     91  O   UNL A   1      33.412  32.628  27.895  1.00  0.00    -0.744 OA
ENDBRANCH  84  88
ENDBRANCH  57  81
BRANCH  69  92
ATOM     92  C   UNL A   1      43.499  35.315  30.785  1.00  0.00     0.023 A 
ATOM     93  C   UNL A   1      43.606  35.752  32.117  1.00  0.00     0.031 A 
ATOM     94  C   UNL A   1      43.665  36.266  29.763  1.00  0.00     0.131 A 
ATOM     95  C   UNL A   1      43.808  37.113  32.393  1.00  0.00     0.055 A 
ATOM     96  C   UNL A   1      43.928  37.607  30.042  1.00  0.00     0.041 A 
ATOM     97  F   UNL A   1      43.571  35.906  28.473  1.00  0.00    -0.206 F 
ATOM     98  C   UNL A   1      43.985  38.040  31.364  1.00  0.00     0.022 A 
BRANCH  95  99
ATOM     99  S   UNL A   1      43.726  37.673  34.116  1.00  0.00     0.124 S 
ATOM    100  O   UNL A   1      43.264  36.472  34.805  1.00  0.00    -0.237 OA
ATOM    101  O   UNL A   1      45.106  38.069  34.380  1.00  0.00    -0.237 OA
ATOM    102  O   UNL A   1      42.764  38.773  34.074  1.00  0.00    -0.744 OA
ENDBRANCH  95  99
ENDBRANCH  69  92
ENDBRANCH  43  44
ENDBRANCH  35  38
ENDBRANCH  33  34
ENDBRANCH   1  33
TORSDOF 16
ENDMDL
MODEL 3
REMARK VINA RESULT:     -13.5      4.952     10.032
REMARK SMILES Cc1ccc2[nH]cc([C@@H](C(=O)NCCCNC(=O)c3ccc(-c4c5nc(c(-c6cc(S(=O)(=O)[O-])ccc6F)c6ccc([nH]6)c(-c6cc(S(=O)(=O)[O-])ccc6F)c6nc(c(-c7cc(S(=O)(=O)[O-])ccc7F)c7ccc4[nH]7)C=C6)C=C5)cc3)[NH+]3CCN(c4cccc(Cl)c4)CC3)c2c1
REMARK SMILES IDX 14 1 13 2 12 3 10 4 11 5 9 7 8 8 1 9 2 10 3 11 96 12 4 13
REMARK SMILES IDX 95 14 5 15 6 16 7 17 82 19 83 20 94 21 84 23 93 24 85 25
REMARK SMILES IDX 86 26 87 27 92 28 88 29 90 30 89 31 91 32 15 33 16 34 17 35
REMARK SMILES IDX 18 37 19 38 20 39 81 40 21 41 80 42 22 43 23 44 24 45 74 46
REMARK SMILES IDX 25 47 79 48 73 49 75 50 26 51 78 52 72 53 71 54 27 56 59 57
REMARK SMILES IDX 39 58 58 59 40 60 43 61 57 62 76 63 41 64 42 65 56 67 77 68
REMARK SMILES IDX 44 69 28 70 29 71 37 72 30 73 36 74 38 75 35 76 31 77 32 78
REMARK SMILES IDX 33 79 34 80 60 81 61 82 69 83 62 84 68 85 70 86 67 87 63 88
REMARK SMILES IDX 64 89 65 90 66 91 45 92 46 93 54 94 47 95 53 96 55 97 52 98
REMARK SMILES IDX 48 99 49 100 50 101 51 102
REMARK H PARENT 12 6 6 18 82 22 16 36 75 55 43 66
REMARK Flexibility Score: inf
ROOT
ATOM      1  C   UNL A   1      36.789  22.665  24.328  1.00  0.00     0.042 C 
ENDROOT
BRANCH   1   2
ATOM      2  C   UNL A   1      35.789  23.745  23.923  1.00  0.00     0.118 C 
BRANCH   2   3
ATOM      3  N   UNL A   1      34.485  23.207  23.584  1.00  0.00    -0.351 N 
ATOM      4  C   UNL A   1      33.275  23.841  23.452  1.00  0.00     0.283 C 
ATOM      5  O   UNL A   1      32.321  23.111  23.160  1.00  0.00    -0.268 OA
ATOM      6  H   UNL A   1      34.465  22.235  23.425  1.00  0.00     0.163 HD
BRANCH   4   7
ATOM      7  C   UNL A   1      33.185  25.395  23.610  1.00  0.00     0.307 C 
BRANCH   7   8
ATOM      8  C   UNL A   1      32.364  25.810  24.805  1.00  0.00     0.044 A 
ATOM      9  C   UNL A   1      35.115  29.431  27.186  1.00  0.00     0.044 C 
ATOM     10  C   UNL A   1      33.880  28.604  26.976  1.00  0.00    -0.050 A 
ATOM     11  C   UNL A   1      32.822  28.656  27.887  1.00  0.00     0.005 A 
ATOM     12  C   UNL A   1      33.811  27.724  25.882  1.00  0.00     0.014 A 
ATOM     13  C   UNL A   1      31.706  27.825  27.756  1.00  0.00     0.027 A 
ATOM     14  C   UNL A   1      32.707  26.853  25.741  1.00  0.00     0.009 A 
ATOM     15  C   UNL A   1      31.693  26.917  26.693  1.00  0.00     0.046 A 
ATOM     16  N   UNL A   1      30.778  25.940  26.379  1.00  0.00    -0.361 N 
ATOM     17  C   UNL A   1      31.206  25.228  25.292  1.00  0.00     0.094 A 
ATOM     18  H   UNL A   1      29.938  25.778  26.866  1.00  0.00     0.166 HD
ENDBRANCH   7   8
BRANCH   7  19
ATOM     19  N   UNL A   1      32.802  26.086  22.352  1.00  0.00    -0.318 N 
ATOM     20  C   UNL A   1      31.394  26.048  21.924  1.00  0.00     0.284 C 
ATOM     21  C   UNL A   1      33.350  27.444  22.194  1.00  0.00     0.284 C 
ATOM     22  H   UNL A   1      33.276  25.460  21.700  1.00  0.00     0.349 HD
ATOM     23  C   UNL A   1      30.468  27.193  22.386  1.00  0.00     0.178 C 
ATOM     24  C   UNL A   1      32.489  28.609  22.738  1.00  0.00     0.178 C 
ATOM     25  N   UNL A   1      31.101  28.514  22.262  1.00  0.00    -0.360 N 
BRANCH  25  26
ATOM     26  C   UNL A   1      30.301  29.616  22.574  1.00  0.00     0.038 A 
ATOM     27  C   UNL A   1      30.152  30.096  23.884  1.00  0.00     0.026 A 
ATOM     28  C   UNL A   1      29.621  30.276  21.544  1.00  0.00     0.046 A 
ATOM     29  C   UNL A   1      29.318  31.182  24.166  1.00  0.00     0.004 A 
ATOM     30  C   UNL A   1      28.786  31.358  21.826  1.00  0.00     0.043 A 
ATOM     31  C   UNL A   1      28.627  31.810  23.134  1.00  0.00     0.020 A 
ATOM     32  Cl  UNL A   1      27.934  32.134  20.548  1.00  0.00    -0.084 Cl
ENDBRANCH  25  26
ENDBRANCH   7  19
ENDBRANCH   4   7
ENDBRANCH   2   3
ENDBRANCH   1   2
BRANCH   1  33
ATOM     33  C   UNL A   1      37.153  22.666  25.807  1.00  0.00     0.118 C 
BRANCH  33  34
ATOM     34  N   UNL A   1      38.272  21.788  26.099  1.00  0.00    -0.352 N 
ATOM     35  C   UNL A   1      39.560  22.085  26.467  1.00  0.00     0.251 C 
ATOM     36  H   UNL A   1      38.075  20.826  26.020  1.00  0.00     0.163 HD
ATOM     37  O   UNL A   1      40.402  21.192  26.434  1.00  0.00    -0.269 OA
BRANCH  35  38
ATOM     38  C   UNL A   1      39.944  23.454  26.884  1.00  0.00     0.039 A 
ATOM     39  C   UNL A   1      40.597  23.618  28.109  1.00  0.00     0.014 A 
ATOM     40  C   UNL A   1      39.620  24.580  26.119  1.00  0.00     0.014 A 
ATOM     41  C   UNL A   1      40.955  24.894  28.547  1.00  0.00     0.010 A 
ATOM     42  C   UNL A   1      40.047  25.847  26.520  1.00  0.00     0.010 A 
ATOM     43  C   UNL A   1      40.705  26.020  27.745  1.00  0.00    -0.014 A 
BRANCH  43  44
ATOM     44  C   UNL A   1      41.123  27.375  28.195  1.00  0.00     0.031 A 
ATOM     45  C   UNL A   1      42.570  27.786  28.149  1.00  0.00     0.074 A 
ATOM     46  C   UNL A   1      40.194  28.227  28.673  1.00  0.00     0.049 A 
ATOM     47  N   UNL A   1      43.117  28.928  28.479  1.00  0.00    -0.248 NA
ATOM     48  C   UNL A   1      43.532  26.768  27.702  1.00  0.00     0.031 C 
ATOM     49  C   UNL A   1      38.771  27.921  28.827  1.00  0.00     0.029 A 
ATOM     50  N   UNL A   1      40.305  29.521  29.116  1.00  0.00    -0.354 N 
ATOM     51  C   UNL A   1      44.487  28.764  28.292  1.00  0.00     0.074 A 
ATOM     52  C   UNL A   1      44.687  27.390  27.881  1.00  0.00     0.031 C 
ATOM     53  C   UNL A   1      38.136  29.006  29.297  1.00  0.00     0.029 A 
ATOM     54  C   UNL A   1      39.108  30.074  29.508  1.00  0.00     0.049 A 
ATOM     55  H   UNL A   1      41.159  30.008  29.150  1.00  0.00     0.167 HD
ATOM     56  C   UNL A   1      45.480  29.680  28.424  1.00  0.00     0.034 A 
ATOM     57  C   UNL A   1      38.823  31.303  29.979  1.00  0.00     0.034 A 
ATOM     58  C   UNL A   1      45.259  31.050  28.823  1.00  0.00     0.049 A 
ATOM     59  C   UNL A   1      39.934  32.313  30.094  1.00  0.00     0.074 A 
ATOM     60  C   UNL A   1      46.178  32.078  28.929  1.00  0.00     0.029 A 
ATOM     61  N   UNL A   1      44.028  31.582  29.190  1.00  0.00    -0.354 N 
ATOM     62  N   UNL A   1      41.215  32.165  29.843  1.00  0.00    -0.248 NA
ATOM     63  C   UNL A   1      39.558  33.662  30.533  1.00  0.00     0.031 C 
ATOM     64  C   UNL A   1      45.518  33.211  29.421  1.00  0.00     0.029 A 
ATOM     65  C   UNL A   1      44.171  32.915  29.550  1.00  0.00     0.049 A 
ATOM     66  H   UNL A   1      43.178  31.085  29.194  1.00  0.00     0.167 HD
ATOM     67  C   UNL A   1      41.792  33.411  30.066  1.00  0.00     0.074 A 
ATOM     68  C   UNL A   1      40.717  34.301  30.455  1.00  0.00     0.031 C 
ATOM     69  C   UNL A   1      43.092  33.788  29.953  1.00  0.00     0.034 A 
BRANCH  56  70
ATOM     70  C   UNL A   1      46.894  29.213  28.160  1.00  0.00     0.023 A 
ATOM     71  C   UNL A   1      47.354  28.940  26.859  1.00  0.00     0.031 A 
ATOM     72  C   UNL A   1      47.787  29.001  29.226  1.00  0.00     0.131 A 
ATOM     73  C   UNL A   1      48.631  28.390  26.665  1.00  0.00     0.055 A 
ATOM     74  C   UNL A   1      49.088  28.536  29.019  1.00  0.00     0.041 A 
ATOM     75  F   UNL A   1      47.404  29.225  30.493  1.00  0.00    -0.206 F 
ATOM     76  C   UNL A   1      49.510  28.210  27.733  1.00  0.00     0.022 A 
BRANCH  73  77
ATOM     77  S   UNL A   1      49.062  27.764  25.018  1.00  0.00     0.124 S 
ATOM     78  O   UNL A   1      49.315  26.352  25.295  1.00  0.00    -0.237 OA
ATOM     79  O   UNL A   1      47.862  28.059  24.244  1.00  0.00    -0.237 OA
ATOM     80  O   UNL A   1      50.246  28.542  24.654  1.00  0.00    -0.744 OA
ENDBRANCH  73  77
ENDBRANCH  56  70
BRANCH  57  81
ATOM     81  C   UNL A   1      37.426  31.651  30.363  1.00  0.00     0.023 A 
ATOM     82  C   UNL A   1      36.541  32.231  29.440  1.00  0.00     0.031 A 
ATOM     83  C   UNL A   1      36.959  31.417  31.668  1.00  0.00     0.131 A 
ATOM     84  C   UNL A   1      35.248  32.592  29.845  1.00  0.00     0.055 A 
ATOM     85  C   UNL A   1      35.656  31.734  32.054  1.00  0.00     0.041 A 
ATOM     86  F   UNL A   1      37.761  30.851  32.585  1.00  0.00    -0.206 F 
ATOM     87  C   UNL A   1      34.794  32.336  31.141  1.00  0.00     0.022 A 
BRANCH  84  88
ATOM     88  S   UNL A   1      34.177  33.458  28.664  1.00  0.00     0.124 S 
ATOM     89  O   UNL A   1      35.144  34.246  27.908  1.00  0.00    -0.237 OA
ATOM     90  O   UNL A   1      33.554  32.348  27.950  1.00  0.00    -0.237 OA
ATOM     91  O   UNL A   1      33.277  34.227  29.522  1.00  0.00    -0.744 OA
ENDBRANCH  84  88
ENDBRANCH  57  81
BRANCH  69  92
ATOM     92  C   UNL A   1      43.407  35.240  30.219  1.00  0.00     0.023 A 
ATOM     93  C   UNL A   1      43.373  36.206  29.198  1.00  0.00     0.031 A 
ATOM     94  C   UNL A   1      43.776  35.657  31.511  1.00  0.00     0.131 A 
ATOM     95  C   UNL A   1      43.763  37.526  29.470  1.00  0.00     0.055 A 
ATOM     96  C   UNL A   1      44.102  36.984  31.789  1.00  0.00     0.041 A 
ATOM     97  F   UNL A   1      43.828  34.778  32.524  1.00  0.00    -0.206 F 
ATOM     98  C   UNL A   1      44.112  37.924  30.763  1.00  0.00     0.022 A 
BRANCH  95  99
ATOM     99  S   UNL A   1      43.913  38.692  28.089  1.00  0.00     0.124 S 
ATOM    100  O   UNL A   1      44.879  39.655  28.607  1.00  0.00    -0.237 OA
ATOM    101  O   UNL A   1      44.387  37.833  27.007  1.00  0.00    -0.237 OA
ATOM    102  O   UNL A   1      42.554  39.203  27.923  1.00  0.00    -0.744 OA
ENDBRANCH  95  99
ENDBRANCH  69  92
ENDBRANCH  43  44
ENDBRANCH  35  38
ENDBRANCH  33  34
ENDBRANCH   1  33
TORSDOF 16
ENDMDL
