MODEL 1
REMARK VINA RESULT:     -12.3      0.000      0.000
REMARK SMILES O=C(NCCCNC(=O)[C@H]1CCCCN1C(=O)c1nc(C2CC2)n[nH]1)c1ccc(-c2c3nc(c(-c4cc(S(=O)(=O)[O-])ccc4F)c4ccc([nH]4)c(-c4cc(S(=O)(=O)[O-])ccc4F)c4nc(c(-c5cc(S(=O)(=O)[O-])ccc5F)c5ccc2[nH]5)C=C4)C=C3)cc1
REMARK SMILES IDX 5 1 4 2 3 3 1 4 2 5 26 7 27 8 88 9 28 10 87 11 29 12 30 13
REMARK SMILES IDX 31 14 81 15 32 16 86 17 80 18 82 19 33 20 85 21 79 22 78 23
REMARK SMILES IDX 34 25 66 26 46 27 65 28 47 29 50 30 64 31 83 32 48 33 49 34
REMARK SMILES IDX 63 36 84 37 51 38 35 39 36 40 44 41 37 42 43 43 45 44 42 45
REMARK SMILES IDX 38 46 39 47 40 48 41 49 67 50 68 51 76 52 69 53 75 54 77 55
REMARK SMILES IDX 74 56 70 57 71 58 72 59 73 60 52 61 53 62 61 63 54 64 60 65
REMARK SMILES IDX 62 66 59 67 55 68 56 69 57 70 58 71 6 72 7 73 8 74 9 76
REMARK SMILES IDX 10 77 11 78 15 79 12 80 14 81 13 82 16 83 17 84 18 85 19 86
REMARK SMILES IDX 25 87 20 88 24 89 21 91 22 92 23 93
REMARK H PARENT 3 6 82 24 50 35 7 75 25 90
REMARK Flexibility Score: inf
ROOT
ATOM      1  C   UNL A   1      31.519  31.941  26.594  1.00  0.00     0.042 C 
ENDROOT
BRANCH   1   2
ATOM      2  C   UNL A   1      32.792  32.490  27.213  1.00  0.00     0.118 C 
BRANCH   2   3
ATOM      3  N   UNL A   1      32.624  33.867  27.673  1.00  0.00    -0.352 N 
ATOM      4  O   UNL A   1      32.753  35.588  29.119  1.00  0.00    -0.269 OA
ATOM      5  C   UNL A   1      33.214  34.523  28.730  1.00  0.00     0.251 C 
ATOM      6  H   UNL A   1      31.991  34.408  27.146  1.00  0.00     0.163 HD
BRANCH   5   7
ATOM      7  C   UNL A   1      34.399  33.930  29.385  1.00  0.00     0.039 A 
ATOM      8  C   UNL A   1      34.228  32.998  30.408  1.00  0.00     0.014 A 
ATOM      9  C   UNL A   1      35.686  34.283  28.968  1.00  0.00     0.014 A 
ATOM     10  C   UNL A   1      35.319  32.568  31.140  1.00  0.00     0.010 A 
ATOM     11  C   UNL A   1      36.797  33.730  29.614  1.00  0.00     0.010 A 
ATOM     12  C   UNL A   1      36.620  32.882  30.718  1.00  0.00    -0.014 A 
BRANCH  12  13
ATOM     13  C   UNL A   1      37.750  32.189  31.384  1.00  0.00     0.031 A 
ATOM     14  C   UNL A   1      38.534  31.117  30.687  1.00  0.00     0.074 A 
ATOM     15  C   UNL A   1      38.087  32.601  32.625  1.00  0.00     0.049 A 
ATOM     16  N   UNL A   1      39.559  30.435  31.129  1.00  0.00    -0.248 NA
ATOM     17  C   UNL A   1      38.114  30.752  29.326  1.00  0.00     0.031 C 
ATOM     18  C   UNL A   1      37.379  33.640  33.385  1.00  0.00     0.029 A 
ATOM     19  N   UNL A   1      39.113  32.235  33.454  1.00  0.00    -0.354 N 
ATOM     20  C   UNL A   1      39.893  29.544  30.116  1.00  0.00     0.074 A 
ATOM     21  C   UNL A   1      38.950  29.762  29.039  1.00  0.00     0.031 C 
ATOM     22  C   UNL A   1      38.033  33.875  34.529  1.00  0.00     0.029 A 
ATOM     23  C   UNL A   1      39.138  32.936  34.638  1.00  0.00     0.049 A 
ATOM     24  H   UNL A   1      39.770  31.539  33.224  1.00  0.00     0.167 HD
ATOM     25  C   UNL A   1      40.894  28.630  30.100  1.00  0.00     0.034 A 
ATOM     26  C   UNL A   1      39.937  32.811  35.714  1.00  0.00     0.034 A 
ATOM     27  C   UNL A   1      41.827  28.447  31.188  1.00  0.00     0.049 A 
ATOM     28  C   UNL A   1      41.016  31.766  35.673  1.00  0.00     0.074 A 
ATOM     29  C   UNL A   1      42.904  27.580  31.261  1.00  0.00     0.029 A 
ATOM     30  N   UNL A   1      41.792  29.135  32.395  1.00  0.00    -0.354 N 
ATOM     31  N   UNL A   1      41.326  30.943  34.697  1.00  0.00    -0.248 NA
ATOM     32  C   UNL A   1      41.846  31.627  36.873  1.00  0.00     0.031 C 
ATOM     33  C   UNL A   1      43.472  27.691  32.534  1.00  0.00     0.029 A 
ATOM     34  C   UNL A   1      42.801  28.683  33.232  1.00  0.00     0.049 A 
ATOM     35  H   UNL A   1      41.143  29.840  32.623  1.00  0.00     0.167 HD
ATOM     36  C   UNL A   1      42.398  30.193  35.166  1.00  0.00     0.074 A 
ATOM     37  C   UNL A   1      42.701  30.690  36.494  1.00  0.00     0.031 C 
ATOM     38  C   UNL A   1      43.068  29.180  34.561  1.00  0.00     0.034 A 
BRANCH  25  39
ATOM     39  C   UNL A   1      41.003  27.721  28.900  1.00  0.00     0.023 A 
ATOM     40  C   UNL A   1      41.968  27.914  27.897  1.00  0.00     0.031 A 
ATOM     41  C   UNL A   1      40.133  26.621  28.774  1.00  0.00     0.131 A 
ATOM     42  C   UNL A   1      42.014  27.046  26.794  1.00  0.00     0.055 A 
ATOM     43  C   UNL A   1      40.226  25.725  27.708  1.00  0.00     0.041 A 
ATOM     44  F   UNL A   1      39.177  26.399  29.690  1.00  0.00    -0.206 F 
ATOM     45  C   UNL A   1      41.165  25.939  26.706  1.00  0.00     0.022 A 
BRANCH  42  46
ATOM     46  S   UNL A   1      43.136  27.436  25.424  1.00  0.00     0.124 S 
ATOM     47  O   UNL A   1      43.480  26.104  24.934  1.00  0.00    -0.237 OA
ATOM     48  O   UNL A   1      42.294  28.241  24.545  1.00  0.00    -0.237 OA
ATOM     49  O   UNL A   1      44.232  28.157  26.070  1.00  0.00    -0.744 OA
ENDBRANCH  42  46
ENDBRANCH  25  39
BRANCH  26  50
ATOM     50  C   UNL A   1      39.706  33.643  36.930  1.00  0.00     0.023 A 
ATOM     51  C   UNL A   1      40.489  34.775  37.197  1.00  0.00     0.031 A 
ATOM     52  C   UNL A   1      38.722  33.288  37.872  1.00  0.00     0.131 A 
ATOM     53  C   UNL A   1      40.310  35.481  38.396  1.00  0.00     0.055 A 
ATOM     54  C   UNL A   1      38.501  34.033  39.031  1.00  0.00     0.041 A 
ATOM     55  F   UNL A   1      37.943  32.212  37.670  1.00  0.00    -0.206 F 
ATOM     56  C   UNL A   1      39.312  35.128  39.306  1.00  0.00     0.022 A 
BRANCH  53  57
ATOM     57  S   UNL A   1      41.483  36.802  38.807  1.00  0.00     0.124 S 
ATOM     58  O   UNL A   1      40.590  37.864  39.255  1.00  0.00    -0.237 OA
ATOM     59  O   UNL A   1      42.297  36.170  39.840  1.00  0.00    -0.237 OA
ATOM     60  O   UNL A   1      42.167  37.055  37.541  1.00  0.00    -0.744 OA
ENDBRANCH  53  57
ENDBRANCH  26  50
BRANCH  38  61
ATOM     61  C   UNL A   1      44.208  28.575  35.338  1.00  0.00     0.023 A 
ATOM     62  C   UNL A   1      44.003  27.505  36.225  1.00  0.00     0.031 A 
ATOM     63  C   UNL A   1      45.506  29.101  35.220  1.00  0.00     0.131 A 
ATOM     64  C   UNL A   1      45.065  27.037  37.011  1.00  0.00     0.055 A 
ATOM     65  C   UNL A   1      46.574  28.588  35.956  1.00  0.00     0.041 A 
ATOM     66  F   UNL A   1      45.755  30.126  34.389  1.00  0.00    -0.206 F 
ATOM     67  C   UNL A   1      46.353  27.560  36.869  1.00  0.00     0.022 A 
BRANCH  64  68
ATOM     68  S   UNL A   1      44.718  25.805  38.296  1.00  0.00     0.124 S 
ATOM     69  O   UNL A   1      43.660  26.457  39.061  1.00  0.00    -0.237 OA
ATOM     70  O   UNL A   1      44.315  24.642  37.513  1.00  0.00    -0.237 OA
ATOM     71  O   UNL A   1      45.996  25.670  38.993  1.00  0.00    -0.744 OA
ENDBRANCH  64  68
ENDBRANCH  38  61
ENDBRANCH  12  13
ENDBRANCH   5   7
ENDBRANCH   2   3
ENDBRANCH   1   2
BRANCH   1  72
ATOM     72  C   UNL A   1      31.736  30.584  25.956  1.00  0.00     0.117 C 
BRANCH  72  73
ATOM     73  N   UNL A   1      31.618  29.504  26.917  1.00  0.00    -0.354 N 
ATOM     74  C   UNL A   1      31.811  28.165  26.871  1.00  0.00     0.242 C 
ATOM     75  H   UNL A   1      31.334  29.816  27.807  1.00  0.00     0.163 HD
ATOM     76  O   UNL A   1      31.637  27.587  27.953  1.00  0.00    -0.273 OA
BRANCH  74  77
ATOM     77  C   UNL A   1      32.194  27.345  25.608  1.00  0.00     0.174 C 
ATOM     78  C   UNL A   1      32.999  26.045  25.697  1.00  0.00     0.035 C 
ATOM     79  N   UNL A   1      30.949  26.976  24.897  1.00  0.00    -0.324 N 
ATOM     80  C   UNL A   1      32.224  24.935  26.423  1.00  0.00     0.004 C 
ATOM     81  C   UNL A   1      30.090  26.045  25.636  1.00  0.00     0.121 C 
ATOM     82  C   UNL A   1      30.836  24.720  25.811  1.00  0.00     0.022 C 
BRANCH  79  83
ATOM     83  C   UNL A   1      30.900  27.171  23.513  1.00  0.00     0.291 C 
ATOM     84  O   UNL A   1      31.172  26.262  22.729  1.00  0.00    -0.265 OA
BRANCH  83  85
ATOM     85  C   UNL A   1      30.352  28.410  23.017  1.00  0.00     0.214 A 
ATOM     86  N   UNL A   1      29.422  29.167  23.563  1.00  0.00    -0.207 NA
ATOM     87  N   UNL A   1      30.742  28.972  21.839  1.00  0.00    -0.255 N 
ATOM     88  C   UNL A   1      29.216  30.138  22.618  1.00  0.00     0.154 A 
ATOM     89  N   UNL A   1      29.971  30.027  21.520  1.00  0.00    -0.158 NA
ATOM     90  H   UNL A   1      31.492  28.648  21.292  1.00  0.00     0.192 HD
BRANCH  88  91
ATOM     91  C   UNL A   1      28.195  31.247  22.785  1.00  0.00     0.060 C 
ATOM     92  C   UNL A   1      28.684  32.654  23.070  1.00  0.00     0.012 C 
ATOM     93  C   UNL A   1      28.129  32.327  21.725  1.00  0.00     0.012 C 
ENDBRANCH  88  91
ENDBRANCH  83  85
ENDBRANCH  79  83
ENDBRANCH  74  77
ENDBRANCH  72  73
ENDBRANCH   1  72
TORSDOF 16
ENDMDL
MODEL 2
REMARK VINA RESULT:     -12.2      6.464     12.019
REMARK SMILES O=C(NCCCNC(=O)[C@H]1CCCCN1C(=O)c1nc(C2CC2)n[nH]1)c1ccc(-c2c3nc(c(-c4cc(S(=O)(=O)[O-])ccc4F)c4ccc([nH]4)c(-c4cc(S(=O)(=O)[O-])ccc4F)c4nc(c(-c5cc(S(=O)(=O)[O-])ccc5F)c5ccc2[nH]5)C=C4)C=C3)cc1
REMARK SMILES IDX 5 1 4 2 3 3 1 4 2 5 26 7 27 8 88 9 28 10 87 11 29 12 30 13
REMARK SMILES IDX 31 14 81 15 32 16 86 17 80 18 82 19 33 20 85 21 79 22 78 23
REMARK SMILES IDX 34 25 66 26 46 27 65 28 47 29 50 30 64 31 83 32 48 33 49 34
REMARK SMILES IDX 63 36 84 37 51 38 35 39 36 40 44 41 37 42 43 43 45 44 42 45
REMARK SMILES IDX 38 46 39 47 40 48 41 49 67 50 68 51 76 52 69 53 75 54 77 55
REMARK SMILES IDX 74 56 70 57 71 58 72 59 73 60 52 61 53 62 61 63 54 64 60 65
REMARK SMILES IDX 62 66 59 67 55 68 56 69 57 70 58 71 6 72 7 73 8 74 9 76
REMARK SMILES IDX 10 77 11 78 15 79 12 80 14 81 13 82 16 83 17 84 18 85 19 86
REMARK SMILES IDX 25 87 20 88 24 89 21 91 22 92 23 93
REMARK H PARENT 3 6 82 24 50 35 7 75 25 90
REMARK Flexibility Score: inf
ROOT
ATOM      1  C   UNL A   1      37.883  19.648  24.982  1.00  0.00     0.042 C 
ENDROOT
BRANCH   1   2
ATOM      2  C   UNL A   1      39.047  20.246  25.751  1.00  0.00     0.118 C 
BRANCH   2   3
ATOM      3  N   UNL A   1      40.122  19.278  25.954  1.00  0.00    -0.352 N 
ATOM      4  O   UNL A   1      42.249  18.541  26.015  1.00  0.00    -0.269 OA
ATOM      5  C   UNL A   1      41.473  19.481  26.124  1.00  0.00     0.251 C 
ATOM      6  H   UNL A   1      39.836  18.335  25.970  1.00  0.00     0.163 HD
BRANCH   5   7
ATOM      7  C   UNL A   1      41.972  20.837  26.437  1.00  0.00     0.039 A 
ATOM      8  C   UNL A   1      42.172  21.754  25.406  1.00  0.00     0.014 A 
ATOM      9  C   UNL A   1      42.221  21.209  27.762  1.00  0.00     0.014 A 
ATOM     10  C   UNL A   1      42.796  22.960  25.665  1.00  0.00     0.010 A 
ATOM     11  C   UNL A   1      42.715  22.488  28.038  1.00  0.00     0.010 A 
ATOM     12  C   UNL A   1      43.023  23.367  26.988  1.00  0.00    -0.014 A 
BRANCH  12  13
ATOM     13  C   UNL A   1      43.457  24.767  27.217  1.00  0.00     0.031 A 
ATOM     14  C   UNL A   1      42.515  25.802  27.756  1.00  0.00     0.074 A 
ATOM     15  C   UNL A   1      44.752  25.063  26.976  1.00  0.00     0.049 A 
ATOM     16  N   UNL A   1      42.752  27.059  28.029  1.00  0.00    -0.248 NA
ATOM     17  C   UNL A   1      41.130  25.383  28.017  1.00  0.00     0.031 C 
ATOM     18  C   UNL A   1      45.744  24.118  26.447  1.00  0.00     0.029 A 
ATOM     19  N   UNL A   1      45.470  26.213  27.168  1.00  0.00    -0.354 N 
ATOM     20  C   UNL A   1      41.544  27.590  28.468  1.00  0.00     0.074 A 
ATOM     21  C   UNL A   1      40.571  26.520  28.411  1.00  0.00     0.031 C 
ATOM     22  C   UNL A   1      46.948  24.704  26.427  1.00  0.00     0.029 A 
ATOM     23  C   UNL A   1      46.799  26.093  26.836  1.00  0.00     0.049 A 
ATOM     24  H   UNL A   1      45.072  27.046  27.513  1.00  0.00     0.167 HD
ATOM     25  C   UNL A   1      41.284  28.858  28.873  1.00  0.00     0.034 A 
ATOM     26  C   UNL A   1      47.786  27.007  26.820  1.00  0.00     0.034 A 
ATOM     27  C   UNL A   1      42.283  29.901  28.930  1.00  0.00     0.049 A 
ATOM     28  C   UNL A   1      47.453  28.410  27.246  1.00  0.00     0.074 A 
ATOM     29  C   UNL A   1      42.139  31.207  29.364  1.00  0.00     0.029 A 
ATOM     30  N   UNL A   1      43.607  29.760  28.535  1.00  0.00    -0.354 N 
ATOM     31  N   UNL A   1      46.307  28.889  27.674  1.00  0.00    -0.248 NA
ATOM     32  C   UNL A   1      48.538  29.394  27.184  1.00  0.00     0.031 C 
ATOM     33  C   UNL A   1      43.352  31.873  29.163  1.00  0.00     0.029 A 
ATOM     34  C   UNL A   1      44.279  30.965  28.676  1.00  0.00     0.049 A 
ATOM     35  H   UNL A   1      44.011  28.925  28.201  1.00  0.00     0.167 HD
ATOM     36  C   UNL A   1      46.539  30.233  27.941  1.00  0.00     0.074 A 
ATOM     37  C   UNL A   1      47.940  30.474  27.662  1.00  0.00     0.031 C 
ATOM     38  C   UNL A   1      45.673  31.185  28.370  1.00  0.00     0.034 A 
BRANCH  25  39
ATOM     39  C   UNL A   1      39.861  29.207  29.234  1.00  0.00     0.023 A 
ATOM     40  C   UNL A   1      39.436  29.343  30.566  1.00  0.00     0.031 A 
ATOM     41  C   UNL A   1      38.915  29.432  28.215  1.00  0.00     0.131 A 
ATOM     42  C   UNL A   1      38.095  29.654  30.845  1.00  0.00     0.055 A 
ATOM     43  C   UNL A   1      37.599  29.803  28.497  1.00  0.00     0.041 A 
ATOM     44  F   UNL A   1      39.258  29.294  26.924  1.00  0.00    -0.206 F 
ATOM     45  C   UNL A   1      37.181  29.909  29.819  1.00  0.00     0.022 A 
BRANCH  42  46
ATOM     46  S   UNL A   1      37.533  29.628  32.569  1.00  0.00     0.124 S 
ATOM     47  O   UNL A   1      38.634  30.306  33.250  1.00  0.00    -0.237 OA
ATOM     48  O   UNL A   1      36.274  30.362  32.503  1.00  0.00    -0.237 OA
ATOM     49  O   UNL A   1      37.409  28.203  32.870  1.00  0.00    -0.744 OA
ENDBRANCH  42  46
ENDBRANCH  25  39
BRANCH  26  50
ATOM     50  C   UNL A   1      49.147  26.647  26.329  1.00  0.00     0.023 A 
ATOM     51  C   UNL A   1      49.634  27.134  25.109  1.00  0.00     0.031 A 
ATOM     52  C   UNL A   1      49.968  25.766  27.059  1.00  0.00     0.131 A 
ATOM     53  C   UNL A   1      50.880  26.701  24.630  1.00  0.00     0.055 A 
ATOM     54  C   UNL A   1      51.235  25.391  26.612  1.00  0.00     0.041 A 
ATOM     55  F   UNL A   1      49.553  25.265  28.235  1.00  0.00    -0.206 F 
ATOM     56  C   UNL A   1      51.690  25.846  25.381  1.00  0.00     0.022 A 
BRANCH  53  57
ATOM     57  S   UNL A   1      51.378  27.179  22.953  1.00  0.00     0.124 S 
ATOM     58  O   UNL A   1      52.609  26.418  22.780  1.00  0.00    -0.237 OA
ATOM     59  O   UNL A   1      50.233  26.736  22.163  1.00  0.00    -0.237 OA
ATOM     60  O   UNL A   1      51.547  28.627  23.048  1.00  0.00    -0.744 OA
ENDBRANCH  53  57
ENDBRANCH  26  50
BRANCH  38  61
ATOM     61  C   UNL A   1      46.246  32.562  28.582  1.00  0.00     0.023 A 
ATOM     62  C   UNL A   1      46.274  33.511  27.546  1.00  0.00     0.031 A 
ATOM     63  C   UNL A   1      46.805  32.915  29.822  1.00  0.00     0.131 A 
ATOM     64  C   UNL A   1      46.910  34.743  27.746  1.00  0.00     0.055 A 
ATOM     65  C   UNL A   1      47.378  34.168  30.037  1.00  0.00     0.041 A 
ATOM     66  F   UNL A   1      46.808  32.044  30.843  1.00  0.00    -0.206 F 
ATOM     67  C   UNL A   1      47.447  35.085  28.991  1.00  0.00     0.022 A 
BRANCH  64  68
ATOM     68  S   UNL A   1      47.117  35.854  26.328  1.00  0.00     0.124 S 
ATOM     69  O   UNL A   1      46.533  35.072  25.243  1.00  0.00    -0.237 OA
ATOM     70  O   UNL A   1      46.363  37.033  26.742  1.00  0.00    -0.237 OA
ATOM     71  O   UNL A   1      48.565  36.042  26.249  1.00  0.00    -0.744 OA
ENDBRANCH  64  68
ENDBRANCH  38  61
ENDBRANCH  12  13
ENDBRANCH   5   7
ENDBRANCH   2   3
ENDBRANCH   1   2
BRANCH   1  72
ATOM     72  C   UNL A   1      36.660  20.540  25.014  1.00  0.00     0.117 C 
BRANCH  72  73
ATOM     73  N   UNL A   1      36.788  21.675  24.120  1.00  0.00    -0.354 N 
ATOM     74  C   UNL A   1      36.079  22.809  23.916  1.00  0.00     0.242 C 
ATOM     75  H   UNL A   1      37.570  21.604  23.526  1.00  0.00     0.163 HD
ATOM     76  O   UNL A   1      36.558  23.565  23.058  1.00  0.00    -0.273 OA
BRANCH  74  77
ATOM     77  C   UNL A   1      34.756  23.196  24.634  1.00  0.00     0.174 C 
ATOM     78  C   UNL A   1      34.327  24.655  24.816  1.00  0.00     0.035 C 
ATOM     79  N   UNL A   1      33.632  22.553  23.918  1.00  0.00    -0.324 N 
ATOM     80  C   UNL A   1      34.027  25.339  23.474  1.00  0.00     0.004 C 
ATOM     81  C   UNL A   1      33.418  23.060  22.559  1.00  0.00     0.121 C 
ATOM     82  C   UNL A   1      33.024  24.536  22.640  1.00  0.00     0.022 C 
BRANCH  79  83
ATOM     83  C   UNL A   1      32.663  21.888  24.678  1.00  0.00     0.291 C 
ATOM     84  O   UNL A   1      31.682  22.483  25.125  1.00  0.00    -0.265 OA
BRANCH  83  85
ATOM     85  C   UNL A   1      32.742  20.452  24.778  1.00  0.00     0.214 A 
ATOM     86  N   UNL A   1      32.919  19.574  23.811  1.00  0.00    -0.207 NA
ATOM     87  N   UNL A   1      32.615  19.784  25.959  1.00  0.00    -0.255 N 
ATOM     88  C   UNL A   1      32.796  18.371  24.454  1.00  0.00     0.154 A 
ATOM     89  N   UNL A   1      32.559  18.454  25.768  1.00  0.00    -0.158 NA
ATOM     90  H   UNL A   1      32.571  20.220  26.840  1.00  0.00     0.192 HD
BRANCH  88  91
ATOM     91  C   UNL A   1      32.898  17.038  23.737  1.00  0.00     0.060 C 
ATOM     92  C   UNL A   1      34.255  16.579  23.238  1.00  0.00     0.012 C 
ATOM     93  C   UNL A   1      33.642  15.910  24.422  1.00  0.00     0.012 C 
ENDBRANCH  88  91
ENDBRANCH  83  85
ENDBRANCH  79  83
ENDBRANCH  74  77
ENDBRANCH  72  73
ENDBRANCH   1  72
TORSDOF 16
ENDMDL
MODEL 3
REMARK VINA RESULT:     -12.0      6.491     10.692
REMARK SMILES O=C(NCCCNC(=O)[C@H]1CCCCN1C(=O)c1nc(C2CC2)n[nH]1)c1ccc(-c2c3nc(c(-c4cc(S(=O)(=O)[O-])ccc4F)c4ccc([nH]4)c(-c4cc(S(=O)(=O)[O-])ccc4F)c4nc(c(-c5cc(S(=O)(=O)[O-])ccc5F)c5ccc2[nH]5)C=C4)C=C3)cc1
REMARK SMILES IDX 5 1 4 2 3 3 1 4 2 5 26 7 27 8 88 9 28 10 87 11 29 12 30 13
REMARK SMILES IDX 31 14 81 15 32 16 86 17 80 18 82 19 33 20 85 21 79 22 78 23
REMARK SMILES IDX 34 25 66 26 46 27 65 28 47 29 50 30 64 31 83 32 48 33 49 34
REMARK SMILES IDX 63 36 84 37 51 38 35 39 36 40 44 41 37 42 43 43 45 44 42 45
REMARK SMILES IDX 38 46 39 47 40 48 41 49 67 50 68 51 76 52 69 53 75 54 77 55
REMARK SMILES IDX 74 56 70 57 71 58 72 59 73 60 52 61 53 62 61 63 54 64 60 65
REMARK SMILES IDX 62 66 59 67 55 68 56 69 57 70 58 71 6 72 7 73 8 74 9 76
REMARK SMILES IDX 10 77 11 78 15 79 12 80 14 81 13 82 16 83 17 84 18 85 19 86
REMARK SMILES IDX 25 87 20 88 24 89 21 91 22 92 23 93
REMARK H PARENT 3 6 82 24 50 35 7 75 25 90
REMARK Flexibility Score: inf
ROOT
ATOM      1  C   UNL A   1      37.947  19.766  24.960  1.00  0.00     0.042 C 
ENDROOT
BRANCH   1   2
ATOM      2  C   UNL A   1      39.116  20.277  25.781  1.00  0.00     0.118 C 
BRANCH   2   3
ATOM      3  N   UNL A   1      40.168  19.273  25.916  1.00  0.00    -0.352 N 
ATOM      4  O   UNL A   1      42.274  18.474  25.884  1.00  0.00    -0.269 OA
ATOM      5  C   UNL A   1      41.529  19.432  26.050  1.00  0.00     0.251 C 
ATOM      6  H   UNL A   1      39.855  18.339  25.909  1.00  0.00     0.163 HD
BRANCH   5   7
ATOM      7  C   UNL A   1      42.077  20.761  26.392  1.00  0.00     0.039 A 
ATOM      8  C   UNL A   1      42.322  21.688  25.379  1.00  0.00     0.014 A 
ATOM      9  C   UNL A   1      42.328  21.099  27.725  1.00  0.00     0.014 A 
ATOM     10  C   UNL A   1      42.990  22.864  25.667  1.00  0.00     0.010 A 
ATOM     11  C   UNL A   1      42.867  22.353  28.030  1.00  0.00     0.010 A 
ATOM     12  C   UNL A   1      43.219  23.238  26.999  1.00  0.00    -0.014 A 
BRANCH  12  13
ATOM     13  C   UNL A   1      43.706  24.616  27.258  1.00  0.00     0.031 A 
ATOM     14  C   UNL A   1      45.128  25.009  26.989  1.00  0.00     0.074 A 
ATOM     15  C   UNL A   1      42.805  25.521  27.692  1.00  0.00     0.049 A 
ATOM     16  N   UNL A   1      45.697  26.176  27.144  1.00  0.00    -0.248 NA
ATOM     17  C   UNL A   1      46.033  23.963  26.489  1.00  0.00     0.031 C 
ATOM     18  C   UNL A   1      41.395  25.229  27.984  1.00  0.00     0.029 A 
ATOM     19  N   UNL A   1      42.913  26.865  27.933  1.00  0.00    -0.354 N 
ATOM     20  C   UNL A   1      47.030  26.004  26.790  1.00  0.00     0.074 A 
ATOM     21  C   UNL A   1      47.189  24.613  26.423  1.00  0.00     0.031 C 
ATOM     22  C   UNL A   1      40.760  26.368  28.292  1.00  0.00     0.029 A 
ATOM     23  C   UNL A   1      41.732  27.450  28.327  1.00  0.00     0.049 A 
ATOM     24  H   UNL A   1      43.756  27.364  27.833  1.00  0.00     0.167 HD
ATOM     25  C   UNL A   1      48.021  26.929  26.780  1.00  0.00     0.034 A 
ATOM     26  C   UNL A   1      41.463  28.710  28.714  1.00  0.00     0.034 A 
ATOM     27  C   UNL A   1      47.825  28.315  27.139  1.00  0.00     0.049 A 
ATOM     28  C   UNL A   1      42.593  29.701  28.720  1.00  0.00     0.074 A 
ATOM     29  C   UNL A   1      48.748  29.347  27.125  1.00  0.00     0.029 A 
ATOM     30  N   UNL A   1      46.628  28.863  27.586  1.00  0.00    -0.354 N 
ATOM     31  N   UNL A   1      43.845  29.522  28.364  1.00  0.00    -0.248 NA
ATOM     32  C   UNL A   1      42.280  31.057  29.182  1.00  0.00     0.031 C 
ATOM     33  C   UNL A   1      48.131  30.496  27.630  1.00  0.00     0.029 A 
ATOM     34  C   UNL A   1      46.800  30.205  27.888  1.00  0.00     0.049 A 
ATOM     35  H   UNL A   1      45.781  28.368  27.676  1.00  0.00     0.167 HD
ATOM     36  C   UNL A   1      44.467  30.751  28.552  1.00  0.00     0.074 A 
ATOM     37  C   UNL A   1      43.443  31.666  29.015  1.00  0.00     0.031 C 
ATOM     38  C   UNL A   1      45.767  31.092  28.368  1.00  0.00     0.034 A 
BRANCH  25  39
ATOM     39  C   UNL A   1      49.414  26.471  26.423  1.00  0.00     0.023 A 
ATOM     40  C   UNL A   1      50.073  26.908  25.262  1.00  0.00     0.031 A 
ATOM     41  C   UNL A   1      50.103  25.593  27.281  1.00  0.00     0.131 A 
ATOM     42  C   UNL A   1      51.364  26.437  24.970  1.00  0.00     0.055 A 
ATOM     43  C   UNL A   1      51.410  25.178  27.018  1.00  0.00     0.041 A 
ATOM     44  F   UNL A   1      49.514  25.124  28.393  1.00  0.00    -0.206 F 
ATOM     45  C   UNL A   1      52.045  25.594  25.853  1.00  0.00     0.022 A 
BRANCH  42  46
ATOM     46  S   UNL A   1      52.108  26.862  23.372  1.00  0.00     0.124 S 
ATOM     47  O   UNL A   1      50.967  26.734  22.469  1.00  0.00    -0.237 OA
ATOM     48  O   UNL A   1      52.592  28.219  23.600  1.00  0.00    -0.237 OA
ATOM     49  O   UNL A   1      53.148  25.850  23.196  1.00  0.00    -0.744 OA
ENDBRANCH  42  46
ENDBRANCH  25  39
BRANCH  26  50
ATOM     50  C   UNL A   1      40.099  29.085  29.185  1.00  0.00     0.023 A 
ATOM     51  C   UNL A   1      39.764  29.054  30.546  1.00  0.00     0.031 A 
ATOM     52  C   UNL A   1      39.090  29.437  28.268  1.00  0.00     0.131 A 
ATOM     53  C   UNL A   1      38.446  29.320  30.947  1.00  0.00     0.055 A 
ATOM     54  C   UNL A   1      37.798  29.767  28.678  1.00  0.00     0.041 A 
ATOM     55  F   UNL A   1      39.352  29.482  26.951  1.00  0.00    -0.206 F 
ATOM     56  C   UNL A   1      37.466  29.692  30.025  1.00  0.00     0.022 A 
BRANCH  53  57
ATOM     57  S   UNL A   1      38.000  29.056  32.686  1.00  0.00     0.124 S 
ATOM     58  O   UNL A   1      39.012  29.849  33.375  1.00  0.00    -0.237 OA
ATOM     59  O   UNL A   1      36.638  29.578  32.729  1.00  0.00    -0.237 OA
ATOM     60  O   UNL A   1      38.121  27.610  32.852  1.00  0.00    -0.744 OA
ENDBRANCH  53  57
ENDBRANCH  26  50
BRANCH  38  61
ATOM     61  C   UNL A   1      46.127  32.528  28.649  1.00  0.00     0.023 A 
ATOM     62  C   UNL A   1      46.109  33.499  27.633  1.00  0.00     0.031 A 
ATOM     63  C   UNL A   1      46.529  32.920  29.937  1.00  0.00     0.131 A 
ATOM     64  C   UNL A   1      46.551  34.801  27.905  1.00  0.00     0.055 A 
ATOM     65  C   UNL A   1      46.905  34.234  30.219  1.00  0.00     0.041 A 
ATOM     66  F   UNL A   1      46.567  32.030  30.942  1.00  0.00    -0.206 F 
ATOM     67  C   UNL A   1      46.933  35.178  29.196  1.00  0.00     0.022 A 
BRANCH  64  68
ATOM     68  S   UNL A   1      46.719  35.967  26.528  1.00  0.00     0.124 S 
ATOM     69  O   UNL A   1      45.718  35.470  25.588  1.00  0.00    -0.237 OA
ATOM     70  O   UNL A   1      46.420  37.246  27.162  1.00  0.00    -0.237 OA
ATOM     71  O   UNL A   1      48.108  35.797  26.102  1.00  0.00    -0.744 OA
ENDBRANCH  64  68
ENDBRANCH  38  61
ENDBRANCH  12  13
ENDBRANCH   5   7
ENDBRANCH   2   3
ENDBRANCH   1   2
BRANCH   1  72
ATOM     72  C   UNL A   1      36.752  20.694  25.031  1.00  0.00     0.117 C 
BRANCH  72  73
ATOM     73  N   UNL A   1      36.802  21.728  24.015  1.00  0.00    -0.354 N 
ATOM     74  C   UNL A   1      36.047  22.812  23.724  1.00  0.00     0.242 C 
ATOM     75  H   UNL A   1      37.559  21.616  23.396  1.00  0.00     0.163 HD
ATOM     76  O   UNL A   1      36.463  23.484  22.769  1.00  0.00    -0.273 OA
BRANCH  74  77
ATOM     77  C   UNL A   1      34.743  23.236  24.457  1.00  0.00     0.174 C 
ATOM     78  C   UNL A   1      34.338  24.705  24.609  1.00  0.00     0.035 C 
ATOM     79  N   UNL A   1      33.597  22.590  23.780  1.00  0.00    -0.324 N 
ATOM     80  C   UNL A   1      34.021  25.359  23.256  1.00  0.00     0.004 C 
ATOM     81  C   UNL A   1      33.363  23.065  22.412  1.00  0.00     0.121 C 
ATOM     82  C   UNL A   1      32.990  24.548  22.463  1.00  0.00     0.022 C 
BRANCH  79  83
ATOM     83  C   UNL A   1      32.634  21.958  24.575  1.00  0.00     0.291 C 
ATOM     84  O   UNL A   1      31.654  22.571  25.000  1.00  0.00    -0.265 OA
BRANCH  83  85
ATOM     85  C   UNL A   1      32.717  20.529  24.742  1.00  0.00     0.214 A 
ATOM     86  N   UNL A   1      32.849  19.605  23.811  1.00  0.00    -0.207 NA
ATOM     87  N   UNL A   1      32.646  19.920  25.958  1.00  0.00    -0.255 N 
ATOM     88  C   UNL A   1      32.757  18.435  24.517  1.00  0.00     0.154 A 
ATOM     89  N   UNL A   1      32.581  18.582  25.835  1.00  0.00    -0.158 NA
ATOM     90  H   UNL A   1      32.644  20.398  26.818  1.00  0.00     0.192 HD
BRANCH  88  91
ATOM     91  C   UNL A   1      32.825  17.069  23.862  1.00  0.00     0.060 C 
ATOM     92  C   UNL A   1      34.186  16.479  23.542  1.00  0.00     0.012 C 
ATOM     93  C   UNL A   1      33.385  15.914  24.667  1.00  0.00     0.012 C 
ENDBRANCH  88  91
ENDBRANCH  83  85
ENDBRANCH  79  83
ENDBRANCH  74  77
ENDBRANCH  72  73
ENDBRANCH   1  72
TORSDOF 16
ENDMDL
