MODEL 1
REMARK VINA RESULT:     -10.5      0.000      0.000
REMARK SMILES C/C(=N/OCC(=O)NCCCNC(=O)c1ccc(-c2c3nc(c(-c4cc(S(=O)(=O)[O-])ccc4F)c4ccc([nH]4)c(-c4cc(S(=O)(=O)[O-])ccc4F)c4nc(c(-c5cc(S(=O)(=O)[O-])ccc5F)c5ccc2[nH]5)C=C4)C=C3)cc1)c1ccc(C)cc1
REMARK SMILES IDX 10 1 9 2 8 3 6 4 7 5 5 7 4 8 3 9 1 10 2 11 78 12 79 13 84 14
REMARK SMILES IDX 80 15 83 16 81 17 82 18 11 19 12 20 13 21 14 23 15 24 16 25
REMARK SMILES IDX 77 26 17 27 76 28 18 29 19 30 20 31 70 32 21 33 75 34 69 35
REMARK SMILES IDX 71 36 22 37 74 38 68 39 67 40 23 42 55 43 35 44 54 45 36 46
REMARK SMILES IDX 39 47 53 48 72 49 37 50 38 51 52 53 73 54 40 55 24 56 25 57
REMARK SMILES IDX 33 58 26 59 32 60 34 61 31 62 27 63 28 64 29 65 30 66 56 67
REMARK SMILES IDX 57 68 65 69 58 70 64 71 66 72 63 73 59 74 60 75 61 76 62 77
REMARK SMILES IDX 41 78 42 79 50 80 43 81 49 82 51 83 48 84 44 85 45 86 46 87
REMARK SMILES IDX 47 88
REMARK H PARENT 8 6 12 22 71 41 39 52
REMARK Flexibility Score: inf
ROOT
ATOM      1  C   UNL A   1      33.191  35.174  28.828  1.00  0.00     0.042 C 
ENDROOT
BRANCH   1   2
ATOM      2  C   UNL A   1      34.118  36.333  29.177  1.00  0.00     0.117 C 
BRANCH   2   3
ATOM      3  N   UNL A   1      33.492  37.303  30.055  1.00  0.00    -0.353 N 
ATOM      4  C   UNL A   1      33.291  37.227  31.406  1.00  0.00     0.260 C 
ATOM      5  O   UNL A   1      32.776  38.193  31.975  1.00  0.00    -0.271 OA
ATOM      6  H   UNL A   1      33.170  38.127  29.621  1.00  0.00     0.163 HD
BRANCH   4   7
ATOM      7  C   UNL A   1      33.812  36.020  32.183  1.00  0.00     0.363 C 
BRANCH   7   8
ATOM      8  O   UNL A   1      35.034  36.231  32.866  1.00  0.00    -0.385 OA
BRANCH   8   9
ATOM      9  N   UNL A   1      35.137  35.332  33.935  1.00  0.00    -0.091 NA
ATOM     10  C   UNL A   1      36.260  33.408  34.840  1.00  0.00     0.071 C 
ATOM     11  C   UNL A   1      36.113  34.482  33.785  1.00  0.00     0.084 C 
BRANCH  11  12
ATOM     12  C   UNL A   1      37.102  34.465  32.671  1.00  0.00    -0.001 A 
ATOM     13  C   UNL A   1      38.461  34.666  32.935  1.00  0.00     0.010 A 
ATOM     14  C   UNL A   1      36.678  34.229  31.360  1.00  0.00     0.010 A 
ATOM     15  C   UNL A   1      39.386  34.664  31.889  1.00  0.00     0.004 A 
ATOM     16  C   UNL A   1      37.607  34.221  30.316  1.00  0.00     0.004 A 
ATOM     17  C   UNL A   1      38.966  34.442  30.571  1.00  0.00    -0.051 A 
ATOM     18  C   UNL A   1      39.966  34.467  29.453  1.00  0.00     0.044 C 
ENDBRANCH  11  12
ENDBRANCH   8   9
ENDBRANCH   7   8
ENDBRANCH   4   7
ENDBRANCH   2   3
ENDBRANCH   1   2
BRANCH   1  19
ATOM     19  C   UNL A   1      33.875  33.810  28.790  1.00  0.00     0.118 C 
BRANCH  19  20
ATOM     20  N   UNL A   1      33.221  32.867  27.892  1.00  0.00    -0.352 N 
ATOM     21  C   UNL A   1      33.651  31.645  27.429  1.00  0.00     0.251 C 
ATOM     22  H   UNL A   1      32.335  33.146  27.565  1.00  0.00     0.163 HD
ATOM     23  O   UNL A   1      33.012  31.072  26.551  1.00  0.00    -0.269 OA
BRANCH  21  24
ATOM     24  C   UNL A   1      34.892  31.041  27.963  1.00  0.00     0.039 A 
ATOM     25  C   UNL A   1      36.072  31.793  27.952  1.00  0.00     0.014 A 
ATOM     26  C   UNL A   1      34.896  29.740  28.470  1.00  0.00     0.014 A 
ATOM     27  C   UNL A   1      37.235  31.272  28.529  1.00  0.00     0.010 A 
ATOM     28  C   UNL A   1      36.037  29.248  29.099  1.00  0.00     0.010 A 
ATOM     29  C   UNL A   1      37.214  30.012  29.146  1.00  0.00    -0.014 A 
BRANCH  29  30
ATOM     30  C   UNL A   1      38.398  29.457  29.855  1.00  0.00     0.031 A 
ATOM     31  C   UNL A   1      38.780  30.005  31.202  1.00  0.00     0.074 A 
ATOM     32  C   UNL A   1      39.188  28.553  29.243  1.00  0.00     0.049 A 
ATOM     33  N   UNL A   1      39.878  29.829  31.889  1.00  0.00    -0.248 NA
ATOM     34  C   UNL A   1      37.803  30.899  31.842  1.00  0.00     0.031 C 
ATOM     35  C   UNL A   1      38.929  27.950  27.933  1.00  0.00     0.029 A 
ATOM     36  N   UNL A   1      40.386  28.003  29.629  1.00  0.00    -0.354 N 
ATOM     37  C   UNL A   1      39.741  30.613  33.030  1.00  0.00     0.074 A 
ATOM     38  C   UNL A   1      38.467  31.295  32.918  1.00  0.00     0.031 C 
ATOM     39  C   UNL A   1      39.937  27.119  27.625  1.00  0.00     0.029 A 
ATOM     40  C   UNL A   1      40.942  27.172  28.682  1.00  0.00     0.049 A 
ATOM     41  H   UNL A   1      40.808  28.186  30.499  1.00  0.00     0.167 HD
ATOM     42  C   UNL A   1      40.593  30.742  34.077  1.00  0.00     0.034 A 
ATOM     43  C   UNL A   1      42.140  26.552  28.653  1.00  0.00     0.034 A 
ATOM     44  C   UNL A   1      41.848  30.040  34.180  1.00  0.00     0.049 A 
ATOM     45  C   UNL A   1      43.089  26.738  29.810  1.00  0.00     0.074 A 
ATOM     46  C   UNL A   1      42.766  30.061  35.216  1.00  0.00     0.029 A 
ATOM     47  N   UNL A   1      42.366  29.192  33.208  1.00  0.00    -0.354 N 
ATOM     48  N   UNL A   1      42.939  27.471  30.889  1.00  0.00    -0.248 NA
ATOM     49  C   UNL A   1      44.366  26.013  29.749  1.00  0.00     0.031 C 
ATOM     50  C   UNL A   1      43.864  29.276  34.846  1.00  0.00     0.029 A 
ATOM     51  C   UNL A   1      43.600  28.706  33.611  1.00  0.00     0.049 A 
ATOM     52  H   UNL A   1      41.923  28.970  32.359  1.00  0.00     0.167 HD
ATOM     53  C   UNL A   1      44.086  27.263  31.651  1.00  0.00     0.074 A 
ATOM     54  C   UNL A   1      44.919  26.341  30.908  1.00  0.00     0.031 C 
ATOM     55  C   UNL A   1      44.415  27.780  32.861  1.00  0.00     0.034 A 
BRANCH  42  56
ATOM     56  C   UNL A   1      40.206  31.705  35.173  1.00  0.00     0.023 A 
ATOM     57  C   UNL A   1      39.339  31.330  36.213  1.00  0.00     0.031 A 
ATOM     58  C   UNL A   1      40.687  33.026  35.161  1.00  0.00     0.131 A 
ATOM     59  C   UNL A   1      38.918  32.284  37.152  1.00  0.00     0.055 A 
ATOM     60  C   UNL A   1      40.331  33.948  36.146  1.00  0.00     0.041 A 
ATOM     61  F   UNL A   1      41.503  33.448  34.182  1.00  0.00    -0.206 F 
ATOM     62  C   UNL A   1      39.428  33.584  37.141  1.00  0.00     0.022 A 
BRANCH  59  63
ATOM     63  S   UNL A   1      37.584  31.840  38.297  1.00  0.00     0.124 S 
ATOM     64  O   UNL A   1      36.603  32.887  38.027  1.00  0.00    -0.237 OA
ATOM     65  O   UNL A   1      37.222  30.497  37.855  1.00  0.00    -0.237 OA
ATOM     66  O   UNL A   1      38.219  31.914  39.611  1.00  0.00    -0.744 OA
ENDBRANCH  59  63
ENDBRANCH  42  56
BRANCH  43  67
ATOM     67  C   UNL A   1      42.530  25.722  27.477  1.00  0.00     0.023 A 
ATOM     68  C   UNL A   1      42.137  24.378  27.382  1.00  0.00     0.031 A 
ATOM     69  C   UNL A   1      43.331  26.250  26.449  1.00  0.00     0.131 A 
ATOM     70  C   UNL A   1      42.583  23.594  26.306  1.00  0.00     0.055 A 
ATOM     71  C   UNL A   1      43.731  25.479  25.355  1.00  0.00     0.041 A 
ATOM     72  F   UNL A   1      43.728  27.532  26.487  1.00  0.00    -0.206 F 
ATOM     73  C   UNL A   1      43.366  24.139  25.286  1.00  0.00     0.022 A 
BRANCH  70  74
ATOM     74  S   UNL A   1      42.187  21.824  26.301  1.00  0.00     0.124 S 
ATOM     75  O   UNL A   1      42.506  21.445  27.672  1.00  0.00    -0.237 OA
ATOM     76  O   UNL A   1      40.771  21.833  25.949  1.00  0.00    -0.237 OA
ATOM     77  O   UNL A   1      43.078  21.281  25.278  1.00  0.00    -0.744 OA
ENDBRANCH  70  74
ENDBRANCH  43  67
BRANCH  55  78
ATOM     78  C   UNL A   1      45.696  27.302  33.494  1.00  0.00     0.023 A 
ATOM     79  C   UNL A   1      45.740  26.172  34.327  1.00  0.00     0.031 A 
ATOM     80  C   UNL A   1      46.900  27.978  33.226  1.00  0.00     0.131 A 
ATOM     81  C   UNL A   1      46.961  25.769  34.889  1.00  0.00     0.055 A 
ATOM     82  C   UNL A   1      48.118  27.546  33.749  1.00  0.00     0.041 A 
ATOM     83  F   UNL A   1      46.911  29.063  32.435  1.00  0.00    -0.206 F 
ATOM     84  C   UNL A   1      48.152  26.438  34.592  1.00  0.00     0.022 A 
BRANCH  81  85
ATOM     85  S   UNL A   1      46.973  24.378  36.053  1.00  0.00     0.124 S 
ATOM     86  O   UNL A   1      46.045  23.445  35.422  1.00  0.00    -0.237 OA
ATOM     87  O   UNL A   1      48.377  23.978  36.051  1.00  0.00    -0.237 OA
ATOM     88  O   UNL A   1      46.502  24.970  37.303  1.00  0.00    -0.744 OA
ENDBRANCH  81  85
ENDBRANCH  55  78
ENDBRANCH  29  30
ENDBRANCH  21  24
ENDBRANCH  19  20
ENDBRANCH   1  19
TORSDOF 16
ENDMDL
MODEL 2
REMARK VINA RESULT:     -10.3      2.443      2.984
REMARK SMILES C/C(=N/OCC(=O)NCCCNC(=O)c1ccc(-c2c3nc(c(-c4cc(S(=O)(=O)[O-])ccc4F)c4ccc([nH]4)c(-c4cc(S(=O)(=O)[O-])ccc4F)c4nc(c(-c5cc(S(=O)(=O)[O-])ccc5F)c5ccc2[nH]5)C=C4)C=C3)cc1)c1ccc(C)cc1
REMARK SMILES IDX 10 1 9 2 8 3 6 4 7 5 5 7 4 8 3 9 1 10 2 11 78 12 79 13 84 14
REMARK SMILES IDX 80 15 83 16 81 17 82 18 11 19 12 20 13 21 14 23 15 24 16 25
REMARK SMILES IDX 77 26 17 27 76 28 18 29 19 30 20 31 70 32 21 33 75 34 69 35
REMARK SMILES IDX 71 36 22 37 74 38 68 39 67 40 23 42 55 43 35 44 54 45 36 46
REMARK SMILES IDX 39 47 53 48 72 49 37 50 38 51 52 53 73 54 40 55 24 56 25 57
REMARK SMILES IDX 33 58 26 59 32 60 34 61 31 62 27 63 28 64 29 65 30 66 56 67
REMARK SMILES IDX 57 68 65 69 58 70 64 71 66 72 63 73 59 74 60 75 61 76 62 77
REMARK SMILES IDX 41 78 42 79 50 80 43 81 49 82 51 83 48 84 44 85 45 86 46 87
REMARK SMILES IDX 47 88
REMARK H PARENT 8 6 12 22 71 41 39 52
REMARK Flexibility Score: inf
ROOT
ATOM      1  C   UNL A   1      33.821  34.194  28.363  1.00  0.00     0.042 C 
ENDROOT
BRANCH   1   2
ATOM      2  C   UNL A   1      33.926  35.234  29.472  1.00  0.00     0.117 C 
BRANCH   2   3
ATOM      3  N   UNL A   1      32.922  35.056  30.504  1.00  0.00    -0.353 N 
ATOM      4  C   UNL A   1      32.987  35.398  31.827  1.00  0.00     0.260 C 
ATOM      5  O   UNL A   1      31.993  35.198  32.531  1.00  0.00    -0.271 OA
ATOM      6  H   UNL A   1      32.082  34.632  30.213  1.00  0.00     0.163 HD
BRANCH   4   7
ATOM      7  C   UNL A   1      34.221  36.118  32.364  1.00  0.00     0.363 C 
BRANCH   7   8
ATOM      8  O   UNL A   1      35.411  35.349  32.360  1.00  0.00    -0.385 OA
BRANCH   8   9
ATOM      9  N   UNL A   1      35.109  34.014  32.654  1.00  0.00    -0.091 NA
ATOM     10  C   UNL A   1      35.754  31.710  32.419  1.00  0.00     0.071 C 
ATOM     11  C   UNL A   1      36.022  33.187  32.232  1.00  0.00     0.084 C 
BRANCH  11  12
ATOM     12  C   UNL A   1      37.310  33.556  31.580  1.00  0.00    -0.001 A 
ATOM     13  C   UNL A   1      38.359  34.079  32.343  1.00  0.00     0.010 A 
ATOM     14  C   UNL A   1      37.481  33.363  30.206  1.00  0.00     0.010 A 
ATOM     15  C   UNL A   1      39.561  34.438  31.731  1.00  0.00     0.004 A 
ATOM     16  C   UNL A   1      38.688  33.716  29.596  1.00  0.00     0.004 A 
ATOM     17  C   UNL A   1      39.735  34.260  30.352  1.00  0.00    -0.051 A 
ATOM     18  C   UNL A   1      41.022  34.672  29.700  1.00  0.00     0.044 C 
ENDBRANCH  11  12
ENDBRANCH   8   9
ENDBRANCH   7   8
ENDBRANCH   4   7
ENDBRANCH   2   3
ENDBRANCH   1   2
BRANCH   1  19
ATOM     19  C   UNL A   1      34.408  32.831  28.721  1.00  0.00     0.118 C 
BRANCH  19  20
ATOM     20  N   UNL A   1      33.910  31.754  27.875  1.00  0.00    -0.352 N 
ATOM     21  C   UNL A   1      34.510  30.573  27.504  1.00  0.00     0.251 C 
ATOM     22  H   UNL A   1      33.005  31.892  27.513  1.00  0.00     0.163 HD
ATOM     23  O   UNL A   1      33.978  29.865  26.655  1.00  0.00    -0.269 OA
BRANCH  21  24
ATOM     24  C   UNL A   1      35.804  30.174  28.103  1.00  0.00     0.039 A 
ATOM     25  C   UNL A   1      35.815  29.629  29.391  1.00  0.00     0.014 A 
ATOM     26  C   UNL A   1      37.000  30.338  27.401  1.00  0.00     0.014 A 
ATOM     27  C   UNL A   1      37.016  29.168  29.941  1.00  0.00     0.010 A 
ATOM     28  C   UNL A   1      38.183  29.822  27.924  1.00  0.00     0.010 A 
ATOM     29  C   UNL A   1      38.202  29.221  29.193  1.00  0.00    -0.014 A 
BRANCH  29  30
ATOM     30  C   UNL A   1      39.483  28.658  29.697  1.00  0.00     0.031 A 
ATOM     31  C   UNL A   1      40.245  29.390  30.767  1.00  0.00     0.074 A 
ATOM     32  C   UNL A   1      40.011  27.562  29.119  1.00  0.00     0.049 A 
ATOM     33  N   UNL A   1      41.467  29.202  31.191  1.00  0.00    -0.248 NA
ATOM     34  C   UNL A   1      39.543  30.505  31.420  1.00  0.00     0.031 C 
ATOM     35  C   UNL A   1      39.373  26.768  28.067  1.00  0.00     0.029 A 
ATOM     36  N   UNL A   1      41.221  26.941  29.312  1.00  0.00    -0.354 N 
ATOM     37  C   UNL A   1      41.696  30.193  32.140  1.00  0.00     0.074 A 
ATOM     38  C   UNL A   1      40.495  31.002  32.196  1.00  0.00     0.031 C 
ATOM     39  C   UNL A   1      40.196  25.770  27.707  1.00  0.00     0.029 A 
ATOM     40  C   UNL A   1      41.444  25.886  28.457  1.00  0.00     0.049 A 
ATOM     41  H   UNL A   1      41.869  27.225  29.997  1.00  0.00     0.167 HD
ATOM     42  C   UNL A   1      42.799  30.401  32.900  1.00  0.00     0.034 A 
ATOM     43  C   UNL A   1      42.539  25.121  28.271  1.00  0.00     0.034 A 
ATOM     44  C   UNL A   1      43.979  29.573  32.844  1.00  0.00     0.049 A 
ATOM     45  C   UNL A   1      43.770  25.392  29.101  1.00  0.00     0.074 A 
ATOM     46  C   UNL A   1      45.134  29.665  33.600  1.00  0.00     0.029 A 
ATOM     47  N   UNL A   1      44.156  28.501  31.977  1.00  0.00    -0.354 N 
ATOM     48  N   UNL A   1      43.965  26.324  30.004  1.00  0.00    -0.248 NA
ATOM     49  C   UNL A   1      44.925  24.509  28.889  1.00  0.00     0.031 C 
ATOM     50  C   UNL A   1      46.032  28.689  33.152  1.00  0.00     0.029 A 
ATOM     51  C   UNL A   1      45.410  27.942  32.165  1.00  0.00     0.049 A 
ATOM     52  H   UNL A   1      43.490  28.186  31.326  1.00  0.00     0.167 HD
ATOM     53  C   UNL A   1      45.251  26.113  30.494  1.00  0.00     0.074 A 
ATOM     54  C   UNL A   1      45.786  24.969  29.785  1.00  0.00     0.031 C 
ATOM     55  C   UNL A   1      45.925  26.796  31.454  1.00  0.00     0.034 A 
BRANCH  42  56
ATOM     56  C   UNL A   1      42.789  31.591  33.828  1.00  0.00     0.023 A 
ATOM     57  C   UNL A   1      42.448  31.466  35.186  1.00  0.00     0.031 A 
ATOM     58  C   UNL A   1      43.098  32.874  33.344  1.00  0.00     0.131 A 
ATOM     59  C   UNL A   1      42.345  32.610  35.991  1.00  0.00     0.055 A 
ATOM     60  C   UNL A   1      43.076  33.999  34.170  1.00  0.00     0.041 A 
ATOM     61  F   UNL A   1      43.413  33.059  32.052  1.00  0.00    -0.206 F 
ATOM     62  C   UNL A   1      42.681  33.873  35.499  1.00  0.00     0.022 A 
BRANCH  59  63
ATOM     63  S   UNL A   1      41.625  32.441  37.646  1.00  0.00     0.124 S 
ATOM     64  O   UNL A   1      42.358  31.292  38.170  1.00  0.00    -0.237 OA
ATOM     65  O   UNL A   1      41.934  33.729  38.258  1.00  0.00    -0.237 OA
ATOM     66  O   UNL A   1      40.208  32.200  37.382  1.00  0.00    -0.744 OA
ENDBRANCH  59  63
ENDBRANCH  42  56
BRANCH  43  67
ATOM     67  C   UNL A   1      42.541  24.046  27.239  1.00  0.00     0.023 A 
ATOM     68  C   UNL A   1      41.965  22.793  27.501  1.00  0.00     0.031 A 
ATOM     69  C   UNL A   1      43.153  24.242  25.987  1.00  0.00     0.131 A 
ATOM     70  C   UNL A   1      42.050  21.770  26.544  1.00  0.00     0.055 A 
ATOM     71  C   UNL A   1      43.191  23.237  25.019  1.00  0.00     0.041 A 
ATOM     72  F   UNL A   1      43.712  25.423  25.682  1.00  0.00    -0.206 F 
ATOM     73  C   UNL A   1      42.647  21.987  25.300  1.00  0.00     0.022 A 
BRANCH  70  74
ATOM     74  S   UNL A   1      41.434  20.121  26.981  1.00  0.00     0.124 S 
ATOM     75  O   UNL A   1      40.527  19.840  25.875  1.00  0.00    -0.237 OA
ATOM     76  O   UNL A   1      42.666  19.339  27.017  1.00  0.00    -0.237 OA
ATOM     77  O   UNL A   1      40.795  20.331  28.278  1.00  0.00    -0.744 OA
ENDBRANCH  70  74
ENDBRANCH  43  67
BRANCH  55  78
ATOM     78  C   UNL A   1      47.285  26.280  31.846  1.00  0.00     0.023 A 
ATOM     79  C   UNL A   1      48.446  26.620  31.131  1.00  0.00     0.031 A 
ATOM     80  C   UNL A   1      47.419  25.456  32.978  1.00  0.00     0.131 A 
ATOM     81  C   UNL A   1      49.689  26.113  31.541  1.00  0.00     0.055 A 
ATOM     82  C   UNL A   1      48.661  24.993  33.408  1.00  0.00     0.041 A 
ATOM     83  F   UNL A   1      46.340  25.103  33.695  1.00  0.00    -0.206 F 
ATOM     84  C   UNL A   1      49.806  25.316  32.684  1.00  0.00     0.022 A 
BRANCH  81  85
ATOM     85  S   UNL A   1      51.155  26.472  30.536  1.00  0.00     0.124 S 
ATOM     86  O   UNL A   1      51.130  27.929  30.471  1.00  0.00    -0.237 OA
ATOM     87  O   UNL A   1      52.232  25.889  31.331  1.00  0.00    -0.237 OA
ATOM     88  O   UNL A   1      50.883  25.790  29.273  1.00  0.00    -0.744 OA
ENDBRANCH  81  85
ENDBRANCH  55  78
ENDBRANCH  29  30
ENDBRANCH  21  24
ENDBRANCH  19  20
ENDBRANCH   1  19
TORSDOF 16
ENDMDL
MODEL 3
REMARK VINA RESULT:     -10.0      3.765     10.141
REMARK SMILES C/C(=N/OCC(=O)NCCCNC(=O)c1ccc(-c2c3nc(c(-c4cc(S(=O)(=O)[O-])ccc4F)c4ccc([nH]4)c(-c4cc(S(=O)(=O)[O-])ccc4F)c4nc(c(-c5cc(S(=O)(=O)[O-])ccc5F)c5ccc2[nH]5)C=C4)C=C3)cc1)c1ccc(C)cc1
REMARK SMILES IDX 10 1 9 2 8 3 6 4 7 5 5 7 4 8 3 9 1 10 2 11 78 12 79 13 84 14
REMARK SMILES IDX 80 15 83 16 81 17 82 18 11 19 12 20 13 21 14 23 15 24 16 25
REMARK SMILES IDX 77 26 17 27 76 28 18 29 19 30 20 31 70 32 21 33 75 34 69 35
REMARK SMILES IDX 71 36 22 37 74 38 68 39 67 40 23 42 55 43 35 44 54 45 36 46
REMARK SMILES IDX 39 47 53 48 72 49 37 50 38 51 52 53 73 54 40 55 24 56 25 57
REMARK SMILES IDX 33 58 26 59 32 60 34 61 31 62 27 63 28 64 29 65 30 66 56 67
REMARK SMILES IDX 57 68 65 69 58 70 64 71 66 72 63 73 59 74 60 75 61 76 62 77
REMARK SMILES IDX 41 78 42 79 50 80 43 81 49 82 51 83 48 84 44 85 45 86 46 87
REMARK SMILES IDX 47 88
REMARK H PARENT 8 6 12 22 71 41 39 52
REMARK Flexibility Score: inf
ROOT
ATOM      1  C   UNL A   1      33.659  28.818  23.910  1.00  0.00     0.042 C 
ENDROOT
BRANCH   1   2
ATOM      2  C   UNL A   1      32.552  28.184  23.075  1.00  0.00     0.117 C 
BRANCH   2   3
ATOM      3  N   UNL A   1      33.067  27.396  21.971  1.00  0.00    -0.353 N 
ATOM      4  C   UNL A   1      32.750  26.112  21.618  1.00  0.00     0.260 C 
ATOM      5  O   UNL A   1      33.274  25.639  20.606  1.00  0.00    -0.271 OA
ATOM      6  H   UNL A   1      33.732  27.844  21.399  1.00  0.00     0.163 HD
BRANCH   4   7
ATOM      7  C   UNL A   1      31.683  25.351  22.402  1.00  0.00     0.363 C 
BRANCH   7   8
ATOM      8  O   UNL A   1      32.171  24.595  23.496  1.00  0.00    -0.385 OA
BRANCH   8   9
ATOM      9  N   UNL A   1      31.821  23.250  23.331  1.00  0.00    -0.091 NA
ATOM     10  C   UNL A   1      32.532  20.958  23.472  1.00  0.00     0.071 C 
ATOM     11  C   UNL A   1      32.771  22.435  23.691  1.00  0.00     0.084 C 
BRANCH  11  12
ATOM     12  C   UNL A   1      34.075  22.818  24.300  1.00  0.00    -0.001 A 
ATOM     13  C   UNL A   1      34.176  23.013  25.682  1.00  0.00     0.010 A 
ATOM     14  C   UNL A   1      35.209  22.967  23.495  1.00  0.00     0.010 A 
ATOM     15  C   UNL A   1      35.395  23.387  26.251  1.00  0.00     0.004 A 
ATOM     16  C   UNL A   1      36.429  23.334  24.068  1.00  0.00     0.004 A 
ATOM     17  C   UNL A   1      36.531  23.550  25.448  1.00  0.00    -0.051 A 
ATOM     18  C   UNL A   1      37.830  23.976  26.067  1.00  0.00     0.044 C 
ENDBRANCH  11  12
ENDBRANCH   8   9
ENDBRANCH   7   8
ENDBRANCH   4   7
ENDBRANCH   2   3
ENDBRANCH   1   2
BRANCH   1  19
ATOM     19  C   UNL A   1      33.392  28.817  25.413  1.00  0.00     0.118 C 
BRANCH  19  20
ATOM     20  N   UNL A   1      32.833  30.073  25.896  1.00  0.00    -0.352 N 
ATOM     21  C   UNL A   1      33.288  30.922  26.877  1.00  0.00     0.251 C 
ATOM     22  H   UNL A   1      32.002  30.358  25.451  1.00  0.00     0.163 HD
ATOM     23  O   UNL A   1      32.583  31.860  27.240  1.00  0.00    -0.269 OA
BRANCH  21  24
ATOM     24  C   UNL A   1      34.604  30.690  27.513  1.00  0.00     0.039 A 
ATOM     25  C   UNL A   1      35.500  31.757  27.626  1.00  0.00     0.014 A 
ATOM     26  C   UNL A   1      34.955  29.427  27.994  1.00  0.00     0.014 A 
ATOM     27  C   UNL A   1      36.714  31.579  28.299  1.00  0.00     0.010 A 
ATOM     28  C   UNL A   1      36.134  29.268  28.718  1.00  0.00     0.010 A 
ATOM     29  C   UNL A   1      37.020  30.344  28.888  1.00  0.00    -0.014 A 
BRANCH  29  30
ATOM     30  C   UNL A   1      38.253  30.134  29.694  1.00  0.00     0.031 A 
ATOM     31  C   UNL A   1      39.289  29.152  29.221  1.00  0.00     0.074 A 
ATOM     32  C   UNL A   1      38.384  30.732  30.893  1.00  0.00     0.049 A 
ATOM     33  N   UNL A   1      40.316  28.657  29.861  1.00  0.00    -0.248 NA
ATOM     34  C   UNL A   1      39.123  28.637  27.854  1.00  0.00     0.031 C 
ATOM     35  C   UNL A   1      37.443  31.698  31.466  1.00  0.00     0.029 A 
ATOM     36  N   UNL A   1      39.346  30.594  31.864  1.00  0.00    -0.354 N 
ATOM     37  C   UNL A   1      40.904  27.748  28.988  1.00  0.00     0.074 A 
ATOM     38  C   UNL A   1      40.091  27.735  27.789  1.00  0.00     0.031 C 
ATOM     39  C   UNL A   1      37.874  32.062  32.685  1.00  0.00     0.029 A 
ATOM     40  C   UNL A   1      39.086  31.314  33.007  1.00  0.00     0.049 A 
ATOM     41  H   UNL A   1      40.147  30.032  31.752  1.00  0.00     0.167 HD
ATOM     42  C   UNL A   1      42.023  27.003  29.167  1.00  0.00     0.034 A 
ATOM     43  C   UNL A   1      39.727  31.342  34.193  1.00  0.00     0.034 A 
ATOM     44  C   UNL A   1      42.830  27.043  30.361  1.00  0.00     0.049 A 
ATOM     45  C   UNL A   1      40.949  30.478  34.386  1.00  0.00     0.074 A 
ATOM     46  C   UNL A   1      44.007  26.367  30.630  1.00  0.00     0.029 A 
ATOM     47  N   UNL A   1      42.542  27.801  31.489  1.00  0.00    -0.354 N 
ATOM     48  N   UNL A   1      41.500  29.633  33.545  1.00  0.00    -0.248 NA
ATOM     49  C   UNL A   1      41.635  30.571  35.681  1.00  0.00     0.031 C 
ATOM     50  C   UNL A   1      44.398  26.667  31.939  1.00  0.00     0.029 A 
ATOM     51  C   UNL A   1      43.505  27.588  32.463  1.00  0.00     0.049 A 
ATOM     52  H   UNL A   1      41.768  28.400  31.583  1.00  0.00     0.167 HD
ATOM     53  C   UNL A   1      42.620  29.126  34.199  1.00  0.00     0.074 A 
ATOM     54  C   UNL A   1      42.663  29.754  35.503  1.00  0.00     0.031 C 
ATOM     55  C   UNL A   1      43.537  28.229  33.755  1.00  0.00     0.034 A 
BRANCH  42  56
ATOM     56  C   UNL A   1      42.412  26.057  28.057  1.00  0.00     0.023 A 
ATOM     57  C   UNL A   1      41.831  24.784  27.933  1.00  0.00     0.031 A 
ATOM     58  C   UNL A   1      43.400  26.421  27.125  1.00  0.00     0.131 A 
ATOM     59  C   UNL A   1      42.295  23.893  26.955  1.00  0.00     0.055 A 
ATOM     60  C   UNL A   1      43.800  25.562  26.100  1.00  0.00     0.041 A 
ATOM     61  F   UNL A   1      44.006  27.617  27.203  1.00  0.00    -0.206 F 
ATOM     62  C   UNL A   1      43.258  24.282  26.021  1.00  0.00     0.022 A 
BRANCH  59  63
ATOM     63  S   UNL A   1      41.728  22.172  27.013  1.00  0.00     0.124 S 
ATOM     64  O   UNL A   1      42.739  21.558  27.871  1.00  0.00    -0.237 OA
ATOM     65  O   UNL A   1      40.394  22.298  27.589  1.00  0.00    -0.237 OA
ATOM     66  O   UNL A   1      41.767  21.749  25.615  1.00  0.00    -0.744 OA
ENDBRANCH  59  63
ENDBRANCH  42  56
BRANCH  43  67
ATOM     67  C   UNL A   1      39.216  32.192  35.307  1.00  0.00     0.023 A 
ATOM     68  C   UNL A   1      39.691  33.499  35.493  1.00  0.00     0.031 A 
ATOM     69  C   UNL A   1      38.271  31.696  36.224  1.00  0.00     0.131 A 
ATOM     70  C   UNL A   1      39.255  34.251  36.595  1.00  0.00     0.055 A 
ATOM     71  C   UNL A   1      37.804  32.466  37.290  1.00  0.00     0.041 A 
ATOM     72  F   UNL A   1      37.779  30.455  36.088  1.00  0.00    -0.206 F 
ATOM     73  C   UNL A   1      38.305  33.749  37.487  1.00  0.00     0.022 A 
BRANCH  70  74
ATOM     74  S   UNL A   1      40.010  35.874  36.889  1.00  0.00     0.124 S 
ATOM     75  O   UNL A   1      39.668  36.587  35.665  1.00  0.00    -0.237 OA
ATOM     76  O   UNL A   1      39.323  36.311  38.101  1.00  0.00    -0.237 OA
ATOM     77  O   UNL A   1      41.427  35.562  37.058  1.00  0.00    -0.744 OA
ENDBRANCH  70  74
ENDBRANCH  43  67
BRANCH  55  78
ATOM     78  C   UNL A   1      44.706  27.930  34.658  1.00  0.00     0.023 A 
ATOM     79  C   UNL A   1      44.701  26.845  35.551  1.00  0.00     0.031 A 
ATOM     80  C   UNL A   1      45.859  28.735  34.595  1.00  0.00     0.131 A 
ATOM     81  C   UNL A   1      45.818  26.612  36.368  1.00  0.00     0.055 A 
ATOM     82  C   UNL A   1      46.983  28.469  35.375  1.00  0.00     0.041 A 
ATOM     83  F   UNL A   1      45.914  29.783  33.757  1.00  0.00    -0.206 F 
ATOM     84  C   UNL A   1      46.965  27.406  36.274  1.00  0.00     0.022 A 
BRANCH  81  85
ATOM     85  S   UNL A   1      45.742  25.276  37.593  1.00  0.00     0.124 S 
ATOM     86  O   UNL A   1      44.337  24.887  37.532  1.00  0.00    -0.237 OA
ATOM     87  O   UNL A   1      46.695  24.307  37.061  1.00  0.00    -0.237 OA
ATOM     88  O   UNL A   1      46.152  25.926  38.836  1.00  0.00    -0.744 OA
ENDBRANCH  81  85
ENDBRANCH  55  78
ENDBRANCH  29  30
ENDBRANCH  21  24
ENDBRANCH  19  20
ENDBRANCH   1  19
TORSDOF 16
ENDMDL
