MODEL 1
REMARK VINA RESULT:     -13.0      0.000      0.000
REMARK SMILES O=C1C[C@H](C(=O)NCCCNC(=O)c2ccc(-c3c4nc(c(-c5cc(S(=O)(=O)[O-])ccc5F)c5ccc([nH]5)c(-c5cc(S(=O)(=O)[O-])ccc5F)c5nc(c(-c6cc(S(=O)(=O)[O-])ccc6F)c6ccc3[nH]6)C=C5)C=C4)cc2)c2c(nc(Nc3ccc(Oc4ccccc4)cc3)[nH]c2=O)N1
REMARK SMILES IDX 8 1 7 2 5 3 6 4 4 6 1 7 2 8 3 9 98 10 78 11 77 13 79 14
REMARK SMILES IDX 96 15 80 16 95 17 97 18 81 20 82 22 83 23 94 24 84 25 93 26
REMARK SMILES IDX 85 27 86 28 87 29 88 30 92 31 89 32 91 33 90 34 9 35 10 36
REMARK SMILES IDX 11 37 12 38 13 40 14 41 15 42 76 43 16 44 75 45 17 46 18 47
REMARK SMILES IDX 19 48 69 49 20 50 74 51 68 52 70 53 21 54 73 55 67 56 66 57
REMARK SMILES IDX 22 59 54 60 34 61 53 62 35 63 38 64 52 65 71 66 36 67 37 68
REMARK SMILES IDX 51 70 72 71 39 72 23 73 24 74 32 75 25 76 31 77 33 78 30 79
REMARK SMILES IDX 26 80 27 81 28 82 29 83 55 84 56 85 64 86 57 87 63 88 65 89
REMARK SMILES IDX 62 90 58 91 59 92 60 93 61 94 40 95 41 96 49 97 42 98 48 99
REMARK SMILES IDX 50 100 47 101 43 102 44 103 45 104 46 105
REMARK H PARENT 7 5 98 12 95 19 81 21 11 39 70 58 38 69
REMARK Flexibility Score: inf
ROOT
ATOM      1  C   UNL A   1      38.043  21.018  24.894  1.00  0.00     0.117 C 
ENDROOT
BRANCH   1   2
ATOM      2  N   UNL A   1      37.069  21.451  25.884  1.00  0.00    -0.355 N 
ATOM      3  C   UNL A   1      35.708  21.434  25.882  1.00  0.00     0.228 C 
ATOM      4  O   UNL A   1      35.130  21.985  26.823  1.00  0.00    -0.274 OA
ATOM      5  H   UNL A   1      37.466  21.824  26.704  1.00  0.00     0.163 HD
BRANCH   3   6
ATOM      6  C   UNL A   1      34.904  20.802  24.746  1.00  0.00     0.127 C 
ATOM      7  O   UNL A   1      32.141  18.351  24.731  1.00  0.00    -0.275 OA
ATOM      8  C   UNL A   1      32.752  19.413  24.639  1.00  0.00     0.226 C 
ATOM      9  C   UNL A   1      34.096  19.621  25.294  1.00  0.00     0.119 C 
ATOM     10  N   UNL A   1      32.200  20.481  23.999  1.00  0.00    -0.310 N 
ATOM     11  C   UNL A   1      32.816  21.655  23.712  1.00  0.00     0.146 A 
ATOM     12  H   UNL A   1      31.261  20.392  23.717  1.00  0.00     0.171 HD
ATOM     13  C   UNL A   1      34.105  21.830  24.010  1.00  0.00     0.073 A 
ATOM     14  N   UNL A   1      32.017  22.569  23.109  1.00  0.00    -0.196 NA
ATOM     15  C   UNL A   1      34.696  23.113  23.591  1.00  0.00     0.258 A 
ATOM     16  C   UNL A   1      32.519  23.718  22.779  1.00  0.00     0.209 A 
ATOM     17  N   UNL A   1      33.835  24.000  23.014  1.00  0.00    -0.292 N 
ATOM     18  O   UNL A   1      35.882  23.382  23.735  1.00  0.00    -0.269 OA
ATOM     19  H   UNL A   1      34.179  24.885  22.753  1.00  0.00     0.173 HD
BRANCH  16  20
ATOM     20  N   UNL A   1      31.791  24.697  22.155  1.00  0.00    -0.326 N 
ATOM     21  H   UNL A   1      31.469  24.535  21.239  1.00  0.00     0.170 HD
BRANCH  20  22
ATOM     22  C   UNL A   1      31.483  25.923  22.770  1.00  0.00     0.041 A 
ATOM     23  C   UNL A   1      32.312  27.033  22.580  1.00  0.00     0.030 A 
ATOM     24  C   UNL A   1      30.274  26.094  23.454  1.00  0.00     0.030 A 
ATOM     25  C   UNL A   1      31.929  28.291  23.054  1.00  0.00     0.049 A 
ATOM     26  C   UNL A   1      29.897  27.344  23.941  1.00  0.00     0.049 A 
ATOM     27  C   UNL A   1      30.723  28.452  23.740  1.00  0.00     0.127 A 
BRANCH  27  28
ATOM     28  O   UNL A   1      30.423  29.742  24.135  1.00  0.00    -0.457 OA
BRANCH  28  29
ATOM     29  C   UNL A   1      29.538  30.441  23.353  1.00  0.00     0.127 A 
ATOM     30  C   UNL A   1      29.348  30.044  22.029  1.00  0.00     0.047 A 
ATOM     31  C   UNL A   1      28.840  31.527  23.883  1.00  0.00     0.047 A 
ATOM     32  C   UNL A   1      28.402  30.704  21.247  1.00  0.00     0.004 A 
ATOM     33  C   UNL A   1      27.891  32.181  23.098  1.00  0.00     0.004 A 
ATOM     34  C   UNL A   1      27.667  31.764  21.785  1.00  0.00     0.000 A 
ENDBRANCH  28  29
ENDBRANCH  27  28
ENDBRANCH  20  22
ENDBRANCH  16  20
ENDBRANCH   3   6
ENDBRANCH   1   2
BRANCH   1  35
ATOM     35  C   UNL A   1      38.673  19.684  25.262  1.00  0.00     0.042 C 
BRANCH  35  36
ATOM     36  C   UNL A   1      39.684  19.786  26.395  1.00  0.00     0.118 C 
BRANCH  36  37
ATOM     37  N   UNL A   1      40.963  19.180  26.048  1.00  0.00    -0.352 N 
ATOM     38  C   UNL A   1      42.189  19.783  25.897  1.00  0.00     0.251 C 
ATOM     39  H   UNL A   1      40.948  18.207  25.903  1.00  0.00     0.163 HD
ATOM     40  O   UNL A   1      43.126  19.166  25.400  1.00  0.00    -0.269 OA
BRANCH  38  41
ATOM     41  C   UNL A   1      42.356  21.186  26.323  1.00  0.00     0.039 A 
ATOM     42  C   UNL A   1      42.578  21.469  27.672  1.00  0.00     0.014 A 
ATOM     43  C   UNL A   1      42.320  22.215  25.377  1.00  0.00     0.014 A 
ATOM     44  C   UNL A   1      42.826  22.786  28.064  1.00  0.00     0.010 A 
ATOM     45  C   UNL A   1      42.643  23.511  25.756  1.00  0.00     0.010 A 
ATOM     46  C   UNL A   1      42.886  23.812  27.104  1.00  0.00    -0.014 A 
BRANCH  46  47
ATOM     47  C   UNL A   1      43.166  25.212  27.499  1.00  0.00     0.031 A 
ATOM     48  C   UNL A   1      44.552  25.768  27.339  1.00  0.00     0.074 A 
ATOM     49  C   UNL A   1      42.190  25.964  28.043  1.00  0.00     0.049 A 
ATOM     50  N   UNL A   1      44.996  26.963  27.625  1.00  0.00    -0.248 NA
ATOM     51  C   UNL A   1      45.580  24.856  26.808  1.00  0.00     0.031 C 
ATOM     52  C   UNL A   1      40.822  25.511  28.300  1.00  0.00     0.029 A 
ATOM     53  N   UNL A   1      42.200  27.263  28.486  1.00  0.00    -0.354 N 
ATOM     54  C   UNL A   1      46.348  26.947  27.310  1.00  0.00     0.074 A 
ATOM     55  C   UNL A   1      46.669  25.609  26.872  1.00  0.00     0.031 C 
ATOM     56  C   UNL A   1      40.121  26.521  28.838  1.00  0.00     0.029 A 
ATOM     57  C   UNL A   1      40.992  27.686  28.989  1.00  0.00     0.049 A 
ATOM     58  H   UNL A   1      42.998  27.838  28.449  1.00  0.00     0.167 HD
ATOM     59  C   UNL A   1      47.234  27.969  27.351  1.00  0.00     0.034 A 
ATOM     60  C   UNL A   1      40.625  28.876  29.506  1.00  0.00     0.034 A 
ATOM     61  C   UNL A   1      46.899  29.303  27.768  1.00  0.00     0.049 A 
ATOM     62  C   UNL A   1      41.627  30.002  29.536  1.00  0.00     0.074 A 
ATOM     63  C   UNL A   1      47.713  30.420  27.785  1.00  0.00     0.029 A 
ATOM     64  N   UNL A   1      45.658  29.702  28.239  1.00  0.00    -0.354 N 
ATOM     65  N   UNL A   1      42.876  30.001  29.133  1.00  0.00    -0.248 NA
ATOM     66  C   UNL A   1      41.172  31.294  30.069  1.00  0.00     0.031 C 
ATOM     67  C   UNL A   1      46.981  31.483  28.314  1.00  0.00     0.029 A 
ATOM     68  C   UNL A   1      45.690  31.046  28.568  1.00  0.00     0.049 A 
ATOM     69  H   UNL A   1      44.870  29.117  28.327  1.00  0.00     0.167 HD
ATOM     70  C   UNL A   1      43.345  31.296  29.334  1.00  0.00     0.074 A 
ATOM     71  C   UNL A   1      42.242  32.057  29.882  1.00  0.00     0.031 C 
ATOM     72  C   UNL A   1      44.579  31.805  29.087  1.00  0.00     0.034 A 
BRANCH  59  73
ATOM     73  C   UNL A   1      48.646  27.708  26.901  1.00  0.00     0.023 A 
ATOM     74  C   UNL A   1      48.988  27.839  25.543  1.00  0.00     0.031 A 
ATOM     75  C   UNL A   1      49.615  27.214  27.792  1.00  0.00     0.131 A 
ATOM     76  C   UNL A   1      50.258  27.444  25.108  1.00  0.00     0.055 A 
ATOM     77  C   UNL A   1      50.892  26.859  27.359  1.00  0.00     0.041 A 
ATOM     78  F   UNL A   1      49.334  27.077  29.097  1.00  0.00    -0.206 F 
ATOM     79  C   UNL A   1      51.215  26.962  26.009  1.00  0.00     0.022 A 
BRANCH  76  80
ATOM     80  S   UNL A   1      50.705  27.500  23.352  1.00  0.00     0.124 S 
ATOM     81  O   UNL A   1      50.862  28.936  23.127  1.00  0.00    -0.237 OA
ATOM     82  O   UNL A   1      51.940  26.724  23.328  1.00  0.00    -0.237 OA
ATOM     83  O   UNL A   1      49.560  26.893  22.682  1.00  0.00    -0.744 OA
ENDBRANCH  76  80
ENDBRANCH  59  73
BRANCH  60  84
ATOM     84  C   UNL A   1      39.219  29.068  29.960  1.00  0.00     0.023 A 
ATOM     85  C   UNL A   1      38.248  29.614  29.101  1.00  0.00     0.031 A 
ATOM     86  C   UNL A   1      38.852  28.799  31.289  1.00  0.00     0.131 A 
ATOM     87  C   UNL A   1      36.975  29.922  29.597  1.00  0.00     0.055 A 
ATOM     88  C   UNL A   1      37.564  29.052  31.763  1.00  0.00     0.041 A 
ATOM     89  F   UNL A   1      39.749  28.290  32.147  1.00  0.00    -0.206 F 
ATOM     90  C   UNL A   1      36.621  29.629  30.918  1.00  0.00     0.022 A 
BRANCH  87  91
ATOM     91  S   UNL A   1      35.765  30.801  28.571  1.00  0.00     0.124 S 
ATOM     92  O   UNL A   1      36.622  31.511  27.627  1.00  0.00    -0.237 OA
ATOM     93  O   UNL A   1      34.994  29.693  28.015  1.00  0.00    -0.237 OA
ATOM     94  O   UNL A   1      35.051  31.641  29.527  1.00  0.00    -0.744 OA
ENDBRANCH  87  91
ENDBRANCH  60  84
BRANCH  72  95
ATOM     95  C   UNL A   1      44.835  33.263  29.373  1.00  0.00     0.023 A 
ATOM     96  C   UNL A   1      44.526  34.230  28.396  1.00  0.00     0.031 A 
ATOM     97  C   UNL A   1      45.532  33.673  30.521  1.00  0.00     0.131 A 
ATOM     98  C   UNL A   1      44.955  35.551  28.565  1.00  0.00     0.055 A 
ATOM     99  C   UNL A   1      45.917  35.002  30.705  1.00  0.00     0.041 A 
ATOM    100  F   UNL A   1      45.858  32.785  31.474  1.00  0.00    -0.206 F 
ATOM    101  C   UNL A   1      45.642  35.944  29.717  1.00  0.00     0.022 A 
BRANCH  98 102
ATOM    102  S   UNL A   1      44.707  36.788  27.261  1.00  0.00     0.124 S 
ATOM    103  O   UNL A   1      44.419  37.993  28.037  1.00  0.00    -0.237 OA
ATOM    104  O   UNL A   1      45.998  36.778  26.580  1.00  0.00    -0.237 OA
ATOM    105  O   UNL A   1      43.584  36.266  26.489  1.00  0.00    -0.744 OA
ENDBRANCH  98 102
ENDBRANCH  72  95
ENDBRANCH  46  47
ENDBRANCH  38  41
ENDBRANCH  36  37
ENDBRANCH  35  36
ENDBRANCH   1  35
TORSDOF 17
ENDMDL
MODEL 2
REMARK VINA RESULT:     -12.9      1.849      2.639
REMARK SMILES O=C1C[C@H](C(=O)NCCCNC(=O)c2ccc(-c3c4nc(c(-c5cc(S(=O)(=O)[O-])ccc5F)c5ccc([nH]5)c(-c5cc(S(=O)(=O)[O-])ccc5F)c5nc(c(-c6cc(S(=O)(=O)[O-])ccc6F)c6ccc3[nH]6)C=C5)C=C4)cc2)c2c(nc(Nc3ccc(Oc4ccccc4)cc3)[nH]c2=O)N1
REMARK SMILES IDX 8 1 7 2 5 3 6 4 4 6 1 7 2 8 3 9 98 10 78 11 77 13 79 14
REMARK SMILES IDX 96 15 80 16 95 17 97 18 81 20 82 22 83 23 94 24 84 25 93 26
REMARK SMILES IDX 85 27 86 28 87 29 88 30 92 31 89 32 91 33 90 34 9 35 10 36
REMARK SMILES IDX 11 37 12 38 13 40 14 41 15 42 76 43 16 44 75 45 17 46 18 47
REMARK SMILES IDX 19 48 69 49 20 50 74 51 68 52 70 53 21 54 73 55 67 56 66 57
REMARK SMILES IDX 22 59 54 60 34 61 53 62 35 63 38 64 52 65 71 66 36 67 37 68
REMARK SMILES IDX 51 70 72 71 39 72 23 73 24 74 32 75 25 76 31 77 33 78 30 79
REMARK SMILES IDX 26 80 27 81 28 82 29 83 55 84 56 85 64 86 57 87 63 88 65 89
REMARK SMILES IDX 62 90 58 91 59 92 60 93 61 94 40 95 41 96 49 97 42 98 48 99
REMARK SMILES IDX 50 100 47 101 43 102 44 103 45 104 46 105
REMARK H PARENT 7 5 98 12 95 19 81 21 11 39 70 58 38 69
REMARK Flexibility Score: inf
ROOT
ATOM      1  C   UNL A   1      37.804  21.562  24.987  1.00  0.00     0.117 C 
ENDROOT
BRANCH   1   2
ATOM      2  N   UNL A   1      36.756  21.653  25.992  1.00  0.00    -0.355 N 
ATOM      3  C   UNL A   1      35.416  21.424  25.925  1.00  0.00     0.228 C 
ATOM      4  O   UNL A   1      34.741  21.702  26.920  1.00  0.00    -0.274 OA
ATOM      5  H   UNL A   1      37.073  21.932  26.881  1.00  0.00     0.163 HD
BRANCH   3   6
ATOM      6  C   UNL A   1      34.745  20.887  24.661  1.00  0.00     0.127 C 
ATOM      7  O   UNL A   1      32.286  18.185  24.120  1.00  0.00    -0.275 OA
ATOM      8  C   UNL A   1      32.774  19.308  24.220  1.00  0.00     0.226 C 
ATOM      9  C   UNL A   1      34.053  19.558  24.982  1.00  0.00     0.119 C 
ATOM     10  N   UNL A   1      32.134  20.394  23.706  1.00  0.00    -0.310 N 
ATOM     11  C   UNL A   1      32.623  21.658  23.630  1.00  0.00     0.146 A 
ATOM     12  H   UNL A   1      31.226  20.249  23.355  1.00  0.00     0.171 HD
ATOM     13  C   UNL A   1      33.868  21.923  24.032  1.00  0.00     0.073 A 
ATOM     14  N   UNL A   1      31.754  22.560  23.116  1.00  0.00    -0.196 NA
ATOM     15  C   UNL A   1      34.326  23.310  23.840  1.00  0.00     0.258 A 
ATOM     16  C   UNL A   1      32.135  23.793  22.986  1.00  0.00     0.209 A 
ATOM     17  N   UNL A   1      33.397  24.175  23.342  1.00  0.00    -0.292 N 
ATOM     18  O   UNL A   1      35.465  23.680  24.096  1.00  0.00    -0.269 OA
ATOM     19  H   UNL A   1      33.648  25.122  23.234  1.00  0.00     0.173 HD
BRANCH  16  20
ATOM     20  N   UNL A   1      31.329  24.771  22.464  1.00  0.00    -0.326 N 
ATOM     21  H   UNL A   1      30.813  24.573  21.649  1.00  0.00     0.170 HD
BRANCH  20  22
ATOM     22  C   UNL A   1      31.207  26.045  23.045  1.00  0.00     0.041 A 
ATOM     23  C   UNL A   1      30.775  26.176  24.369  1.00  0.00     0.030 A 
ATOM     24  C   UNL A   1      31.653  27.185  22.366  1.00  0.00     0.030 A 
ATOM     25  C   UNL A   1      30.804  27.422  25.002  1.00  0.00     0.049 A 
ATOM     26  C   UNL A   1      31.670  28.430  22.990  1.00  0.00     0.049 A 
ATOM     27  C   UNL A   1      31.248  28.555  24.315  1.00  0.00     0.127 A 
BRANCH  27  28
ATOM     28  O   UNL A   1      31.269  29.729  25.043  1.00  0.00    -0.457 OA
BRANCH  28  29
ATOM     29  C   UNL A   1      32.360  29.939  25.849  1.00  0.00     0.127 A 
ATOM     30  C   UNL A   1      32.350  31.020  26.731  1.00  0.00     0.047 A 
ATOM     31  C   UNL A   1      33.457  29.077  25.785  1.00  0.00     0.047 A 
ATOM     32  C   UNL A   1      33.424  31.202  27.601  1.00  0.00     0.004 A 
ATOM     33  C   UNL A   1      34.525  29.260  26.661  1.00  0.00     0.004 A 
ATOM     34  C   UNL A   1      34.504  30.317  27.573  1.00  0.00     0.000 A 
ENDBRANCH  28  29
ENDBRANCH  27  28
ENDBRANCH  20  22
ENDBRANCH  16  20
ENDBRANCH   3   6
ENDBRANCH   1   2
BRANCH   1  35
ATOM     35  C   UNL A   1      38.594  20.268  25.107  1.00  0.00     0.042 C 
BRANCH  35  36
ATOM     36  C   UNL A   1      39.607  20.281  26.242  1.00  0.00     0.118 C 
BRANCH  36  37
ATOM     37  N   UNL A   1      40.676  19.313  26.038  1.00  0.00    -0.352 N 
ATOM     38  C   UNL A   1      42.028  19.534  25.923  1.00  0.00     0.251 C 
ATOM     39  H   UNL A   1      40.393  18.372  25.975  1.00  0.00     0.163 HD
ATOM     40  O   UNL A   1      42.773  18.635  25.547  1.00  0.00    -0.269 OA
BRANCH  38  41
ATOM     41  C   UNL A   1      42.565  20.872  26.239  1.00  0.00     0.039 A 
ATOM     42  C   UNL A   1      42.859  21.755  25.198  1.00  0.00     0.014 A 
ATOM     43  C   UNL A   1      42.749  21.255  27.571  1.00  0.00     0.014 A 
ATOM     44  C   UNL A   1      43.281  23.051  25.499  1.00  0.00     0.010 A 
ATOM     45  C   UNL A   1      43.094  22.568  27.868  1.00  0.00     0.010 A 
ATOM     46  C   UNL A   1      43.377  23.473  26.836  1.00  0.00    -0.014 A 
BRANCH  46  47
ATOM     47  C   UNL A   1      43.806  24.850  27.174  1.00  0.00     0.031 A 
ATOM     48  C   UNL A   1      45.246  25.244  27.005  1.00  0.00     0.074 A 
ATOM     49  C   UNL A   1      42.915  25.727  27.676  1.00  0.00     0.049 A 
ATOM     50  N   UNL A   1      45.816  26.395  27.244  1.00  0.00    -0.248 NA
ATOM     51  C   UNL A   1      46.171  24.204  26.523  1.00  0.00     0.031 C 
ATOM     52  C   UNL A   1      41.505  25.437  27.938  1.00  0.00     0.029 A 
ATOM     53  N   UNL A   1      43.065  27.035  28.065  1.00  0.00    -0.354 N 
ATOM     54  C   UNL A   1      47.160  26.218  26.944  1.00  0.00     0.074 A 
ATOM     55  C   UNL A   1      47.335  24.835  26.566  1.00  0.00     0.031 C 
ATOM     56  C   UNL A   1      40.916  26.540  28.427  1.00  0.00     0.029 A 
ATOM     57  C   UNL A   1      41.909  27.609  28.537  1.00  0.00     0.049 A 
ATOM     58  H   UNL A   1      43.921  27.518  28.011  1.00  0.00     0.167 HD
ATOM     59  C   UNL A   1      48.152  27.138  26.951  1.00  0.00     0.034 A 
ATOM     60  C   UNL A   1      41.671  28.853  28.999  1.00  0.00     0.034 A 
ATOM     61  C   UNL A   1      47.963  28.517  27.309  1.00  0.00     0.049 A 
ATOM     62  C   UNL A   1      42.790  29.863  28.992  1.00  0.00     0.074 A 
ATOM     63  C   UNL A   1      48.895  29.539  27.286  1.00  0.00     0.029 A 
ATOM     64  N   UNL A   1      46.770  29.069  27.750  1.00  0.00    -0.354 N 
ATOM     65  N   UNL A   1      44.034  29.709  28.602  1.00  0.00    -0.248 NA
ATOM     66  C   UNL A   1      42.476  31.218  29.465  1.00  0.00     0.031 C 
ATOM     67  C   UNL A   1      48.280  30.697  27.763  1.00  0.00     0.029 A 
ATOM     68  C   UNL A   1      46.948  30.415  28.022  1.00  0.00     0.049 A 
ATOM     69  H   UNL A   1      45.923  28.578  27.854  1.00  0.00     0.167 HD
ATOM     70  C   UNL A   1      44.640  30.952  28.753  1.00  0.00     0.074 A 
ATOM     71  C   UNL A   1      43.624  31.852  29.257  1.00  0.00     0.031 C 
ATOM     72  C   UNL A   1      45.924  31.312  28.497  1.00  0.00     0.034 A 
BRANCH  59  73
ATOM     73  C   UNL A   1      49.530  26.706  26.526  1.00  0.00     0.023 A 
ATOM     74  C   UNL A   1      50.056  27.140  25.296  1.00  0.00     0.031 A 
ATOM     75  C   UNL A   1      50.264  25.771  27.277  1.00  0.00     0.131 A 
ATOM     76  C   UNL A   1      51.268  26.611  24.837  1.00  0.00     0.055 A 
ATOM     77  C   UNL A   1      51.489  25.277  26.832  1.00  0.00     0.041 A 
ATOM     78  F   UNL A   1      49.802  25.332  28.459  1.00  0.00    -0.206 F 
ATOM     79  C   UNL A   1      51.991  25.688  25.601  1.00  0.00     0.022 A 
BRANCH  76  80
ATOM     80  S   UNL A   1      51.930  27.067  23.213  1.00  0.00     0.124 S 
ATOM     81  O   UNL A   1      52.961  26.051  23.012  1.00  0.00    -0.237 OA
ATOM     82  O   UNL A   1      50.754  26.941  22.359  1.00  0.00    -0.237 OA
ATOM     83  O   UNL A   1      52.431  28.423  23.407  1.00  0.00    -0.744 OA
ENDBRANCH  76  80
ENDBRANCH  59  73
BRANCH  60  84
ATOM     84  C   UNL A   1      40.292  29.217  29.431  1.00  0.00     0.023 A 
ATOM     85  C   UNL A   1      39.950  29.272  30.795  1.00  0.00     0.031 A 
ATOM     86  C   UNL A   1      39.274  29.418  28.484  1.00  0.00     0.131 A 
ATOM     87  C   UNL A   1      38.615  29.470  31.169  1.00  0.00     0.055 A 
ATOM     88  C   UNL A   1      37.956  29.674  28.863  1.00  0.00     0.041 A 
ATOM     89  F   UNL A   1      39.552  29.362  27.172  1.00  0.00    -0.206 F 
ATOM     90  C   UNL A   1      37.618  29.688  30.213  1.00  0.00     0.022 A 
BRANCH  87  91
ATOM     91  S   UNL A   1      38.111  29.354  32.907  1.00  0.00     0.124 S 
ATOM     92  O   UNL A   1      37.201  30.488  33.039  1.00  0.00    -0.237 OA
ATOM     93  O   UNL A   1      37.485  28.035  32.943  1.00  0.00    -0.237 OA
ATOM     94  O   UNL A   1      39.369  29.469  33.638  1.00  0.00    -0.744 OA
ENDBRANCH  87  91
ENDBRANCH  60  84
BRANCH  72  95
ATOM     95  C   UNL A   1      46.336  32.745  28.724  1.00  0.00     0.023 A 
ATOM     96  C   UNL A   1      46.468  33.614  27.625  1.00  0.00     0.031 A 
ATOM     97  C   UNL A   1      46.759  33.194  29.986  1.00  0.00     0.131 A 
ATOM     98  C   UNL A   1      47.053  34.874  27.800  1.00  0.00     0.055 A 
ATOM     99  C   UNL A   1      47.299  34.469  30.162  1.00  0.00     0.041 A 
ATOM    100  F   UNL A   1      46.663  32.395  31.061  1.00  0.00    -0.206 F 
ATOM    101  C   UNL A   1      47.462  35.309  29.064  1.00  0.00     0.022 A 
BRANCH  98 102
ATOM    102  S   UNL A   1      47.375  35.960  26.383  1.00  0.00     0.124 S 
ATOM    103  O   UNL A   1      46.028  36.395  26.021  1.00  0.00    -0.237 OA
ATOM    104  O   UNL A   1      48.226  36.989  26.974  1.00  0.00    -0.237 OA
ATOM    105  O   UNL A   1      48.027  35.088  25.411  1.00  0.00    -0.744 OA
ENDBRANCH  98 102
ENDBRANCH  72  95
ENDBRANCH  46  47
ENDBRANCH  38  41
ENDBRANCH  36  37
ENDBRANCH  35  36
ENDBRANCH   1  35
TORSDOF 17
ENDMDL
MODEL 3
REMARK VINA RESULT:     -12.9      1.779      7.513
REMARK SMILES O=C1C[C@H](C(=O)NCCCNC(=O)c2ccc(-c3c4nc(c(-c5cc(S(=O)(=O)[O-])ccc5F)c5ccc([nH]5)c(-c5cc(S(=O)(=O)[O-])ccc5F)c5nc(c(-c6cc(S(=O)(=O)[O-])ccc6F)c6ccc3[nH]6)C=C5)C=C4)cc2)c2c(nc(Nc3ccc(Oc4ccccc4)cc3)[nH]c2=O)N1
REMARK SMILES IDX 8 1 7 2 5 3 6 4 4 6 1 7 2 8 3 9 98 10 78 11 77 13 79 14
REMARK SMILES IDX 96 15 80 16 95 17 97 18 81 20 82 22 83 23 94 24 84 25 93 26
REMARK SMILES IDX 85 27 86 28 87 29 88 30 92 31 89 32 91 33 90 34 9 35 10 36
REMARK SMILES IDX 11 37 12 38 13 40 14 41 15 42 76 43 16 44 75 45 17 46 18 47
REMARK SMILES IDX 19 48 69 49 20 50 74 51 68 52 70 53 21 54 73 55 67 56 66 57
REMARK SMILES IDX 22 59 54 60 34 61 53 62 35 63 38 64 52 65 71 66 36 67 37 68
REMARK SMILES IDX 51 70 72 71 39 72 23 73 24 74 32 75 25 76 31 77 33 78 30 79
REMARK SMILES IDX 26 80 27 81 28 82 29 83 55 84 56 85 64 86 57 87 63 88 65 89
REMARK SMILES IDX 62 90 58 91 59 92 60 93 61 94 40 95 41 96 49 97 42 98 48 99
REMARK SMILES IDX 50 100 47 101 43 102 44 103 45 104 46 105
REMARK H PARENT 7 5 98 12 95 19 81 21 11 39 70 58 38 69
REMARK Flexibility Score: inf
ROOT
ATOM      1  C   UNL A   1      37.960  20.972  24.878  1.00  0.00     0.117 C 
ENDROOT
BRANCH   1   2
ATOM      2  N   UNL A   1      36.994  21.421  25.870  1.00  0.00    -0.355 N 
ATOM      3  C   UNL A   1      35.633  21.434  25.867  1.00  0.00     0.228 C 
ATOM      4  O   UNL A   1      35.067  21.993  26.810  1.00  0.00    -0.274 OA
ATOM      5  H   UNL A   1      37.399  21.781  26.692  1.00  0.00     0.163 HD
BRANCH   3   6
ATOM      6  C   UNL A   1      34.817  20.826  24.726  1.00  0.00     0.127 C 
ATOM      7  O   UNL A   1      32.029  18.404  24.693  1.00  0.00    -0.275 OA
ATOM      8  C   UNL A   1      32.651  19.461  24.612  1.00  0.00     0.226 C 
ATOM      9  C   UNL A   1      34.000  19.646  25.262  1.00  0.00     0.119 C 
ATOM     10  N   UNL A   1      32.106  20.542  23.991  1.00  0.00    -0.310 N 
ATOM     11  C   UNL A   1      32.732  21.715  23.716  1.00  0.00     0.146 A 
ATOM     12  H   UNL A   1      31.165  20.467  23.712  1.00  0.00     0.171 HD
ATOM     13  C   UNL A   1      34.024  21.873  24.009  1.00  0.00     0.073 A 
ATOM     14  N   UNL A   1      31.939  22.645  23.131  1.00  0.00    -0.196 NA
ATOM     15  C   UNL A   1      34.626  23.156  23.606  1.00  0.00     0.258 A 
ATOM     16  C   UNL A   1      32.451  23.793  22.814  1.00  0.00     0.209 A 
ATOM     17  N   UNL A   1      33.770  24.059  23.045  1.00  0.00    -0.292 N 
ATOM     18  O   UNL A   1      35.815  23.411  23.746  1.00  0.00    -0.269 OA
ATOM     19  H   UNL A   1      34.121  24.944  22.796  1.00  0.00     0.173 HD
BRANCH  16  20
ATOM     20  N   UNL A   1      31.728  24.788  22.208  1.00  0.00    -0.326 N 
ATOM     21  H   UNL A   1      31.350  24.620  21.315  1.00  0.00     0.170 HD
BRANCH  20  22
ATOM     22  C   UNL A   1      31.504  26.038  22.810  1.00  0.00     0.041 A 
ATOM     23  C   UNL A   1      30.626  26.151  23.892  1.00  0.00     0.030 A 
ATOM     24  C   UNL A   1      32.262  27.156  22.438  1.00  0.00     0.030 A 
ATOM     25  C   UNL A   1      30.520  27.354  24.596  1.00  0.00     0.049 A 
ATOM     26  C   UNL A   1      32.147  28.360  23.128  1.00  0.00     0.049 A 
ATOM     27  C   UNL A   1      31.277  28.466  24.215  1.00  0.00     0.127 A 
BRANCH  27  28
ATOM     28  O   UNL A   1      31.124  29.594  24.997  1.00  0.00    -0.457 OA
BRANCH  28  29
ATOM     29  C   UNL A   1      32.124  29.866  25.897  1.00  0.00     0.127 A 
ATOM     30  C   UNL A   1      33.120  28.912  26.108  1.00  0.00     0.047 A 
ATOM     31  C   UNL A   1      32.141  31.084  26.581  1.00  0.00     0.047 A 
ATOM     32  C   UNL A   1      34.177  29.207  26.968  1.00  0.00     0.004 A 
ATOM     33  C   UNL A   1      33.203  31.375  27.435  1.00  0.00     0.004 A 
ATOM     34  C   UNL A   1      34.223  30.440  27.621  1.00  0.00     0.000 A 
ENDBRANCH  28  29
ENDBRANCH  27  28
ENDBRANCH  20  22
ENDBRANCH  16  20
ENDBRANCH   3   6
ENDBRANCH   1   2
BRANCH   1  35
ATOM     35  C   UNL A   1      38.683  19.710  25.321  1.00  0.00     0.042 C 
BRANCH  35  36
ATOM     36  C   UNL A   1      39.764  19.966  26.362  1.00  0.00     0.118 C 
BRANCH  36  37
ATOM     37  N   UNL A   1      40.967  19.183  26.111  1.00  0.00    -0.352 N 
ATOM     38  C   UNL A   1      42.259  19.621  25.941  1.00  0.00     0.251 C 
ATOM     39  H   UNL A   1      40.837  18.209  26.058  1.00  0.00     0.163 HD
ATOM     40  O   UNL A   1      43.124  18.852  25.532  1.00  0.00    -0.269 OA
BRANCH  38  41
ATOM     41  C   UNL A   1      42.585  21.029  26.238  1.00  0.00     0.039 A 
ATOM     42  C   UNL A   1      42.839  21.408  27.557  1.00  0.00     0.014 A 
ATOM     43  C   UNL A   1      42.665  21.963  25.200  1.00  0.00     0.014 A 
ATOM     44  C   UNL A   1      43.236  22.719  27.828  1.00  0.00     0.010 A 
ATOM     45  C   UNL A   1      43.134  23.244  25.462  1.00  0.00     0.010 A 
ATOM     46  C   UNL A   1      43.411  23.638  26.779  1.00  0.00    -0.014 A 
BRANCH  46  47
ATOM     47  C   UNL A   1      43.848  25.028  27.045  1.00  0.00     0.031 A 
ATOM     48  C   UNL A   1      42.857  26.037  27.550  1.00  0.00     0.074 A 
ATOM     49  C   UNL A   1      45.119  25.393  26.788  1.00  0.00     0.049 A 
ATOM     50  N   UNL A   1      43.043  27.297  27.842  1.00  0.00    -0.248 NA
ATOM     51  C   UNL A   1      41.469  25.577  27.733  1.00  0.00     0.031 C 
ATOM     52  C   UNL A   1      46.153  24.514  26.241  1.00  0.00     0.029 A 
ATOM     53  N   UNL A   1      45.755  26.600  26.943  1.00  0.00    -0.354 N 
ATOM     54  C   UNL A   1      41.803  27.778  28.240  1.00  0.00     0.074 A 
ATOM     55  C   UNL A   1      40.858  26.696  28.093  1.00  0.00     0.031 C 
ATOM     56  C   UNL A   1      47.297  25.205  26.123  1.00  0.00     0.029 A 
ATOM     57  C   UNL A   1      47.076  26.582  26.562  1.00  0.00     0.049 A 
ATOM     58  H   UNL A   1      45.307  27.403  27.293  1.00  0.00     0.167 HD
ATOM     59  C   UNL A   1      41.490  29.004  28.718  1.00  0.00     0.034 A 
ATOM     60  C   UNL A   1      48.005  27.560  26.570  1.00  0.00     0.034 A 
ATOM     61  C   UNL A   1      42.442  30.068  28.880  1.00  0.00     0.049 A 
ATOM     62  C   UNL A   1      47.634  28.917  27.113  1.00  0.00     0.074 A 
ATOM     63  C   UNL A   1      42.233  31.326  29.414  1.00  0.00     0.029 A 
ATOM     64  N   UNL A   1      43.778  30.003  28.514  1.00  0.00    -0.354 N 
ATOM     65  N   UNL A   1      46.481  29.326  27.587  1.00  0.00    -0.248 NA
ATOM     66  C   UNL A   1      48.689  29.940  27.142  1.00  0.00     0.031 C 
ATOM     67  C   UNL A   1      43.427  32.041  29.325  1.00  0.00     0.029 A 
ATOM     68  C   UNL A   1      44.400  31.208  28.794  1.00  0.00     0.049 A 
ATOM     69  H   UNL A   1      44.219  29.218  28.116  1.00  0.00     0.167 HD
ATOM     70  C   UNL A   1      46.679  30.640  28.000  1.00  0.00     0.074 A 
ATOM     71  C   UNL A   1      48.067  30.954  27.732  1.00  0.00     0.031 C 
ATOM     72  C   UNL A   1      45.791  31.505  28.550  1.00  0.00     0.034 A 
BRANCH  59  73
ATOM     73  C   UNL A   1      40.068  29.265  29.139  1.00  0.00     0.023 A 
ATOM     74  C   UNL A   1      39.723  29.248  30.503  1.00  0.00     0.031 A 
ATOM     75  C   UNL A   1      39.041  29.406  28.190  1.00  0.00     0.131 A 
ATOM     76  C   UNL A   1      38.378  29.335  30.877  1.00  0.00     0.055 A 
ATOM     77  C   UNL A   1      37.706  29.531  28.570  1.00  0.00     0.041 A 
ATOM     78  F   UNL A   1      39.324  29.431  26.877  1.00  0.00    -0.206 F 
ATOM     79  C   UNL A   1      37.368  29.483  29.920  1.00  0.00     0.022 A 
BRANCH  76  80
ATOM     80  S   UNL A   1      37.882  29.214  32.616  1.00  0.00     0.124 S 
ATOM     81  O   UNL A   1      39.062  29.736  33.303  1.00  0.00    -0.237 OA
ATOM     82  O   UNL A   1      36.704  30.075  32.656  1.00  0.00    -0.237 OA
ATOM     83  O   UNL A   1      37.635  27.790  32.811  1.00  0.00    -0.744 OA
ENDBRANCH  76  80
ENDBRANCH  59  73
BRANCH  60  84
ATOM     84  C   UNL A   1      49.390  27.250  26.117  1.00  0.00     0.023 A 
ATOM     85  C   UNL A   1      49.825  27.602  24.826  1.00  0.00     0.031 A 
ATOM     86  C   UNL A   1      50.263  26.513  26.934  1.00  0.00     0.131 A 
ATOM     87  C   UNL A   1      51.078  27.169  24.373  1.00  0.00     0.055 A 
ATOM     88  C   UNL A   1      51.534  26.135  26.499  1.00  0.00     0.041 A 
ATOM     89  F   UNL A   1      49.885  26.145  28.168  1.00  0.00    -0.206 F 
ATOM     90  C   UNL A   1      51.943  26.452  25.207  1.00  0.00     0.022 A 
BRANCH  87  91
ATOM     91  S   UNL A   1      51.589  27.438  22.655  1.00  0.00     0.124 S 
ATOM     92  O   UNL A   1      52.810  26.643  22.569  1.00  0.00    -0.237 OA
ATOM     93  O   UNL A   1      50.439  26.911  21.923  1.00  0.00    -0.237 OA
ATOM     94  O   UNL A   1      51.772  28.883  22.573  1.00  0.00    -0.744 OA
ENDBRANCH  87  91
ENDBRANCH  60  84
BRANCH  72  95
ATOM     95  C   UNL A   1      46.262  32.884  28.937  1.00  0.00     0.023 A 
ATOM     96  C   UNL A   1      46.184  33.935  28.003  1.00  0.00     0.031 A 
ATOM     97  C   UNL A   1      46.935  33.115  30.148  1.00  0.00     0.131 A 
ATOM     98  C   UNL A   1      46.812  35.157  28.276  1.00  0.00     0.055 A 
ATOM     99  C   UNL A   1      47.519  34.350  30.434  1.00  0.00     0.041 A 
ATOM    100  F   UNL A   1      47.044  32.139  31.064  1.00  0.00    -0.206 F 
ATOM    101  C   UNL A   1      47.472  35.372  29.489  1.00  0.00     0.022 A 
BRANCH  98 102
ATOM    102  S   UNL A   1      46.860  36.480  27.036  1.00  0.00     0.124 S 
ATOM    103  O   UNL A   1      48.142  37.118  27.323  1.00  0.00    -0.237 OA
ATOM    104  O   UNL A   1      46.804  35.729  25.785  1.00  0.00    -0.237 OA
ATOM    105  O   UNL A   1      45.684  37.289  27.337  1.00  0.00    -0.744 OA
ENDBRANCH  98 102
ENDBRANCH  72  95
ENDBRANCH  46  47
ENDBRANCH  38  41
ENDBRANCH  36  37
ENDBRANCH  35  36
ENDBRANCH   1  35
TORSDOF 17
ENDMDL
