MODEL 1
REMARK VINA RESULT:     -13.0      0.000      0.000
REMARK SMILES Cn1c(=O)c2c(nc(Nc3cccc(Cl)c3Cl)n2CC(=O)NCCCNC(=O)c2ccc(-c3c4nc(c(-c5cc(S(=O)(=O)[O-])ccc5F)c5ccc([nH]5)c(-c5cc(S(=O)(=O)[O-])ccc5F)c5nc(c(-c6cc(S(=O)(=O)[O-])ccc6F)c6ccc3[nH]6)C=C5)C=C4)cc2)n(C)c1=O
REMARK SMILES IDX 24 1 23 2 22 3 20 4 21 5 19 7 18 8 1 9 2 10 3 11 94 12 4 13
REMARK SMILES IDX 5 14 92 15 95 16 6 17 93 18 7 19 8 20 9 21 10 23 11 24 16 25
REMARK SMILES IDX 12 26 14 27 17 28 13 29 15 30 25 31 26 32 27 33 28 35 29 36
REMARK SMILES IDX 30 37 91 38 31 39 90 40 32 41 33 42 34 43 84 44 35 45 89 46
REMARK SMILES IDX 83 47 85 48 36 49 88 50 82 51 81 52 37 54 69 55 49 56 68 57
REMARK SMILES IDX 50 58 53 59 67 60 86 61 51 62 52 63 66 65 87 66 54 67 38 68
REMARK SMILES IDX 39 69 47 70 40 71 46 72 48 73 45 74 41 75 42 76 43 77 44 78
REMARK SMILES IDX 70 79 71 80 79 81 72 82 78 83 80 84 77 85 73 86 74 87 75 88
REMARK SMILES IDX 76 89 55 90 56 91 64 92 57 93 63 94 65 95 62 96 58 97 59 98
REMARK SMILES IDX 60 99 61 100
REMARK H PARENT 22 6 9 22 26 34 85 53 53 64
REMARK Flexibility Score: inf
ROOT
ATOM      1  C   UNL A   1      37.263  20.173  25.001  1.00  0.00     0.042 C 
ENDROOT
BRANCH   1   2
ATOM      2  C   UNL A   1      36.192  21.236  25.226  1.00  0.00     0.117 C 
BRANCH   2   3
ATOM      3  N   UNL A   1      35.764  21.906  24.019  1.00  0.00    -0.354 N 
ATOM      4  C   UNL A   1      35.007  23.037  23.896  1.00  0.00     0.240 C 
ATOM      5  O   UNL A   1      34.986  23.583  22.791  1.00  0.00    -0.273 OA
ATOM      6  H   UNL A   1      36.054  21.492  23.174  1.00  0.00     0.163 HD
BRANCH   4   7
ATOM      7  C   UNL A   1      34.356  23.681  25.107  1.00  0.00     0.226 C 
BRANCH   7   8
ATOM      8  N   UNL A   1      32.947  24.026  24.974  1.00  0.00    -0.295 N 
ATOM      9  C   UNL A   1      32.957  28.816  23.599  1.00  0.00     0.159 C 
ATOM     10  N   UNL A   1      32.349  27.547  23.961  1.00  0.00    -0.261 N 
ATOM     11  C   UNL A   1      33.187  26.512  24.375  1.00  0.00     0.282 A 
ATOM     12  C   UNL A   1      30.946  27.474  23.875  1.00  0.00     0.332 A 
ATOM     13  O   UNL A   1      34.403  26.637  24.535  1.00  0.00    -0.267 OA
ATOM     14  C   UNL A   1      32.504  25.291  24.633  1.00  0.00     0.154 A 
ATOM     15  N   UNL A   1      30.355  26.251  24.197  1.00  0.00    -0.279 N 
ATOM     16  O   UNL A   1      30.271  28.453  23.541  1.00  0.00    -0.247 OA
ATOM     17  C   UNL A   1      31.151  25.192  24.556  1.00  0.00     0.170 A 
ATOM     18  C   UNL A   1      28.913  26.098  24.140  1.00  0.00     0.157 C 
ATOM     19  N   UNL A   1      30.722  23.948  24.876  1.00  0.00    -0.194 NA
ATOM     20  C   UNL A   1      31.804  23.251  25.177  1.00  0.00     0.210 A 
BRANCH  20  21
ATOM     21  N   UNL A   1      31.697  21.939  25.503  1.00  0.00    -0.324 N 
ATOM     22  H   UNL A   1      31.126  21.779  26.290  1.00  0.00     0.170 HD
BRANCH  21  23
ATOM     23  C   UNL A   1      32.228  20.757  24.953  1.00  0.00     0.061 A 
ATOM     24  C   UNL A   1      32.773  19.827  25.862  1.00  0.00     0.028 A 
ATOM     25  C   UNL A   1      32.199  20.422  23.585  1.00  0.00     0.083 A 
ATOM     26  C   UNL A   1      33.123  18.539  25.457  1.00  0.00     0.004 A 
ATOM     27  C   UNL A   1      32.556  19.124  23.181  1.00  0.00     0.061 A 
ATOM     28  Cl  UNL A   1      31.724  21.616  22.416  1.00  0.00    -0.080 Cl
ATOM     29  C   UNL A   1      32.987  18.181  24.121  1.00  0.00     0.022 A 
ATOM     30  Cl  UNL A   1      32.447  18.604  21.535  1.00  0.00    -0.083 Cl
ENDBRANCH  21  23
ENDBRANCH  20  21
ENDBRANCH   7   8
ENDBRANCH   4   7
ENDBRANCH   2   3
ENDBRANCH   1   2
BRANCH   1  31
ATOM     31  C   UNL A   1      38.602  20.613  25.554  1.00  0.00     0.118 C 
BRANCH  31  32
ATOM     32  N   UNL A   1      39.540  19.497  25.704  1.00  0.00    -0.352 N 
ATOM     33  C   UNL A   1      40.903  19.567  25.937  1.00  0.00     0.251 C 
ATOM     34  H   UNL A   1      39.157  18.593  25.632  1.00  0.00     0.163 HD
ATOM     35  O   UNL A   1      41.626  18.615  25.670  1.00  0.00    -0.269 OA
BRANCH  33  36
ATOM     36  C   UNL A   1      41.443  20.810  26.517  1.00  0.00     0.039 A 
ATOM     37  C   UNL A   1      41.893  21.871  25.727  1.00  0.00     0.014 A 
ATOM     38  C   UNL A   1      41.434  20.910  27.905  1.00  0.00     0.014 A 
ATOM     39  C   UNL A   1      42.263  23.057  26.360  1.00  0.00     0.010 A 
ATOM     40  C   UNL A   1      41.587  22.130  28.500  1.00  0.00     0.010 A 
ATOM     41  C   UNL A   1      42.086  23.181  27.749  1.00  0.00    -0.014 A 
BRANCH  41  42
ATOM     42  C   UNL A   1      42.279  24.444  28.447  1.00  0.00     0.031 A 
ATOM     43  C   UNL A   1      41.160  25.399  28.254  1.00  0.00     0.074 A 
ATOM     44  C   UNL A   1      43.252  24.637  29.368  1.00  0.00     0.049 A 
ATOM     45  N   UNL A   1      41.168  26.458  27.518  1.00  0.00    -0.248 NA
ATOM     46  C   UNL A   1      39.822  25.040  28.756  1.00  0.00     0.031 C 
ATOM     47  C   UNL A   1      44.255  23.686  29.858  1.00  0.00     0.029 A 
ATOM     48  N   UNL A   1      43.492  25.730  30.139  1.00  0.00    -0.354 N 
ATOM     49  C   UNL A   1      39.926  27.052  27.695  1.00  0.00     0.074 A 
ATOM     50  C   UNL A   1      39.081  26.028  28.248  1.00  0.00     0.031 C 
ATOM     51  C   UNL A   1      44.835  24.167  30.982  1.00  0.00     0.029 A 
ATOM     52  C   UNL A   1      44.368  25.524  31.206  1.00  0.00     0.049 A 
ATOM     53  H   UNL A   1      43.078  26.604  29.959  1.00  0.00     0.167 HD
ATOM     54  C   UNL A   1      39.792  28.406  27.629  1.00  0.00     0.034 A 
ATOM     55  C   UNL A   1      44.688  26.413  32.192  1.00  0.00     0.034 A 
ATOM     56  C   UNL A   1      40.967  29.004  27.025  1.00  0.00     0.049 A 
ATOM     57  C   UNL A   1      44.420  27.756  31.613  1.00  0.00     0.074 A 
ATOM     58  C   UNL A   1      41.610  28.851  25.810  1.00  0.00     0.029 A 
ATOM     59  N   UNL A   1      41.901  29.576  27.862  1.00  0.00    -0.354 N 
ATOM     60  N   UNL A   1      45.072  28.225  30.581  1.00  0.00    -0.248 NA
ATOM     61  C   UNL A   1      43.101  28.331  31.830  1.00  0.00     0.031 C 
ATOM     62  C   UNL A   1      43.000  28.838  26.132  1.00  0.00     0.029 A 
ATOM     63  C   UNL A   1      43.135  29.090  27.500  1.00  0.00     0.049 A 
ATOM     64  H   UNL A   1      41.718  30.216  28.588  1.00  0.00     0.167 HD
ATOM     65  C   UNL A   1      44.100  28.807  29.781  1.00  0.00     0.074 A 
ATOM     66  C   UNL A   1      42.916  28.910  30.639  1.00  0.00     0.031 C 
ATOM     67  C   UNL A   1      44.235  28.874  28.422  1.00  0.00     0.034 A 
BRANCH  54  68
ATOM     68  C   UNL A   1      38.813  29.222  28.442  1.00  0.00     0.023 A 
ATOM     69  C   UNL A   1      39.019  29.264  29.834  1.00  0.00     0.031 A 
ATOM     70  C   UNL A   1      37.565  29.713  27.994  1.00  0.00     0.131 A 
ATOM     71  C   UNL A   1      37.995  29.665  30.707  1.00  0.00     0.055 A 
ATOM     72  C   UNL A   1      36.570  30.167  28.864  1.00  0.00     0.041 A 
ATOM     73  F   UNL A   1      37.196  29.703  26.709  1.00  0.00    -0.206 F 
ATOM     74  C   UNL A   1      36.767  30.113  30.232  1.00  0.00     0.022 A 
BRANCH  71  75
ATOM     75  S   UNL A   1      38.251  29.444  32.484  1.00  0.00     0.124 S 
ATOM     76  O   UNL A   1      39.699  29.279  32.555  1.00  0.00    -0.237 OA
ATOM     77  O   UNL A   1      37.718  30.691  33.021  1.00  0.00    -0.237 OA
ATOM     78  O   UNL A   1      37.469  28.249  32.793  1.00  0.00    -0.744 OA
ENDBRANCH  71  75
ENDBRANCH  54  68
BRANCH  55  79
ATOM     79  C   UNL A   1      44.860  26.162  33.660  1.00  0.00     0.023 A 
ATOM     80  C   UNL A   1      43.850  26.450  34.613  1.00  0.00     0.031 A 
ATOM     81  C   UNL A   1      45.940  25.377  34.123  1.00  0.00     0.131 A 
ATOM     82  C   UNL A   1      43.942  25.952  35.940  1.00  0.00     0.055 A 
ATOM     83  C   UNL A   1      46.024  24.886  35.431  1.00  0.00     0.041 A 
ATOM     84  F   UNL A   1      46.920  24.982  33.297  1.00  0.00    -0.206 F 
ATOM     85  C   UNL A   1      45.017  25.159  36.342  1.00  0.00     0.022 A 
BRANCH  82  86
ATOM     86  S   UNL A   1      42.599  26.225  37.150  1.00  0.00     0.124 S 
ATOM     87  O   UNL A   1      43.330  26.279  38.411  1.00  0.00    -0.237 OA
ATOM     88  O   UNL A   1      42.002  27.473  36.693  1.00  0.00    -0.237 OA
ATOM     89  O   UNL A   1      41.747  25.045  36.985  1.00  0.00    -0.744 OA
ENDBRANCH  82  86
ENDBRANCH  55  79
BRANCH  67  90
ATOM     90  C   UNL A   1      45.573  28.519  27.796  1.00  0.00     0.023 A 
ATOM     91  C   UNL A   1      45.900  27.264  27.227  1.00  0.00     0.031 A 
ATOM     92  C   UNL A   1      46.479  29.575  27.607  1.00  0.00     0.131 A 
ATOM     93  C   UNL A   1      47.096  27.114  26.490  1.00  0.00     0.055 A 
ATOM     94  C   UNL A   1      47.648  29.428  26.861  1.00  0.00     0.041 A 
ATOM     95  F   UNL A   1      46.208  30.797  28.096  1.00  0.00    -0.206 F 
ATOM     96  C   UNL A   1      47.960  28.197  26.298  1.00  0.00     0.022 A 
BRANCH  93  97
ATOM     97  S   UNL A   1      47.534  25.513  25.726  1.00  0.00     0.124 S 
ATOM     98  O   UNL A   1      47.513  24.590  26.855  1.00  0.00    -0.237 OA
ATOM     99  O   UNL A   1      46.485  25.331  24.729  1.00  0.00    -0.237 OA
ATOM    100  O   UNL A   1      48.865  25.754  25.165  1.00  0.00    -0.744 OA
ENDBRANCH  93  97
ENDBRANCH  67  90
ENDBRANCH  41  42
ENDBRANCH  33  36
ENDBRANCH  31  32
ENDBRANCH   1  31
TORSDOF 16
ENDMDL
MODEL 2
REMARK VINA RESULT:     -12.9      4.366      9.719
REMARK SMILES Cn1c(=O)c2c(nc(Nc3cccc(Cl)c3Cl)n2CC(=O)NCCCNC(=O)c2ccc(-c3c4nc(c(-c5cc(S(=O)(=O)[O-])ccc5F)c5ccc([nH]5)c(-c5cc(S(=O)(=O)[O-])ccc5F)c5nc(c(-c6cc(S(=O)(=O)[O-])ccc6F)c6ccc3[nH]6)C=C5)C=C4)cc2)n(C)c1=O
REMARK SMILES IDX 24 1 23 2 22 3 20 4 21 5 19 7 18 8 1 9 2 10 3 11 94 12 4 13
REMARK SMILES IDX 5 14 92 15 95 16 6 17 93 18 7 19 8 20 9 21 10 23 11 24 16 25
REMARK SMILES IDX 12 26 14 27 17 28 13 29 15 30 25 31 26 32 27 33 28 35 29 36
REMARK SMILES IDX 30 37 91 38 31 39 90 40 32 41 33 42 34 43 84 44 35 45 89 46
REMARK SMILES IDX 83 47 85 48 36 49 88 50 82 51 81 52 37 54 69 55 49 56 68 57
REMARK SMILES IDX 50 58 53 59 67 60 86 61 51 62 52 63 66 65 87 66 54 67 38 68
REMARK SMILES IDX 39 69 47 70 40 71 46 72 48 73 45 74 41 75 42 76 43 77 44 78
REMARK SMILES IDX 70 79 71 80 79 81 72 82 78 83 80 84 77 85 73 86 74 87 75 88
REMARK SMILES IDX 76 89 55 90 56 91 64 92 57 93 63 94 65 95 62 96 58 97 59 98
REMARK SMILES IDX 60 99 61 100
REMARK H PARENT 22 6 9 22 26 34 85 53 53 64
REMARK Flexibility Score: inf
ROOT
ATOM      1  C   UNL A   1      31.571  31.230  26.150  1.00  0.00     0.042 C 
ENDROOT
BRANCH   1   2
ATOM      2  C   UNL A   1      32.107  29.894  25.646  1.00  0.00     0.117 C 
BRANCH   2   3
ATOM      3  N   UNL A   1      31.401  28.744  26.164  1.00  0.00    -0.354 N 
ATOM      4  C   UNL A   1      31.736  27.423  26.062  1.00  0.00     0.240 C 
ATOM      5  O   UNL A   1      31.143  26.633  26.799  1.00  0.00    -0.273 OA
ATOM      6  H   UNL A   1      30.568  28.937  26.652  1.00  0.00     0.163 HD
BRANCH   4   7
ATOM      7  C   UNL A   1      32.900  26.973  25.197  1.00  0.00     0.226 C 
BRANCH   7   8
ATOM      8  N   UNL A   1      32.624  25.899  24.253  1.00  0.00    -0.295 N 
ATOM      9  C   UNL A   1      34.164  21.767  26.574  1.00  0.00     0.159 C 
ATOM     10  N   UNL A   1      33.600  22.532  25.476  1.00  0.00    -0.261 N 
ATOM     11  C   UNL A   1      33.574  23.922  25.590  1.00  0.00     0.282 A 
ATOM     12  C   UNL A   1      33.134  21.796  24.371  1.00  0.00     0.332 A 
ATOM     13  O   UNL A   1      34.081  24.543  26.526  1.00  0.00    -0.267 OA
ATOM     14  C   UNL A   1      32.935  24.573  24.498  1.00  0.00     0.154 A 
ATOM     15  N   UNL A   1      32.567  22.522  23.321  1.00  0.00    -0.279 N 
ATOM     16  O   UNL A   1      33.233  20.567  24.330  1.00  0.00    -0.247 OA
ATOM     17  C   UNL A   1      32.474  23.888  23.419  1.00  0.00     0.170 A 
ATOM     18  C   UNL A   1      32.069  21.836  22.143  1.00  0.00     0.157 C 
ATOM     19  N   UNL A   1      31.935  24.717  22.493  1.00  0.00    -0.194 NA
ATOM     20  C   UNL A   1      32.068  25.941  22.973  1.00  0.00     0.210 A 
BRANCH  20  21
ATOM     21  N   UNL A   1      31.579  26.998  22.278  1.00  0.00    -0.324 N 
ATOM     22  H   UNL A   1      32.042  27.148  21.422  1.00  0.00     0.170 HD
BRANCH  21  23
ATOM     23  C   UNL A   1      30.550  27.926  22.522  1.00  0.00     0.061 A 
ATOM     24  C   UNL A   1      30.768  29.246  22.076  1.00  0.00     0.028 A 
ATOM     25  C   UNL A   1      29.312  27.616  23.120  1.00  0.00     0.083 A 
ATOM     26  C   UNL A   1      29.739  30.186  22.065  1.00  0.00     0.004 A 
ATOM     27  C   UNL A   1      28.278  28.568  23.111  1.00  0.00     0.061 A 
ATOM     28  Cl  UNL A   1      29.081  26.062  23.862  1.00  0.00    -0.080 Cl
ATOM     29  C   UNL A   1      28.487  29.836  22.557  1.00  0.00     0.022 A 
ATOM     30  Cl  UNL A   1      26.700  28.228  23.730  1.00  0.00    -0.083 Cl
ENDBRANCH  21  23
ENDBRANCH  20  21
ENDBRANCH   7   8
ENDBRANCH   4   7
ENDBRANCH   2   3
ENDBRANCH   1   2
BRANCH   1  31
ATOM     31  C   UNL A   1      32.532  31.878  27.125  1.00  0.00     0.118 C 
BRANCH  31  32
ATOM     32  N   UNL A   1      32.250  33.302  27.327  1.00  0.00    -0.352 N 
ATOM     33  C   UNL A   1      32.856  34.162  28.227  1.00  0.00     0.251 C 
ATOM     34  H   UNL A   1      31.549  33.693  26.758  1.00  0.00     0.163 HD
ATOM     35  O   UNL A   1      32.297  35.196  28.567  1.00  0.00    -0.269 OA
BRANCH  33  36
ATOM     36  C   UNL A   1      34.185  33.793  28.748  1.00  0.00     0.039 A 
ATOM     37  C   UNL A   1      34.356  33.136  29.968  1.00  0.00     0.014 A 
ATOM     38  C   UNL A   1      35.278  34.080  27.935  1.00  0.00     0.014 A 
ATOM     39  C   UNL A   1      35.636  32.710  30.318  1.00  0.00     0.010 A 
ATOM     40  C   UNL A   1      36.480  33.477  28.175  1.00  0.00     0.010 A 
ATOM     41  C   UNL A   1      36.690  32.869  29.401  1.00  0.00    -0.014 A 
BRANCH  41  42
ATOM     42  C   UNL A   1      38.007  32.289  29.621  1.00  0.00     0.031 A 
ATOM     43  C   UNL A   1      38.092  30.860  29.232  1.00  0.00     0.074 A 
ATOM     44  C   UNL A   1      39.099  33.030  29.919  1.00  0.00     0.049 A 
ATOM     45  N   UNL A   1      38.138  29.845  30.027  1.00  0.00    -0.248 NA
ATOM     46  C   UNL A   1      37.894  30.493  27.819  1.00  0.00     0.031 C 
ATOM     47  C   UNL A   1      39.212  34.486  30.059  1.00  0.00     0.029 A 
ATOM     48  N   UNL A   1      40.388  32.627  30.073  1.00  0.00    -0.354 N 
ATOM     49  C   UNL A   1      38.265  28.730  29.211  1.00  0.00     0.074 A 
ATOM     50  C   UNL A   1      37.862  29.160  27.899  1.00  0.00     0.031 C 
ATOM     51  C   UNL A   1      40.516  34.849  30.053  1.00  0.00     0.029 A 
ATOM     52  C   UNL A   1      41.336  33.651  30.072  1.00  0.00     0.049 A 
ATOM     53  H   UNL A   1      40.635  31.680  30.178  1.00  0.00     0.167 HD
ATOM     54  C   UNL A   1      38.956  27.636  29.639  1.00  0.00     0.034 A 
ATOM     55  C   UNL A   1      42.694  33.516  30.094  1.00  0.00     0.034 A 
ATOM     56  C   UNL A   1      39.167  27.697  31.071  1.00  0.00     0.049 A 
ATOM     57  C   UNL A   1      42.947  32.181  30.699  1.00  0.00     0.074 A 
ATOM     58  C   UNL A   1      38.328  27.790  32.167  1.00  0.00     0.029 A 
ATOM     59  N   UNL A   1      40.403  28.110  31.523  1.00  0.00    -0.354 N 
ATOM     60  N   UNL A   1      42.608  31.884  31.927  1.00  0.00    -0.248 NA
ATOM     61  C   UNL A   1      43.072  31.046  29.796  1.00  0.00     0.031 C 
ATOM     62  C   UNL A   1      38.960  28.732  33.032  1.00  0.00     0.029 A 
ATOM     63  C   UNL A   1      40.193  29.080  32.474  1.00  0.00     0.049 A 
ATOM     64  H   UNL A   1      41.277  27.772  31.219  1.00  0.00     0.167 HD
ATOM     65  C   UNL A   1      42.054  30.615  31.845  1.00  0.00     0.074 A 
ATOM     66  C   UNL A   1      42.439  30.119  30.521  1.00  0.00     0.031 C 
ATOM     67  C   UNL A   1      41.088  30.198  32.718  1.00  0.00     0.034 A 
BRANCH  54  68
ATOM     68  C   UNL A   1      39.773  26.724  28.751  1.00  0.00     0.023 A 
ATOM     69  C   UNL A   1      40.806  27.320  28.005  1.00  0.00     0.031 A 
ATOM     70  C   UNL A   1      39.436  25.401  28.383  1.00  0.00     0.131 A 
ATOM     71  C   UNL A   1      41.372  26.665  26.898  1.00  0.00     0.055 A 
ATOM     72  C   UNL A   1      40.043  24.731  27.317  1.00  0.00     0.041 A 
ATOM     73  F   UNL A   1      38.450  24.710  28.963  1.00  0.00    -0.206 F 
ATOM     74  C   UNL A   1      40.994  25.375  26.544  1.00  0.00     0.022 A 
BRANCH  71  75
ATOM     75  S   UNL A   1      42.504  27.598  25.839  1.00  0.00     0.124 S 
ATOM     76  O   UNL A   1      43.672  27.731  26.703  1.00  0.00    -0.237 OA
ATOM     77  O   UNL A   1      42.648  26.705  24.694  1.00  0.00    -0.237 OA
ATOM     78  O   UNL A   1      41.776  28.837  25.574  1.00  0.00    -0.744 OA
ENDBRANCH  71  75
ENDBRANCH  54  68
BRANCH  55  79
ATOM     79  C   UNL A   1      43.726  34.287  29.327  1.00  0.00     0.023 A 
ATOM     80  C   UNL A   1      44.272  33.831  28.100  1.00  0.00     0.031 A 
ATOM     81  C   UNL A   1      44.000  35.632  29.662  1.00  0.00     0.131 A 
ATOM     82  C   UNL A   1      45.031  34.703  27.276  1.00  0.00     0.055 A 
ATOM     83  C   UNL A   1      44.746  36.488  28.844  1.00  0.00     0.041 A 
ATOM     84  F   UNL A   1      43.479  36.197  30.762  1.00  0.00    -0.206 F 
ATOM     85  C   UNL A   1      45.253  36.031  27.640  1.00  0.00     0.022 A 
BRANCH  82  86
ATOM     86  S   UNL A   1      45.654  34.162  25.644  1.00  0.00     0.124 S 
ATOM     87  O   UNL A   1      44.503  34.404  24.781  1.00  0.00    -0.237 OA
ATOM     88  O   UNL A   1      46.810  35.025  25.439  1.00  0.00    -0.237 OA
ATOM     89  O   UNL A   1      45.977  32.749  25.854  1.00  0.00    -0.744 OA
ENDBRANCH  82  86
ENDBRANCH  55  79
BRANCH  67  90
ATOM     90  C   UNL A   1      40.780  31.046  33.939  1.00  0.00     0.023 A 
ATOM     91  C   UNL A   1      39.705  31.962  34.047  1.00  0.00     0.031 A 
ATOM     92  C   UNL A   1      41.510  30.759  35.105  1.00  0.00     0.131 A 
ATOM     93  C   UNL A   1      39.394  32.540  35.298  1.00  0.00     0.055 A 
ATOM     94  C   UNL A   1      41.186  31.315  36.341  1.00  0.00     0.041 A 
ATOM     95  F   UNL A   1      42.520  29.875  35.071  1.00  0.00    -0.206 F 
ATOM     96  C   UNL A   1      40.125  32.207  36.443  1.00  0.00     0.022 A 
BRANCH  93  97
ATOM     97  S   UNL A   1      38.000  33.707  35.472  1.00  0.00     0.124 S 
ATOM     98  O   UNL A   1      38.261  34.695  34.432  1.00  0.00    -0.237 OA
ATOM     99  O   UNL A   1      36.834  32.853  35.267  1.00  0.00    -0.237 OA
ATOM    100  O   UNL A   1      38.144  34.213  36.839  1.00  0.00    -0.744 OA
ENDBRANCH  93  97
ENDBRANCH  67  90
ENDBRANCH  41  42
ENDBRANCH  33  36
ENDBRANCH  31  32
ENDBRANCH   1  31
TORSDOF 16
ENDMDL
MODEL 3
REMARK VINA RESULT:     -12.8      3.222      8.650
REMARK SMILES Cn1c(=O)c2c(nc(Nc3cccc(Cl)c3Cl)n2CC(=O)NCCCNC(=O)c2ccc(-c3c4nc(c(-c5cc(S(=O)(=O)[O-])ccc5F)c5ccc([nH]5)c(-c5cc(S(=O)(=O)[O-])ccc5F)c5nc(c(-c6cc(S(=O)(=O)[O-])ccc6F)c6ccc3[nH]6)C=C5)C=C4)cc2)n(C)c1=O
REMARK SMILES IDX 24 1 23 2 22 3 20 4 21 5 19 7 18 8 1 9 2 10 3 11 94 12 4 13
REMARK SMILES IDX 5 14 92 15 95 16 6 17 93 18 7 19 8 20 9 21 10 23 11 24 16 25
REMARK SMILES IDX 12 26 14 27 17 28 13 29 15 30 25 31 26 32 27 33 28 35 29 36
REMARK SMILES IDX 30 37 91 38 31 39 90 40 32 41 33 42 34 43 84 44 35 45 89 46
REMARK SMILES IDX 83 47 85 48 36 49 88 50 82 51 81 52 37 54 69 55 49 56 68 57
REMARK SMILES IDX 50 58 53 59 67 60 86 61 51 62 52 63 66 65 87 66 54 67 38 68
REMARK SMILES IDX 39 69 47 70 40 71 46 72 48 73 45 74 41 75 42 76 43 77 44 78
REMARK SMILES IDX 70 79 71 80 79 81 72 82 78 83 80 84 77 85 73 86 74 87 75 88
REMARK SMILES IDX 76 89 55 90 56 91 64 92 57 93 63 94 65 95 62 96 58 97 59 98
REMARK SMILES IDX 60 99 61 100
REMARK H PARENT 22 6 9 22 26 34 85 53 53 64
REMARK Flexibility Score: inf
ROOT
ATOM      1  C   UNL A   1      34.389  30.892  27.577  1.00  0.00     0.042 C 
ENDROOT
BRANCH   1   2
ATOM      2  C   UNL A   1      33.577  29.816  26.864  1.00  0.00     0.117 C 
BRANCH   2   3
ATOM      3  N   UNL A   1      33.823  29.737  25.442  1.00  0.00    -0.354 N 
ATOM      4  C   UNL A   1      33.334  28.832  24.543  1.00  0.00     0.240 C 
ATOM      5  O   UNL A   1      33.453  29.105  23.347  1.00  0.00    -0.273 OA
ATOM      6  H   UNL A   1      34.422  30.426  25.073  1.00  0.00     0.163 HD
BRANCH   4   7
ATOM      7  C   UNL A   1      32.536  27.624  25.001  1.00  0.00     0.226 C 
BRANCH   7   8
ATOM      8  N   UNL A   1      32.439  26.520  24.057  1.00  0.00    -0.295 N 
ATOM      9  C   UNL A   1      34.684  22.708  26.350  1.00  0.00     0.159 C 
ATOM     10  N   UNL A   1      33.987  23.367  25.260  1.00  0.00    -0.261 N 
ATOM     11  C   UNL A   1      33.725  24.732  25.378  1.00  0.00     0.282 A 
ATOM     12  C   UNL A   1      33.643  22.564  24.156  1.00  0.00     0.332 A 
ATOM     13  O   UNL A   1      34.127  25.429  26.312  1.00  0.00    -0.267 OA
ATOM     14  C   UNL A   1      32.973  25.266  24.295  1.00  0.00     0.154 A 
ATOM     15  N   UNL A   1      32.950  23.184  23.114  1.00  0.00    -0.279 N 
ATOM     16  O   UNL A   1      33.950  21.370  24.110  1.00  0.00    -0.247 OA
ATOM     17  C   UNL A   1      32.626  24.514  23.218  1.00  0.00     0.170 A 
ATOM     18  C   UNL A   1      32.566  22.425  21.939  1.00  0.00     0.157 C 
ATOM     19  N   UNL A   1      31.945  25.240  22.300  1.00  0.00    -0.194 NA
ATOM     20  C   UNL A   1      31.871  26.468  22.782  1.00  0.00     0.210 A 
BRANCH  20  21
ATOM     21  N   UNL A   1      31.202  27.427  22.095  1.00  0.00    -0.324 N 
ATOM     22  H   UNL A   1      31.563  27.582  21.192  1.00  0.00     0.170 HD
BRANCH  21  23
ATOM     23  C   UNL A   1      30.100  28.248  22.401  1.00  0.00     0.061 A 
ATOM     24  C   UNL A   1      30.159  29.581  21.945  1.00  0.00     0.028 A 
ATOM     25  C   UNL A   1      28.937  27.818  23.069  1.00  0.00     0.083 A 
ATOM     26  C   UNL A   1      29.042  30.414  21.996  1.00  0.00     0.004 A 
ATOM     27  C   UNL A   1      27.815  28.662  23.123  1.00  0.00     0.061 A 
ATOM     28  Cl  UNL A   1      28.907  26.252  23.822  1.00  0.00    -0.080 Cl
ATOM     29  C   UNL A   1      27.862  29.942  22.560  1.00  0.00     0.022 A 
ATOM     30  Cl  UNL A   1      26.317  28.168  23.833  1.00  0.00    -0.083 Cl
ENDBRANCH  21  23
ENDBRANCH  20  21
ENDBRANCH   7   8
ENDBRANCH   4   7
ENDBRANCH   2   3
ENDBRANCH   1   2
BRANCH   1  31
ATOM     31  C   UNL A   1      35.706  30.345  28.085  1.00  0.00     0.118 C 
BRANCH  31  32
ATOM     32  N   UNL A   1      35.771  30.309  29.549  1.00  0.00    -0.352 N 
ATOM     33  C   UNL A   1      36.625  29.557  30.337  1.00  0.00     0.251 C 
ATOM     34  H   UNL A   1      35.134  30.887  30.028  1.00  0.00     0.163 HD
ATOM     35  O   UNL A   1      36.343  29.322  31.505  1.00  0.00    -0.269 OA
BRANCH  33  36
ATOM     36  C   UNL A   1      37.872  29.061  29.728  1.00  0.00     0.039 A 
ATOM     37  C   UNL A   1      38.483  29.700  28.645  1.00  0.00     0.014 A 
ATOM     38  C   UNL A   1      38.459  27.947  30.320  1.00  0.00     0.014 A 
ATOM     39  C   UNL A   1      39.728  29.237  28.220  1.00  0.00     0.010 A 
ATOM     40  C   UNL A   1      39.761  27.637  30.046  1.00  0.00     0.010 A 
ATOM     41  C   UNL A   1      40.367  28.216  28.944  1.00  0.00    -0.014 A 
BRANCH  41  42
ATOM     42  C   UNL A   1      41.738  27.810  28.669  1.00  0.00     0.031 A 
ATOM     43  C   UNL A   1      41.833  26.558  27.879  1.00  0.00     0.074 A 
ATOM     44  C   UNL A   1      42.805  28.611  28.897  1.00  0.00     0.049 A 
ATOM     45  N   UNL A   1      42.177  25.394  28.314  1.00  0.00    -0.248 NA
ATOM     46  C   UNL A   1      41.289  26.537  26.509  1.00  0.00     0.031 C 
ATOM     47  C   UNL A   1      42.830  29.982  29.417  1.00  0.00     0.029 A 
ATOM     48  N   UNL A   1      44.116  28.386  28.618  1.00  0.00    -0.354 N 
ATOM     49  C   UNL A   1      42.170  24.557  27.207  1.00  0.00     0.074 A 
ATOM     50  C   UNL A   1      41.391  25.239  26.209  1.00  0.00     0.031 C 
ATOM     51  C   UNL A   1      44.048  30.532  29.205  1.00  0.00     0.029 A 
ATOM     52  C   UNL A   1      44.939  29.511  28.684  1.00  0.00     0.049 A 
ATOM     53  H   UNL A   1      44.460  27.494  28.386  1.00  0.00     0.167 HD
ATOM     54  C   UNL A   1      43.039  23.511  27.127  1.00  0.00     0.034 A 
ATOM     55  C   UNL A   1      46.259  29.586  28.343  1.00  0.00     0.034 A 
ATOM     56  C   UNL A   1      43.626  23.237  28.424  1.00  0.00     0.049 A 
ATOM     57  C   UNL A   1      46.776  28.197  28.462  1.00  0.00     0.074 A 
ATOM     58  C   UNL A   1      43.111  22.916  29.667  1.00  0.00     0.029 A 
ATOM     59  N   UNL A   1      44.899  23.707  28.667  1.00  0.00    -0.354 N 
ATOM     60  N   UNL A   1      46.810  27.549  29.597  1.00  0.00    -0.248 NA
ATOM     61  C   UNL A   1      46.746  27.364  27.269  1.00  0.00     0.031 C 
ATOM     62  C   UNL A   1      43.874  23.694  30.589  1.00  0.00     0.029 A 
ATOM     63  C   UNL A   1      44.876  24.359  29.878  1.00  0.00     0.049 A 
ATOM     64  H   UNL A   1      45.682  23.598  28.081  1.00  0.00     0.167 HD
ATOM     65  C   UNL A   1      46.362  26.272  29.290  1.00  0.00     0.074 A 
ATOM     66  C   UNL A   1      46.412  26.196  27.827  1.00  0.00     0.031 C 
ATOM     67  C   UNL A   1      45.707  25.502  30.210  1.00  0.00     0.034 A 
BRANCH  54  68
ATOM     68  C   UNL A   1      43.657  22.993  25.848  1.00  0.00     0.023 A 
ATOM     69  C   UNL A   1      43.581  21.606  25.620  1.00  0.00     0.031 A 
ATOM     70  C   UNL A   1      44.536  23.705  25.000  1.00  0.00     0.131 A 
ATOM     71  C   UNL A   1      44.418  20.978  24.683  1.00  0.00     0.055 A 
ATOM     72  C   UNL A   1      45.325  23.083  24.029  1.00  0.00     0.041 A 
ATOM     73  F   UNL A   1      44.755  25.019  25.114  1.00  0.00    -0.206 F 
ATOM     74  C   UNL A   1      45.296  21.707  23.888  1.00  0.00     0.022 A 
BRANCH  71  75
ATOM     75  S   UNL A   1      44.445  19.170  24.636  1.00  0.00     0.124 S 
ATOM     76  O   UNL A   1      44.823  18.917  23.250  1.00  0.00    -0.237 OA
ATOM     77  O   UNL A   1      45.452  18.859  25.646  1.00  0.00    -0.237 OA
ATOM     78  O   UNL A   1      43.076  18.802  24.990  1.00  0.00    -0.744 OA
ENDBRANCH  71  75
ENDBRANCH  54  68
BRANCH  55  79
ATOM     79  C   UNL A   1      46.976  30.677  27.606  1.00  0.00     0.023 A 
ATOM     80  C   UNL A   1      46.297  31.739  26.954  1.00  0.00     0.031 A 
ATOM     81  C   UNL A   1      48.371  30.838  27.758  1.00  0.00     0.131 A 
ATOM     82  C   UNL A   1      47.005  32.886  26.508  1.00  0.00     0.055 A 
ATOM     83  C   UNL A   1      49.063  31.973  27.319  1.00  0.00     0.041 A 
ATOM     84  F   UNL A   1      49.110  29.935  28.420  1.00  0.00    -0.206 F 
ATOM     85  C   UNL A   1      48.381  33.009  26.705  1.00  0.00     0.022 A 
BRANCH  82  86
ATOM     86  S   UNL A   1      46.132  34.308  25.761  1.00  0.00     0.124 S 
ATOM     87  O   UNL A   1      47.194  34.953  24.996  1.00  0.00    -0.237 OA
ATOM     88  O   UNL A   1      45.075  33.667  24.989  1.00  0.00    -0.237 OA
ATOM     89  O   UNL A   1      45.664  35.068  26.922  1.00  0.00    -0.744 OA
ENDBRANCH  82  86
ENDBRANCH  55  79
BRANCH  67  90
ATOM     90  C   UNL A   1      45.673  25.954  31.660  1.00  0.00     0.023 A 
ATOM     91  C   UNL A   1      44.533  26.459  32.331  1.00  0.00     0.031 A 
ATOM     92  C   UNL A   1      46.812  25.672  32.433  1.00  0.00     0.131 A 
ATOM     93  C   UNL A   1      44.566  26.651  33.731  1.00  0.00     0.055 A 
ATOM     94  C   UNL A   1      46.833  25.843  33.817  1.00  0.00     0.041 A 
ATOM     95  F   UNL A   1      47.913  25.161  31.858  1.00  0.00    -0.206 F 
ATOM     96  C   UNL A   1      45.709  26.332  34.471  1.00  0.00     0.022 A 
BRANCH  93  97
ATOM     97  S   UNL A   1      43.104  27.281  34.627  1.00  0.00     0.124 S 
ATOM     98  O   UNL A   1      42.421  28.089  33.622  1.00  0.00    -0.237 OA
ATOM     99  O   UNL A   1      42.422  26.058  35.037  1.00  0.00    -0.237 OA
ATOM    100  O   UNL A   1      43.683  28.049  35.731  1.00  0.00    -0.744 OA
ENDBRANCH  93  97
ENDBRANCH  67  90
ENDBRANCH  41  42
ENDBRANCH  33  36
ENDBRANCH  31  32
ENDBRANCH   1  31
TORSDOF 16
ENDMDL
