MODEL 1
REMARK VINA RESULT:     -12.1      0.000      0.000
REMARK SMILES CN(CC(C)(C)O)S(=O)(=O)c1cc(Cl)cc(C(=O)NCCCNC(=O)c2ccc(-c3c4nc(c(-c5cc(S(=O)(=O)[O-])ccc5F)c5ccc([nH]5)c(-c5cc(S(=O)(=O)[O-])ccc5F)c5nc(c(-c6cc(S(=O)(=O)[O-])ccc6F)c6ccc3[nH]6)C=C5)C=C4)cc2)c1Cl
REMARK SMILES IDX 20 1 19 2 17 3 18 4 16 6 11 7 12 8 89 9 13 10 90 11 14 12
REMARK SMILES IDX 15 13 8 14 9 15 10 16 2 17 1 18 3 19 4 20 5 21 6 22 7 23
REMARK SMILES IDX 21 25 22 26 23 27 24 28 25 30 26 31 27 32 88 33 28 34 87 35
REMARK SMILES IDX 29 36 30 37 31 38 81 39 32 40 86 41 80 42 82 43 33 44 85 45
REMARK SMILES IDX 79 46 78 47 34 49 66 50 46 51 65 52 47 53 50 54 64 55 83 56
REMARK SMILES IDX 48 57 49 58 63 60 84 61 51 62 35 63 36 64 44 65 37 66 43 67
REMARK SMILES IDX 45 68 42 69 38 70 39 71 40 72 41 73 67 74 68 75 76 76 69 77
REMARK SMILES IDX 75 78 77 79 74 80 70 81 71 82 72 83 73 84 52 85 53 86 61 87
REMARK SMILES IDX 54 88 60 89 62 90 59 91 55 92 56 93 57 94 58 95
REMARK H PARENT 19 5 7 24 23 29 82 48 50 59
REMARK Flexibility Score: inf
ROOT
ATOM      1  C   UNL A   1      33.778  21.633  27.254  1.00  0.00     0.118 C 
ENDROOT
BRANCH   1   2
ATOM      2  N   UNL A   1      32.679  22.565  27.492  1.00  0.00    -0.352 N 
ATOM      3  C   UNL A   1      31.977  23.353  26.606  1.00  0.00     0.252 C 
ATOM      4  O   UNL A   1      31.074  24.085  26.999  1.00  0.00    -0.269 OA
ATOM      5  H   UNL A   1      32.395  22.642  28.432  1.00  0.00     0.163 HD
BRANCH   3   6
ATOM      6  C   UNL A   1      32.370  23.399  25.182  1.00  0.00     0.061 A 
ATOM      7  C   UNL A   1      32.995  24.644  23.232  1.00  0.00     0.103 A 
ATOM      8  C   UNL A   1      32.650  23.538  22.428  1.00  0.00     0.044 A 
ATOM      9  C   UNL A   1      33.004  24.512  24.618  1.00  0.00     0.073 A 
ATOM     10  C   UNL A   1      32.209  22.358  23.017  1.00  0.00     0.043 A 
ATOM     11  Cl  UNL A   1      34.008  25.481  25.638  1.00  0.00    -0.082 Cl
ATOM     12  Cl  UNL A   1      31.778  21.018  22.031  1.00  0.00    -0.084 Cl
ATOM     13  C   UNL A   1      32.008  22.302  24.389  1.00  0.00     0.036 A 
BRANCH   7  14
ATOM     14  S   UNL A   1      32.685  26.225  22.447  1.00  0.00     0.244 S 
ATOM     15  O   UNL A   1      31.469  26.001  21.696  1.00  0.00    -0.207 OA
ATOM     16  O   UNL A   1      33.927  26.565  21.780  1.00  0.00    -0.207 OA
BRANCH  14  17
ATOM     17  N   UNL A   1      32.393  27.393  23.609  1.00  0.00    -0.198 NA
ATOM     18  C   UNL A   1      33.410  28.427  23.817  1.00  0.00     0.124 C 
BRANCH  17  19
ATOM     19  C   UNL A   1      31.010  27.750  24.028  1.00  0.00     0.136 C 
BRANCH  19  20
ATOM     20  C   UNL A   1      30.345  28.968  23.343  1.00  0.00     0.073 C 
ATOM     21  C   UNL A   1      30.975  29.328  22.001  1.00  0.00     0.043 C 
ATOM     22  C   UNL A   1      28.863  28.627  23.126  1.00  0.00     0.043 C 
BRANCH  20  23
ATOM     23  O   UNL A   1      30.392  30.113  24.203  1.00  0.00    -0.389 OA
ATOM     24  H   UNL A   1      30.816  29.871  25.041  1.00  0.00     0.211 HD
ENDBRANCH  20  23
ENDBRANCH  19  20
ENDBRANCH  17  19
ENDBRANCH  14  17
ENDBRANCH   7  14
ENDBRANCH   3   6
ENDBRANCH   1   2
BRANCH   1  25
ATOM     25  C   UNL A   1      35.130  22.291  26.993  1.00  0.00     0.042 C 
BRANCH  25  26
ATOM     26  C   UNL A   1      35.707  22.076  25.597  1.00  0.00     0.118 C 
BRANCH  26  27
ATOM     27  N   UNL A   1      36.730  21.042  25.555  1.00  0.00    -0.352 N 
ATOM     28  C   UNL A   1      38.098  21.065  25.667  1.00  0.00     0.251 C 
ATOM     29  H   UNL A   1      36.365  20.139  25.417  1.00  0.00     0.163 HD
ATOM     30  O   UNL A   1      38.701  20.032  25.376  1.00  0.00    -0.269 OA
BRANCH  28  31
ATOM     31  C   UNL A   1      38.874  22.261  26.092  1.00  0.00     0.039 A 
ATOM     32  C   UNL A   1      40.012  22.054  26.885  1.00  0.00     0.014 A 
ATOM     33  C   UNL A   1      38.468  23.571  25.834  1.00  0.00     0.014 A 
ATOM     34  C   UNL A   1      40.762  23.137  27.364  1.00  0.00     0.010 A 
ATOM     35  C   UNL A   1      39.253  24.653  26.254  1.00  0.00     0.010 A 
ATOM     36  C   UNL A   1      40.409  24.450  27.025  1.00  0.00    -0.014 A 
BRANCH  36  37
ATOM     37  C   UNL A   1      41.208  25.621  27.481  1.00  0.00     0.031 A 
ATOM     38  C   UNL A   1      40.582  26.672  28.359  1.00  0.00     0.074 A 
ATOM     39  C   UNL A   1      42.473  25.792  27.050  1.00  0.00     0.049 A 
ATOM     40  N   UNL A   1      41.010  27.875  28.646  1.00  0.00    -0.248 NA
ATOM     41  C   UNL A   1      39.288  26.330  28.965  1.00  0.00     0.031 C 
ATOM     42  C   UNL A   1      43.210  24.874  26.180  1.00  0.00     0.029 A 
ATOM     43  N   UNL A   1      43.356  26.821  27.272  1.00  0.00    -0.354 N 
ATOM     44  C   UNL A   1      40.000  28.467  29.395  1.00  0.00     0.074 A 
ATOM     45  C   UNL A   1      38.953  27.475  29.544  1.00  0.00     0.031 C 
ATOM     46  C   UNL A   1      44.435  25.377  25.947  1.00  0.00     0.029 A 
ATOM     47  C   UNL A   1      44.551  26.671  26.611  1.00  0.00     0.049 A 
ATOM     48  H   UNL A   1      43.152  27.591  27.848  1.00  0.00     0.167 HD
ATOM     49  C   UNL A   1      39.939  29.728  29.893  1.00  0.00     0.034 A 
ATOM     50  C   UNL A   1      45.610  27.496  26.519  1.00  0.00     0.034 A 
ATOM     51  C   UNL A   1      41.006  30.693  29.804  1.00  0.00     0.049 A 
ATOM     52  C   UNL A   1      45.577  28.835  27.193  1.00  0.00     0.074 A 
ATOM     53  C   UNL A   1      41.044  31.993  30.281  1.00  0.00     0.029 A 
ATOM     54  N   UNL A   1      42.240  30.452  29.218  1.00  0.00    -0.354 N 
ATOM     55  N   UNL A   1      44.582  29.413  27.822  1.00  0.00    -0.248 NA
ATOM     56  C   UNL A   1      46.807  29.636  27.134  1.00  0.00     0.031 C 
ATOM     57  C   UNL A   1      42.298  32.542  29.974  1.00  0.00     0.029 A 
ATOM     58  C   UNL A   1      43.049  31.572  29.334  1.00  0.00     0.049 A 
ATOM     59  H   UNL A   1      42.504  29.609  28.785  1.00  0.00     0.167 HD
ATOM     60  C   UNL A   1      45.061  30.656  28.215  1.00  0.00     0.074 A 
ATOM     61  C   UNL A   1      46.439  30.738  27.770  1.00  0.00     0.031 C 
ATOM     62  C   UNL A   1      44.412  31.645  28.877  1.00  0.00     0.034 A 
BRANCH  49  63
ATOM     63  C   UNL A   1      38.635  30.150  30.512  1.00  0.00     0.023 A 
ATOM     64  C   UNL A   1      37.645  30.821  29.777  1.00  0.00     0.031 A 
ATOM     65  C   UNL A   1      38.409  29.918  31.881  1.00  0.00     0.131 A 
ATOM     66  C   UNL A   1      36.494  31.290  30.430  1.00  0.00     0.055 A 
ATOM     67  C   UNL A   1      37.239  30.337  32.512  1.00  0.00     0.041 A 
ATOM     68  F   UNL A   1      39.336  29.300  32.630  1.00  0.00    -0.206 F 
ATOM     69  C   UNL A   1      36.278  31.039  31.788  1.00  0.00     0.022 A 
BRANCH  66  70
ATOM     70  S   UNL A   1      35.338  32.342  29.508  1.00  0.00     0.124 S 
ATOM     71  O   UNL A   1      34.838  31.417  28.494  1.00  0.00    -0.237 OA
ATOM     72  O   UNL A   1      34.384  32.741  30.536  1.00  0.00    -0.237 OA
ATOM     73  O   UNL A   1      36.187  33.416  28.994  1.00  0.00    -0.744 OA
ENDBRANCH  66  70
ENDBRANCH  49  63
BRANCH  50  74
ATOM     74  C   UNL A   1      46.780  27.100  25.699  1.00  0.00     0.023 A 
ATOM     75  C   UNL A   1      46.944  27.592  24.396  1.00  0.00     0.031 A 
ATOM     76  C   UNL A   1      47.748  26.229  26.220  1.00  0.00     0.131 A 
ATOM     77  C   UNL A   1      48.057  27.195  23.641  1.00  0.00     0.055 A 
ATOM     78  C   UNL A   1      48.858  25.843  25.471  1.00  0.00     0.041 A 
ATOM     79  F   UNL A   1      47.629  25.753  27.471  1.00  0.00    -0.206 F 
ATOM     80  C   UNL A   1      49.015  26.325  24.172  1.00  0.00     0.022 A 
BRANCH  77  81
ATOM     81  S   UNL A   1      48.240  27.830  21.948  1.00  0.00     0.124 S 
ATOM     82  O   UNL A   1      48.278  26.599  21.165  1.00  0.00    -0.237 OA
ATOM     83  O   UNL A   1      47.040  28.647  21.796  1.00  0.00    -0.237 OA
ATOM     84  O   UNL A   1      49.493  28.578  22.000  1.00  0.00    -0.744 OA
ENDBRANCH  77  81
ENDBRANCH  50  74
BRANCH  62  85
ATOM     85  C   UNL A   1      45.202  32.887  29.168  1.00  0.00     0.023 A 
ATOM     86  C   UNL A   1      45.217  33.965  28.267  1.00  0.00     0.031 A 
ATOM     87  C   UNL A   1      45.961  32.980  30.345  1.00  0.00     0.131 A 
ATOM     88  C   UNL A   1      46.002  35.092  28.548  1.00  0.00     0.055 A 
ATOM     89  C   UNL A   1      46.728  34.111  30.628  1.00  0.00     0.041 A 
ATOM     90  F   UNL A   1      45.980  31.969  31.227  1.00  0.00    -0.206 F 
ATOM     91  C   UNL A   1      46.755  35.173  29.724  1.00  0.00     0.022 A 
BRANCH  88  92
ATOM     92  S   UNL A   1      46.059  36.445  27.339  1.00  0.00     0.124 S 
ATOM     93  O   UNL A   1      47.029  37.355  27.942  1.00  0.00    -0.237 OA
ATOM     94  O   UNL A   1      46.495  35.764  26.124  1.00  0.00    -0.237 OA
ATOM     95  O   UNL A   1      44.684  36.939  27.310  1.00  0.00    -0.744 OA
ENDBRANCH  88  92
ENDBRANCH  62  85
ENDBRANCH  36  37
ENDBRANCH  28  31
ENDBRANCH  26  27
ENDBRANCH  25  26
ENDBRANCH   1  25
TORSDOF 18
ENDMDL
MODEL 2
REMARK VINA RESULT:     -11.9      1.269      2.073
REMARK SMILES CN(CC(C)(C)O)S(=O)(=O)c1cc(Cl)cc(C(=O)NCCCNC(=O)c2ccc(-c3c4nc(c(-c5cc(S(=O)(=O)[O-])ccc5F)c5ccc([nH]5)c(-c5cc(S(=O)(=O)[O-])ccc5F)c5nc(c(-c6cc(S(=O)(=O)[O-])ccc6F)c6ccc3[nH]6)C=C5)C=C4)cc2)c1Cl
REMARK SMILES IDX 20 1 19 2 17 3 18 4 16 6 11 7 12 8 89 9 13 10 90 11 14 12
REMARK SMILES IDX 15 13 8 14 9 15 10 16 2 17 1 18 3 19 4 20 5 21 6 22 7 23
REMARK SMILES IDX 21 25 22 26 23 27 24 28 25 30 26 31 27 32 88 33 28 34 87 35
REMARK SMILES IDX 29 36 30 37 31 38 81 39 32 40 86 41 80 42 82 43 33 44 85 45
REMARK SMILES IDX 79 46 78 47 34 49 66 50 46 51 65 52 47 53 50 54 64 55 83 56
REMARK SMILES IDX 48 57 49 58 63 60 84 61 51 62 35 63 36 64 44 65 37 66 43 67
REMARK SMILES IDX 45 68 42 69 38 70 39 71 40 72 41 73 67 74 68 75 76 76 69 77
REMARK SMILES IDX 75 78 77 79 74 80 70 81 71 82 72 83 73 84 52 85 53 86 61 87
REMARK SMILES IDX 54 88 60 89 62 90 59 91 55 92 56 93 57 94 58 95
REMARK H PARENT 19 5 7 24 23 29 82 48 50 59
REMARK Flexibility Score: inf
ROOT
ATOM      1  C   UNL A   1      33.174  22.426  25.525  1.00  0.00     0.118 C 
ENDROOT
BRANCH   1   2
ATOM      2  N   UNL A   1      33.960  22.760  24.340  1.00  0.00    -0.352 N 
ATOM      3  C   UNL A   1      34.166  23.977  23.727  1.00  0.00     0.252 C 
ATOM      4  O   UNL A   1      34.866  24.061  22.723  1.00  0.00    -0.269 OA
ATOM      5  H   UNL A   1      34.412  21.997  23.913  1.00  0.00     0.163 HD
BRANCH   3   6
ATOM      6  C   UNL A   1      33.464  25.182  24.216  1.00  0.00     0.061 A 
ATOM      7  C   UNL A   1      31.868  26.939  23.889  1.00  0.00     0.103 A 
ATOM      8  C   UNL A   1      32.488  27.679  24.916  1.00  0.00     0.044 A 
ATOM      9  C   UNL A   1      32.261  25.625  23.654  1.00  0.00     0.073 A 
ATOM     10  C   UNL A   1      33.566  27.141  25.612  1.00  0.00     0.043 A 
ATOM     11  Cl  UNL A   1      31.201  24.446  22.965  1.00  0.00    -0.082 Cl
ATOM     12  Cl  UNL A   1      34.326  28.053  26.854  1.00  0.00    -0.084 Cl
ATOM     13  C   UNL A   1      34.098  25.919  25.224  1.00  0.00     0.036 A 
BRANCH   7  14
ATOM     14  S   UNL A   1      31.186  27.959  22.582  1.00  0.00     0.244 S 
ATOM     15  O   UNL A   1      30.926  27.018  21.515  1.00  0.00    -0.207 OA
ATOM     16  O   UNL A   1      32.138  29.041  22.414  1.00  0.00    -0.207 OA
BRANCH  14  17
ATOM     17  N   UNL A   1      29.735  28.628  23.076  1.00  0.00    -0.198 NA
ATOM     18  C   UNL A   1      28.660  27.719  23.483  1.00  0.00     0.124 C 
BRANCH  17  19
ATOM     19  C   UNL A   1      29.658  30.010  23.624  1.00  0.00     0.136 C 
BRANCH  19  20
ATOM     20  C   UNL A   1      28.821  31.048  22.838  1.00  0.00     0.073 C 
ATOM     21  C   UNL A   1      28.629  30.684  21.369  1.00  0.00     0.043 C 
ATOM     22  C   UNL A   1      27.446  31.144  23.516  1.00  0.00     0.043 C 
BRANCH  20  23
ATOM     23  O   UNL A   1      29.424  32.345  22.923  1.00  0.00    -0.389 OA
ATOM     24  H   UNL A   1      28.804  33.012  22.593  1.00  0.00     0.211 HD
ENDBRANCH  20  23
ENDBRANCH  19  20
ENDBRANCH  17  19
ENDBRANCH  14  17
ENDBRANCH   7  14
ENDBRANCH   3   6
ENDBRANCH   1   2
BRANCH   1  25
ATOM     25  C   UNL A   1      33.953  21.726  26.634  1.00  0.00     0.042 C 
BRANCH  25  26
ATOM     26  C   UNL A   1      35.399  22.180  26.810  1.00  0.00     0.118 C 
BRANCH  26  27
ATOM     27  N   UNL A   1      36.355  21.316  26.134  1.00  0.00    -0.352 N 
ATOM     28  C   UNL A   1      37.669  21.470  25.766  1.00  0.00     0.251 C 
ATOM     29  H   UNL A   1      35.981  20.439  25.889  1.00  0.00     0.163 HD
ATOM     30  O   UNL A   1      38.143  20.619  25.013  1.00  0.00    -0.269 OA
BRANCH  28  31
ATOM     31  C   UNL A   1      38.523  22.605  26.206  1.00  0.00     0.039 A 
ATOM     32  C   UNL A   1      39.685  22.305  26.935  1.00  0.00     0.014 A 
ATOM     33  C   UNL A   1      38.175  23.944  26.026  1.00  0.00     0.014 A 
ATOM     34  C   UNL A   1      40.510  23.326  27.424  1.00  0.00     0.010 A 
ATOM     35  C   UNL A   1      39.033  24.965  26.455  1.00  0.00     0.010 A 
ATOM     36  C   UNL A   1      40.211  24.669  27.161  1.00  0.00    -0.014 A 
BRANCH  36  37
ATOM     37  C   UNL A   1      41.089  25.776  27.629  1.00  0.00     0.031 A 
ATOM     38  C   UNL A   1      40.545  26.843  28.542  1.00  0.00     0.074 A 
ATOM     39  C   UNL A   1      42.355  25.879  27.180  1.00  0.00     0.049 A 
ATOM     40  N   UNL A   1      41.052  28.010  28.849  1.00  0.00    -0.248 NA
ATOM     41  C   UNL A   1      39.241  26.569  29.162  1.00  0.00     0.031 C 
ATOM     42  C   UNL A   1      43.019  24.938  26.277  1.00  0.00     0.029 A 
ATOM     43  N   UNL A   1      43.304  26.845  27.410  1.00  0.00    -0.354 N 
ATOM     44  C   UNL A   1      40.093  28.647  29.629  1.00  0.00     0.074 A 
ATOM     45  C   UNL A   1      38.989  27.719  29.773  1.00  0.00     0.031 C 
ATOM     46  C   UNL A   1      44.269  25.368  26.034  1.00  0.00     0.029 A 
ATOM     47  C   UNL A   1      44.477  26.636  26.725  1.00  0.00     0.049 A 
ATOM     48  H   UNL A   1      43.158  27.612  28.008  1.00  0.00     0.167 HD
ATOM     49  C   UNL A   1      40.120  29.897  30.156  1.00  0.00     0.034 A 
ATOM     50  C   UNL A   1      45.584  27.395  26.634  1.00  0.00     0.034 A 
ATOM     51  C   UNL A   1      41.244  30.795  30.070  1.00  0.00     0.049 A 
ATOM     52  C   UNL A   1      45.646  28.717  27.338  1.00  0.00     0.074 A 
ATOM     53  C   UNL A   1      41.371  32.078  30.576  1.00  0.00     0.029 A 
ATOM     54  N   UNL A   1      42.451  30.491  29.458  1.00  0.00    -0.354 N 
ATOM     55  N   UNL A   1      44.700  29.341  27.998  1.00  0.00    -0.248 NA
ATOM     56  C   UNL A   1      46.923  29.441  27.276  1.00  0.00     0.031 C 
ATOM     57  C   UNL A   1      42.652  32.554  30.260  1.00  0.00     0.029 A 
ATOM     58  C   UNL A   1      43.331  31.555  29.585  1.00  0.00     0.049 A 
ATOM     59  H   UNL A   1      42.654  29.644  29.001  1.00  0.00     0.167 HD
ATOM     60  C   UNL A   1      45.263  30.542  28.411  1.00  0.00     0.074 A 
ATOM     61  C   UNL A   1      46.635  30.549  27.944  1.00  0.00     0.031 C 
ATOM     62  C   UNL A   1      44.688  31.554  29.107  1.00  0.00     0.034 A 
BRANCH  49  63
ATOM     63  C   UNL A   1      38.855  30.385  30.808  1.00  0.00     0.023 A 
ATOM     64  C   UNL A   1      37.850  31.044  30.081  1.00  0.00     0.031 A 
ATOM     65  C   UNL A   1      38.683  30.229  32.195  1.00  0.00     0.131 A 
ATOM     66  C   UNL A   1      36.741  31.576  30.757  1.00  0.00     0.055 A 
ATOM     67  C   UNL A   1      37.552  30.711  32.852  1.00  0.00     0.041 A 
ATOM     68  F   UNL A   1      39.627  29.626  32.935  1.00  0.00    -0.206 F 
ATOM     69  C   UNL A   1      36.579  31.401  32.134  1.00  0.00     0.022 A 
BRANCH  66  70
ATOM     70  S   UNL A   1      35.572  32.610  29.832  1.00  0.00     0.124 S 
ATOM     71  O   UNL A   1      35.437  31.863  28.584  1.00  0.00    -0.237 OA
ATOM     72  O   UNL A   1      34.402  32.621  30.701  1.00  0.00    -0.237 OA
ATOM     73  O   UNL A   1      36.269  33.890  29.708  1.00  0.00    -0.744 OA
ENDBRANCH  66  70
ENDBRANCH  49  63
BRANCH  50  74
ATOM     74  C   UNL A   1      46.714  26.946  25.785  1.00  0.00     0.023 A 
ATOM     75  C   UNL A   1      46.933  27.514  24.521  1.00  0.00     0.031 A 
ATOM     76  C   UNL A   1      47.589  25.948  26.239  1.00  0.00     0.131 A 
ATOM     77  C   UNL A   1      48.005  27.065  23.737  1.00  0.00     0.055 A 
ATOM     78  C   UNL A   1      48.658  25.510  25.462  1.00  0.00     0.041 A 
ATOM     79  F   UNL A   1      47.416  25.396  27.452  1.00  0.00    -0.206 F 
ATOM     80  C   UNL A   1      48.869  26.068  24.201  1.00  0.00     0.022 A 
BRANCH  77  81
ATOM     81  S   UNL A   1      48.259  27.801  22.095  1.00  0.00     0.124 S 
ATOM     82  O   UNL A   1      49.496  28.551  22.288  1.00  0.00    -0.237 OA
ATOM     83  O   UNL A   1      48.354  26.621  21.242  1.00  0.00    -0.237 OA
ATOM     84  O   UNL A   1      47.061  28.612  21.897  1.00  0.00    -0.744 OA
ENDBRANCH  77  81
ENDBRANCH  50  74
BRANCH  62  85
ATOM     85  C   UNL A   1      45.559  32.736  29.412  1.00  0.00     0.023 A 
ATOM     86  C   UNL A   1      45.692  33.795  28.498  1.00  0.00     0.031 A 
ATOM     87  C   UNL A   1      46.277  32.791  30.618  1.00  0.00     0.131 A 
ATOM     88  C   UNL A   1      46.549  34.863  28.795  1.00  0.00     0.055 A 
ATOM     89  C   UNL A   1      47.117  33.864  30.915  1.00  0.00     0.041 A 
ATOM     90  F   UNL A   1      46.183  31.796  31.513  1.00  0.00    -0.206 F 
ATOM     91  C   UNL A   1      47.260  34.906  29.998  1.00  0.00     0.022 A 
BRANCH  88  92
ATOM     92  S   UNL A   1      46.758  36.188  27.570  1.00  0.00     0.124 S 
ATOM     93  O   UNL A   1      47.007  35.436  26.344  1.00  0.00    -0.237 OA
ATOM     94  O   UNL A   1      45.478  36.887  27.641  1.00  0.00    -0.237 OA
ATOM     95  O   UNL A   1      47.903  36.945  28.075  1.00  0.00    -0.744 OA
ENDBRANCH  88  92
ENDBRANCH  62  85
ENDBRANCH  36  37
ENDBRANCH  28  31
ENDBRANCH  26  27
ENDBRANCH  25  26
ENDBRANCH   1  25
TORSDOF 18
ENDMDL
MODEL 3
REMARK VINA RESULT:     -11.8      5.788     10.661
REMARK SMILES CN(CC(C)(C)O)S(=O)(=O)c1cc(Cl)cc(C(=O)NCCCNC(=O)c2ccc(-c3c4nc(c(-c5cc(S(=O)(=O)[O-])ccc5F)c5ccc([nH]5)c(-c5cc(S(=O)(=O)[O-])ccc5F)c5nc(c(-c6cc(S(=O)(=O)[O-])ccc6F)c6ccc3[nH]6)C=C5)C=C4)cc2)c1Cl
REMARK SMILES IDX 20 1 19 2 17 3 18 4 16 6 11 7 12 8 89 9 13 10 90 11 14 12
REMARK SMILES IDX 15 13 8 14 9 15 10 16 2 17 1 18 3 19 4 20 5 21 6 22 7 23
REMARK SMILES IDX 21 25 22 26 23 27 24 28 25 30 26 31 27 32 88 33 28 34 87 35
REMARK SMILES IDX 29 36 30 37 31 38 81 39 32 40 86 41 80 42 82 43 33 44 85 45
REMARK SMILES IDX 79 46 78 47 34 49 66 50 46 51 65 52 47 53 50 54 64 55 83 56
REMARK SMILES IDX 48 57 49 58 63 60 84 61 51 62 35 63 36 64 44 65 37 66 43 67
REMARK SMILES IDX 45 68 42 69 38 70 39 71 40 72 41 73 67 74 68 75 76 76 69 77
REMARK SMILES IDX 75 78 77 79 74 80 70 81 71 82 72 83 73 84 52 85 53 86 61 87
REMARK SMILES IDX 54 88 60 89 62 90 59 91 55 92 56 93 57 94 58 95
REMARK H PARENT 19 5 7 24 23 29 82 48 50 59
REMARK Flexibility Score: inf
ROOT
ATOM      1  C   UNL A   1      31.485  30.411  26.107  1.00  0.00     0.118 C 
ENDROOT
BRANCH   1   2
ATOM      2  N   UNL A   1      32.344  30.082  24.972  1.00  0.00    -0.352 N 
ATOM      3  C   UNL A   1      32.440  28.918  24.241  1.00  0.00     0.252 C 
ATOM      4  O   UNL A   1      33.234  28.828  23.311  1.00  0.00    -0.269 OA
ATOM      5  H   UNL A   1      32.947  30.805  24.685  1.00  0.00     0.163 HD
BRANCH   3   6
ATOM      6  C   UNL A   1      31.655  27.729  24.634  1.00  0.00     0.061 A 
ATOM      7  C   UNL A   1      31.553  25.446  25.353  1.00  0.00     0.103 A 
ATOM      8  C   UNL A   1      30.214  25.379  24.918  1.00  0.00     0.044 A 
ATOM      9  C   UNL A   1      32.217  26.669  25.355  1.00  0.00     0.073 A 
ATOM     10  C   UNL A   1      29.596  26.506  24.383  1.00  0.00     0.043 A 
ATOM     11  Cl  UNL A   1      33.519  27.019  26.437  1.00  0.00    -0.082 Cl
ATOM     12  Cl  UNL A   1      27.968  26.416  23.843  1.00  0.00    -0.084 Cl
ATOM     13  C   UNL A   1      30.331  27.666  24.181  1.00  0.00     0.036 A 
BRANCH   7  14
ATOM     14  S   UNL A   1      32.443  23.900  25.171  1.00  0.00     0.244 S 
ATOM     15  O   UNL A   1      31.455  23.001  24.617  1.00  0.00    -0.207 OA
ATOM     16  O   UNL A   1      33.039  23.653  26.470  1.00  0.00    -0.207 OA
BRANCH  14  17
ATOM     17  N   UNL A   1      33.685  24.082  24.065  1.00  0.00    -0.198 NA
ATOM     18  C   UNL A   1      33.343  24.522  22.710  1.00  0.00     0.124 C 
BRANCH  17  19
ATOM     19  C   UNL A   1      35.084  24.346  24.500  1.00  0.00     0.136 C 
BRANCH  19  20
ATOM     20  C   UNL A   1      36.132  23.233  24.257  1.00  0.00     0.073 C 
ATOM     21  C   UNL A   1      37.326  23.309  25.202  1.00  0.00     0.043 C 
ATOM     22  C   UNL A   1      35.427  21.882  24.445  1.00  0.00     0.043 C 
BRANCH  20  23
ATOM     23  O   UNL A   1      36.604  23.278  22.904  1.00  0.00    -0.389 OA
ATOM     24  H   UNL A   1      35.864  23.475  22.310  1.00  0.00     0.211 HD
ENDBRANCH  20  23
ENDBRANCH  19  20
ENDBRANCH  17  19
ENDBRANCH  14  17
ENDBRANCH   7  14
ENDBRANCH   3   6
ENDBRANCH   1   2
BRANCH   1  25
ATOM     25  C   UNL A   1      31.446  31.891  26.474  1.00  0.00     0.042 C 
BRANCH  25  26
ATOM     26  C   UNL A   1      32.757  32.475  26.994  1.00  0.00     0.118 C 
BRANCH  26  27
ATOM     27  N   UNL A   1      32.595  33.781  27.614  1.00  0.00    -0.352 N 
ATOM     28  C   UNL A   1      33.198  34.398  28.681  1.00  0.00     0.251 C 
ATOM     29  H   UNL A   1      31.910  34.336  27.177  1.00  0.00     0.163 HD
ATOM     30  O   UNL A   1      32.685  35.441  29.088  1.00  0.00    -0.269 OA
BRANCH  28  31
ATOM     31  C   UNL A   1      34.404  33.868  29.371  1.00  0.00     0.039 A 
ATOM     32  C   UNL A   1      35.659  34.324  28.940  1.00  0.00     0.014 A 
ATOM     33  C   UNL A   1      34.355  32.867  30.343  1.00  0.00     0.014 A 
ATOM     34  C   UNL A   1      36.839  33.830  29.510  1.00  0.00     0.010 A 
ATOM     35  C   UNL A   1      35.530  32.420  30.962  1.00  0.00     0.010 A 
ATOM     36  C   UNL A   1      36.786  32.895  30.553  1.00  0.00    -0.014 A 
BRANCH  36  37
ATOM     37  C   UNL A   1      38.020  32.381  31.210  1.00  0.00     0.031 A 
ATOM     38  C   UNL A   1      38.824  31.284  30.564  1.00  0.00     0.074 A 
ATOM     39  C   UNL A   1      38.386  32.836  32.424  1.00  0.00     0.049 A 
ATOM     40  N   UNL A   1      39.759  30.528  31.079  1.00  0.00    -0.248 NA
ATOM     41  C   UNL A   1      38.506  30.980  29.162  1.00  0.00     0.031 C 
ATOM     42  C   UNL A   1      37.699  33.879  33.188  1.00  0.00     0.029 A 
ATOM     43  N   UNL A   1      39.422  32.454  33.241  1.00  0.00    -0.354 N 
ATOM     44  C   UNL A   1      40.084  29.602  30.094  1.00  0.00     0.074 A 
ATOM     45  C   UNL A   1      39.264  29.916  28.940  1.00  0.00     0.031 C 
ATOM     46  C   UNL A   1      38.335  34.060  34.357  1.00  0.00     0.029 A 
ATOM     47  C   UNL A   1      39.443  33.115  34.446  1.00  0.00     0.049 A 
ATOM     48  H   UNL A   1      40.085  31.774  32.988  1.00  0.00     0.167 HD
ATOM     49  C   UNL A   1      40.963  28.571  30.153  1.00  0.00     0.034 A 
ATOM     50  C   UNL A   1      40.240  32.955  35.518  1.00  0.00     0.034 A 
ATOM     51  C   UNL A   1      41.826  28.298  31.275  1.00  0.00     0.049 A 
ATOM     52  C   UNL A   1      41.301  31.896  35.511  1.00  0.00     0.074 A 
ATOM     53  C   UNL A   1      42.756  27.282  31.429  1.00  0.00     0.029 A 
ATOM     54  N   UNL A   1      41.886  29.065  32.429  1.00  0.00    -0.354 N 
ATOM     55  N   UNL A   1      41.535  30.974  34.608  1.00  0.00    -0.248 NA
ATOM     56  C   UNL A   1      42.199  31.850  36.673  1.00  0.00     0.031 C 
ATOM     57  C   UNL A   1      43.370  27.430  32.682  1.00  0.00     0.029 A 
ATOM     58  C   UNL A   1      42.843  28.554  33.292  1.00  0.00     0.049 A 
ATOM     59  H   UNL A   1      41.330  29.857  32.609  1.00  0.00     0.167 HD
ATOM     60  C   UNL A   1      42.594  30.225  35.105  1.00  0.00     0.074 A 
ATOM     61  C   UNL A   1      42.967  30.812  36.377  1.00  0.00     0.031 C 
ATOM     62  C   UNL A   1      43.196  29.140  34.559  1.00  0.00     0.034 A 
BRANCH  49  63
ATOM     63  C   UNL A   1      40.972  27.619  28.989  1.00  0.00     0.023 A 
ATOM     64  C   UNL A   1      41.891  27.742  27.934  1.00  0.00     0.031 A 
ATOM     65  C   UNL A   1      40.005  26.601  28.916  1.00  0.00     0.131 A 
ATOM     66  C   UNL A   1      41.786  26.896  26.820  1.00  0.00     0.055 A 
ATOM     67  C   UNL A   1      39.940  25.728  27.831  1.00  0.00     0.041 A 
ATOM     68  F   UNL A   1      39.091  26.457  29.889  1.00  0.00    -0.206 F 
ATOM     69  C   UNL A   1      40.826  25.881  26.768  1.00  0.00     0.022 A 
BRANCH  66  70
ATOM     70  S   UNL A   1      42.840  27.219  25.378  1.00  0.00     0.124 S 
ATOM     71  O   UNL A   1      42.654  26.000  24.595  1.00  0.00    -0.237 OA
ATOM     72  O   UNL A   1      42.255  28.432  24.822  1.00  0.00    -0.237 OA
ATOM     73  O   UNL A   1      44.173  27.379  25.958  1.00  0.00    -0.744 OA
ENDBRANCH  66  70
ENDBRANCH  49  63
BRANCH  50  74
ATOM     74  C   UNL A   1      40.024  33.789  36.724  1.00  0.00     0.023 A 
ATOM     75  C   UNL A   1      39.333  33.282  37.834  1.00  0.00     0.031 A 
ATOM     76  C   UNL A   1      40.517  35.102  36.776  1.00  0.00     0.131 A 
ATOM     77  C   UNL A   1      39.137  34.096  38.959  1.00  0.00     0.055 A 
ATOM     78  C   UNL A   1      40.329  35.905  37.899  1.00  0.00     0.041 A 
ATOM     79  F   UNL A   1      41.198  35.612  35.736  1.00  0.00    -0.206 F 
ATOM     80  C   UNL A   1      39.633  35.403  38.998  1.00  0.00     0.022 A 
BRANCH  77  81
ATOM     81  S   UNL A   1      38.223  33.424  40.378  1.00  0.00     0.124 S 
ATOM     82  O   UNL A   1      39.072  32.310  40.787  1.00  0.00    -0.237 OA
ATOM     83  O   UNL A   1      38.186  34.566  41.287  1.00  0.00    -0.237 OA
ATOM     84  O   UNL A   1      36.933  33.049  39.805  1.00  0.00    -0.744 OA
ENDBRANCH  77  81
ENDBRANCH  50  74
BRANCH  62  85
ATOM     85  C   UNL A   1      44.329  28.539  35.337  1.00  0.00     0.023 A 
ATOM     86  C   UNL A   1      44.094  27.582  36.338  1.00  0.00     0.031 A 
ATOM     87  C   UNL A   1      45.650  28.946  35.089  1.00  0.00     0.131 A 
ATOM     88  C   UNL A   1      45.171  27.074  37.078  1.00  0.00     0.055 A 
ATOM     89  C   UNL A   1      46.719  28.427  35.818  1.00  0.00     0.041 A 
ATOM     90  F   UNL A   1      45.914  29.865  34.148  1.00  0.00    -0.206 F 
ATOM     91  C   UNL A   1      46.482  27.489  36.822  1.00  0.00     0.022 A 
BRANCH  88  92
ATOM     92  S   UNL A   1      44.838  25.887  38.412  1.00  0.00     0.124 S 
ATOM     93  O   UNL A   1      46.181  25.428  38.756  1.00  0.00    -0.237 OA
ATOM     94  O   UNL A   1      44.173  26.716  39.412  1.00  0.00    -0.237 OA
ATOM     95  O   UNL A   1      43.986  24.885  37.775  1.00  0.00    -0.744 OA
ENDBRANCH  88  92
ENDBRANCH  62  85
ENDBRANCH  36  37
ENDBRANCH  28  31
ENDBRANCH  26  27
ENDBRANCH  25  26
ENDBRANCH   1  25
TORSDOF 18
ENDMDL
