MODEL 1
REMARK VINA RESULT:     -11.4      0.000      0.000
REMARK SMILES Cc1cc(NC[C@H](C)[NH+](C)C)cc(C(=O)NCCCNC(=O)c2ccc(-c3c4nc(c(-c5cc(S(=O)(=O)[O-])ccc5F)c5ccc([nH]5)c(-c5cc(S(=O)(=O)[O-])ccc5F)c5nc(c(-c6cc(S(=O)(=O)[O-])ccc6F)c6ccc3[nH]6)C=C5)C=C4)cc2)c1N
REMARK SMILES IDX 17 1 16 2 14 3 15 4 13 6 1 7 2 8 3 9 86 10 4 11 12 12 87 13
REMARK SMILES IDX 5 16 6 18 7 19 8 20 9 21 10 22 11 23 18 25 19 26 20 27 21 28
REMARK SMILES IDX 22 30 23 31 24 32 85 33 25 34 84 35 26 36 27 37 28 38 78 39
REMARK SMILES IDX 29 40 83 41 77 42 79 43 30 44 82 45 76 46 75 47 31 49 63 50
REMARK SMILES IDX 43 51 62 52 44 53 47 54 61 55 80 56 45 57 46 58 60 60 81 61
REMARK SMILES IDX 48 62 32 63 33 64 41 65 34 66 40 67 42 68 39 69 35 70 36 71
REMARK SMILES IDX 37 72 38 73 64 74 65 75 73 76 66 77 72 78 74 79 71 80 67 81
REMARK SMILES IDX 68 82 69 83 70 84 49 85 50 86 58 87 51 88 57 89 59 90 56 91
REMARK SMILES IDX 52 92 53 93 54 94 55 95
REMARK H PARENT 16 5 87 14 87 15 5 17 9 24 20 29 79 48 47 59
REMARK Flexibility Score: inf
ROOT
ATOM      1  C   UNL A   1      31.795  30.245  26.562  1.00  0.00     0.118 C 
ENDROOT
BRANCH   1   2
ATOM      2  N   UNL A   1      32.599  29.982  25.379  1.00  0.00    -0.352 N 
ATOM      3  C   UNL A   1      32.410  29.206  24.258  1.00  0.00     0.253 C 
ATOM      4  O   UNL A   1      33.313  29.238  23.416  1.00  0.00    -0.269 OA
ATOM      5  H   UNL A   1      33.460  30.456  25.381  1.00  0.00     0.163 HD
BRANCH   3   6
ATOM      6  C   UNL A   1      31.181  28.384  23.999  1.00  0.00     0.065 A 
ATOM      7  C   UNL A   1      27.545  28.805  22.881  1.00  0.00     0.046 C 
ATOM      8  C   UNL A   1      28.834  28.207  23.373  1.00  0.00    -0.025 A 
ATOM      9  C   UNL A   1      28.879  26.827  23.657  1.00  0.00     0.031 A 
ATOM     10  C   UNL A   1      29.989  29.001  23.551  1.00  0.00     0.047 A 
ATOM     11  C   UNL A   1      30.055  26.206  24.076  1.00  0.00     0.035 A 
ATOM     12  C   UNL A   1      31.203  26.994  24.141  1.00  0.00     0.041 A 
BRANCH  10  13
ATOM     13  N   UNL A   1      29.895  30.394  23.426  1.00  0.00    -0.398 N 
ATOM     14  H   UNL A   1      29.865  30.960  24.232  1.00  0.00     0.156 HD
ATOM     15  H   UNL A   1      29.858  30.806  22.533  1.00  0.00     0.156 HD
ENDBRANCH  10  13
BRANCH  11  16
ATOM     16  N   UNL A   1      30.066  24.858  24.404  1.00  0.00    -0.379 N 
ATOM     17  H   UNL A   1      29.230  24.425  24.693  1.00  0.00     0.160 HD
BRANCH  16  18
ATOM     18  C   UNL A   1      31.297  24.067  24.330  1.00  0.00     0.177 C 
BRANCH  18  19
ATOM     19  C   UNL A   1      31.605  23.267  25.628  1.00  0.00     0.199 C 
ATOM     20  C   UNL A   1      30.474  23.526  26.642  1.00  0.00     0.077 C 
BRANCH  19  21
ATOM     21  N   UNL A   1      32.928  23.481  26.265  1.00  0.00    -0.336 N 
ATOM     22  C   UNL A   1      33.790  22.304  26.189  1.00  0.00     0.332 C 
ATOM     23  C   UNL A   1      33.656  24.657  25.780  1.00  0.00     0.332 C 
ATOM     24  H   UNL A   1      32.692  23.659  27.241  1.00  0.00     0.347 HD
ENDBRANCH  19  21
ENDBRANCH  18  19
ENDBRANCH  16  18
ENDBRANCH  11  16
ENDBRANCH   3   6
ENDBRANCH   1   2
BRANCH   1  25
ATOM     25  C   UNL A   1      31.635  31.750  26.800  1.00  0.00     0.042 C 
BRANCH  25  26
ATOM     26  C   UNL A   1      32.932  32.429  27.231  1.00  0.00     0.118 C 
BRANCH  26  27
ATOM     27  N   UNL A   1      32.709  33.813  27.618  1.00  0.00    -0.352 N 
ATOM     28  C   UNL A   1      33.244  34.536  28.657  1.00  0.00     0.251 C 
ATOM     29  H   UNL A   1      32.077  34.309  27.049  1.00  0.00     0.163 HD
ATOM     30  O   UNL A   1      32.730  35.607  28.965  1.00  0.00    -0.269 OA
BRANCH  28  31
ATOM     31  C   UNL A   1      34.416  34.028  29.404  1.00  0.00     0.039 A 
ATOM     32  C   UNL A   1      34.205  33.169  30.486  1.00  0.00     0.014 A 
ATOM     33  C   UNL A   1      35.714  34.427  29.073  1.00  0.00     0.014 A 
ATOM     34  C   UNL A   1      35.297  32.668  31.200  1.00  0.00     0.010 A 
ATOM     35  C   UNL A   1      36.804  33.870  29.739  1.00  0.00     0.010 A 
ATOM     36  C   UNL A   1      36.607  32.988  30.812  1.00  0.00    -0.014 A 
BRANCH  36  37
ATOM     37  C   UNL A   1      37.785  32.415  31.515  1.00  0.00     0.031 A 
ATOM     38  C   UNL A   1      38.578  31.306  30.878  1.00  0.00     0.074 A 
ATOM     39  C   UNL A   1      38.095  32.847  32.753  1.00  0.00     0.049 A 
ATOM     40  N   UNL A   1      39.567  30.605  31.371  1.00  0.00    -0.248 NA
ATOM     41  C   UNL A   1      38.184  30.913  29.517  1.00  0.00     0.031 C 
ATOM     42  C   UNL A   1      37.380  33.895  33.485  1.00  0.00     0.029 A 
ATOM     43  N   UNL A   1      39.081  32.452  33.624  1.00  0.00    -0.354 N 
ATOM     44  C   UNL A   1      39.903  29.679  30.390  1.00  0.00     0.074 A 
ATOM     45  C   UNL A   1      38.972  29.872  29.297  1.00  0.00     0.031 C 
ATOM     46  C   UNL A   1      37.959  34.070  34.683  1.00  0.00     0.029 A 
ATOM     47  C   UNL A   1      39.052  33.115  34.830  1.00  0.00     0.049 A 
ATOM     48  H   UNL A   1      39.744  31.759  33.405  1.00  0.00     0.167 HD
ATOM     49  C   UNL A   1      40.906  28.766  30.393  1.00  0.00     0.034 A 
ATOM     50  C   UNL A   1      39.806  32.957  35.935  1.00  0.00     0.034 A 
ATOM     51  C   UNL A   1      41.830  28.598  31.489  1.00  0.00     0.049 A 
ATOM     52  C   UNL A   1      40.898  31.915  35.927  1.00  0.00     0.074 A 
ATOM     53  C   UNL A   1      42.916  27.745  31.577  1.00  0.00     0.029 A 
ATOM     54  N   UNL A   1      41.773  29.290  32.693  1.00  0.00    -0.354 N 
ATOM     55  N   UNL A   1      41.233  31.078  34.973  1.00  0.00    -0.248 NA
ATOM     56  C   UNL A   1      41.719  31.806  37.139  1.00  0.00     0.031 C 
ATOM     57  C   UNL A   1      43.469  27.867  32.856  1.00  0.00     0.029 A 
ATOM     58  C   UNL A   1      42.782  28.858  33.539  1.00  0.00     0.049 A 
ATOM     59  H   UNL A   1      41.112  29.985  32.912  1.00  0.00     0.167 HD
ATOM     60  C   UNL A   1      42.323  30.364  35.460  1.00  0.00     0.074 A 
ATOM     61  C   UNL A   1      42.598  30.880  36.785  1.00  0.00     0.031 C 
ATOM     62  C   UNL A   1      43.038  29.376  34.864  1.00  0.00     0.034 A 
BRANCH  49  63
ATOM     63  C   UNL A   1      41.033  27.863  29.188  1.00  0.00     0.023 A 
ATOM     64  C   UNL A   1      42.043  28.048  28.227  1.00  0.00     0.031 A 
ATOM     65  C   UNL A   1      40.121  26.811  28.987  1.00  0.00     0.131 A 
ATOM     66  C   UNL A   1      42.070  27.247  27.074  1.00  0.00     0.055 A 
ATOM     67  C   UNL A   1      40.205  25.963  27.881  1.00  0.00     0.041 A 
ATOM     68  F   UNL A   1      39.122  26.596  29.858  1.00  0.00    -0.206 F 
ATOM     69  C   UNL A   1      41.174  26.189  26.908  1.00  0.00     0.022 A 
BRANCH  66  70
ATOM     70  S   UNL A   1      43.200  27.702  25.731  1.00  0.00     0.124 S 
ATOM     71  O   UNL A   1      44.040  26.510  25.636  1.00  0.00    -0.237 OA
ATOM     72  O   UNL A   1      42.288  27.930  24.616  1.00  0.00    -0.237 OA
ATOM     73  O   UNL A   1      43.876  28.894  26.239  1.00  0.00    -0.744 OA
ENDBRANCH  66  70
ENDBRANCH  49  63
BRANCH  50  74
ATOM     74  C   UNL A   1      39.551  33.786  37.148  1.00  0.00     0.023 A 
ATOM     75  C   UNL A   1      38.868  33.260  38.255  1.00  0.00     0.031 A 
ATOM     76  C   UNL A   1      39.956  35.132  37.204  1.00  0.00     0.131 A 
ATOM     77  C   UNL A   1      38.569  34.085  39.350  1.00  0.00     0.055 A 
ATOM     78  C   UNL A   1      39.705  35.934  38.319  1.00  0.00     0.041 A 
ATOM     79  F   UNL A   1      40.617  35.686  36.174  1.00  0.00    -0.206 F 
ATOM     80  C   UNL A   1      38.995  35.414  39.396  1.00  0.00     0.022 A 
BRANCH  77  81
ATOM     81  S   UNL A   1      37.532  33.418  40.682  1.00  0.00     0.124 S 
ATOM     82  O   UNL A   1      36.440  32.810  39.932  1.00  0.00    -0.237 OA
ATOM     83  O   UNL A   1      38.449  32.496  41.344  1.00  0.00    -0.237 OA
ATOM     84  O   UNL A   1      37.175  34.603  41.459  1.00  0.00    -0.744 OA
ENDBRANCH  77  81
ENDBRANCH  50  74
BRANCH  62  85
ATOM     85  C   UNL A   1      44.219  28.824  35.626  1.00  0.00     0.023 A 
ATOM     86  C   UNL A   1      44.092  27.735  36.505  1.00  0.00     0.031 A 
ATOM     87  C   UNL A   1      45.491  29.402  35.467  1.00  0.00     0.131 A 
ATOM     88  C   UNL A   1      45.207  27.289  37.229  1.00  0.00     0.055 A 
ATOM     89  C   UNL A   1      46.610  28.914  36.143  1.00  0.00     0.041 A 
ATOM     90  F   UNL A   1      45.670  30.447  34.643  1.00  0.00    -0.206 F 
ATOM     91  C   UNL A   1      46.470  27.859  37.040  1.00  0.00     0.022 A 
BRANCH  88  92
ATOM     92  S   UNL A   1      44.972  26.007  38.492  1.00  0.00     0.124 S 
ATOM     93  O   UNL A   1      44.116  25.052  37.798  1.00  0.00    -0.237 OA
ATOM     94  O   UNL A   1      46.340  25.569  38.750  1.00  0.00    -0.237 OA
ATOM     95  O   UNL A   1      44.334  26.725  39.594  1.00  0.00    -0.744 OA
ENDBRANCH  88  92
ENDBRANCH  62  85
ENDBRANCH  36  37
ENDBRANCH  28  31
ENDBRANCH  26  27
ENDBRANCH  25  26
ENDBRANCH   1  25
TORSDOF 18
ENDMDL
MODEL 2
REMARK VINA RESULT:     -11.3      1.067      2.942
REMARK SMILES Cc1cc(NC[C@H](C)[NH+](C)C)cc(C(=O)NCCCNC(=O)c2ccc(-c3c4nc(c(-c5cc(S(=O)(=O)[O-])ccc5F)c5ccc([nH]5)c(-c5cc(S(=O)(=O)[O-])ccc5F)c5nc(c(-c6cc(S(=O)(=O)[O-])ccc6F)c6ccc3[nH]6)C=C5)C=C4)cc2)c1N
REMARK SMILES IDX 17 1 16 2 14 3 15 4 13 6 1 7 2 8 3 9 86 10 4 11 12 12 87 13
REMARK SMILES IDX 5 16 6 18 7 19 8 20 9 21 10 22 11 23 18 25 19 26 20 27 21 28
REMARK SMILES IDX 22 30 23 31 24 32 85 33 25 34 84 35 26 36 27 37 28 38 78 39
REMARK SMILES IDX 29 40 83 41 77 42 79 43 30 44 82 45 76 46 75 47 31 49 63 50
REMARK SMILES IDX 43 51 62 52 44 53 47 54 61 55 80 56 45 57 46 58 60 60 81 61
REMARK SMILES IDX 48 62 32 63 33 64 41 65 34 66 40 67 42 68 39 69 35 70 36 71
REMARK SMILES IDX 37 72 38 73 64 74 65 75 73 76 66 77 72 78 74 79 71 80 67 81
REMARK SMILES IDX 68 82 69 83 70 84 49 85 50 86 58 87 51 88 57 89 59 90 56 91
REMARK SMILES IDX 52 92 53 93 54 94 55 95
REMARK H PARENT 16 5 87 14 87 15 5 17 9 24 20 29 79 48 47 59
REMARK Flexibility Score: inf
ROOT
ATOM      1  C   UNL A   1      31.840  30.325  27.036  1.00  0.00     0.118 C 
ENDROOT
BRANCH   1   2
ATOM      2  N   UNL A   1      32.924  29.860  26.184  1.00  0.00    -0.352 N 
ATOM      3  C   UNL A   1      33.006  28.919  25.183  1.00  0.00     0.253 C 
ATOM      4  O   UNL A   1      34.107  28.799  24.638  1.00  0.00    -0.269 OA
ATOM      5  H   UNL A   1      33.779  30.312  26.362  1.00  0.00     0.163 HD
BRANCH   3   6
ATOM      6  C   UNL A   1      31.847  28.091  24.708  1.00  0.00     0.065 A 
ATOM      7  C   UNL A   1      30.703  24.441  24.565  1.00  0.00     0.046 C 
ATOM      8  C   UNL A   1      30.767  25.933  24.382  1.00  0.00    -0.025 A 
ATOM      9  C   UNL A   1      29.723  26.578  23.687  1.00  0.00     0.031 A 
ATOM     10  C   UNL A   1      31.846  26.688  24.893  1.00  0.00     0.047 A 
ATOM     11  C   UNL A   1      29.704  27.962  23.521  1.00  0.00     0.035 A 
ATOM     12  C   UNL A   1      30.726  28.691  24.126  1.00  0.00     0.041 A 
BRANCH  10  13
ATOM     13  N   UNL A   1      32.956  26.027  25.436  1.00  0.00    -0.398 N 
ATOM     14  H   UNL A   1      32.872  25.545  26.291  1.00  0.00     0.156 HD
ATOM     15  H   UNL A   1      33.819  26.044  24.963  1.00  0.00     0.156 HD
ENDBRANCH  10  13
BRANCH  11  16
ATOM     16  N   UNL A   1      28.698  28.572  22.786  1.00  0.00    -0.379 N 
ATOM     17  H   UNL A   1      27.798  28.174  22.775  1.00  0.00     0.160 HD
BRANCH  16  18
ATOM     18  C   UNL A   1      28.950  29.799  22.025  1.00  0.00     0.177 C 
BRANCH  18  19
ATOM     19  C   UNL A   1      28.847  31.096  22.879  1.00  0.00     0.199 C 
ATOM     20  C   UNL A   1      27.491  31.095  23.609  1.00  0.00     0.077 C 
BRANCH  19  21
ATOM     21  N   UNL A   1      29.058  32.389  22.184  1.00  0.00    -0.336 N 
ATOM     22  C   UNL A   1      28.146  32.583  21.059  1.00  0.00     0.332 C 
ATOM     23  C   UNL A   1      29.019  33.566  23.057  1.00  0.00     0.332 C 
ATOM     24  H   UNL A   1      30.011  32.313  21.830  1.00  0.00     0.347 HD
ENDBRANCH  19  21
ENDBRANCH  18  19
ENDBRANCH  16  18
ENDBRANCH  11  16
ENDBRANCH   3   6
ENDBRANCH   1   2
BRANCH   1  25
ATOM     25  C   UNL A   1      31.576  31.819  26.830  1.00  0.00     0.042 C 
BRANCH  25  26
ATOM     26  C   UNL A   1      32.845  32.665  26.886  1.00  0.00     0.118 C 
BRANCH  26  27
ATOM     27  N   UNL A   1      32.605  33.950  27.526  1.00  0.00    -0.352 N 
ATOM     28  C   UNL A   1      33.136  34.474  28.679  1.00  0.00     0.251 C 
ATOM     29  H   UNL A   1      31.962  34.534  27.061  1.00  0.00     0.163 HD
ATOM     30  O   UNL A   1      32.608  35.460  29.184  1.00  0.00    -0.269 OA
BRANCH  28  31
ATOM     31  C   UNL A   1      34.320  33.853  29.314  1.00  0.00     0.039 A 
ATOM     32  C   UNL A   1      35.592  34.310  28.960  1.00  0.00     0.014 A 
ATOM     33  C   UNL A   1      34.185  32.796  30.219  1.00  0.00     0.014 A 
ATOM     34  C   UNL A   1      36.725  33.746  29.554  1.00  0.00     0.010 A 
ATOM     35  C   UNL A   1      35.310  32.284  30.864  1.00  0.00     0.010 A 
ATOM     36  C   UNL A   1      36.592  32.751  30.535  1.00  0.00    -0.014 A 
BRANCH  36  37
ATOM     37  C   UNL A   1      37.778  32.183  31.229  1.00  0.00     0.031 A 
ATOM     38  C   UNL A   1      38.538  31.042  30.609  1.00  0.00     0.074 A 
ATOM     39  C   UNL A   1      38.123  32.649  32.445  1.00  0.00     0.049 A 
ATOM     40  N   UNL A   1      39.528  30.343  31.102  1.00  0.00    -0.248 NA
ATOM     41  C   UNL A   1      38.107  30.613  29.271  1.00  0.00     0.031 C 
ATOM     42  C   UNL A   1      37.440  33.731  33.160  1.00  0.00     0.029 A 
ATOM     43  N   UNL A   1      39.122  32.266  33.305  1.00  0.00    -0.354 N 
ATOM     44  C   UNL A   1      39.828  29.380  30.143  1.00  0.00     0.074 A 
ATOM     45  C   UNL A   1      38.875  29.553  29.066  1.00  0.00     0.031 C 
ATOM     46  C   UNL A   1      38.050  33.934  34.338  1.00  0.00     0.029 A 
ATOM     47  C   UNL A   1      39.132  32.967  34.490  1.00  0.00     0.049 A 
ATOM     48  H   UNL A   1      39.770  31.557  33.093  1.00  0.00     0.167 HD
ATOM     49  C   UNL A   1      40.817  28.453  30.153  1.00  0.00     0.034 A 
ATOM     50  C   UNL A   1      39.909  32.832  35.582  1.00  0.00     0.034 A 
ATOM     51  C   UNL A   1      41.764  28.305  31.231  1.00  0.00     0.049 A 
ATOM     52  C   UNL A   1      40.985  31.774  35.582  1.00  0.00     0.074 A 
ATOM     53  C   UNL A   1      42.839  27.438  31.321  1.00  0.00     0.029 A 
ATOM     54  N   UNL A   1      41.745  29.035  32.414  1.00  0.00    -0.354 N 
ATOM     55  N   UNL A   1      41.285  30.902  34.647  1.00  0.00    -0.248 NA
ATOM     56  C   UNL A   1      41.833  31.691  36.778  1.00  0.00     0.031 C 
ATOM     57  C   UNL A   1      43.424  27.592  32.583  1.00  0.00     0.029 A 
ATOM     58  C   UNL A   1      42.768  28.615  33.250  1.00  0.00     0.049 A 
ATOM     59  H   UNL A   1      41.100  29.747  32.626  1.00  0.00     0.167 HD
ATOM     60  C   UNL A   1      42.376  30.187  35.132  1.00  0.00     0.074 A 
ATOM     61  C   UNL A   1      42.689  30.741  36.433  1.00  0.00     0.031 C 
ATOM     62  C   UNL A   1      43.062  29.170  34.551  1.00  0.00     0.034 A 
BRANCH  49  63
ATOM     63  C   UNL A   1      40.903  27.510  28.974  1.00  0.00     0.023 A 
ATOM     64  C   UNL A   1      41.842  27.695  27.944  1.00  0.00     0.031 A 
ATOM     65  C   UNL A   1      40.020  26.420  28.868  1.00  0.00     0.131 A 
ATOM     66  C   UNL A   1      41.828  26.853  26.821  1.00  0.00     0.055 A 
ATOM     67  C   UNL A   1      40.067  25.535  27.789  1.00  0.00     0.041 A 
ATOM     68  F   UNL A   1      39.086  26.202  29.808  1.00  0.00    -0.206 F 
ATOM     69  C   UNL A   1      40.964  25.759  26.749  1.00  0.00     0.022 A 
BRANCH  66  70
ATOM     70  S   UNL A   1      42.853  27.297  25.393  1.00  0.00     0.124 S 
ATOM     71  O   UNL A   1      42.827  26.060  24.616  1.00  0.00    -0.237 OA
ATOM     72  O   UNL A   1      42.127  28.425  24.822  1.00  0.00    -0.237 OA
ATOM     73  O   UNL A   1      44.148  27.624  25.988  1.00  0.00    -0.744 OA
ENDBRANCH  66  70
ENDBRANCH  49  63
BRANCH  50  74
ATOM     74  C   UNL A   1      39.695  33.703  36.774  1.00  0.00     0.023 A 
ATOM     75  C   UNL A   1      39.081  33.206  37.933  1.00  0.00     0.031 A 
ATOM     76  C   UNL A   1      40.069  35.059  36.757  1.00  0.00     0.131 A 
ATOM     77  C   UNL A   1      38.817  34.067  39.010  1.00  0.00     0.055 A 
ATOM     78  C   UNL A   1      39.855  35.899  37.852  1.00  0.00     0.041 A 
ATOM     79  F   UNL A   1      40.664  35.586  35.674  1.00  0.00    -0.206 F 
ATOM     80  C   UNL A   1      39.212  35.406  38.982  1.00  0.00     0.022 A 
BRANCH  77  81
ATOM     81  S   UNL A   1      37.865  33.431  40.417  1.00  0.00     0.124 S 
ATOM     82  O   UNL A   1      37.683  34.633  41.221  1.00  0.00    -0.237 OA
ATOM     83  O   UNL A   1      36.670  32.909  39.762  1.00  0.00    -0.237 OA
ATOM     84  O   UNL A   1      38.748  32.419  40.994  1.00  0.00    -0.744 OA
ENDBRANCH  77  81
ENDBRANCH  50  74
BRANCH  62  85
ATOM     85  C   UNL A   1      44.252  28.624  35.303  1.00  0.00     0.023 A 
ATOM     86  C   UNL A   1      44.132  27.556  36.209  1.00  0.00     0.031 A 
ATOM     87  C   UNL A   1      45.527  29.185  35.107  1.00  0.00     0.131 A 
ATOM     88  C   UNL A   1      45.257  27.116  36.922  1.00  0.00     0.055 A 
ATOM     89  C   UNL A   1      46.653  28.702  35.772  1.00  0.00     0.041 A 
ATOM     90  F   UNL A   1      45.699  30.209  34.256  1.00  0.00    -0.206 F 
ATOM     91  C   UNL A   1      46.521  27.669  36.696  1.00  0.00     0.022 A 
BRANCH  88  92
ATOM     92  S   UNL A   1      45.033  25.867  38.219  1.00  0.00     0.124 S 
ATOM     93  O   UNL A   1      43.818  25.190  37.781  1.00  0.00    -0.237 OA
ATOM     94  O   UNL A   1      46.266  25.092  38.120  1.00  0.00    -0.237 OA
ATOM     95  O   UNL A   1      44.897  26.659  39.439  1.00  0.00    -0.744 OA
ENDBRANCH  88  92
ENDBRANCH  62  85
ENDBRANCH  36  37
ENDBRANCH  28  31
ENDBRANCH  26  27
ENDBRANCH  25  26
ENDBRANCH   1  25
TORSDOF 18
ENDMDL
MODEL 3
REMARK VINA RESULT:     -10.9      5.919     12.133
REMARK SMILES Cc1cc(NC[C@H](C)[NH+](C)C)cc(C(=O)NCCCNC(=O)c2ccc(-c3c4nc(c(-c5cc(S(=O)(=O)[O-])ccc5F)c5ccc([nH]5)c(-c5cc(S(=O)(=O)[O-])ccc5F)c5nc(c(-c6cc(S(=O)(=O)[O-])ccc6F)c6ccc3[nH]6)C=C5)C=C4)cc2)c1N
REMARK SMILES IDX 17 1 16 2 14 3 15 4 13 6 1 7 2 8 3 9 86 10 4 11 12 12 87 13
REMARK SMILES IDX 5 16 6 18 7 19 8 20 9 21 10 22 11 23 18 25 19 26 20 27 21 28
REMARK SMILES IDX 22 30 23 31 24 32 85 33 25 34 84 35 26 36 27 37 28 38 78 39
REMARK SMILES IDX 29 40 83 41 77 42 79 43 30 44 82 45 76 46 75 47 31 49 63 50
REMARK SMILES IDX 43 51 62 52 44 53 47 54 61 55 80 56 45 57 46 58 60 60 81 61
REMARK SMILES IDX 48 62 32 63 33 64 41 65 34 66 40 67 42 68 39 69 35 70 36 71
REMARK SMILES IDX 37 72 38 73 64 74 65 75 73 76 66 77 72 78 74 79 71 80 67 81
REMARK SMILES IDX 68 82 69 83 70 84 49 85 50 86 58 87 51 88 57 89 59 90 56 91
REMARK SMILES IDX 52 92 53 93 54 94 55 95
REMARK H PARENT 16 5 87 14 87 15 5 17 9 24 20 29 79 48 47 59
REMARK Flexibility Score: inf
ROOT
ATOM      1  C   UNL A   1      36.974  21.075  24.828  1.00  0.00     0.118 C 
ENDROOT
BRANCH   1   2
ATOM      2  N   UNL A   1      36.054  21.207  25.947  1.00  0.00    -0.352 N 
ATOM      3  C   UNL A   1      34.682  21.164  26.056  1.00  0.00     0.253 C 
ATOM      4  O   UNL A   1      34.223  21.289  27.196  1.00  0.00    -0.269 OA
ATOM      5  H   UNL A   1      36.506  21.360  26.806  1.00  0.00     0.163 HD
BRANCH   3   6
ATOM      6  C   UNL A   1      33.751  20.936  24.901  1.00  0.00     0.065 A 
ATOM      7  C   UNL A   1      32.248  18.070  22.857  1.00  0.00     0.046 C 
ATOM      8  C   UNL A   1      32.617  19.444  23.345  1.00  0.00    -0.025 A 
ATOM      9  C   UNL A   1      32.115  20.568  22.658  1.00  0.00     0.031 A 
ATOM     10  C   UNL A   1      33.451  19.621  24.473  1.00  0.00     0.047 A 
ATOM     11  C   UNL A   1      32.386  21.866  23.087  1.00  0.00     0.035 A 
ATOM     12  C   UNL A   1      33.123  22.008  24.262  1.00  0.00     0.041 A 
BRANCH  10  13
ATOM     13  N   UNL A   1      34.078  18.508  25.049  1.00  0.00    -0.398 N 
ATOM     14  H   UNL A   1      33.685  18.080  25.845  1.00  0.00     0.156 HD
ATOM     15  H   UNL A   1      34.910  18.156  24.660  1.00  0.00     0.156 HD
ENDBRANCH  10  13
BRANCH  11  16
ATOM     16  N   UNL A   1      31.930  22.960  22.366  1.00  0.00    -0.379 N 
ATOM     17  H   UNL A   1      31.268  22.824  21.650  1.00  0.00     0.160 HD
BRANCH  16  18
ATOM     18  C   UNL A   1      32.415  24.314  22.648  1.00  0.00     0.177 C 
BRANCH  18  19
ATOM     19  C   UNL A   1      31.278  25.347  22.890  1.00  0.00     0.199 C 
ATOM     20  C   UNL A   1      31.449  26.507  21.890  1.00  0.00     0.077 C 
BRANCH  19  21
ATOM     21  N   UNL A   1      31.115  25.874  24.268  1.00  0.00    -0.336 N 
ATOM     22  C   UNL A   1      29.992  26.800  24.391  1.00  0.00     0.332 C 
ATOM     23  C   UNL A   1      31.022  24.845  25.308  1.00  0.00     0.332 C 
ATOM     24  H   UNL A   1      31.985  26.381  24.429  1.00  0.00     0.347 HD
ENDBRANCH  19  21
ENDBRANCH  18  19
ENDBRANCH  16  18
ENDBRANCH  11  16
ENDBRANCH   3   6
ENDBRANCH   1   2
BRANCH   1  25
ATOM     25  C   UNL A   1      38.021  19.990  25.097  1.00  0.00     0.042 C 
BRANCH  25  26
ATOM     26  C   UNL A   1      39.236  20.506  25.863  1.00  0.00     0.118 C 
BRANCH  26  27
ATOM     27  N   UNL A   1      40.262  19.483  25.993  1.00  0.00    -0.352 N 
ATOM     28  C   UNL A   1      41.626  19.610  26.096  1.00  0.00     0.251 C 
ATOM     29  H   UNL A   1      39.928  18.556  26.008  1.00  0.00     0.163 HD
ATOM     30  O   UNL A   1      42.330  18.618  25.933  1.00  0.00    -0.269 OA
BRANCH  28  31
ATOM     31  C   UNL A   1      42.241  20.923  26.386  1.00  0.00     0.039 A 
ATOM     32  C   UNL A   1      42.449  21.818  25.332  1.00  0.00     0.014 A 
ATOM     33  C   UNL A   1      42.652  21.261  27.678  1.00  0.00     0.014 A 
ATOM     34  C   UNL A   1      43.019  23.069  25.584  1.00  0.00     0.010 A 
ATOM     35  C   UNL A   1      43.152  22.535  27.940  1.00  0.00     0.010 A 
ATOM     36  C   UNL A   1      43.345  23.451  26.894  1.00  0.00    -0.014 A 
BRANCH  36  37
ATOM     37  C   UNL A   1      43.890  24.801  27.195  1.00  0.00     0.031 A 
ATOM     38  C   UNL A   1      42.980  25.887  27.702  1.00  0.00     0.074 A 
ATOM     39  C   UNL A   1      45.189  25.064  26.944  1.00  0.00     0.049 A 
ATOM     40  N   UNL A   1      43.241  27.151  27.921  1.00  0.00    -0.248 NA
ATOM     41  C   UNL A   1      41.586  25.505  27.969  1.00  0.00     0.031 C 
ATOM     42  C   UNL A   1      46.160  24.099  26.422  1.00  0.00     0.029 A 
ATOM     43  N   UNL A   1      45.914  26.221  27.080  1.00  0.00    -0.354 N 
ATOM     44  C   UNL A   1      42.041  27.719  28.334  1.00  0.00     0.074 A 
ATOM     45  C   UNL A   1      41.041  26.672  28.280  1.00  0.00     0.031 C 
ATOM     46  C   UNL A   1      47.353  24.700  26.297  1.00  0.00     0.029 A 
ATOM     47  C   UNL A   1      47.226  26.102  26.679  1.00  0.00     0.049 A 
ATOM     48  H   UNL A   1      45.532  27.058  27.430  1.00  0.00     0.167 HD
ATOM     49  C   UNL A   1      41.800  28.991  28.739  1.00  0.00     0.034 A 
ATOM     50  C   UNL A   1      48.208  27.022  26.607  1.00  0.00     0.034 A 
ATOM     51  C   UNL A   1      42.813  30.017  28.797  1.00  0.00     0.049 A 
ATOM     52  C   UNL A   1      47.910  28.438  27.035  1.00  0.00     0.074 A 
ATOM     53  C   UNL A   1      42.694  31.321  29.243  1.00  0.00     0.029 A 
ATOM     54  N   UNL A   1      44.132  29.858  28.387  1.00  0.00    -0.354 N 
ATOM     55  N   UNL A   1      46.780  28.949  27.468  1.00  0.00    -0.248 NA
ATOM     56  C   UNL A   1      49.021  29.396  26.977  1.00  0.00     0.031 C 
ATOM     57  C   UNL A   1      43.916  31.970  29.036  1.00  0.00     0.029 A 
ATOM     58  C   UNL A   1      44.825  31.049  28.539  1.00  0.00     0.049 A 
ATOM     59  H   UNL A   1      44.517  29.022  28.040  1.00  0.00     0.167 HD
ATOM     60  C   UNL A   1      47.055  30.281  27.761  1.00  0.00     0.074 A 
ATOM     61  C   UNL A   1      48.459  30.489  27.470  1.00  0.00     0.031 C 
ATOM     62  C   UNL A   1      46.224  31.245  28.235  1.00  0.00     0.034 A 
BRANCH  49  63
ATOM     63  C   UNL A   1      40.381  29.346  29.121  1.00  0.00     0.023 A 
ATOM     64  C   UNL A   1      39.980  29.449  30.465  1.00  0.00     0.031 A 
ATOM     65  C   UNL A   1      39.411  29.568  28.128  1.00  0.00     0.131 A 
ATOM     66  C   UNL A   1      38.633  29.689  30.779  1.00  0.00     0.055 A 
ATOM     67  C   UNL A   1      38.090  29.890  28.446  1.00  0.00     0.041 A 
ATOM     68  F   UNL A   1      39.726  29.464  26.827  1.00  0.00    -0.206 F 
ATOM     69  C   UNL A   1      37.690  29.936  29.779  1.00  0.00     0.022 A 
BRANCH  66  70
ATOM     70  S   UNL A   1      38.104  29.527  32.506  1.00  0.00     0.124 S 
ATOM     71  O   UNL A   1      36.675  29.267  32.353  1.00  0.00    -0.237 OA
ATOM     72  O   UNL A   1      38.910  28.407  32.978  1.00  0.00    -0.237 OA
ATOM     73  O   UNL A   1      38.436  30.825  33.090  1.00  0.00    -0.744 OA
ENDBRANCH  66  70
ENDBRANCH  49  63
BRANCH  50  74
ATOM     74  C   UNL A   1      49.558  26.647  26.095  1.00  0.00     0.023 A 
ATOM     75  C   UNL A   1      50.005  27.089  24.841  1.00  0.00     0.031 A 
ATOM     76  C   UNL A   1      50.407  25.809  26.839  1.00  0.00     0.131 A 
ATOM     77  C   UNL A   1      51.246  26.655  24.347  1.00  0.00     0.055 A 
ATOM     78  C   UNL A   1      51.664  25.425  26.368  1.00  0.00     0.041 A 
ATOM     79  F   UNL A   1      50.031  25.360  28.048  1.00  0.00    -0.206 F 
ATOM     80  C   UNL A   1      52.084  25.838  25.109  1.00  0.00     0.022 A 
BRANCH  77  81
ATOM     81  S   UNL A   1      51.710  27.104  22.652  1.00  0.00     0.124 S 
ATOM     82  O   UNL A   1      50.486  26.805  21.919  1.00  0.00    -0.237 OA
ATOM     83  O   UNL A   1      52.045  28.517  22.795  1.00  0.00    -0.237 OA
ATOM     84  O   UNL A   1      52.842  26.224  22.366  1.00  0.00    -0.744 OA
ENDBRANCH  77  81
ENDBRANCH  50  74
BRANCH  62  85
ATOM     85  C   UNL A   1      46.828  32.599  28.514  1.00  0.00     0.023 A 
ATOM     86  C   UNL A   1      46.909  33.595  27.526  1.00  0.00     0.031 A 
ATOM     87  C   UNL A   1      47.333  32.895  29.794  1.00  0.00     0.131 A 
ATOM     88  C   UNL A   1      47.525  34.820  27.818  1.00  0.00     0.055 A 
ATOM     89  C   UNL A   1      47.888  34.139  30.096  1.00  0.00     0.041 A 
ATOM     90  F   UNL A   1      47.286  31.980  30.775  1.00  0.00    -0.206 F 
ATOM     91  C   UNL A   1      47.998  35.106  29.102  1.00  0.00     0.022 A 
BRANCH  88  92
ATOM     92  S   UNL A   1      47.781  36.011  26.473  1.00  0.00     0.124 S 
ATOM     93  O   UNL A   1      46.427  36.496  26.236  1.00  0.00    -0.237 OA
ATOM     94  O   UNL A   1      48.706  36.967  27.074  1.00  0.00    -0.237 OA
ATOM     95  O   UNL A   1      48.346  35.197  25.398  1.00  0.00    -0.744 OA
ENDBRANCH  88  92
ENDBRANCH  62  85
ENDBRANCH  36  37
ENDBRANCH  28  31
ENDBRANCH  26  27
ENDBRANCH  25  26
ENDBRANCH   1  25
TORSDOF 18
ENDMDL
