MODEL 1
REMARK VINA RESULT:     -12.3      0.000      0.000
REMARK SMILES Cc1ncccc1NC(=O)Nc1ccc(C(=O)NCCCNC(=O)c2ccc(-c3c4nc(c(-c5cc(S(=O)(=O)[O-])ccc5F)c5ccc([nH]5)c(-c5cc(S(=O)(=O)[O-])ccc5F)c5nc(c(-c6cc(S(=O)(=O)[O-])ccc6F)c6ccc3[nH]6)C=C5)C=C4)cc2)c(O)c1
REMARK SMILES IDX 20 1 19 2 18 3 16 4 17 5 15 7 12 8 13 9 90 10 14 11 88 12
REMARK SMILES IDX 11 13 8 14 9 15 10 17 7 19 1 20 2 21 3 22 4 23 6 24 5 25
REMARK SMILES IDX 89 26 21 28 22 29 23 30 24 32 25 33 26 34 87 35 27 36 86 37
REMARK SMILES IDX 28 38 29 39 30 40 80 41 31 42 85 43 79 44 81 45 32 46 84 47
REMARK SMILES IDX 78 48 77 49 33 51 65 52 45 53 64 54 46 55 49 56 63 57 82 58
REMARK SMILES IDX 47 59 48 60 62 62 83 63 50 64 34 65 35 66 43 67 36 68 42 69
REMARK SMILES IDX 44 70 41 71 37 72 38 73 39 74 40 75 66 76 67 77 75 78 68 79
REMARK SMILES IDX 74 80 76 81 73 82 69 83 70 84 71 85 72 86 51 87 52 88 60 89
REMARK SMILES IDX 53 90 59 91 61 92 58 93 54 94 55 95 56 96 57 97
REMARK H PARENT 18 6 8 16 11 18 89 27 22 31 81 50 49 61
REMARK Flexibility Score: inf
ROOT
ATOM      1  C   UNL A   1      35.335  21.482  25.983  1.00  0.00     0.042 C 
ENDROOT
BRANCH   1   2
ATOM      2  C   UNL A   1      34.117  22.383  26.131  1.00  0.00     0.118 C 
BRANCH   2   3
ATOM      3  N   UNL A   1      33.540  22.873  24.885  1.00  0.00    -0.352 N 
ATOM      4  C   UNL A   1      33.056  24.114  24.532  1.00  0.00     0.255 C 
ATOM      5  O   UNL A   1      32.683  24.282  23.371  1.00  0.00    -0.269 OA
ATOM      6  H   UNL A   1      33.488  22.198  24.170  1.00  0.00     0.163 HD
BRANCH   4   7
ATOM      7  C   UNL A   1      32.867  25.214  25.515  1.00  0.00     0.081 A 
ATOM      8  C   UNL A   1      32.494  27.708  26.721  1.00  0.00     0.046 A 
ATOM      9  C   UNL A   1      33.764  27.342  26.280  1.00  0.00     0.027 A 
ATOM     10  C   UNL A   1      31.500  26.730  26.815  1.00  0.00     0.073 A 
ATOM     11  C   UNL A   1      33.942  26.106  25.652  1.00  0.00     0.020 A 
ATOM     12  C   UNL A   1      31.701  25.477  26.233  1.00  0.00     0.130 A 
BRANCH   8  13
ATOM     13  N   UNL A   1      32.132  29.033  27.003  1.00  0.00    -0.308 N 
ATOM     14  N   UNL A   1      31.907  30.138  24.885  1.00  0.00    -0.306 N 
ATOM     15  C   UNL A   1      32.057  30.142  26.231  1.00  0.00     0.323 C 
ATOM     16  H   UNL A   1      32.176  30.989  24.468  1.00  0.00     0.171 HD
ATOM     17  O   UNL A   1      32.122  31.242  26.791  1.00  0.00    -0.248 OA
ATOM     18  H   UNL A   1      31.884  29.187  27.944  1.00  0.00     0.171 HD
BRANCH  14  19
ATOM     19  C   UNL A   1      31.453  29.186  23.943  1.00  0.00     0.064 A 
ATOM     20  C   UNL A   1      33.788  28.889  22.917  1.00  0.00     0.069 C 
ATOM     21  C   UNL A   1      32.359  28.484  23.129  1.00  0.00     0.061 A 
ATOM     22  N   UNL A   1      31.996  27.392  22.401  1.00  0.00    -0.259 NA
ATOM     23  C   UNL A   1      30.698  27.028  22.410  1.00  0.00     0.111 A 
ATOM     24  C   UNL A   1      30.102  28.875  23.784  1.00  0.00     0.030 A 
ATOM     25  C   UNL A   1      29.715  27.763  23.037  1.00  0.00     0.022 A 
ENDBRANCH  14  19
ENDBRANCH   8  13
BRANCH  12  26
ATOM     26  O   UNL A   1      30.688  24.576  26.401  1.00  0.00    -0.507 OA
ATOM     27  H   UNL A   1      30.807  23.837  26.964  1.00  0.00     0.293 HD
ENDBRANCH  12  26
ENDBRANCH   4   7
ENDBRANCH   2   3
ENDBRANCH   1   2
BRANCH   1  28
ATOM     28  C   UNL A   1      36.673  22.175  25.762  1.00  0.00     0.118 C 
BRANCH  28  29
ATOM     29  N   UNL A   1      37.826  21.291  25.842  1.00  0.00    -0.352 N 
ATOM     30  C   UNL A   1      39.138  21.513  26.200  1.00  0.00     0.251 C 
ATOM     31  H   UNL A   1      37.632  20.359  25.595  1.00  0.00     0.163 HD
ATOM     32  O   UNL A   1      39.937  20.591  26.074  1.00  0.00    -0.269 OA
BRANCH  30  33
ATOM     33  C   UNL A   1      39.610  22.837  26.686  1.00  0.00     0.039 A 
ATOM     34  C   UNL A   1      40.559  22.874  27.714  1.00  0.00     0.014 A 
ATOM     35  C   UNL A   1      39.113  24.038  26.181  1.00  0.00     0.014 A 
ATOM     36  C   UNL A   1      41.057  24.101  28.169  1.00  0.00     0.010 A 
ATOM     37  C   UNL A   1      39.695  25.250  26.548  1.00  0.00     0.010 A 
ATOM     38  C   UNL A   1      40.663  25.303  27.560  1.00  0.00    -0.014 A 
BRANCH  38  39
ATOM     39  C   UNL A   1      41.217  26.616  27.997  1.00  0.00     0.031 A 
ATOM     40  C   UNL A   1      42.660  26.963  27.714  1.00  0.00     0.074 A 
ATOM     41  C   UNL A   1      40.442  27.484  28.681  1.00  0.00     0.049 A 
ATOM     42  N   UNL A   1      43.342  28.025  28.060  1.00  0.00    -0.248 NA
ATOM     43  C   UNL A   1      43.448  25.965  26.974  1.00  0.00     0.031 C 
ATOM     44  C   UNL A   1      39.046  27.253  29.062  1.00  0.00     0.029 A 
ATOM     45  N   UNL A   1      40.712  28.736  29.178  1.00  0.00    -0.354 N 
ATOM     46  C   UNL A   1      44.634  27.821  27.583  1.00  0.00     0.074 A 
ATOM     47  C   UNL A   1      44.661  26.493  27.010  1.00  0.00     0.031 C 
ATOM     48  C   UNL A   1      38.573  28.341  29.691  1.00  0.00     0.029 A 
ATOM     49  C   UNL A   1      39.641  29.330  29.806  1.00  0.00     0.049 A 
ATOM     50  H   UNL A   1      41.592  29.169  29.092  1.00  0.00     0.167 HD
ATOM     51  C   UNL A   1      45.690  28.672  27.581  1.00  0.00     0.034 A 
ATOM     52  C   UNL A   1      39.530  30.531  30.408  1.00  0.00     0.034 A 
ATOM     53  C   UNL A   1      45.650  29.999  28.142  1.00  0.00     0.049 A 
ATOM     54  C   UNL A   1      40.732  31.446  30.428  1.00  0.00     0.074 A 
ATOM     55  C   UNL A   1      46.651  30.955  28.173  1.00  0.00     0.029 A 
ATOM     56  N   UNL A   1      44.547  30.563  28.771  1.00  0.00    -0.354 N 
ATOM     57  N   UNL A   1      41.931  31.250  29.928  1.00  0.00    -0.248 NA
ATOM     58  C   UNL A   1      40.558  32.752  31.076  1.00  0.00     0.031 C 
ATOM     59  C   UNL A   1      46.176  32.068  28.874  1.00  0.00     0.029 A 
ATOM     60  C   UNL A   1      44.852  31.842  29.211  1.00  0.00     0.049 A 
ATOM     61  H   UNL A   1      43.676  30.119  28.887  1.00  0.00     0.167 HD
ATOM     62  C   UNL A   1      42.638  32.426  30.170  1.00  0.00     0.074 A 
ATOM     63  C   UNL A   1      41.723  33.330  30.834  1.00  0.00     0.031 C 
ATOM     64  C   UNL A   1      43.929  32.731  29.875  1.00  0.00     0.034 A 
BRANCH  51  65
ATOM     65  C   UNL A   1      46.974  28.182  26.950  1.00  0.00     0.023 A 
ATOM     66  C   UNL A   1      47.172  28.235  25.559  1.00  0.00     0.031 A 
ATOM     67  C   UNL A   1      48.001  27.634  27.738  1.00  0.00     0.131 A 
ATOM     68  C   UNL A   1      48.326  27.674  24.992  1.00  0.00     0.055 A 
ATOM     69  C   UNL A   1      49.188  27.160  27.175  1.00  0.00     0.041 A 
ATOM     70  F   UNL A   1      47.864  27.536  29.070  1.00  0.00    -0.206 F 
ATOM     71  C   UNL A   1      49.349  27.162  25.792  1.00  0.00     0.022 A 
BRANCH  68  72
ATOM     72  S   UNL A   1      48.399  27.488  23.189  1.00  0.00     0.124 S 
ATOM     73  O   UNL A   1      48.332  26.036  23.042  1.00  0.00    -0.237 OA
ATOM     74  O   UNL A   1      47.225  28.229  22.747  1.00  0.00    -0.237 OA
ATOM     75  O   UNL A   1      49.685  28.085  22.835  1.00  0.00    -0.744 OA
ENDBRANCH  68  72
ENDBRANCH  51  65
BRANCH  52  76
ATOM     76  C   UNL A   1      38.250  30.955  31.051  1.00  0.00     0.023 A 
ATOM     77  C   UNL A   1      37.239  31.580  30.303  1.00  0.00     0.031 A 
ATOM     78  C   UNL A   1      38.050  30.819  32.436  1.00  0.00     0.131 A 
ATOM     79  C   UNL A   1      36.111  32.110  30.949  1.00  0.00     0.055 A 
ATOM     80  C   UNL A   1      36.894  31.286  33.066  1.00  0.00     0.041 A 
ATOM     81  F   UNL A   1      38.980  30.228  33.203  1.00  0.00    -0.206 F 
ATOM     82  C   UNL A   1      35.925  31.955  32.325  1.00  0.00     0.022 A 
BRANCH  79  83
ATOM     83  S   UNL A   1      34.955  33.123  29.985  1.00  0.00     0.124 S 
ATOM     84  O   UNL A   1      35.850  34.111  29.394  1.00  0.00    -0.237 OA
ATOM     85  O   UNL A   1      34.386  32.141  29.068  1.00  0.00    -0.237 OA
ATOM     86  O   UNL A   1      34.033  33.639  30.995  1.00  0.00    -0.744 OA
ENDBRANCH  79  83
ENDBRANCH  52  76
BRANCH  64  87
ATOM     87  C   UNL A   1      44.398  34.123  30.226  1.00  0.00     0.023 A 
ATOM     88  C   UNL A   1      44.236  35.205  29.343  1.00  0.00     0.031 A 
ATOM     89  C   UNL A   1      45.046  34.364  31.451  1.00  0.00     0.131 A 
ATOM     90  C   UNL A   1      44.784  36.457  29.661  1.00  0.00     0.055 A 
ATOM     91  C   UNL A   1      45.524  35.630  31.795  1.00  0.00     0.041 A 
ATOM     92  F   UNL A   1      45.231  33.370  32.334  1.00  0.00    -0.206 F 
ATOM     93  C   UNL A   1      45.410  36.681  30.889  1.00  0.00     0.022 A 
BRANCH  90  94
ATOM     94  S   UNL A   1      44.774  37.755  28.394  1.00  0.00     0.124 S 
ATOM     95  O   UNL A   1      44.759  38.969  29.204  1.00  0.00    -0.237 OA
ATOM     96  O   UNL A   1      46.012  37.489  27.667  1.00  0.00    -0.237 OA
ATOM     97  O   UNL A   1      43.547  37.493  27.645  1.00  0.00    -0.744 OA
ENDBRANCH  90  94
ENDBRANCH  64  87
ENDBRANCH  38  39
ENDBRANCH  30  33
ENDBRANCH  28  29
ENDBRANCH   1  28
TORSDOF 16
ENDMDL
MODEL 2
REMARK VINA RESULT:     -12.3      4.919     10.274
REMARK SMILES Cc1ncccc1NC(=O)Nc1ccc(C(=O)NCCCNC(=O)c2ccc(-c3c4nc(c(-c5cc(S(=O)(=O)[O-])ccc5F)c5ccc([nH]5)c(-c5cc(S(=O)(=O)[O-])ccc5F)c5nc(c(-c6cc(S(=O)(=O)[O-])ccc6F)c6ccc3[nH]6)C=C5)C=C4)cc2)c(O)c1
REMARK SMILES IDX 20 1 19 2 18 3 16 4 17 5 15 7 12 8 13 9 90 10 14 11 88 12
REMARK SMILES IDX 11 13 8 14 9 15 10 17 7 19 1 20 2 21 3 22 4 23 6 24 5 25
REMARK SMILES IDX 89 26 21 28 22 29 23 30 24 32 25 33 26 34 87 35 27 36 86 37
REMARK SMILES IDX 28 38 29 39 30 40 80 41 31 42 85 43 79 44 81 45 32 46 84 47
REMARK SMILES IDX 78 48 77 49 33 51 65 52 45 53 64 54 46 55 49 56 63 57 82 58
REMARK SMILES IDX 47 59 48 60 62 62 83 63 50 64 34 65 35 66 43 67 36 68 42 69
REMARK SMILES IDX 44 70 41 71 37 72 38 73 39 74 40 75 66 76 67 77 75 78 68 79
REMARK SMILES IDX 74 80 76 81 73 82 69 83 70 84 71 85 72 86 51 87 52 88 60 89
REMARK SMILES IDX 53 90 59 91 61 92 58 93 54 94 55 95 56 96 57 97
REMARK H PARENT 18 6 8 16 11 18 89 27 22 31 81 50 49 61
REMARK Flexibility Score: inf
ROOT
ATOM      1  C   UNL A   1      31.361  31.682  26.465  1.00  0.00     0.042 C 
ENDROOT
BRANCH   1   2
ATOM      2  C   UNL A   1      31.391  30.254  25.937  1.00  0.00     0.118 C 
BRANCH   2   3
ATOM      3  N   UNL A   1      32.184  30.044  24.733  1.00  0.00    -0.352 N 
ATOM      4  C   UNL A   1      32.438  28.907  23.998  1.00  0.00     0.255 C 
ATOM      5  O   UNL A   1      33.097  29.020  22.964  1.00  0.00    -0.269 OA
ATOM      6  H   UNL A   1      32.615  30.858  24.384  1.00  0.00     0.163 HD
BRANCH   4   7
ATOM      7  C   UNL A   1      32.045  27.547  24.456  1.00  0.00     0.081 A 
ATOM      8  C   UNL A   1      31.164  25.371  25.973  1.00  0.00     0.046 A 
ATOM      9  C   UNL A   1      32.464  25.842  26.140  1.00  0.00     0.027 A 
ATOM     10  C   UNL A   1      30.423  25.798  24.868  1.00  0.00     0.073 A 
ATOM     11  C   UNL A   1      32.893  26.948  25.400  1.00  0.00     0.020 A 
ATOM     12  C   UNL A   1      30.879  26.870  24.098  1.00  0.00     0.130 A 
BRANCH   8  13
ATOM     13  N   UNL A   1      30.522  24.545  26.907  1.00  0.00    -0.308 N 
ATOM     14  N   UNL A   1      30.934  22.286  26.208  1.00  0.00    -0.306 N 
ATOM     15  C   UNL A   1      30.255  23.217  26.919  1.00  0.00     0.323 C 
ATOM     16  H   UNL A   1      30.429  21.448  26.096  1.00  0.00     0.171 HD
ATOM     17  O   UNL A   1      29.329  22.821  27.636  1.00  0.00    -0.248 OA
ATOM     18  H   UNL A   1      30.203  25.021  27.708  1.00  0.00     0.171 HD
BRANCH  14  19
ATOM     19  C   UNL A   1      32.204  22.247  25.587  1.00  0.00     0.064 A 
ATOM     20  C   UNL A   1      33.450  22.246  27.832  1.00  0.00     0.069 C 
ATOM     21  C   UNL A   1      33.374  22.068  26.345  1.00  0.00     0.061 A 
ATOM     22  N   UNL A   1      34.576  21.771  25.777  1.00  0.00    -0.259 NA
ATOM     23  C   UNL A   1      34.647  21.727  24.432  1.00  0.00     0.111 A 
ATOM     24  C   UNL A   1      32.367  22.360  24.206  1.00  0.00     0.030 A 
ATOM     25  C   UNL A   1      33.593  22.065  23.611  1.00  0.00     0.022 A 
ENDBRANCH  14  19
ENDBRANCH   8  13
BRANCH  12  26
ATOM     26  O   UNL A   1      30.106  27.198  23.020  1.00  0.00    -0.507 OA
ATOM     27  H   UNL A   1      30.193  26.721  22.219  1.00  0.00     0.293 HD
ENDBRANCH  12  26
ENDBRANCH   4   7
ENDBRANCH   2   3
ENDBRANCH   1   2
BRANCH   1  28
ATOM     28  C   UNL A   1      32.695  32.276  26.901  1.00  0.00     0.118 C 
BRANCH  28  29
ATOM     29  N   UNL A   1      32.595  33.597  27.500  1.00  0.00    -0.352 N 
ATOM     30  C   UNL A   1      33.331  34.226  28.481  1.00  0.00     0.251 C 
ATOM     31  H   UNL A   1      31.865  34.147  27.135  1.00  0.00     0.163 HD
ATOM     32  O   UNL A   1      32.954  35.325  28.873  1.00  0.00    -0.269 OA
BRANCH  30  33
ATOM     33  C   UNL A   1      34.528  33.593  29.096  1.00  0.00     0.039 A 
ATOM     34  C   UNL A   1      34.338  32.571  30.035  1.00  0.00     0.014 A 
ATOM     35  C   UNL A   1      35.826  34.006  28.800  1.00  0.00     0.014 A 
ATOM     36  C   UNL A   1      35.441  31.924  30.604  1.00  0.00     0.010 A 
ATOM     37  C   UNL A   1      36.920  33.282  29.273  1.00  0.00     0.010 A 
ATOM     38  C   UNL A   1      36.746  32.242  30.196  1.00  0.00    -0.014 A 
BRANCH  38  39
ATOM     39  C   UNL A   1      37.932  31.532  30.754  1.00  0.00     0.031 A 
ATOM     40  C   UNL A   1      38.418  31.847  32.148  1.00  0.00     0.074 A 
ATOM     41  C   UNL A   1      38.598  30.631  30.000  1.00  0.00     0.049 A 
ATOM     42  N   UNL A   1      39.460  31.381  32.791  1.00  0.00    -0.248 NA
ATOM     43  C   UNL A   1      37.650  32.847  32.907  1.00  0.00     0.031 C 
ATOM     44  C   UNL A   1      38.262  30.269  28.621  1.00  0.00     0.029 A 
ATOM     45  N   UNL A   1      39.694  29.853  30.284  1.00  0.00    -0.354 N 
ATOM     46  C   UNL A   1      39.472  32.031  34.021  1.00  0.00     0.074 A 
ATOM     47  C   UNL A   1      38.390  32.991  33.996  1.00  0.00     0.031 C 
ATOM     48  C   UNL A   1      39.104  29.312  28.197  1.00  0.00     0.029 A 
ATOM     49  C   UNL A   1      40.072  29.026  29.251  1.00  0.00     0.049 A 
ATOM     50  H   UNL A   1      40.167  29.885  31.147  1.00  0.00     0.167 HD
ATOM     51  C   UNL A   1      40.277  31.820  35.093  1.00  0.00     0.034 A 
ATOM     52  C   UNL A   1      41.084  28.139  29.160  1.00  0.00     0.034 A 
ATOM     53  C   UNL A   1      41.343  30.851  35.114  1.00  0.00     0.049 A 
ATOM     54  C   UNL A   1      41.992  27.951  30.353  1.00  0.00     0.074 A 
ATOM     55  C   UNL A   1      42.204  30.537  36.152  1.00  0.00     0.029 A 
ATOM     56  N   UNL A   1      41.696  30.033  34.048  1.00  0.00    -0.354 N 
ATOM     57  N   UNL A   1      41.955  28.543  31.525  1.00  0.00    -0.248 NA
ATOM     58  C   UNL A   1      43.067  26.960  30.215  1.00  0.00     0.031 C 
ATOM     59  C   UNL A   1      43.114  29.579  35.694  1.00  0.00     0.029 A 
ATOM     60  C   UNL A   1      42.773  29.234  34.397  1.00  0.00     0.049 A 
ATOM     61  H   UNL A   1      41.245  30.023  33.172  1.00  0.00     0.167 HD
ATOM     62  C   UNL A   1      42.978  27.965  32.273  1.00  0.00     0.074 A 
ATOM     63  C   UNL A   1      43.592  26.962  31.429  1.00  0.00     0.031 C 
ATOM     64  C   UNL A   1      43.378  28.239  33.543  1.00  0.00     0.034 A 
BRANCH  51  65
ATOM     65  C   UNL A   1      40.027  32.661  36.324  1.00  0.00     0.023 A 
ATOM     66  C   UNL A   1      39.125  32.248  37.321  1.00  0.00     0.031 A 
ATOM     67  C   UNL A   1      40.672  33.899  36.496  1.00  0.00     0.131 A 
ATOM     68  C   UNL A   1      38.831  33.098  38.398  1.00  0.00     0.055 A 
ATOM     69  C   UNL A   1      40.442  34.699  37.617  1.00  0.00     0.041 A 
ATOM     70  F   UNL A   1      41.528  34.359  35.569  1.00  0.00    -0.206 F 
ATOM     71  C   UNL A   1      39.504  34.309  38.568  1.00  0.00     0.022 A 
BRANCH  68  72
ATOM     72  S   UNL A   1      37.446  32.664  39.486  1.00  0.00     0.124 S 
ATOM     73  O   UNL A   1      36.311  32.768  38.571  1.00  0.00    -0.237 OA
ATOM     74  O   UNL A   1      37.795  31.317  39.920  1.00  0.00    -0.237 OA
ATOM     75  O   UNL A   1      37.495  33.689  40.527  1.00  0.00    -0.744 OA
ENDBRANCH  68  72
ENDBRANCH  51  65
BRANCH  52  76
ATOM     76  C   UNL A   1      41.314  27.358  27.908  1.00  0.00     0.023 A 
ATOM     77  C   UNL A   1      41.025  25.985  27.850  1.00  0.00     0.031 A 
ATOM     78  C   UNL A   1      41.902  27.951  26.776  1.00  0.00     0.131 A 
ATOM     79  C   UNL A   1      41.390  25.236  26.720  1.00  0.00     0.055 A 
ATOM     80  C   UNL A   1      42.200  27.216  25.627  1.00  0.00     0.041 A 
ATOM     81  F   UNL A   1      42.199  29.260  26.772  1.00  0.00    -0.206 F 
ATOM     82  C   UNL A   1      41.964  25.845  25.602  1.00  0.00     0.022 A 
BRANCH  79  83
ATOM     83  S   UNL A   1      41.227  23.430  26.786  1.00  0.00     0.124 S 
ATOM     84  O   UNL A   1      42.154  23.011  25.741  1.00  0.00    -0.237 OA
ATOM     85  O   UNL A   1      41.632  23.141  28.158  1.00  0.00    -0.237 OA
ATOM     86  O   UNL A   1      39.813  23.207  26.494  1.00  0.00    -0.744 OA
ENDBRANCH  79  83
ENDBRANCH  52  76
BRANCH  64  87
ATOM     87  C   UNL A   1      44.501  27.398  34.101  1.00  0.00     0.023 A 
ATOM     88  C   UNL A   1      44.262  26.158  34.720  1.00  0.00     0.031 A 
ATOM     89  C   UNL A   1      45.829  27.860  34.041  1.00  0.00     0.131 A 
ATOM     90  C   UNL A   1      45.320  25.461  35.322  1.00  0.00     0.055 A 
ATOM     91  C   UNL A   1      46.888  27.126  34.578  1.00  0.00     0.041 A 
ATOM     92  F   UNL A   1      46.118  29.037  33.465  1.00  0.00    -0.206 F 
ATOM     93  C   UNL A   1      46.633  25.928  35.239  1.00  0.00     0.022 A 
BRANCH  90  94
ATOM     94  S   UNL A   1      44.936  23.998  36.323  1.00  0.00     0.124 S 
ATOM     95  O   UNL A   1      46.205  23.278  36.307  1.00  0.00    -0.237 OA
ATOM     96  O   UNL A   1      44.553  24.587  37.602  1.00  0.00    -0.237 OA
ATOM     97  O   UNL A   1      43.848  23.356  35.587  1.00  0.00    -0.744 OA
ENDBRANCH  90  94
ENDBRANCH  64  87
ENDBRANCH  38  39
ENDBRANCH  30  33
ENDBRANCH  28  29
ENDBRANCH   1  28
TORSDOF 16
ENDMDL
MODEL 3
REMARK VINA RESULT:     -12.3      4.725      9.965
REMARK SMILES Cc1ncccc1NC(=O)Nc1ccc(C(=O)NCCCNC(=O)c2ccc(-c3c4nc(c(-c5cc(S(=O)(=O)[O-])ccc5F)c5ccc([nH]5)c(-c5cc(S(=O)(=O)[O-])ccc5F)c5nc(c(-c6cc(S(=O)(=O)[O-])ccc6F)c6ccc3[nH]6)C=C5)C=C4)cc2)c(O)c1
REMARK SMILES IDX 20 1 19 2 18 3 16 4 17 5 15 7 12 8 13 9 90 10 14 11 88 12
REMARK SMILES IDX 11 13 8 14 9 15 10 17 7 19 1 20 2 21 3 22 4 23 6 24 5 25
REMARK SMILES IDX 89 26 21 28 22 29 23 30 24 32 25 33 26 34 87 35 27 36 86 37
REMARK SMILES IDX 28 38 29 39 30 40 80 41 31 42 85 43 79 44 81 45 32 46 84 47
REMARK SMILES IDX 78 48 77 49 33 51 65 52 45 53 64 54 46 55 49 56 63 57 82 58
REMARK SMILES IDX 47 59 48 60 62 62 83 63 50 64 34 65 35 66 43 67 36 68 42 69
REMARK SMILES IDX 44 70 41 71 37 72 38 73 39 74 40 75 66 76 67 77 75 78 68 79
REMARK SMILES IDX 74 80 76 81 73 82 69 83 70 84 71 85 72 86 51 87 52 88 60 89
REMARK SMILES IDX 53 90 59 91 61 92 58 93 54 94 55 95 56 96 57 97
REMARK H PARENT 18 6 8 16 11 18 89 27 22 31 81 50 49 61
REMARK Flexibility Score: inf
ROOT
ATOM      1  C   UNL A   1      33.174  29.035  24.082  1.00  0.00     0.042 C 
ENDROOT
BRANCH   1   2
ATOM      2  C   UNL A   1      32.707  27.774  23.368  1.00  0.00     0.118 C 
BRANCH   2   3
ATOM      3  N   UNL A   1      32.037  26.787  24.206  1.00  0.00    -0.352 N 
ATOM      4  C   UNL A   1      32.480  25.599  24.745  1.00  0.00     0.255 C 
ATOM      5  O   UNL A   1      31.719  24.979  25.488  1.00  0.00    -0.269 OA
ATOM      6  H   UNL A   1      31.103  27.009  24.425  1.00  0.00     0.163 HD
BRANCH   4   7
ATOM      7  C   UNL A   1      33.787  24.988  24.381  1.00  0.00     0.081 A 
ATOM      8  C   UNL A   1      36.009  23.303  24.198  1.00  0.00     0.046 A 
ATOM      9  C   UNL A   1      35.892  24.168  25.283  1.00  0.00     0.027 A 
ATOM     10  C   UNL A   1      35.178  23.486  23.090  1.00  0.00     0.073 A 
ATOM     11  C   UNL A   1      34.767  24.991  25.386  1.00  0.00     0.020 A 
ATOM     12  C   UNL A   1      34.083  24.348  23.178  1.00  0.00     0.130 A 
BRANCH   8  13
ATOM     13  N   UNL A   1      36.869  22.195  24.189  1.00  0.00    -0.308 N 
ATOM     14  N   UNL A   1      35.804  20.501  25.515  1.00  0.00    -0.306 N 
ATOM     15  C   UNL A   1      36.883  21.045  24.905  1.00  0.00     0.323 C 
ATOM     16  H   UNL A   1      36.047  19.861  26.222  1.00  0.00     0.171 HD
ATOM     17  O   UNL A   1      37.957  20.441  25.006  1.00  0.00    -0.248 OA
ATOM     18  H   UNL A   1      37.604  22.266  23.538  1.00  0.00     0.171 HD
BRANCH  14  19
ATOM     19  C   UNL A   1      34.405  20.647  25.365  1.00  0.00     0.064 A 
ATOM     20  C   UNL A   1      34.151  21.836  27.626  1.00  0.00     0.069 C 
ATOM     21  C   UNL A   1      33.655  21.410  26.276  1.00  0.00     0.061 A 
ATOM     22  N   UNL A   1      32.368  21.786  26.033  1.00  0.00    -0.259 NA
ATOM     23  C   UNL A   1      31.779  21.334  24.908  1.00  0.00     0.111 A 
ATOM     24  C   UNL A   1      33.700  20.069  24.308  1.00  0.00     0.030 A 
ATOM     25  C   UNL A   1      32.381  20.439  24.051  1.00  0.00     0.022 A 
ENDBRANCH  14  19
ENDBRANCH   8  13
BRANCH  12  26
ATOM     26  O   UNL A   1      33.345  24.488  22.037  1.00  0.00    -0.507 OA
ATOM     27  H   UNL A   1      32.654  23.885  21.850  1.00  0.00     0.293 HD
ENDBRANCH  12  26
ENDBRANCH   4   7
ENDBRANCH   2   3
ENDBRANCH   1   2
BRANCH   1  28
ATOM     28  C   UNL A   1      32.859  29.133  25.569  1.00  0.00     0.118 C 
BRANCH  28  29
ATOM     29  N   UNL A   1      32.593  30.484  26.037  1.00  0.00    -0.352 N 
ATOM     30  C   UNL A   1      33.237  31.290  26.952  1.00  0.00     0.251 C 
ATOM     31  H   UNL A   1      31.805  30.903  25.623  1.00  0.00     0.163 HD
ATOM     32  O   UNL A   1      32.725  32.368  27.236  1.00  0.00    -0.269 OA
BRANCH  30  33
ATOM     33  C   UNL A   1      34.496  30.871  27.623  1.00  0.00     0.039 A 
ATOM     34  C   UNL A   1      35.488  31.833  27.849  1.00  0.00     0.014 A 
ATOM     35  C   UNL A   1      34.737  29.551  27.999  1.00  0.00     0.014 A 
ATOM     36  C   UNL A   1      36.669  31.484  28.515  1.00  0.00     0.010 A 
ATOM     37  C   UNL A   1      35.856  29.230  28.767  1.00  0.00     0.010 A 
ATOM     38  C   UNL A   1      36.847  30.187  29.022  1.00  0.00    -0.014 A 
BRANCH  38  39
ATOM     39  C   UNL A   1      38.076  29.808  29.776  1.00  0.00     0.031 A 
ATOM     40  C   UNL A   1      38.330  30.381  31.150  1.00  0.00     0.074 A 
ATOM     41  C   UNL A   1      38.985  28.981  29.217  1.00  0.00     0.049 A 
ATOM     42  N   UNL A   1      39.361  30.220  31.940  1.00  0.00    -0.248 NA
ATOM     43  C   UNL A   1      37.302  31.284  31.692  1.00  0.00     0.031 C 
ATOM     44  C   UNL A   1      38.886  28.396  27.878  1.00  0.00     0.029 A 
ATOM     45  N   UNL A   1      40.172  28.486  29.702  1.00  0.00    -0.354 N 
ATOM     46  C   UNL A   1      39.107  31.000  33.064  1.00  0.00     0.074 A 
ATOM     47  C   UNL A   1      37.870  31.706  32.810  1.00  0.00     0.031 C 
ATOM     48  C   UNL A   1      39.939  27.590  27.667  1.00  0.00     0.029 A 
ATOM     49  C   UNL A   1      40.818  27.637  28.832  1.00  0.00     0.049 A 
ATOM     50  H   UNL A   1      40.527  28.718  30.590  1.00  0.00     0.167 HD
ATOM     51  C   UNL A   1      39.810  31.089  34.221  1.00  0.00     0.034 A 
ATOM     52  C   UNL A   1      41.986  26.974  28.955  1.00  0.00     0.034 A 
ATOM     53  C   UNL A   1      41.034  30.370  34.472  1.00  0.00     0.049 A 
ATOM     54  C   UNL A   1      42.770  27.121  30.237  1.00  0.00     0.074 A 
ATOM     55  C   UNL A   1      41.815  30.367  35.615  1.00  0.00     0.029 A 
ATOM     56  N   UNL A   1      41.657  29.522  33.565  1.00  0.00    -0.354 N 
ATOM     57  N   UNL A   1      42.486  27.828  31.308  1.00  0.00    -0.248 NA
ATOM     58  C   UNL A   1      44.025  26.364  30.335  1.00  0.00     0.031 C 
ATOM     59  C   UNL A   1      42.939  29.570  35.377  1.00  0.00     0.029 A 
ATOM     60  C   UNL A   1      42.822  29.010  34.116  1.00  0.00     0.049 A 
ATOM     61  H   UNL A   1      41.320  29.316  32.663  1.00  0.00     0.167 HD
ATOM     62  C   UNL A   1      43.509  27.567  32.216  1.00  0.00     0.074 A 
ATOM     63  C   UNL A   1      44.398  26.620  31.578  1.00  0.00     0.031 C 
ATOM     64  C   UNL A   1      43.700  28.067  33.465  1.00  0.00     0.034 A 
BRANCH  51  65
ATOM     65  C   UNL A   1      39.263  32.001  35.296  1.00  0.00     0.023 A 
ATOM     66  C   UNL A   1      39.675  33.342  35.397  1.00  0.00     0.031 A 
ATOM     67  C   UNL A   1      38.341  31.525  36.245  1.00  0.00     0.131 A 
ATOM     68  C   UNL A   1      39.235  34.133  36.469  1.00  0.00     0.055 A 
ATOM     69  C   UNL A   1      37.837  32.346  37.257  1.00  0.00     0.041 A 
ATOM     70  F   UNL A   1      37.925  30.249  36.216  1.00  0.00    -0.206 F 
ATOM     71  C   UNL A   1      38.296  33.653  37.384  1.00  0.00     0.022 A 
BRANCH  68  72
ATOM     72  S   UNL A   1      40.024  35.745  36.732  1.00  0.00     0.124 S 
ATOM     73  O   UNL A   1      39.653  36.456  35.510  1.00  0.00    -0.237 OA
ATOM     74  O   UNL A   1      39.391  36.211  37.959  1.00  0.00    -0.237 OA
ATOM     75  O   UNL A   1      41.443  35.416  36.847  1.00  0.00    -0.744 OA
ENDBRANCH  68  72
ENDBRANCH  51  65
BRANCH  52  76
ATOM     76  C   UNL A   1      42.503  26.114  27.849  1.00  0.00     0.023 A 
ATOM     77  C   UNL A   1      41.983  24.828  27.631  1.00  0.00     0.031 A 
ATOM     78  C   UNL A   1      43.581  26.529  27.046  1.00  0.00     0.131 A 
ATOM     79  C   UNL A   1      42.585  23.977  26.691  1.00  0.00     0.055 A 
ATOM     80  C   UNL A   1      44.132  25.704  26.063  1.00  0.00     0.041 A 
ATOM     81  F   UNL A   1      44.118  27.749  27.207  1.00  0.00    -0.206 F 
ATOM     82  C   UNL A   1      43.647  24.411  25.895  1.00  0.00     0.022 A 
BRANCH  79  83
ATOM     83  S   UNL A   1      42.043  22.246  26.617  1.00  0.00     0.124 S 
ATOM     84  O   UNL A   1      40.592  22.391  26.603  1.00  0.00    -0.237 OA
ATOM     85  O   UNL A   1      42.655  21.792  25.373  1.00  0.00    -0.237 OA
ATOM     86  O   UNL A   1      42.602  21.664  27.835  1.00  0.00    -0.744 OA
ENDBRANCH  79  83
ENDBRANCH  52  76
BRANCH  64  87
ATOM     87  C   UNL A   1      44.894  27.549  34.232  1.00  0.00     0.023 A 
ATOM     88  C   UNL A   1      44.815  26.401  35.039  1.00  0.00     0.031 A 
ATOM     89  C   UNL A   1      46.122  28.234  34.179  1.00  0.00     0.131 A 
ATOM     90  C   UNL A   1      45.915  26.016  35.820  1.00  0.00     0.055 A 
ATOM     91  C   UNL A   1      47.236  27.804  34.902  1.00  0.00     0.041 A 
ATOM     92  F   UNL A   1      46.257  29.337  33.427  1.00  0.00    -0.206 F 
ATOM     93  C   UNL A   1      47.130  26.700  35.743  1.00  0.00     0.022 A 
BRANCH  90  94
ATOM     94  S   UNL A   1      45.695  24.685  37.032  1.00  0.00     0.124 S 
ATOM     95  O   UNL A   1      44.801  23.774  36.324  1.00  0.00    -0.237 OA
ATOM     96  O   UNL A   1      47.062  24.212  37.227  1.00  0.00    -0.237 OA
ATOM     97  O   UNL A   1      45.105  25.364  38.184  1.00  0.00    -0.744 OA
ENDBRANCH  90  94
ENDBRANCH  64  87
ENDBRANCH  38  39
ENDBRANCH  30  33
ENDBRANCH  28  29
ENDBRANCH   1  28
TORSDOF 16
ENDMDL
