MODEL 1
REMARK VINA RESULT:     -12.7      0.000      0.000
REMARK SMILES Cc1ccc(-c2cccc(F)c2C(=O)NCCCNC(=O)c2ccc(-c3c4nc(c(-c5cc(S(=O)(=O)[O-])ccc5F)c5ccc([nH]5)c(-c5cc(S(=O)(=O)[O-])ccc5F)c5nc(c(-c6cc(S(=O)(=O)[O-])ccc6F)c6ccc3[nH]6)C=C5)C=C4)cc2)c(C)c1
REMARK SMILES IDX 18 1 17 2 16 3 15 4 13 5 14 6 12 8 6 9 7 10 8 11 10 12 9 13
REMARK SMILES IDX 11 14 5 15 1 16 2 17 3 18 87 19 4 20 85 21 86 22 19 23 20 24
REMARK SMILES IDX 21 26 22 27 23 28 84 29 24 30 83 31 25 32 26 33 27 34 77 35
REMARK SMILES IDX 28 36 82 37 76 38 78 39 29 40 81 41 75 42 74 43 30 45 62 46
REMARK SMILES IDX 42 47 61 48 43 49 46 50 60 51 79 52 44 53 45 54 59 56 80 57
REMARK SMILES IDX 47 58 31 59 32 60 40 61 33 62 39 63 41 64 38 65 34 66 35 67
REMARK SMILES IDX 36 68 37 69 63 70 64 71 72 72 65 73 71 74 73 75 70 76 66 77
REMARK SMILES IDX 67 78 68 79 69 80 48 81 49 82 57 83 50 84 56 85 58 86 55 87
REMARK SMILES IDX 51 88 52 89 53 90 54 91
REMARK H PARENT 15 7 19 25 78 44 46 55
REMARK Flexibility Score: inf
ROOT
ATOM      1  C   UNL A   1      32.730  29.142  25.231  1.00  0.00     0.118 C 
ENDROOT
BRANCH   1   2
ATOM      2  C   UNL A   1      33.821  29.252  24.177  1.00  0.00     0.042 C 
BRANCH   2   3
ATOM      3  C   UNL A   1      33.376  29.094  22.731  1.00  0.00     0.118 C 
BRANCH   3   4
ATOM      4  N   UNL A   1      33.680  27.803  22.128  1.00  0.00    -0.352 N 
ATOM      5  C   UNL A   1      33.038  26.582  22.152  1.00  0.00     0.254 C 
ATOM      6  O   UNL A   1      33.395  25.762  21.307  1.00  0.00    -0.269 OA
ATOM      7  H   UNL A   1      34.509  27.801  21.597  1.00  0.00     0.163 HD
BRANCH   5   8
ATOM      8  C   UNL A   1      32.010  26.204  23.167  1.00  0.00     0.083 A 
ATOM      9  C   UNL A   1      32.304  25.256  24.184  1.00  0.00    -0.002 A 
ATOM     10  C   UNL A   1      31.331  25.000  25.181  1.00  0.00     0.010 A 
ATOM     11  C   UNL A   1      30.089  25.627  25.166  1.00  0.00     0.004 A 
ATOM     12  C   UNL A   1      30.710  26.714  23.106  1.00  0.00     0.136 A 
ATOM     13  C   UNL A   1      29.771  26.470  24.111  1.00  0.00     0.040 A 
ATOM     14  F   UNL A   1      30.279  27.396  22.035  1.00  0.00    -0.206 F 
BRANCH   9  15
ATOM     15  C   UNL A   1      33.519  24.415  24.223  1.00  0.00    -0.015 A 
ATOM     16  C   UNL A   1      37.224  22.177  24.484  1.00  0.00     0.044 C 
ATOM     17  C   UNL A   1      35.956  22.971  24.382  1.00  0.00    -0.051 A 
ATOM     18  C   UNL A   1      35.813  24.179  25.061  1.00  0.00     0.004 A 
ATOM     19  C   UNL A   1      34.880  22.491  23.621  1.00  0.00     0.007 A 
ATOM     20  C   UNL A   1      34.613  24.887  24.981  1.00  0.00     0.009 A 
ATOM     21  C   UNL A   1      33.666  23.202  23.523  1.00  0.00    -0.043 A 
ATOM     22  C   UNL A   1      32.562  22.589  22.707  1.00  0.00     0.045 C 
ENDBRANCH   9  15
ENDBRANCH   5   8
ENDBRANCH   3   4
ENDBRANCH   2   3
ENDBRANCH   1   2
BRANCH   1  23
ATOM     23  N   UNL A   1      32.300  30.427  25.763  1.00  0.00    -0.352 N 
ATOM     24  C   UNL A   1      32.806  31.207  26.780  1.00  0.00     0.251 C 
ATOM     25  H   UNL A   1      31.507  30.805  25.319  1.00  0.00     0.163 HD
ATOM     26  O   UNL A   1      32.159  32.177  27.163  1.00  0.00    -0.269 OA
BRANCH  24  27
ATOM     27  C   UNL A   1      34.095  30.876  27.431  1.00  0.00     0.039 A 
ATOM     28  C   UNL A   1      35.026  31.896  27.657  1.00  0.00     0.014 A 
ATOM     29  C   UNL A   1      34.408  29.567  27.798  1.00  0.00     0.014 A 
ATOM     30  C   UNL A   1      36.220  31.615  28.329  1.00  0.00     0.010 A 
ATOM     31  C   UNL A   1      35.544  29.308  28.561  1.00  0.00     0.010 A 
ATOM     32  C   UNL A   1      36.466  30.328  28.833  1.00  0.00    -0.014 A 
BRANCH  32  33
ATOM     33  C   UNL A   1      37.678  30.022  29.638  1.00  0.00     0.031 A 
ATOM     34  C   UNL A   1      38.770  29.159  29.066  1.00  0.00     0.074 A 
ATOM     35  C   UNL A   1      37.770  30.471  30.905  1.00  0.00     0.049 A 
ATOM     36  N   UNL A   1      39.860  28.716  29.639  1.00  0.00    -0.248 NA
ATOM     37  C   UNL A   1      38.598  28.710  27.676  1.00  0.00     0.031 C 
ATOM     38  C   UNL A   1      36.766  31.294  31.584  1.00  0.00     0.029 A 
ATOM     39  N   UNL A   1      38.753  30.307  31.847  1.00  0.00    -0.354 N 
ATOM     40  C   UNL A   1      40.499  27.936  28.682  1.00  0.00     0.074 A 
ATOM     41  C   UNL A   1      39.633  27.900  27.523  1.00  0.00     0.031 C 
ATOM     42  C   UNL A   1      37.212  31.611  32.808  1.00  0.00     0.029 A 
ATOM     43  C   UNL A   1      38.506  30.970  33.025  1.00  0.00     0.049 A 
ATOM     44  H   UNL A   1      39.562  29.767  31.693  1.00  0.00     0.167 HD
ATOM     45  C   UNL A   1      41.713  27.335  28.747  1.00  0.00     0.034 A 
ATOM     46  C   UNL A   1      39.235  31.055  34.156  1.00  0.00     0.034 A 
ATOM     47  C   UNL A   1      42.569  27.384  29.905  1.00  0.00     0.049 A 
ATOM     48  C   UNL A   1      40.549  30.330  34.237  1.00  0.00     0.074 A 
ATOM     49  C   UNL A   1      43.827  26.831  30.069  1.00  0.00     0.029 A 
ATOM     50  N   UNL A   1      42.257  28.023  31.098  1.00  0.00    -0.354 N 
ATOM     51  N   UNL A   1      41.138  29.593  33.325  1.00  0.00    -0.248 NA
ATOM     52  C   UNL A   1      41.295  30.443  35.496  1.00  0.00     0.031 C 
ATOM     53  C   UNL A   1      44.246  27.080  31.380  1.00  0.00     0.029 A 
ATOM     54  C   UNL A   1      43.285  27.853  32.012  1.00  0.00     0.049 A 
ATOM     55  H   UNL A   1      41.426  28.523  31.269  1.00  0.00     0.167 HD
ATOM     56  C   UNL A   1      42.337  29.172  33.891  1.00  0.00     0.074 A 
ATOM     57  C   UNL A   1      42.386  29.736  35.227  1.00  0.00     0.031 C 
ATOM     58  C   UNL A   1      43.312  28.402  33.348  1.00  0.00     0.034 A 
BRANCH  45  59
ATOM     59  C   UNL A   1      42.169  26.567  27.531  1.00  0.00     0.023 A 
ATOM     60  C   UNL A   1      41.863  25.204  27.370  1.00  0.00     0.031 A 
ATOM     61  C   UNL A   1      42.939  27.190  26.534  1.00  0.00     0.131 A 
ATOM     62  C   UNL A   1      42.388  24.491  26.281  1.00  0.00     0.055 A 
ATOM     63  C   UNL A   1      43.390  26.494  25.410  1.00  0.00     0.041 A 
ATOM     64  F   UNL A   1      43.280  28.484  26.641  1.00  0.00    -0.206 F 
ATOM     65  C   UNL A   1      43.128  25.133  25.287  1.00  0.00     0.022 A 
BRANCH  62  66
ATOM     66  S   UNL A   1      42.199  22.688  26.258  1.00  0.00     0.124 S 
ATOM     67  O   UNL A   1      40.747  22.544  26.339  1.00  0.00    -0.237 OA
ATOM     68  O   UNL A   1      42.808  22.322  24.985  1.00  0.00    -0.237 OA
ATOM     69  O   UNL A   1      42.929  22.253  27.447  1.00  0.00    -0.744 OA
ENDBRANCH  62  66
ENDBRANCH  45  59
BRANCH  46  70
ATOM     70  C   UNL A   1      38.737  31.888  35.283  1.00  0.00     0.023 A 
ATOM     71  C   UNL A   1      38.137  31.289  36.402  1.00  0.00     0.031 A 
ATOM     72  C   UNL A   1      38.913  33.283  35.290  1.00  0.00     0.131 A 
ATOM     73  C   UNL A   1      37.733  32.084  37.486  1.00  0.00     0.055 A 
ATOM     74  C   UNL A   1      38.537  34.066  36.383  1.00  0.00     0.041 A 
ATOM     75  F   UNL A   1      39.497  33.897  34.249  1.00  0.00    -0.206 F 
ATOM     76  C   UNL A   1      37.942  33.465  37.489  1.00  0.00     0.022 A 
BRANCH  73  77
ATOM     77  S   UNL A   1      36.937  31.283  38.904  1.00  0.00     0.124 S 
ATOM     78  O   UNL A   1      36.806  29.909  38.434  1.00  0.00    -0.237 OA
ATOM     79  O   UNL A   1      37.908  31.509  39.969  1.00  0.00    -0.237 OA
ATOM     80  O   UNL A   1      35.681  32.018  39.048  1.00  0.00    -0.744 OA
ENDBRANCH  73  77
ENDBRANCH  46  70
BRANCH  58  81
ATOM     81  C   UNL A   1      44.538  28.137  34.183  1.00  0.00     0.023 A 
ATOM     82  C   UNL A   1      44.646  26.994  34.992  1.00  0.00     0.031 A 
ATOM     83  C   UNL A   1      45.638  29.011  34.114  1.00  0.00     0.131 A 
ATOM     84  C   UNL A   1      45.824  26.765  35.719  1.00  0.00     0.055 A 
ATOM     85  C   UNL A   1      46.823  28.754  34.802  1.00  0.00     0.041 A 
ATOM     86  F   UNL A   1      45.585  30.116  33.353  1.00  0.00    -0.206 F 
ATOM     87  C   UNL A   1      46.920  27.627  35.613  1.00  0.00     0.022 A 
BRANCH  84  88
ATOM     88  S   UNL A   1      45.899  25.337  36.833  1.00  0.00     0.124 S 
ATOM     89  O   UNL A   1      44.543  24.804  36.732  1.00  0.00    -0.237 OA
ATOM     90  O   UNL A   1      46.950  24.522  36.234  1.00  0.00    -0.237 OA
ATOM     91  O   UNL A   1      46.237  25.928  38.127  1.00  0.00    -0.744 OA
ENDBRANCH  84  88
ENDBRANCH  58  81
ENDBRANCH  32  33
ENDBRANCH  24  27
ENDBRANCH   1  23
TORSDOF 14
ENDMDL
MODEL 2
REMARK VINA RESULT:     -12.5      5.190     10.104
REMARK SMILES Cc1ccc(-c2cccc(F)c2C(=O)NCCCNC(=O)c2ccc(-c3c4nc(c(-c5cc(S(=O)(=O)[O-])ccc5F)c5ccc([nH]5)c(-c5cc(S(=O)(=O)[O-])ccc5F)c5nc(c(-c6cc(S(=O)(=O)[O-])ccc6F)c6ccc3[nH]6)C=C5)C=C4)cc2)c(C)c1
REMARK SMILES IDX 18 1 17 2 16 3 15 4 13 5 14 6 12 8 6 9 7 10 8 11 10 12 9 13
REMARK SMILES IDX 11 14 5 15 1 16 2 17 3 18 87 19 4 20 85 21 86 22 19 23 20 24
REMARK SMILES IDX 21 26 22 27 23 28 84 29 24 30 83 31 25 32 26 33 27 34 77 35
REMARK SMILES IDX 28 36 82 37 76 38 78 39 29 40 81 41 75 42 74 43 30 45 62 46
REMARK SMILES IDX 42 47 61 48 43 49 46 50 60 51 79 52 44 53 45 54 59 56 80 57
REMARK SMILES IDX 47 58 31 59 32 60 40 61 33 62 39 63 41 64 38 65 34 66 35 67
REMARK SMILES IDX 36 68 37 69 63 70 64 71 72 72 65 73 71 74 73 75 70 76 66 77
REMARK SMILES IDX 67 78 68 79 69 80 48 81 49 82 57 83 50 84 56 85 58 86 55 87
REMARK SMILES IDX 51 88 52 89 53 90 54 91
REMARK H PARENT 15 7 19 25 78 44 46 55
REMARK Flexibility Score: inf
ROOT
ATOM      1  C   UNL A   1      35.861  22.187  25.614  1.00  0.00     0.118 C 
ENDROOT
BRANCH   1   2
ATOM      2  C   UNL A   1      35.405  22.526  27.025  1.00  0.00     0.042 C 
BRANCH   2   3
ATOM      3  C   UNL A   1      34.173  21.789  27.528  1.00  0.00     0.118 C 
BRANCH   3   4
ATOM      4  N   UNL A   1      32.976  22.607  27.669  1.00  0.00    -0.352 N 
ATOM      5  C   UNL A   1      32.035  23.056  26.765  1.00  0.00     0.254 C 
ATOM      6  O   UNL A   1      30.986  23.488  27.242  1.00  0.00    -0.269 OA
ATOM      7  H   UNL A   1      32.805  22.898  28.594  1.00  0.00     0.163 HD
BRANCH   5   8
ATOM      8  C   UNL A   1      32.255  23.099  25.289  1.00  0.00     0.083 A 
ATOM      9  C   UNL A   1      32.550  24.323  24.632  1.00  0.00    -0.002 A 
ATOM     10  C   UNL A   1      32.845  24.300  23.247  1.00  0.00     0.010 A 
ATOM     11  C   UNL A   1      32.818  23.117  22.514  1.00  0.00     0.004 A 
ATOM     12  C   UNL A   1      32.108  21.953  24.502  1.00  0.00     0.136 A 
ATOM     13  C   UNL A   1      32.426  21.944  23.142  1.00  0.00     0.040 A 
ATOM     14  F   UNL A   1      31.573  20.829  25.000  1.00  0.00    -0.206 F 
BRANCH   9  15
ATOM     15  C   UNL A   1      32.460  25.658  25.260  1.00  0.00    -0.015 A 
ATOM     16  C   UNL A   1      32.489  29.538  27.196  1.00  0.00     0.044 C 
ATOM     17  C   UNL A   1      32.487  28.185  26.550  1.00  0.00    -0.051 A 
ATOM     18  C   UNL A   1      33.666  27.453  26.419  1.00  0.00     0.004 A 
ATOM     19  C   UNL A   1      31.297  27.647  26.039  1.00  0.00     0.007 A 
ATOM     20  C   UNL A   1      33.649  26.212  25.784  1.00  0.00     0.009 A 
ATOM     21  C   UNL A   1      31.265  26.387  25.405  1.00  0.00    -0.043 A 
ATOM     22  C   UNL A   1      29.945  25.910  24.865  1.00  0.00     0.045 C 
ENDBRANCH   9  15
ENDBRANCH   5   8
ENDBRANCH   3   4
ENDBRANCH   2   3
ENDBRANCH   1   2
BRANCH   1  23
ATOM     23  N   UNL A   1      36.872  21.140  25.563  1.00  0.00    -0.352 N 
ATOM     24  C   UNL A   1      38.236  21.183  25.748  1.00  0.00     0.251 C 
ATOM     25  H   UNL A   1      36.519  20.245  25.359  1.00  0.00     0.163 HD
ATOM     26  O   UNL A   1      38.903  20.189  25.478  1.00  0.00    -0.269 OA
BRANCH  24  27
ATOM     27  C   UNL A   1      38.906  22.412  26.236  1.00  0.00     0.039 A 
ATOM     28  C   UNL A   1      39.998  22.293  27.103  1.00  0.00     0.014 A 
ATOM     29  C   UNL A   1      38.454  23.680  25.869  1.00  0.00     0.014 A 
ATOM     30  C   UNL A   1      40.684  23.439  27.522  1.00  0.00     0.010 A 
ATOM     31  C   UNL A   1      39.200  24.808  26.197  1.00  0.00     0.010 A 
ATOM     32  C   UNL A   1      40.322  24.703  27.030  1.00  0.00    -0.014 A 
BRANCH  32  33
ATOM     33  C   UNL A   1      41.093  25.927  27.377  1.00  0.00     0.031 A 
ATOM     34  C   UNL A   1      40.485  26.980  28.263  1.00  0.00     0.074 A 
ATOM     35  C   UNL A   1      42.317  26.117  26.847  1.00  0.00     0.049 A 
ATOM     36  N   UNL A   1      40.965  28.146  28.610  1.00  0.00    -0.248 NA
ATOM     37  C   UNL A   1      39.146  26.697  28.803  1.00  0.00     0.031 C 
ATOM     38  C   UNL A   1      43.005  25.184  25.953  1.00  0.00     0.029 A 
ATOM     39  N   UNL A   1      43.204  27.154  26.987  1.00  0.00    -0.354 N 
ATOM     40  C   UNL A   1      39.989  28.735  29.406  1.00  0.00     0.074 A 
ATOM     41  C   UNL A   1      38.858  27.833  29.419  1.00  0.00     0.031 C 
ATOM     42  C   UNL A   1      44.227  25.661  25.674  1.00  0.00     0.029 A 
ATOM     43  C   UNL A   1      44.390  26.960  26.320  1.00  0.00     0.049 A 
ATOM     44  H   UNL A   1      43.010  27.961  27.516  1.00  0.00     0.167 HD
ATOM     45  C   UNL A   1      40.042  29.903  30.092  1.00  0.00     0.034 A 
ATOM     46  C   UNL A   1      45.488  27.737  26.236  1.00  0.00     0.034 A 
ATOM     47  C   UNL A   1      41.177  30.790  30.077  1.00  0.00     0.049 A 
ATOM     48  C   UNL A   1      45.508  29.059  26.951  1.00  0.00     0.074 A 
ATOM     49  C   UNL A   1      41.345  31.985  30.754  1.00  0.00     0.029 A 
ATOM     50  N   UNL A   1      42.339  30.581  29.346  1.00  0.00    -0.354 N 
ATOM     51  N   UNL A   1      44.575  29.604  27.695  1.00  0.00    -0.248 NA
ATOM     52  C   UNL A   1      46.722  29.872  26.812  1.00  0.00     0.031 C 
ATOM     53  C   UNL A   1      42.579  32.529  30.383  1.00  0.00     0.029 A 
ATOM     54  C   UNL A   1      43.216  31.638  29.533  1.00  0.00     0.049 A 
ATOM     55  H   UNL A   1      42.514  29.796  28.777  1.00  0.00     0.167 HD
ATOM     56  C   UNL A   1      45.098  30.815  28.136  1.00  0.00     0.074 A 
ATOM     57  C   UNL A   1      46.429  30.923  27.569  1.00  0.00     0.031 C 
ATOM     58  C   UNL A   1      44.531  31.744  28.945  1.00  0.00     0.034 A 
BRANCH  45  59
ATOM     59  C   UNL A   1      38.828  30.282  30.905  1.00  0.00     0.023 A 
ATOM     60  C   UNL A   1      37.784  31.041  30.349  1.00  0.00     0.031 A 
ATOM     61  C   UNL A   1      38.721  29.906  32.255  1.00  0.00     0.131 A 
ATOM     62  C   UNL A   1      36.718  31.466  31.156  1.00  0.00     0.055 A 
ATOM     63  C   UNL A   1      37.616  30.263  33.032  1.00  0.00     0.041 A 
ATOM     64  F   UNL A   1      39.694  29.197  32.848  1.00  0.00    -0.206 F 
ATOM     65  C   UNL A   1      36.614  31.060  32.487  1.00  0.00     0.022 A 
BRANCH  62  66
ATOM     66  S   UNL A   1      35.541  32.665  30.474  1.00  0.00     0.124 S 
ATOM     67  O   UNL A   1      35.368  32.163  29.112  1.00  0.00    -0.237 OA
ATOM     68  O   UNL A   1      34.392  32.521  31.359  1.00  0.00    -0.237 OA
ATOM     69  O   UNL A   1      36.252  33.938  30.576  1.00  0.00    -0.744 OA
ENDBRANCH  62  66
ENDBRANCH  45  59
BRANCH  46  70
ATOM     70  C   UNL A   1      46.665  27.254  25.464  1.00  0.00     0.023 A 
ATOM     71  C   UNL A   1      46.876  27.683  24.144  1.00  0.00     0.031 A 
ATOM     72  C   UNL A   1      47.626  26.414  26.052  1.00  0.00     0.131 A 
ATOM     73  C   UNL A   1      48.027  27.271  23.453  1.00  0.00     0.055 A 
ATOM     74  C   UNL A   1      48.783  26.031  25.372  1.00  0.00     0.041 A 
ATOM     75  F   UNL A   1      47.474  25.992  27.318  1.00  0.00    -0.206 F 
ATOM     76  C   UNL A   1      48.987  26.461  24.063  1.00  0.00     0.022 A 
BRANCH  73  77
ATOM     77  S   UNL A   1      48.259  27.821  21.742  1.00  0.00     0.124 S 
ATOM     78  O   UNL A   1      49.393  28.728  21.873  1.00  0.00    -0.237 OA
ATOM     79  O   UNL A   1      48.516  26.565  21.046  1.00  0.00    -0.237 OA
ATOM     80  O   UNL A   1      46.984  28.459  21.415  1.00  0.00    -0.744 OA
ENDBRANCH  73  77
ENDBRANCH  46  70
BRANCH  58  81
ATOM     81  C   UNL A   1      45.354  32.956  29.298  1.00  0.00     0.023 A 
ATOM     82  C   UNL A   1      45.295  34.135  28.535  1.00  0.00     0.031 A 
ATOM     83  C   UNL A   1      46.157  32.950  30.452  1.00  0.00     0.131 A 
ATOM     84  C   UNL A   1      46.045  35.254  28.925  1.00  0.00     0.055 A 
ATOM     85  C   UNL A   1      46.863  34.081  30.861  1.00  0.00     0.041 A 
ATOM     86  F   UNL A   1      46.244  31.850  31.216  1.00  0.00    -0.206 F 
ATOM     87  C   UNL A   1      46.812  35.241  30.094  1.00  0.00     0.022 A 
BRANCH  84  88
ATOM     88  S   UNL A   1      46.030  36.726  27.867  1.00  0.00     0.124 S 
ATOM     89  O   UNL A   1      46.893  37.641  28.610  1.00  0.00    -0.237 OA
ATOM     90  O   UNL A   1      46.571  36.219  26.610  1.00  0.00    -0.237 OA
ATOM     91  O   UNL A   1      44.618  37.104  27.824  1.00  0.00    -0.744 OA
ENDBRANCH  84  88
ENDBRANCH  58  81
ENDBRANCH  32  33
ENDBRANCH  24  27
ENDBRANCH   1  23
TORSDOF 14
ENDMDL
MODEL 3
REMARK VINA RESULT:     -12.4      2.386      3.282
REMARK SMILES Cc1ccc(-c2cccc(F)c2C(=O)NCCCNC(=O)c2ccc(-c3c4nc(c(-c5cc(S(=O)(=O)[O-])ccc5F)c5ccc([nH]5)c(-c5cc(S(=O)(=O)[O-])ccc5F)c5nc(c(-c6cc(S(=O)(=O)[O-])ccc6F)c6ccc3[nH]6)C=C5)C=C4)cc2)c(C)c1
REMARK SMILES IDX 18 1 17 2 16 3 15 4 13 5 14 6 12 8 6 9 7 10 8 11 10 12 9 13
REMARK SMILES IDX 11 14 5 15 1 16 2 17 3 18 87 19 4 20 85 21 86 22 19 23 20 24
REMARK SMILES IDX 21 26 22 27 23 28 84 29 24 30 83 31 25 32 26 33 27 34 77 35
REMARK SMILES IDX 28 36 82 37 76 38 78 39 29 40 81 41 75 42 74 43 30 45 62 46
REMARK SMILES IDX 42 47 61 48 43 49 46 50 60 51 79 52 44 53 45 54 59 56 80 57
REMARK SMILES IDX 47 58 31 59 32 60 40 61 33 62 39 63 41 64 38 65 34 66 35 67
REMARK SMILES IDX 36 68 37 69 63 70 64 71 72 72 65 73 71 74 73 75 70 76 66 77
REMARK SMILES IDX 67 78 68 79 69 80 48 81 49 82 57 83 50 84 56 85 58 86 55 87
REMARK SMILES IDX 51 88 52 89 53 90 54 91
REMARK H PARENT 15 7 19 25 78 44 46 55
REMARK Flexibility Score: inf
ROOT
ATOM      1  C   UNL A   1      32.732  32.474  27.279  1.00  0.00     0.118 C 
ENDROOT
BRANCH   1   2
ATOM      2  C   UNL A   1      31.576  31.863  26.501  1.00  0.00     0.042 C 
BRANCH   2   3
ATOM      3  C   UNL A   1      31.645  30.363  26.264  1.00  0.00     0.118 C 
BRANCH   3   4
ATOM      4  N   UNL A   1      32.476  29.950  25.141  1.00  0.00    -0.352 N 
ATOM      5  C   UNL A   1      32.203  29.268  23.973  1.00  0.00     0.254 C 
ATOM      6  O   UNL A   1      33.063  29.327  23.095  1.00  0.00    -0.269 OA
ATOM      7  H   UNL A   1      33.421  30.211  25.234  1.00  0.00     0.163 HD
BRANCH   5   8
ATOM      8  C   UNL A   1      30.982  28.435  23.764  1.00  0.00     0.083 A 
ATOM      9  C   UNL A   1      30.991  27.044  24.050  1.00  0.00    -0.002 A 
ATOM     10  C   UNL A   1      29.784  26.313  23.928  1.00  0.00     0.010 A 
ATOM     11  C   UNL A   1      28.605  26.918  23.501  1.00  0.00     0.004 A 
ATOM     12  C   UNL A   1      29.819  28.981  23.214  1.00  0.00     0.136 A 
ATOM     13  C   UNL A   1      28.631  28.252  23.122  1.00  0.00     0.040 A 
ATOM     14  F   UNL A   1      29.814  30.207  22.671  1.00  0.00    -0.206 F 
BRANCH   9  15
ATOM     15  C   UNL A   1      32.203  26.257  24.361  1.00  0.00    -0.015 A 
ATOM     16  C   UNL A   1      35.756  23.849  24.981  1.00  0.00     0.044 C 
ATOM     17  C   UNL A   1      34.514  24.660  24.758  1.00  0.00    -0.051 A 
ATOM     18  C   UNL A   1      33.991  24.828  23.478  1.00  0.00     0.004 A 
ATOM     19  C   UNL A   1      33.876  25.287  25.837  1.00  0.00     0.007 A 
ATOM     20  C   UNL A   1      32.856  25.614  23.285  1.00  0.00     0.009 A 
ATOM     21  C   UNL A   1      32.720  26.076  25.658  1.00  0.00    -0.043 A 
ATOM     22  C   UNL A   1      32.126  26.731  26.874  1.00  0.00     0.045 C 
ENDBRANCH   9  15
ENDBRANCH   5   8
ENDBRANCH   3   4
ENDBRANCH   2   3
ENDBRANCH   1   2
BRANCH   1  23
ATOM     23  N   UNL A   1      32.541  33.881  27.601  1.00  0.00    -0.352 N 
ATOM     24  C   UNL A   1      33.128  34.684  28.554  1.00  0.00     0.251 C 
ATOM     25  H   UNL A   1      31.875  34.339  27.040  1.00  0.00     0.163 HD
ATOM     26  O   UNL A   1      32.671  35.806  28.749  1.00  0.00    -0.269 OA
BRANCH  24  27
ATOM     27  C   UNL A   1      34.275  34.204  29.361  1.00  0.00     0.039 A 
ATOM     28  C   UNL A   1      34.027  33.518  30.556  1.00  0.00     0.014 A 
ATOM     29  C   UNL A   1      35.592  34.446  28.968  1.00  0.00     0.014 A 
ATOM     30  C   UNL A   1      35.095  33.001  31.297  1.00  0.00     0.010 A 
ATOM     31  C   UNL A   1      36.645  33.840  29.647  1.00  0.00     0.010 A 
ATOM     32  C   UNL A   1      36.411  33.113  30.821  1.00  0.00    -0.014 A 
BRANCH  32  33
ATOM     33  C   UNL A   1      37.556  32.488  31.535  1.00  0.00     0.031 A 
ATOM     34  C   UNL A   1      38.301  31.339  30.913  1.00  0.00     0.074 A 
ATOM     35  C   UNL A   1      37.887  32.915  32.770  1.00  0.00     0.049 A 
ATOM     36  N   UNL A   1      39.268  30.613  31.412  1.00  0.00    -0.248 NA
ATOM     37  C   UNL A   1      37.881  30.932  29.563  1.00  0.00     0.031 C 
ATOM     38  C   UNL A   1      37.224  34.002  33.493  1.00  0.00     0.029 A 
ATOM     39  N   UNL A   1      38.866  32.494  33.633  1.00  0.00    -0.354 N 
ATOM     40  C   UNL A   1      39.570  29.665  30.440  1.00  0.00     0.074 A 
ATOM     41  C   UNL A   1      38.626  29.857  29.360  1.00  0.00     0.031 C 
ATOM     42  C   UNL A   1      37.853  34.201  34.661  1.00  0.00     0.029 A 
ATOM     43  C   UNL A   1      38.926  33.221  34.798  1.00  0.00     0.049 A 
ATOM     44  H   UNL A   1      39.471  31.742  33.436  1.00  0.00     0.167 HD
ATOM     45  C   UNL A   1      40.564  28.743  30.431  1.00  0.00     0.034 A 
ATOM     46  C   UNL A   1      39.750  33.114  35.859  1.00  0.00     0.034 A 
ATOM     47  C   UNL A   1      41.502  28.566  31.510  1.00  0.00     0.049 A 
ATOM     48  C   UNL A   1      40.807  32.045  35.862  1.00  0.00     0.074 A 
ATOM     49  C   UNL A   1      42.561  27.680  31.594  1.00  0.00     0.029 A 
ATOM     50  N   UNL A   1      41.494  29.289  32.696  1.00  0.00    -0.354 N 
ATOM     51  N   UNL A   1      41.076  31.154  34.938  1.00  0.00    -0.248 NA
ATOM     52  C   UNL A   1      41.666  31.963  37.049  1.00  0.00     0.031 C 
ATOM     53  C   UNL A   1      43.152  27.822  32.853  1.00  0.00     0.029 A 
ATOM     54  C   UNL A   1      42.511  28.849  33.528  1.00  0.00     0.049 A 
ATOM     55  H   UNL A   1      40.859  30.010  32.914  1.00  0.00     0.167 HD
ATOM     56  C   UNL A   1      42.154  30.418  35.420  1.00  0.00     0.074 A 
ATOM     57  C   UNL A   1      42.483  30.969  36.721  1.00  0.00     0.031 C 
ATOM     58  C   UNL A   1      42.816  29.391  34.832  1.00  0.00     0.034 A 
BRANCH  45  59
ATOM     59  C   UNL A   1      40.670  27.854  29.216  1.00  0.00     0.023 A 
ATOM     60  C   UNL A   1      41.598  28.122  28.194  1.00  0.00     0.031 A 
ATOM     61  C   UNL A   1      39.822  26.745  29.060  1.00  0.00     0.131 A 
ATOM     62  C   UNL A   1      41.604  27.340  27.029  1.00  0.00     0.055 A 
ATOM     63  C   UNL A   1      39.889  25.921  27.934  1.00  0.00     0.041 A 
ATOM     64  F   UNL A   1      38.903  26.449  29.992  1.00  0.00    -0.206 F 
ATOM     65  C   UNL A   1      40.773  26.226  26.903  1.00  0.00     0.022 A 
BRANCH  62  66
ATOM     66  S   UNL A   1      42.620  27.884  25.629  1.00  0.00     0.124 S 
ATOM     67  O   UNL A   1      43.890  28.183  26.287  1.00  0.00    -0.237 OA
ATOM     68  O   UNL A   1      42.611  26.715  24.758  1.00  0.00    -0.237 OA
ATOM     69  O   UNL A   1      41.902  29.049  25.117  1.00  0.00    -0.744 OA
ENDBRANCH  62  66
ENDBRANCH  45  59
BRANCH  46  70
ATOM     70  C   UNL A   1      39.615  34.075  36.986  1.00  0.00     0.023 A 
ATOM     71  C   UNL A   1      39.018  33.678  38.194  1.00  0.00     0.031 A 
ATOM     72  C   UNL A   1      40.136  35.378  36.898  1.00  0.00     0.131 A 
ATOM     73  C   UNL A   1      38.959  34.578  39.270  1.00  0.00     0.055 A 
ATOM     74  C   UNL A   1      40.101  36.258  37.981  1.00  0.00     0.041 A 
ATOM     75  F   UNL A   1      40.730  35.795  35.769  1.00  0.00    -0.206 F 
ATOM     76  C   UNL A   1      39.509  35.858  39.176  1.00  0.00     0.022 A 
BRANCH  73  77
ATOM     77  S   UNL A   1      38.160  34.044  40.807  1.00  0.00     0.124 S 
ATOM     78  O   UNL A   1      36.996  33.325  40.303  1.00  0.00    -0.237 OA
ATOM     79  O   UNL A   1      39.200  33.231  41.428  1.00  0.00    -0.237 OA
ATOM     80  O   UNL A   1      37.868  35.303  41.492  1.00  0.00    -0.744 OA
ENDBRANCH  73  77
ENDBRANCH  46  70
BRANCH  58  81
ATOM     81  C   UNL A   1      43.988  28.802  35.573  1.00  0.00     0.023 A 
ATOM     82  C   UNL A   1      43.828  27.749  36.489  1.00  0.00     0.031 A 
ATOM     83  C   UNL A   1      45.291  29.260  35.307  1.00  0.00     0.131 A 
ATOM     84  C   UNL A   1      44.953  27.202  37.125  1.00  0.00     0.055 A 
ATOM     85  C   UNL A   1      46.409  28.680  35.905  1.00  0.00     0.041 A 
ATOM     86  F   UNL A   1      45.497  30.262  34.437  1.00  0.00    -0.206 F 
ATOM     87  C   UNL A   1      46.243  27.647  36.823  1.00  0.00     0.022 A 
BRANCH  84  88
ATOM     88  S   UNL A   1      44.708  25.915  38.377  1.00  0.00     0.124 S 
ATOM     89  O   UNL A   1      44.149  24.824  37.584  1.00  0.00    -0.237 OA
ATOM     90  O   UNL A   1      46.059  25.706  38.886  1.00  0.00    -0.237 OA
ATOM     91  O   UNL A   1      43.779  26.530  39.325  1.00  0.00    -0.744 OA
ENDBRANCH  84  88
ENDBRANCH  58  81
ENDBRANCH  32  33
ENDBRANCH  24  27
ENDBRANCH   1  23
TORSDOF 14
ENDMDL
