MODEL 1
REMARK VINA RESULT:     -12.4      0.000      0.000
REMARK SMILES COc1ccc(CCN2C(=O)C[C@@H](C(=O)NCCCNC(=O)c3ccc(-c4c5nc(c(-c6cc(S(=O)(=O)[O-])ccc6F)c6ccc([nH]6)c(-c6cc(S(=O)(=O)[O-])ccc6F)c6nc(c(-c7cc(S(=O)(=O)[O-])ccc7F)c7ccc4[nH]7)C=C6)C=C5)cc3)S/C2=[NH+]\c2ccc(F)cc2)cc1OC
REMARK SMILES IDX 17 1 16 2 14 3 15 4 13 6 9 7 10 8 87 9 11 10 12 11 86 12
REMARK SMILES IDX 88 13 8 15 7 16 6 17 3 18 4 19 97 20 5 21 96 22 2 23 1 24
REMARK SMILES IDX 98 25 99 26 89 27 90 28 95 29 91 30 94 31 92 32 93 33 18 34
REMARK SMILES IDX 19 35 20 36 21 37 22 39 23 40 24 41 85 42 25 43 84 44 26 45
REMARK SMILES IDX 27 46 28 47 78 48 29 49 83 50 77 51 79 52 30 53 82 54 76 55
REMARK SMILES IDX 75 56 31 58 63 59 43 60 62 61 44 62 47 63 61 64 80 65 45 66
REMARK SMILES IDX 46 67 60 69 81 70 48 71 32 72 33 73 41 74 34 75 40 76 42 77
REMARK SMILES IDX 39 78 35 79 36 80 37 81 38 82 64 83 65 84 73 85 66 86 72 87
REMARK SMILES IDX 74 88 71 89 67 90 68 91 69 92 70 93 49 94 50 95 58 96 51 97
REMARK SMILES IDX 57 98 59 99 56 100 52 101 53 102 54 103 55 104
REMARK H PARENT 16 5 88 14 20 38 79 57 47 68
REMARK Flexibility Score: inf
ROOT
ATOM      1  C   UNL A   1      38.608  21.536  25.601  1.00  0.00     0.117 C 
ENDROOT
BRANCH   1   2
ATOM      2  N   UNL A   1      37.641  22.459  26.171  1.00  0.00    -0.355 N 
ATOM      3  C   UNL A   1      36.354  22.751  25.813  1.00  0.00     0.234 C 
ATOM      4  O   UNL A   1      35.736  23.544  26.531  1.00  0.00    -0.274 OA
ATOM      5  H   UNL A   1      37.970  22.961  26.953  1.00  0.00     0.163 HD
BRANCH   3   6
ATOM      6  C   UNL A   1      35.652  22.086  24.623  1.00  0.00     0.160 C 
ATOM      7  N   UNL A   1      32.908  22.299  23.515  1.00  0.00    -0.191 N 
ATOM      8  C   UNL A   1      33.944  22.939  22.866  1.00  0.00     0.311 C 
ATOM      9  C   UNL A   1      33.168  21.034  24.011  1.00  0.00     0.319 C 
ATOM     10  O   UNL A   1      33.823  23.429  21.741  1.00  0.00    -0.247 OA
ATOM     11  C   UNL A   1      35.253  23.111  23.593  1.00  0.00     0.153 C 
ATOM     12  S   UNL A   1      34.408  20.965  25.236  1.00  0.00    -0.024 SA
ATOM     13  N   UNL A   1      32.487  19.992  23.635  1.00  0.00    -0.235 N 
ATOM     14  H   UNL A   1      31.710  20.086  23.040  1.00  0.00     0.313 HD
BRANCH   7  15
ATOM     15  C   UNL A   1      31.540  22.666  23.091  1.00  0.00     0.251 C 
BRANCH  15  16
ATOM     16  C   UNL A   1      30.814  23.636  24.075  1.00  0.00     0.082 C 
BRANCH  16  17
ATOM     17  C   UNL A   1      31.518  24.933  24.435  1.00  0.00    -0.040 A 
ATOM     18  C   UNL A   1      33.015  27.252  25.086  1.00  0.00     0.160 A 
ATOM     19  C   UNL A   1      32.957  26.178  25.968  1.00  0.00     0.051 A 
ATOM     20  C   UNL A   1      32.250  27.213  23.912  1.00  0.00     0.160 A 
ATOM     21  C   UNL A   1      32.170  25.068  25.662  1.00  0.00     0.008 A 
ATOM     22  C   UNL A   1      31.536  26.042  23.579  1.00  0.00     0.054 A 
BRANCH  18  23
ATOM     23  O   UNL A   1      33.889  28.284  25.294  1.00  0.00    -0.493 OA
ATOM     24  C   UNL A   1      34.245  28.509  26.655  1.00  0.00     0.278 C 
ENDBRANCH  18  23
BRANCH  20  25
ATOM     25  O   UNL A   1      32.123  28.234  23.001  1.00  0.00    -0.493 OA
ATOM     26  C   UNL A   1      30.794  28.528  22.575  1.00  0.00     0.278 C 
ENDBRANCH  20  25
ENDBRANCH  16  17
ENDBRANCH  15  16
ENDBRANCH   7  15
BRANCH  13  27
ATOM     27  C   UNL A   1      32.891  18.720  24.103  1.00  0.00     0.125 A 
ATOM     28  C   UNL A   1      32.498  18.301  25.384  1.00  0.00     0.055 A 
ATOM     29  C   UNL A   1      33.576  17.821  23.274  1.00  0.00     0.055 A 
ATOM     30  C   UNL A   1      32.709  16.983  25.794  1.00  0.00     0.043 A 
ATOM     31  C   UNL A   1      33.771  16.496  23.677  1.00  0.00     0.043 A 
ATOM     32  C   UNL A   1      33.324  16.087  24.928  1.00  0.00     0.123 A 
ATOM     33  F   UNL A   1      33.473  14.809  25.300  1.00  0.00    -0.207 F 
ENDBRANCH  13  27
ENDBRANCH   3   6
ENDBRANCH   1   2
BRANCH   1  34
ATOM     34  C   UNL A   1      40.013  21.662  26.174  1.00  0.00     0.042 C 
BRANCH  34  35
ATOM     35  C   UNL A   1      40.526  20.411  26.869  1.00  0.00     0.118 C 
BRANCH  35  36
ATOM     36  N   UNL A   1      41.600  19.755  26.137  1.00  0.00    -0.352 N 
ATOM     37  C   UNL A   1      42.778  20.266  25.647  1.00  0.00     0.251 C 
ATOM     38  H   UNL A   1      41.459  18.796  25.965  1.00  0.00     0.163 HD
ATOM     39  O   UNL A   1      43.467  19.564  24.908  1.00  0.00    -0.269 OA
BRANCH  37  40
ATOM     40  C   UNL A   1      43.200  21.647  25.973  1.00  0.00     0.039 A 
ATOM     41  C   UNL A   1      43.194  22.612  24.960  1.00  0.00     0.014 A 
ATOM     42  C   UNL A   1      43.607  21.997  27.262  1.00  0.00     0.014 A 
ATOM     43  C   UNL A   1      43.520  23.938  25.262  1.00  0.00     0.010 A 
ATOM     44  C   UNL A   1      43.841  23.333  27.579  1.00  0.00     0.010 A 
ATOM     45  C   UNL A   1      43.802  24.320  26.583  1.00  0.00    -0.014 A 
BRANCH  45  46
ATOM     46  C   UNL A   1      44.067  25.739  26.944  1.00  0.00     0.031 A 
ATOM     47  C   UNL A   1      45.452  26.309  26.796  1.00  0.00     0.074 A 
ATOM     48  C   UNL A   1      43.079  26.492  27.468  1.00  0.00     0.049 A 
ATOM     49  N   UNL A   1      45.908  27.484  27.150  1.00  0.00    -0.248 NA
ATOM     50  C   UNL A   1      46.468  25.428  26.199  1.00  0.00     0.031 C 
ATOM     51  C   UNL A   1      41.702  26.045  27.689  1.00  0.00     0.029 A 
ATOM     52  N   UNL A   1      43.080  27.789  27.921  1.00  0.00    -0.354 N 
ATOM     53  C   UNL A   1      47.262  27.478  26.831  1.00  0.00     0.074 A 
ATOM     54  C   UNL A   1      47.564  26.160  26.317  1.00  0.00     0.031 C 
ATOM     55  C   UNL A   1      40.988  27.058  28.208  1.00  0.00     0.029 A 
ATOM     56  C   UNL A   1      41.864  28.207  28.412  1.00  0.00     0.049 A 
ATOM     57  H   UNL A   1      43.877  28.367  27.894  1.00  0.00     0.167 HD
ATOM     58  C   UNL A   1      48.162  28.488  26.935  1.00  0.00     0.034 A 
ATOM     59  C   UNL A   1      41.500  29.373  28.982  1.00  0.00     0.034 A 
ATOM     60  C   UNL A   1      47.841  29.799  27.442  1.00  0.00     0.049 A 
ATOM     61  C   UNL A   1      42.531  30.465  29.128  1.00  0.00     0.074 A 
ATOM     62  C   UNL A   1      48.666  30.907  27.548  1.00  0.00     0.029 A 
ATOM     63  N   UNL A   1      46.601  30.181  27.937  1.00  0.00    -0.354 N 
ATOM     64  N   UNL A   1      43.798  30.457  28.783  1.00  0.00    -0.248 NA
ATOM     65  C   UNL A   1      42.080  31.726  29.731  1.00  0.00     0.031 C 
ATOM     66  C   UNL A   1      47.949  31.929  28.178  1.00  0.00     0.029 A 
ATOM     67  C   UNL A   1      46.648  31.494  28.381  1.00  0.00     0.049 A 
ATOM     68  H   UNL A   1      45.804  29.604  27.970  1.00  0.00     0.167 HD
ATOM     69  C   UNL A   1      44.283  31.726  29.091  1.00  0.00     0.074 A 
ATOM     70  C   UNL A   1      43.170  32.473  29.639  1.00  0.00     0.031 C 
ATOM     71  C   UNL A   1      45.533  32.230  28.929  1.00  0.00     0.034 A 
BRANCH  58  72
ATOM     72  C   UNL A   1      49.585  28.198  26.515  1.00  0.00     0.023 A 
ATOM     73  C   UNL A   1      50.032  28.431  25.202  1.00  0.00     0.031 A 
ATOM     74  C   UNL A   1      50.505  27.663  27.434  1.00  0.00     0.131 A 
ATOM     75  C   UNL A   1      51.331  28.060  24.826  1.00  0.00     0.055 A 
ATOM     76  C   UNL A   1      51.825  27.379  27.077  1.00  0.00     0.041 A 
ATOM     77  F   UNL A   1      50.134  27.397  28.697  1.00  0.00    -0.206 F 
ATOM     78  C   UNL A   1      52.240  27.562  25.761  1.00  0.00     0.022 A 
BRANCH  75  79
ATOM     79  S   UNL A   1      51.765  28.094  23.066  1.00  0.00     0.124 S 
ATOM     80  O   UNL A   1      50.841  27.105  22.515  1.00  0.00    -0.237 OA
ATOM     81  O   UNL A   1      51.505  29.482  22.703  1.00  0.00    -0.237 OA
ATOM     82  O   UNL A   1      53.172  27.698  23.051  1.00  0.00    -0.744 OA
ENDBRANCH  75  79
ENDBRANCH  58  72
BRANCH  59  83
ATOM     83  C   UNL A   1      40.104  29.575  29.472  1.00  0.00     0.023 A 
ATOM     84  C   UNL A   1      39.816  29.590  30.846  1.00  0.00     0.031 A 
ATOM     85  C   UNL A   1      39.030  29.704  28.574  1.00  0.00     0.131 A 
ATOM     86  C   UNL A   1      38.484  29.675  31.281  1.00  0.00     0.055 A 
ATOM     87  C   UNL A   1      37.713  29.852  29.013  1.00  0.00     0.041 A 
ATOM     88  F   UNL A   1      39.248  29.699  27.249  1.00  0.00    -0.206 F 
ATOM     89  C   UNL A   1      37.433  29.822  30.375  1.00  0.00     0.022 A 
BRANCH  86  90
ATOM     90  S   UNL A   1      38.136  29.488  33.052  1.00  0.00     0.124 S 
ATOM     91  O   UNL A   1      37.294  28.296  33.062  1.00  0.00    -0.237 OA
ATOM     92  O   UNL A   1      39.475  29.333  33.608  1.00  0.00    -0.237 OA
ATOM     93  O   UNL A   1      37.458  30.735  33.398  1.00  0.00    -0.744 OA
ENDBRANCH  86  90
ENDBRANCH  59  83
BRANCH  71  94
ATOM     94  C   UNL A   1      45.746  33.681  29.290  1.00  0.00     0.023 A 
ATOM     95  C   UNL A   1      45.493  34.723  28.382  1.00  0.00     0.031 A 
ATOM     96  C   UNL A   1      46.216  34.023  30.573  1.00  0.00     0.131 A 
ATOM     97  C   UNL A   1      45.763  36.050  28.748  1.00  0.00     0.055 A 
ATOM     98  C   UNL A   1      46.418  35.349  30.954  1.00  0.00     0.041 A 
ATOM     99  F   UNL A   1      46.480  33.069  31.480  1.00  0.00    -0.206 F 
ATOM    100  C   UNL A   1      46.204  36.372  30.035  1.00  0.00     0.022 A 
BRANCH  97 101
ATOM    101  S   UNL A   1      45.623  37.349  27.489  1.00  0.00     0.124 S 
ATOM    102  O   UNL A   1      46.562  36.885  26.471  1.00  0.00    -0.237 OA
ATOM    103  O   UNL A   1      44.210  37.284  27.129  1.00  0.00    -0.237 OA
ATOM    104  O   UNL A   1      46.027  38.561  28.199  1.00  0.00    -0.744 OA
ENDBRANCH  97 101
ENDBRANCH  71  94
ENDBRANCH  45  46
ENDBRANCH  37  40
ENDBRANCH  35  36
ENDBRANCH  34  35
ENDBRANCH   1  34
TORSDOF 19
ENDMDL
MODEL 2
REMARK VINA RESULT:     -12.1      0.827      7.390
REMARK SMILES COc1ccc(CCN2C(=O)C[C@@H](C(=O)NCCCNC(=O)c3ccc(-c4c5nc(c(-c6cc(S(=O)(=O)[O-])ccc6F)c6ccc([nH]6)c(-c6cc(S(=O)(=O)[O-])ccc6F)c6nc(c(-c7cc(S(=O)(=O)[O-])ccc7F)c7ccc4[nH]7)C=C6)C=C5)cc3)S/C2=[NH+]\c2ccc(F)cc2)cc1OC
REMARK SMILES IDX 17 1 16 2 14 3 15 4 13 6 9 7 10 8 87 9 11 10 12 11 86 12
REMARK SMILES IDX 88 13 8 15 7 16 6 17 3 18 4 19 97 20 5 21 96 22 2 23 1 24
REMARK SMILES IDX 98 25 99 26 89 27 90 28 95 29 91 30 94 31 92 32 93 33 18 34
REMARK SMILES IDX 19 35 20 36 21 37 22 39 23 40 24 41 85 42 25 43 84 44 26 45
REMARK SMILES IDX 27 46 28 47 78 48 29 49 83 50 77 51 79 52 30 53 82 54 76 55
REMARK SMILES IDX 75 56 31 58 63 59 43 60 62 61 44 62 47 63 61 64 80 65 45 66
REMARK SMILES IDX 46 67 60 69 81 70 48 71 32 72 33 73 41 74 34 75 40 76 42 77
REMARK SMILES IDX 39 78 35 79 36 80 37 81 38 82 64 83 65 84 73 85 66 86 72 87
REMARK SMILES IDX 74 88 71 89 67 90 68 91 69 92 70 93 49 94 50 95 58 96 51 97
REMARK SMILES IDX 57 98 59 99 56 100 52 101 53 102 54 103 55 104
REMARK H PARENT 16 5 88 14 20 38 79 57 47 68
REMARK Flexibility Score: inf
ROOT
ATOM      1  C   UNL A   1      38.720  21.605  25.537  1.00  0.00     0.117 C 
ENDROOT
BRANCH   1   2
ATOM      2  N   UNL A   1      37.779  22.520  26.160  1.00  0.00    -0.355 N 
ATOM      3  C   UNL A   1      36.477  22.816  25.864  1.00  0.00     0.234 C 
ATOM      4  O   UNL A   1      35.892  23.600  26.617  1.00  0.00    -0.274 OA
ATOM      5  H   UNL A   1      38.142  23.013  26.933  1.00  0.00     0.163 HD
BRANCH   3   6
ATOM      6  C   UNL A   1      35.723  22.164  24.698  1.00  0.00     0.160 C 
ATOM      7  N   UNL A   1      32.935  22.394  23.710  1.00  0.00    -0.191 N 
ATOM      8  C   UNL A   1      33.943  23.039  23.025  1.00  0.00     0.311 C 
ATOM      9  C   UNL A   1      33.212  21.124  24.183  1.00  0.00     0.319 C 
ATOM     10  O   UNL A   1      33.776  23.541  21.911  1.00  0.00    -0.247 OA
ATOM     11  C   UNL A   1      35.283  23.201  23.696  1.00  0.00     0.153 C 
ATOM     12  S   UNL A   1      34.504  21.040  25.352  1.00  0.00    -0.024 SA
ATOM     13  N   UNL A   1      32.514  20.087  23.826  1.00  0.00    -0.235 N 
ATOM     14  H   UNL A   1      31.712  20.188  23.265  1.00  0.00     0.313 HD
BRANCH   7  15
ATOM     15  C   UNL A   1      31.550  22.768  23.350  1.00  0.00     0.251 C 
BRANCH  15  16
ATOM     16  C   UNL A   1      30.715  23.323  24.546  1.00  0.00     0.082 C 
BRANCH  16  17
ATOM     17  C   UNL A   1      30.985  24.750  24.993  1.00  0.00    -0.040 A 
ATOM     18  C   UNL A   1      31.695  27.372  25.808  1.00  0.00     0.160 A 
ATOM     19  C   UNL A   1      31.946  26.283  26.636  1.00  0.00     0.051 A 
ATOM     20  C   UNL A   1      31.002  27.171  24.605  1.00  0.00     0.160 A 
ATOM     21  C   UNL A   1      31.540  25.005  26.248  1.00  0.00     0.008 A 
ATOM     22  C   UNL A   1      30.684  25.859  24.192  1.00  0.00     0.054 A 
BRANCH  18  23
ATOM     23  O   UNL A   1      32.210  28.606  26.097  1.00  0.00    -0.493 OA
ATOM     24  C   UNL A   1      33.471  28.889  25.498  1.00  0.00     0.278 C 
ENDBRANCH  18  23
BRANCH  20  25
ATOM     25  O   UNL A   1      30.591  28.155  23.740  1.00  0.00    -0.493 OA
ATOM     26  C   UNL A   1      30.379  27.749  22.390  1.00  0.00     0.278 C 
ENDBRANCH  20  25
ENDBRANCH  16  17
ENDBRANCH  15  16
ENDBRANCH   7  15
BRANCH  13  27
ATOM     27  C   UNL A   1      32.934  18.809  24.262  1.00  0.00     0.125 A 
ATOM     28  C   UNL A   1      32.520  18.342  25.520  1.00  0.00     0.055 A 
ATOM     29  C   UNL A   1      33.658  17.952  23.423  1.00  0.00     0.055 A 
ATOM     30  C   UNL A   1      32.751  17.015  25.894  1.00  0.00     0.043 A 
ATOM     31  C   UNL A   1      33.872  16.619  23.788  1.00  0.00     0.043 A 
ATOM     32  C   UNL A   1      33.405  16.161  25.015  1.00  0.00     0.123 A 
ATOM     33  F   UNL A   1      33.574  14.875  25.350  1.00  0.00    -0.207 F 
ENDBRANCH  13  27
ENDBRANCH   3   6
ENDBRANCH   1   2
BRANCH   1  34
ATOM     34  C   UNL A   1      40.055  21.487  26.259  1.00  0.00     0.042 C 
BRANCH  34  35
ATOM     35  C   UNL A   1      40.318  20.125  26.881  1.00  0.00     0.118 C 
BRANCH  35  36
ATOM     36  N   UNL A   1      41.344  19.368  26.178  1.00  0.00    -0.352 N 
ATOM     37  C   UNL A   1      42.569  19.769  25.700  1.00  0.00     0.251 C 
ATOM     38  H   UNL A   1      41.126  18.421  26.019  1.00  0.00     0.163 HD
ATOM     39  O   UNL A   1      43.208  18.999  24.985  1.00  0.00    -0.269 OA
BRANCH  37  40
ATOM     40  C   UNL A   1      43.101  21.115  26.012  1.00  0.00     0.039 A 
ATOM     41  C   UNL A   1      43.094  22.092  25.012  1.00  0.00     0.014 A 
ATOM     42  C   UNL A   1      43.612  21.419  27.275  1.00  0.00     0.014 A 
ATOM     43  C   UNL A   1      43.526  23.390  25.304  1.00  0.00     0.010 A 
ATOM     44  C   UNL A   1      43.954  22.733  27.590  1.00  0.00     0.010 A 
ATOM     45  C   UNL A   1      43.916  23.734  26.608  1.00  0.00    -0.014 A 
BRANCH  45  46
ATOM     46  C   UNL A   1      44.297  25.127  26.965  1.00  0.00     0.031 A 
ATOM     47  C   UNL A   1      43.263  26.073  27.517  1.00  0.00     0.074 A 
ATOM     48  C   UNL A   1      45.552  25.560  26.731  1.00  0.00     0.049 A 
ATOM     49  N   UNL A   1      43.370  27.348  27.793  1.00  0.00    -0.248 NA
ATOM     50  C   UNL A   1      41.923  25.518  27.762  1.00  0.00     0.031 C 
ATOM     51  C   UNL A   1      46.635  24.749  26.171  1.00  0.00     0.029 A 
ATOM     52  N   UNL A   1      46.129  26.792  26.922  1.00  0.00    -0.354 N 
ATOM     53  C   UNL A   1      42.111  27.748  28.230  1.00  0.00     0.074 A 
ATOM     54  C   UNL A   1      41.244  26.595  28.119  1.00  0.00     0.031 C 
ATOM     55  C   UNL A   1      47.749  25.495  26.091  1.00  0.00     0.029 A 
ATOM     56  C   UNL A   1      47.449  26.852  26.536  1.00  0.00     0.049 A 
ATOM     57  H   UNL A   1      45.644  27.560  27.301  1.00  0.00     0.167 HD
ATOM     58  C   UNL A   1      41.722  28.959  28.703  1.00  0.00     0.034 A 
ATOM     59  C   UNL A   1      48.314  27.886  26.522  1.00  0.00     0.034 A 
ATOM     60  C   UNL A   1      42.603  30.096  28.815  1.00  0.00     0.049 A 
ATOM     61  C   UNL A   1      47.846  29.234  27.011  1.00  0.00     0.074 A 
ATOM     62  C   UNL A   1      42.324  31.355  29.322  1.00  0.00     0.029 A 
ATOM     63  N   UNL A   1      43.931  30.120  28.407  1.00  0.00    -0.354 N 
ATOM     64  N   UNL A   1      46.663  29.586  27.459  1.00  0.00    -0.248 NA
ATOM     65  C   UNL A   1      48.832  30.323  27.000  1.00  0.00     0.031 C 
ATOM     66  C   UNL A   1      43.454  32.159  29.148  1.00  0.00     0.029 A 
ATOM     67  C   UNL A   1      44.472  31.379  28.619  1.00  0.00     0.049 A 
ATOM     68  H   UNL A   1      44.417  29.355  28.023  1.00  0.00     0.167 HD
ATOM     69  C   UNL A   1      46.777  30.926  27.821  1.00  0.00     0.074 A 
ATOM     70  C   UNL A   1      48.145  31.314  27.549  1.00  0.00     0.031 C 
ATOM     71  C   UNL A   1      45.838  31.757  28.341  1.00  0.00     0.034 A 
BRANCH  58  72
ATOM     72  C   UNL A   1      40.275  29.118  29.108  1.00  0.00     0.023 A 
ATOM     73  C   UNL A   1      39.876  29.098  30.457  1.00  0.00     0.031 A 
ATOM     74  C   UNL A   1      39.274  29.270  28.132  1.00  0.00     0.131 A 
ATOM     75  C   UNL A   1      38.515  29.151  30.788  1.00  0.00     0.055 A 
ATOM     76  C   UNL A   1      37.927  29.413  28.472  1.00  0.00     0.041 A 
ATOM     77  F   UNL A   1      39.587  29.274  26.826  1.00  0.00    -0.206 F 
ATOM     78  C   UNL A   1      37.539  29.337  29.807  1.00  0.00     0.022 A 
BRANCH  75  79
ATOM     79  S   UNL A   1      38.028  28.820  32.503  1.00  0.00     0.124 S 
ATOM     80  O   UNL A   1      39.015  29.602  33.245  1.00  0.00    -0.237 OA
ATOM     81  O   UNL A   1      36.658  29.316  32.544  1.00  0.00    -0.237 OA
ATOM     82  O   UNL A   1      38.172  27.371  32.626  1.00  0.00    -0.744 OA
ENDBRANCH  75  79
ENDBRANCH  58  72
BRANCH  59  83
ATOM     83  C   UNL A   1      49.708  27.702  26.018  1.00  0.00     0.023 A 
ATOM     84  C   UNL A   1      49.997  27.784  24.647  1.00  0.00     0.031 A 
ATOM     85  C   UNL A   1      50.762  27.392  26.895  1.00  0.00     0.131 A 
ATOM     86  C   UNL A   1      51.294  27.504  24.188  1.00  0.00     0.055 A 
ATOM     87  C   UNL A   1      52.064  27.175  26.439  1.00  0.00     0.041 A 
ATOM     88  F   UNL A   1      50.543  27.303  28.217  1.00  0.00    -0.206 F 
ATOM     89  C   UNL A   1      52.332  27.216  25.075  1.00  0.00     0.022 A 
BRANCH  86  90
ATOM     90  S   UNL A   1      51.581  27.421  22.398  1.00  0.00     0.124 S 
ATOM     91  O   UNL A   1      52.577  26.358  22.308  1.00  0.00    -0.237 OA
ATOM     92  O   UNL A   1      50.250  27.099  21.893  1.00  0.00    -0.237 OA
ATOM     93  O   UNL A   1      52.063  28.760  22.069  1.00  0.00    -0.744 OA
ENDBRANCH  86  90
ENDBRANCH  59  83
BRANCH  71  94
ATOM     94  C   UNL A   1      46.278  33.156  28.707  1.00  0.00     0.023 A 
ATOM     95  C   UNL A   1      46.151  34.236  27.817  1.00  0.00     0.031 A 
ATOM     96  C   UNL A   1      46.837  33.406  29.974  1.00  0.00     0.131 A 
ATOM     97  C   UNL A   1      46.629  35.503  28.184  1.00  0.00     0.055 A 
ATOM     98  C   UNL A   1      47.247  34.682  30.359  1.00  0.00     0.041 A 
ATOM     99  F   UNL A   1      46.987  32.411  30.863  1.00  0.00    -0.206 F 
ATOM    100  C   UNL A   1      47.156  35.738  29.457  1.00  0.00     0.022 A 
BRANCH  97 101
ATOM    101  S   UNL A   1      46.640  36.825  26.942  1.00  0.00     0.124 S 
ATOM    102  O   UNL A   1      47.584  37.776  27.522  1.00  0.00    -0.237 OA
ATOM    103  O   UNL A   1      47.094  36.126  25.745  1.00  0.00    -0.237 OA
ATOM    104  O   UNL A   1      45.250  37.275  26.907  1.00  0.00    -0.744 OA
ENDBRANCH  97 101
ENDBRANCH  71  94
ENDBRANCH  45  46
ENDBRANCH  37  40
ENDBRANCH  35  36
ENDBRANCH  34  35
ENDBRANCH   1  34
TORSDOF 19
ENDMDL
MODEL 3
REMARK VINA RESULT:     -12.1      2.557      7.690
REMARK SMILES COc1ccc(CCN2C(=O)C[C@@H](C(=O)NCCCNC(=O)c3ccc(-c4c5nc(c(-c6cc(S(=O)(=O)[O-])ccc6F)c6ccc([nH]6)c(-c6cc(S(=O)(=O)[O-])ccc6F)c6nc(c(-c7cc(S(=O)(=O)[O-])ccc7F)c7ccc4[nH]7)C=C6)C=C5)cc3)S/C2=[NH+]\c2ccc(F)cc2)cc1OC
REMARK SMILES IDX 17 1 16 2 14 3 15 4 13 6 9 7 10 8 87 9 11 10 12 11 86 12
REMARK SMILES IDX 88 13 8 15 7 16 6 17 3 18 4 19 97 20 5 21 96 22 2 23 1 24
REMARK SMILES IDX 98 25 99 26 89 27 90 28 95 29 91 30 94 31 92 32 93 33 18 34
REMARK SMILES IDX 19 35 20 36 21 37 22 39 23 40 24 41 85 42 25 43 84 44 26 45
REMARK SMILES IDX 27 46 28 47 78 48 29 49 83 50 77 51 79 52 30 53 82 54 76 55
REMARK SMILES IDX 75 56 31 58 63 59 43 60 62 61 44 62 47 63 61 64 80 65 45 66
REMARK SMILES IDX 46 67 60 69 81 70 48 71 32 72 33 73 41 74 34 75 40 76 42 77
REMARK SMILES IDX 39 78 35 79 36 80 37 81 38 82 64 83 65 84 73 85 66 86 72 87
REMARK SMILES IDX 74 88 71 89 67 90 68 91 69 92 70 93 49 94 50 95 58 96 51 97
REMARK SMILES IDX 57 98 59 99 56 100 52 101 53 102 54 103 55 104
REMARK H PARENT 16 5 88 14 20 38 79 57 47 68
REMARK Flexibility Score: inf
ROOT
ATOM      1  C   UNL A   1      38.619  21.496  25.586  1.00  0.00     0.117 C 
ENDROOT
BRANCH   1   2
ATOM      2  N   UNL A   1      37.631  22.347  26.228  1.00  0.00    -0.355 N 
ATOM      3  C   UNL A   1      36.331  22.623  25.903  1.00  0.00     0.234 C 
ATOM      4  O   UNL A   1      35.698  23.345  26.680  1.00  0.00    -0.274 OA
ATOM      5  H   UNL A   1      37.953  22.804  27.039  1.00  0.00     0.163 HD
BRANCH   3   6
ATOM      6  C   UNL A   1      35.636  22.020  24.677  1.00  0.00     0.160 C 
ATOM      7  N   UNL A   1      32.933  22.375  23.504  1.00  0.00    -0.191 N 
ATOM      8  C   UNL A   1      34.011  22.990  22.902  1.00  0.00     0.311 C 
ATOM      9  C   UNL A   1      33.129  21.087  23.971  1.00  0.00     0.319 C 
ATOM     10  O   UNL A   1      33.940  23.516  21.788  1.00  0.00    -0.247 OA
ATOM     11  C   UNL A   1      35.306  23.089  23.666  1.00  0.00     0.153 C 
ATOM     12  S   UNL A   1      34.332  20.934  25.225  1.00  0.00    -0.024 SA
ATOM     13  N   UNL A   1      32.418  20.084  23.548  1.00  0.00    -0.235 N 
ATOM     14  H   UNL A   1      31.661  20.226  22.935  1.00  0.00     0.313 HD
BRANCH   7  15
ATOM     15  C   UNL A   1      31.593  22.808  23.056  1.00  0.00     0.251 C 
BRANCH  15  16
ATOM     16  C   UNL A   1      30.819  23.659  24.112  1.00  0.00     0.082 C 
BRANCH  16  17
ATOM     17  C   UNL A   1      30.825  25.168  23.943  1.00  0.00    -0.040 A 
ATOM     18  C   UNL A   1      30.744  28.000  23.815  1.00  0.00     0.160 A 
ATOM     19  C   UNL A   1      29.574  27.255  23.718  1.00  0.00     0.051 A 
ATOM     20  C   UNL A   1      31.975  27.333  23.884  1.00  0.00     0.160 A 
ATOM     21  C   UNL A   1      29.634  25.861  23.724  1.00  0.00     0.008 A 
ATOM     22  C   UNL A   1      32.004  25.925  23.982  1.00  0.00     0.054 A 
BRANCH  18  23
ATOM     23  O   UNL A   1      30.700  29.361  23.958  1.00  0.00    -0.493 OA
ATOM     24  C   UNL A   1      29.552  29.989  23.397  1.00  0.00     0.278 C 
ENDBRANCH  18  23
BRANCH  20  25
ATOM     25  O   UNL A   1      33.214  27.928  23.878  1.00  0.00    -0.493 OA
ATOM     26  C   UNL A   1      33.790  28.154  22.593  1.00  0.00     0.278 C 
ENDBRANCH  20  25
ENDBRANCH  16  17
ENDBRANCH  15  16
ENDBRANCH   7  15
BRANCH  13  27
ATOM     27  C   UNL A   1      32.758  18.784  23.988  1.00  0.00     0.125 A 
ATOM     28  C   UNL A   1      33.516  17.950  23.151  1.00  0.00     0.055 A 
ATOM     29  C   UNL A   1      32.457  18.351  25.287  1.00  0.00     0.055 A 
ATOM     30  C   UNL A   1      34.034  16.745  23.631  1.00  0.00     0.043 A 
ATOM     31  C   UNL A   1      32.991  17.154  25.775  1.00  0.00     0.043 A 
ATOM     32  C   UNL A   1      33.785  16.370  24.946  1.00  0.00     0.123 A 
ATOM     33  F   UNL A   1      34.331  15.243  25.423  1.00  0.00    -0.207 F 
ENDBRANCH  13  27
ENDBRANCH   3   6
ENDBRANCH   1   2
BRANCH   1  34
ATOM     34  C   UNL A   1      39.912  21.329  26.371  1.00  0.00     0.042 C 
BRANCH  34  35
ATOM     35  C   UNL A   1      40.872  22.503  26.263  1.00  0.00     0.118 C 
BRANCH  35  36
ATOM     36  N   UNL A   1      41.997  22.237  25.377  1.00  0.00    -0.352 N 
ATOM     37  C   UNL A   1      43.061  23.037  25.034  1.00  0.00     0.251 C 
ATOM     38  H   UNL A   1      41.994  21.347  24.958  1.00  0.00     0.163 HD
ATOM     39  O   UNL A   1      43.812  22.670  24.132  1.00  0.00    -0.269 OA
BRANCH  37  40
ATOM     40  C   UNL A   1      43.285  24.334  25.712  1.00  0.00     0.039 A 
ATOM     41  C   UNL A   1      43.026  25.516  25.012  1.00  0.00     0.014 A 
ATOM     42  C   UNL A   1      43.754  24.394  27.026  1.00  0.00     0.014 A 
ATOM     43  C   UNL A   1      43.164  26.750  25.656  1.00  0.00     0.010 A 
ATOM     44  C   UNL A   1      43.801  25.617  27.693  1.00  0.00     0.010 A 
ATOM     45  C   UNL A   1      43.508  26.810  27.015  1.00  0.00    -0.014 A 
BRANCH  45  46
ATOM     46  C   UNL A   1      43.575  28.104  27.746  1.00  0.00     0.031 A 
ATOM     47  C   UNL A   1      42.323  28.715  28.316  1.00  0.00     0.074 A 
ATOM     48  C   UNL A   1      44.750  28.761  27.839  1.00  0.00     0.049 A 
ATOM     49  N   UNL A   1      42.156  29.878  28.893  1.00  0.00    -0.248 NA
ATOM     50  C   UNL A   1      41.087  27.927  28.189  1.00  0.00     0.031 C 
ATOM     51  C   UNL A   1      46.027  28.287  27.302  1.00  0.00     0.029 A 
ATOM     52  N   UNL A   1      45.060  29.972  28.407  1.00  0.00    -0.354 N 
ATOM     53  C   UNL A   1      40.799  29.965  29.187  1.00  0.00     0.074 A 
ATOM     54  C   UNL A   1      40.180  28.766  28.664  1.00  0.00     0.031 C 
ATOM     55  C   UNL A   1      46.986  29.182  27.590  1.00  0.00     0.029 A 
ATOM     56  C   UNL A   1      46.386  30.321  28.279  1.00  0.00     0.049 A 
ATOM     57  H   UNL A   1      44.397  30.537  28.864  1.00  0.00     0.167 HD
ATOM     58  C   UNL A   1      40.136  30.943  29.853  1.00  0.00     0.034 A 
ATOM     59  C   UNL A   1      47.041  31.438  28.654  1.00  0.00     0.034 A 
ATOM     60  C   UNL A   1      40.770  32.129  30.376  1.00  0.00     0.049 A 
ATOM     61  C   UNL A   1      46.273  32.532  29.354  1.00  0.00     0.074 A 
ATOM     62  C   UNL A   1      40.201  33.160  31.105  1.00  0.00     0.029 A 
ATOM     63  N   UNL A   1      42.113  32.450  30.220  1.00  0.00    -0.354 N 
ATOM     64  N   UNL A   1      44.997  32.581  29.660  1.00  0.00    -0.248 NA
ATOM     65  C   UNL A   1      47.035  33.719  29.765  1.00  0.00     0.031 C 
ATOM     66  C   UNL A   1      41.177  34.137  31.319  1.00  0.00     0.029 A 
ATOM     67  C   UNL A   1      42.380  33.677  30.808  1.00  0.00     0.049 A 
ATOM     68  H   UNL A   1      42.777  31.888  29.759  1.00  0.00     0.167 HD
ATOM     69  C   UNL A   1      44.814  33.784  30.337  1.00  0.00     0.074 A 
ATOM     70  C   UNL A   1      46.111  34.424  30.402  1.00  0.00     0.031 C 
ATOM     71  C   UNL A   1      43.678  34.308  30.864  1.00  0.00     0.034 A 
BRANCH  58  72
ATOM     72  C   UNL A   1      38.643  30.780  30.027  1.00  0.00     0.023 A 
ATOM     73  C   UNL A   1      37.727  31.315  29.104  1.00  0.00     0.031 A 
ATOM     74  C   UNL A   1      38.126  30.097  31.143  1.00  0.00     0.131 A 
ATOM     75  C   UNL A   1      36.349  31.227  29.351  1.00  0.00     0.055 A 
ATOM     76  C   UNL A   1      36.752  29.934  31.337  1.00  0.00     0.041 A 
ATOM     77  F   UNL A   1      38.948  29.583  32.071  1.00  0.00    -0.206 F 
ATOM     78  C   UNL A   1      35.855  30.515  30.445  1.00  0.00     0.022 A 
BRANCH  75  79
ATOM     79  S   UNL A   1      35.220  32.184  28.304  1.00  0.00     0.124 S 
ATOM     80  O   UNL A   1      36.141  33.111  27.648  1.00  0.00    -0.237 OA
ATOM     81  O   UNL A   1      34.632  31.158  27.452  1.00  0.00    -0.237 OA
ATOM     82  O   UNL A   1      34.305  32.801  29.262  1.00  0.00    -0.744 OA
ENDBRANCH  75  79
ENDBRANCH  58  72
BRANCH  59  83
ATOM     83  C   UNL A   1      48.498  31.595  28.370  1.00  0.00     0.023 A 
ATOM     84  C   UNL A   1      48.947  32.436  27.339  1.00  0.00     0.031 A 
ATOM     85  C   UNL A   1      49.461  30.868  29.092  1.00  0.00     0.131 A 
ATOM     86  C   UNL A   1      50.314  32.485  27.021  1.00  0.00     0.055 A 
ATOM     87  C   UNL A   1      50.826  30.969  28.812  1.00  0.00     0.041 A 
ATOM     88  F   UNL A   1      49.089  30.051  30.090  1.00  0.00    -0.206 F 
ATOM     89  C   UNL A   1      51.257  31.771  27.761  1.00  0.00     0.022 A 
BRANCH  86  90
ATOM     90  S   UNL A   1      50.830  33.423  25.556  1.00  0.00     0.124 S 
ATOM     91  O   UNL A   1      51.907  34.246  26.097  1.00  0.00    -0.237 OA
ATOM     92  O   UNL A   1      51.231  32.359  24.642  1.00  0.00    -0.237 OA
ATOM     93  O   UNL A   1      49.621  34.149  25.174  1.00  0.00    -0.744 OA
ENDBRANCH  86  90
ENDBRANCH  59  83
BRANCH  71  94
ATOM     94  C   UNL A   1      43.802  35.614  31.615  1.00  0.00     0.023 A 
ATOM     95  C   UNL A   1      43.863  36.852  30.954  1.00  0.00     0.031 A 
ATOM     96  C   UNL A   1      43.863  35.612  33.021  1.00  0.00     0.131 A 
ATOM     97  C   UNL A   1      44.037  38.032  31.694  1.00  0.00     0.055 A 
ATOM     98  C   UNL A   1      43.966  36.793  33.755  1.00  0.00     0.041 A 
ATOM     99  F   UNL A   1      43.814  34.457  33.705  1.00  0.00    -0.206 F 
ATOM    100  C   UNL A   1      44.067  38.012  33.092  1.00  0.00     0.022 A 
BRANCH  97 101
ATOM    101  S   UNL A   1      44.318  39.587  30.805  1.00  0.00     0.124 S 
ATOM    102  O   UNL A   1      44.702  40.489  31.888  1.00  0.00    -0.237 OA
ATOM    103  O   UNL A   1      45.378  39.226  29.870  1.00  0.00    -0.237 OA
ATOM    104  O   UNL A   1      43.022  39.872  30.192  1.00  0.00    -0.744 OA
ENDBRANCH  97 101
ENDBRANCH  71  94
ENDBRANCH  45  46
ENDBRANCH  37  40
ENDBRANCH  35  36
ENDBRANCH  34  35
ENDBRANCH   1  34
TORSDOF 19
ENDMDL
