MODEL 1
REMARK VINA RESULT:     -12.1      0.000      0.000
REMARK SMILES Cc1ccc(C)c([C@@H](O)[C@@H](C)[C@@H](C)C(=O)NCCCNC(=O)c2ccc(-c3c4nc(c(-c5cc(S(=O)(=O)[O-])ccc5F)c5ccc([nH]5)c(-c5cc(S(=O)(=O)[O-])ccc5F)c5nc(c(-c6cc(S(=O)(=O)[O-])ccc6F)c6ccc3[nH]6)C=C5)C=C4)cc2)c1
REMARK SMILES IDX 18 1 17 2 16 3 14 4 15 5 12 7 13 8 10 9 11 10 8 11 7 12 1 13
REMARK SMILES IDX 2 14 3 15 86 16 4 17 5 18 6 19 9 20 19 22 20 23 21 24 22 26
REMARK SMILES IDX 23 27 24 28 85 29 25 30 84 31 26 32 27 33 28 34 78 35 29 36
REMARK SMILES IDX 83 37 77 38 79 39 30 40 82 41 76 42 75 43 31 45 63 46 43 47
REMARK SMILES IDX 62 48 44 49 47 50 61 51 80 52 45 53 46 54 60 56 81 57 48 58
REMARK SMILES IDX 32 59 33 60 41 61 34 62 40 63 42 64 39 65 35 66 36 67 37 68
REMARK SMILES IDX 38 69 64 70 65 71 73 72 66 73 72 74 74 75 71 76 67 77 68 78
REMARK SMILES IDX 69 79 70 80 49 81 50 82 58 83 51 84 57 85 59 86 56 87 52 88
REMARK SMILES IDX 53 89 54 90 55 91
REMARK H PARENT 16 6 9 21 20 25 79 44 47 55
REMARK Flexibility Score: inf
ROOT
ATOM      1  C   UNL A   1      31.115  31.629  25.906  1.00  0.00     0.042 C 
ENDROOT
BRANCH   1   2
ATOM      2  C   UNL A   1      31.297  30.215  25.345  1.00  0.00     0.117 C 
BRANCH   2   3
ATOM      3  N   UNL A   1      30.805  30.007  23.990  1.00  0.00    -0.356 N 
ATOM      4  C   UNL A   1      31.104  29.075  23.041  1.00  0.00     0.223 C 
ATOM      5  O   UNL A   1      30.380  29.033  22.044  1.00  0.00    -0.275 OA
ATOM      6  H   UNL A   1      30.131  30.665  23.705  1.00  0.00     0.163 HD
BRANCH   4   7
ATOM      7  C   UNL A   1      32.298  28.120  23.147  1.00  0.00     0.081 C 
ATOM      8  C   UNL A   1      33.595  28.854  22.813  1.00  0.00     0.018 C 
BRANCH   7   9
ATOM      9  C   UNL A   1      31.978  26.769  22.445  1.00  0.00     0.031 C 
ATOM     10  C   UNL A   1      30.934  26.011  23.295  1.00  0.00     0.011 C 
BRANCH   9  11
ATOM     11  C   UNL A   1      33.179  25.848  22.111  1.00  0.00     0.148 C 
BRANCH  11  12
ATOM     12  C   UNL A   1      33.187  24.537  22.903  1.00  0.00    -0.016 A 
ATOM     13  C   UNL A   1      32.031  20.942  22.244  1.00  0.00     0.044 C 
ATOM     14  C   UNL A   1      32.636  22.143  22.907  1.00  0.00    -0.051 A 
ATOM     15  C   UNL A   1      33.217  22.011  24.167  1.00  0.00     0.004 A 
ATOM     16  C   UNL A   1      32.636  23.396  22.281  1.00  0.00     0.010 A 
ATOM     17  C   UNL A   1      33.751  23.123  24.807  1.00  0.00     0.004 A 
ATOM     18  C   UNL A   1      33.721  24.394  24.204  1.00  0.00    -0.045 A 
ATOM     19  C   UNL A   1      34.285  25.511  25.035  1.00  0.00     0.045 C 
ENDBRANCH  11  12
BRANCH  11  20
ATOM     20  O   UNL A   1      33.228  25.513  20.725  1.00  0.00    -0.388 OA
ATOM     21  H   UNL A   1      32.478  25.922  20.266  1.00  0.00     0.211 HD
ENDBRANCH  11  20
ENDBRANCH   9  11
ENDBRANCH   7   9
ENDBRANCH   4   7
ENDBRANCH   2   3
ENDBRANCH   1   2
BRANCH   1  22
ATOM     22  C   UNL A   1      31.976  32.001  27.092  1.00  0.00     0.118 C 
BRANCH  22  23
ATOM     23  N   UNL A   1      32.126  33.447  27.290  1.00  0.00    -0.352 N 
ATOM     24  C   UNL A   1      32.951  34.178  28.130  1.00  0.00     0.251 C 
ATOM     25  H   UNL A   1      31.534  33.995  26.726  1.00  0.00     0.163 HD
ATOM     26  O   UNL A   1      32.695  35.368  28.336  1.00  0.00    -0.269 OA
BRANCH  24  27
ATOM     27  C   UNL A   1      34.119  33.550  28.778  1.00  0.00     0.039 A 
ATOM     28  C   UNL A   1      34.370  33.517  30.151  1.00  0.00     0.014 A 
ATOM     29  C   UNL A   1      35.139  33.139  27.953  1.00  0.00     0.014 A 
ATOM     30  C   UNL A   1      35.647  33.114  30.581  1.00  0.00     0.010 A 
ATOM     31  C   UNL A   1      36.047  32.246  28.400  1.00  0.00     0.010 A 
ATOM     32  C   UNL A   1      36.528  32.567  29.643  1.00  0.00    -0.014 A 
BRANCH  32  33
ATOM     33  C   UNL A   1      37.873  32.085  29.877  1.00  0.00     0.031 A 
ATOM     34  C   UNL A   1      38.086  30.698  29.425  1.00  0.00     0.074 A 
ATOM     35  C   UNL A   1      38.929  32.912  30.029  1.00  0.00     0.049 A 
ATOM     36  N   UNL A   1      37.997  29.626  30.136  1.00  0.00    -0.248 NA
ATOM     37  C   UNL A   1      38.138  30.447  27.970  1.00  0.00     0.031 C 
ATOM     38  C   UNL A   1      38.964  34.378  29.982  1.00  0.00     0.029 A 
ATOM     39  N   UNL A   1      40.243  32.582  30.145  1.00  0.00    -0.354 N 
ATOM     40  C   UNL A   1      38.286  28.600  29.249  1.00  0.00     0.074 A 
ATOM     41  C   UNL A   1      37.972  29.124  27.952  1.00  0.00     0.031 C 
ATOM     42  C   UNL A   1      40.250  34.794  29.897  1.00  0.00     0.029 A 
ATOM     43  C   UNL A   1      41.132  33.643  30.010  1.00  0.00     0.049 A 
ATOM     44  H   UNL A   1      40.543  31.658  30.315  1.00  0.00     0.167 HD
ATOM     45  C   UNL A   1      39.101  27.565  29.599  1.00  0.00     0.034 A 
ATOM     46  C   UNL A   1      42.488  33.557  29.947  1.00  0.00     0.034 A 
ATOM     47  C   UNL A   1      39.388  27.606  31.023  1.00  0.00     0.049 A 
ATOM     48  C   UNL A   1      42.864  32.233  30.513  1.00  0.00     0.074 A 
ATOM     49  C   UNL A   1      38.610  27.667  32.166  1.00  0.00     0.029 A 
ATOM     50  N   UNL A   1      40.643  28.026  31.415  1.00  0.00    -0.354 N 
ATOM     51  N   UNL A   1      42.669  31.895  31.758  1.00  0.00    -0.248 NA
ATOM     52  C   UNL A   1      43.023  31.113  29.595  1.00  0.00     0.031 C 
ATOM     53  C   UNL A   1      39.289  28.579  33.029  1.00  0.00     0.029 A 
ATOM     54  C   UNL A   1      40.488  28.953  32.419  1.00  0.00     0.049 A 
ATOM     55  H   UNL A   1      41.500  27.717  31.042  1.00  0.00     0.167 HD
ATOM     56  C   UNL A   1      42.243  30.575  31.714  1.00  0.00     0.074 A 
ATOM     57  C   UNL A   1      42.597  30.114  30.375  1.00  0.00     0.031 C 
ATOM     58  C   UNL A   1      41.381  30.077  32.652  1.00  0.00     0.034 A 
BRANCH  45  59
ATOM     59  C   UNL A   1      39.944  26.750  28.635  1.00  0.00     0.023 A 
ATOM     60  C   UNL A   1      41.018  27.424  28.025  1.00  0.00     0.031 A 
ATOM     61  C   UNL A   1      39.659  25.469  28.108  1.00  0.00     0.131 A 
ATOM     62  C   UNL A   1      41.669  26.889  26.902  1.00  0.00     0.055 A 
ATOM     63  C   UNL A   1      40.357  24.909  27.033  1.00  0.00     0.041 A 
ATOM     64  F   UNL A   1      38.649  24.702  28.528  1.00  0.00    -0.206 F 
ATOM     65  C   UNL A   1      41.347  25.634  26.399  1.00  0.00     0.022 A 
BRANCH  62  66
ATOM     66  S   UNL A   1      42.826  27.950  26.007  1.00  0.00     0.124 S 
ATOM     67  O   UNL A   1      42.576  29.245  26.631  1.00  0.00    -0.237 OA
ATOM     68  O   UNL A   1      44.106  27.321  26.317  1.00  0.00    -0.237 OA
ATOM     69  O   UNL A   1      42.390  27.829  24.618  1.00  0.00    -0.744 OA
ENDBRANCH  62  66
ENDBRANCH  45  59
BRANCH  46  70
ATOM     70  C   UNL A   1      43.440  34.427  29.199  1.00  0.00     0.023 A 
ATOM     71  C   UNL A   1      44.044  34.031  27.986  1.00  0.00     0.031 A 
ATOM     72  C   UNL A   1      43.582  35.785  29.561  1.00  0.00     0.131 A 
ATOM     73  C   UNL A   1      44.748  34.972  27.198  1.00  0.00     0.055 A 
ATOM     74  C   UNL A   1      44.290  36.707  28.786  1.00  0.00     0.041 A 
ATOM     75  F   UNL A   1      42.955  36.287  30.636  1.00  0.00    -0.206 F 
ATOM     76  C   UNL A   1      44.870  36.305  27.594  1.00  0.00     0.022 A 
BRANCH  73  77
ATOM     77  S   UNL A   1      45.424  34.497  25.572  1.00  0.00     0.124 S 
ATOM     78  O   UNL A   1      44.241  34.534  24.719  1.00  0.00    -0.237 OA
ATOM     79  O   UNL A   1      46.428  35.527  25.335  1.00  0.00    -0.237 OA
ATOM     80  O   UNL A   1      45.969  33.158  25.806  1.00  0.00    -0.744 OA
ENDBRANCH  73  77
ENDBRANCH  46  70
BRANCH  58  81
ATOM     81  C   UNL A   1      41.177  30.865  33.935  1.00  0.00     0.023 A 
ATOM     82  C   UNL A   1      40.291  31.957  34.090  1.00  0.00     0.031 A 
ATOM     83  C   UNL A   1      41.839  30.401  35.087  1.00  0.00     0.131 A 
ATOM     84  C   UNL A   1      40.107  32.545  35.358  1.00  0.00     0.055 A 
ATOM     85  C   UNL A   1      41.638  30.971  36.343  1.00  0.00     0.041 A 
ATOM     86  F   UNL A   1      42.675  29.352  35.014  1.00  0.00    -0.206 F 
ATOM     87  C   UNL A   1      40.774  32.051  36.483  1.00  0.00     0.022 A 
BRANCH  84  88
ATOM     88  S   UNL A   1      38.998  33.975  35.570  1.00  0.00     0.124 S 
ATOM     89  O   UNL A   1      37.945  33.466  36.439  1.00  0.00    -0.237 OA
ATOM     90  O   UNL A   1      39.885  34.979  36.153  1.00  0.00    -0.237 OA
ATOM     91  O   UNL A   1      38.565  34.274  34.202  1.00  0.00    -0.744 OA
ENDBRANCH  84  88
ENDBRANCH  58  81
ENDBRANCH  32  33
ENDBRANCH  24  27
ENDBRANCH  22  23
ENDBRANCH   1  22
TORSDOF 17
ENDMDL
MODEL 2
REMARK VINA RESULT:     -12.1      4.992      9.849
REMARK SMILES Cc1ccc(C)c([C@@H](O)[C@@H](C)[C@@H](C)C(=O)NCCCNC(=O)c2ccc(-c3c4nc(c(-c5cc(S(=O)(=O)[O-])ccc5F)c5ccc([nH]5)c(-c5cc(S(=O)(=O)[O-])ccc5F)c5nc(c(-c6cc(S(=O)(=O)[O-])ccc6F)c6ccc3[nH]6)C=C5)C=C4)cc2)c1
REMARK SMILES IDX 18 1 17 2 16 3 14 4 15 5 12 7 13 8 10 9 11 10 8 11 7 12 1 13
REMARK SMILES IDX 2 14 3 15 86 16 4 17 5 18 6 19 9 20 19 22 20 23 21 24 22 26
REMARK SMILES IDX 23 27 24 28 85 29 25 30 84 31 26 32 27 33 28 34 78 35 29 36
REMARK SMILES IDX 83 37 77 38 79 39 30 40 82 41 76 42 75 43 31 45 63 46 43 47
REMARK SMILES IDX 62 48 44 49 47 50 61 51 80 52 45 53 46 54 60 56 81 57 48 58
REMARK SMILES IDX 32 59 33 60 41 61 34 62 40 63 42 64 39 65 35 66 36 67 37 68
REMARK SMILES IDX 38 69 64 70 65 71 73 72 66 73 72 74 74 75 71 76 67 77 68 78
REMARK SMILES IDX 69 79 70 80 49 81 50 82 58 83 51 84 57 85 59 86 56 87 52 88
REMARK SMILES IDX 53 89 54 90 55 91
REMARK H PARENT 16 6 9 21 20 25 79 44 47 55
REMARK Flexibility Score: inf
ROOT
ATOM      1  C   UNL A   1      37.504  19.289  25.021  1.00  0.00     0.042 C 
ENDROOT
BRANCH   1   2
ATOM      2  C   UNL A   1      36.235  20.146  24.978  1.00  0.00     0.117 C 
BRANCH   2   3
ATOM      3  N   UNL A   1      36.399  21.535  25.382  1.00  0.00    -0.356 N 
ATOM      4  C   UNL A   1      35.573  22.616  25.300  1.00  0.00     0.223 C 
ATOM      5  O   UNL A   1      35.912  23.634  25.907  1.00  0.00    -0.275 OA
ATOM      6  H   UNL A   1      37.272  21.730  25.793  1.00  0.00     0.163 HD
BRANCH   4   7
ATOM      7  C   UNL A   1      34.282  22.627  24.472  1.00  0.00     0.081 C 
ATOM      8  C   UNL A   1      34.396  23.629  23.326  1.00  0.00     0.018 C 
BRANCH   7   9
ATOM      9  C   UNL A   1      33.038  22.667  25.406  1.00  0.00     0.031 C 
ATOM     10  C   UNL A   1      33.491  22.311  26.840  1.00  0.00     0.011 C 
BRANCH   9  11
ATOM     11  C   UNL A   1      31.819  21.805  24.991  1.00  0.00     0.148 C 
BRANCH  11  12
ATOM     12  C   UNL A   1      32.203  20.466  24.352  1.00  0.00    -0.016 A 
ATOM     13  C   UNL A   1      33.292  17.031  25.660  1.00  0.00     0.044 C 
ATOM     14  C   UNL A   1      32.891  18.138  24.732  1.00  0.00    -0.051 A 
ATOM     15  C   UNL A   1      32.833  17.897  23.361  1.00  0.00     0.004 A 
ATOM     16  C   UNL A   1      32.565  19.411  25.218  1.00  0.00     0.010 A 
ATOM     17  C   UNL A   1      32.496  18.924  22.488  1.00  0.00     0.004 A 
ATOM     18  C   UNL A   1      32.205  20.217  22.960  1.00  0.00    -0.045 A 
ATOM     19  C   UNL A   1      31.911  21.237  21.899  1.00  0.00     0.045 C 
ENDBRANCH  11  12
BRANCH  11  20
ATOM     20  O   UNL A   1      30.960  21.524  26.094  1.00  0.00    -0.388 OA
ATOM     21  H   UNL A   1      31.176  22.116  26.831  1.00  0.00     0.211 HD
ENDBRANCH  11  20
ENDBRANCH   9  11
ENDBRANCH   7   9
ENDBRANCH   4   7
ENDBRANCH   2   3
ENDBRANCH   1   2
BRANCH   1  22
ATOM     22  C   UNL A   1      38.806  20.021  25.260  1.00  0.00     0.118 C 
BRANCH  22  23
ATOM     23  N   UNL A   1      39.910  19.151  25.683  1.00  0.00    -0.352 N 
ATOM     24  C   UNL A   1      41.219  19.436  26.036  1.00  0.00     0.251 C 
ATOM     25  H   UNL A   1      39.679  18.195  25.721  1.00  0.00     0.163 HD
ATOM     26  O   UNL A   1      42.045  18.519  26.069  1.00  0.00    -0.269 OA
BRANCH  24  27
ATOM     27  C   UNL A   1      41.632  20.815  26.362  1.00  0.00     0.039 A 
ATOM     28  C   UNL A   1      42.758  21.470  25.860  1.00  0.00     0.014 A 
ATOM     29  C   UNL A   1      40.966  21.432  27.395  1.00  0.00     0.014 A 
ATOM     30  C   UNL A   1      43.149  22.675  26.471  1.00  0.00     0.010 A 
ATOM     31  C   UNL A   1      41.013  22.775  27.517  1.00  0.00     0.010 A 
ATOM     32  C   UNL A   1      42.287  23.268  27.397  1.00  0.00    -0.014 A 
BRANCH  32  33
ATOM     33  C   UNL A   1      42.493  24.503  28.125  1.00  0.00     0.031 A 
ATOM     34  C   UNL A   1      41.398  25.475  27.952  1.00  0.00     0.074 A 
ATOM     35  C   UNL A   1      43.306  24.590  29.199  1.00  0.00     0.049 A 
ATOM     36  N   UNL A   1      41.344  26.442  27.101  1.00  0.00    -0.248 NA
ATOM     37  C   UNL A   1      40.106  25.183  28.607  1.00  0.00     0.031 C 
ATOM     38  C   UNL A   1      44.100  23.537  29.840  1.00  0.00     0.029 A 
ATOM     39  N   UNL A   1      43.497  25.656  30.022  1.00  0.00    -0.354 N 
ATOM     40  C   UNL A   1      40.121  27.048  27.347  1.00  0.00     0.074 A 
ATOM     41  C   UNL A   1      39.312  26.033  27.954  1.00  0.00     0.031 C 
ATOM     42  C   UNL A   1      44.543  23.977  31.042  1.00  0.00     0.029 A 
ATOM     43  C   UNL A   1      44.176  25.375  31.203  1.00  0.00     0.049 A 
ATOM     44  H   UNL A   1      43.178  26.561  29.798  1.00  0.00     0.167 HD
ATOM     45  C   UNL A   1      39.994  28.405  27.386  1.00  0.00     0.034 A 
ATOM     46  C   UNL A   1      44.370  26.227  32.245  1.00  0.00     0.034 A 
ATOM     47  C   UNL A   1      41.216  29.041  26.923  1.00  0.00     0.049 A 
ATOM     48  C   UNL A   1      44.159  27.605  31.723  1.00  0.00     0.074 A 
ATOM     49  C   UNL A   1      41.996  28.927  25.785  1.00  0.00     0.029 A 
ATOM     50  N   UNL A   1      42.037  29.625  27.868  1.00  0.00    -0.354 N 
ATOM     51  N   UNL A   1      44.921  28.163  30.823  1.00  0.00    -0.248 NA
ATOM     52  C   UNL A   1      42.831  28.191  31.845  1.00  0.00     0.031 C 
ATOM     53  C   UNL A   1      43.344  28.975  26.252  1.00  0.00     0.029 A 
ATOM     54  C   UNL A   1      43.325  29.210  27.628  1.00  0.00     0.049 A 
ATOM     55  H   UNL A   1      41.749  30.232  28.588  1.00  0.00     0.167 HD
ATOM     56  C   UNL A   1      44.052  28.846  29.984  1.00  0.00     0.074 A 
ATOM     57  C   UNL A   1      42.800  28.927  30.729  1.00  0.00     0.031 C 
ATOM     58  C   UNL A   1      44.335  29.014  28.656  1.00  0.00     0.034 A 
BRANCH  45  59
ATOM     59  C   UNL A   1      38.948  29.164  28.182  1.00  0.00     0.023 A 
ATOM     60  C   UNL A   1      39.057  29.089  29.582  1.00  0.00     0.031 A 
ATOM     61  C   UNL A   1      37.756  29.755  27.700  1.00  0.00     0.131 A 
ATOM     62  C   UNL A   1      37.995  29.475  30.416  1.00  0.00     0.055 A 
ATOM     63  C   UNL A   1      36.730  30.204  28.538  1.00  0.00     0.041 A 
ATOM     64  F   UNL A   1      37.457  29.870  26.404  1.00  0.00    -0.206 F 
ATOM     65  C   UNL A   1      36.829  30.033  29.905  1.00  0.00     0.022 A 
BRANCH  62  66
ATOM     66  S   UNL A   1      38.105  29.067  32.173  1.00  0.00     0.124 S 
ATOM     67  O   UNL A   1      38.426  27.644  32.122  1.00  0.00    -0.237 OA
ATOM     68  O   UNL A   1      39.174  29.954  32.618  1.00  0.00    -0.237 OA
ATOM     69  O   UNL A   1      36.773  29.389  32.678  1.00  0.00    -0.744 OA
ENDBRANCH  62  66
ENDBRANCH  45  59
BRANCH  46  70
ATOM     70  C   UNL A   1      44.467  25.910  33.698  1.00  0.00     0.023 A 
ATOM     71  C   UNL A   1      43.434  26.206  34.614  1.00  0.00     0.031 A 
ATOM     72  C   UNL A   1      45.506  25.076  34.166  1.00  0.00     0.131 A 
ATOM     73  C   UNL A   1      43.471  25.678  35.927  1.00  0.00     0.055 A 
ATOM     74  C   UNL A   1      45.545  24.568  35.468  1.00  0.00     0.041 A 
ATOM     75  F   UNL A   1      46.476  24.645  33.344  1.00  0.00    -0.206 F 
ATOM     76  C   UNL A   1      44.519  24.860  36.352  1.00  0.00     0.022 A 
BRANCH  73  77
ATOM     77  S   UNL A   1      42.081  25.954  37.074  1.00  0.00     0.124 S 
ATOM     78  O   UNL A   1      41.396  27.091  36.468  1.00  0.00    -0.237 OA
ATOM     79  O   UNL A   1      41.379  24.677  37.032  1.00  0.00    -0.237 OA
ATOM     80  O   UNL A   1      42.740  26.244  38.348  1.00  0.00    -0.744 OA
ENDBRANCH  73  77
ENDBRANCH  46  70
BRANCH  58  81
ATOM     81  C   UNL A   1      45.758  28.769  28.185  1.00  0.00     0.023 A 
ATOM     82  C   UNL A   1      46.326  27.498  27.933  1.00  0.00     0.031 A 
ATOM     83  C   UNL A   1      46.537  29.898  27.870  1.00  0.00     0.131 A 
ATOM     84  C   UNL A   1      47.627  27.397  27.396  1.00  0.00     0.055 A 
ATOM     85  C   UNL A   1      47.813  29.794  27.319  1.00  0.00     0.041 A 
ATOM     86  F   UNL A   1      46.048  31.135  28.061  1.00  0.00    -0.206 F 
ATOM     87  C   UNL A   1      48.367  28.542  27.086  1.00  0.00     0.022 A 
BRANCH  84  88
ATOM     88  S   UNL A   1      48.388  25.768  27.099  1.00  0.00     0.124 S 
ATOM     89  O   UNL A   1      48.499  25.194  28.434  1.00  0.00    -0.237 OA
ATOM     90  O   UNL A   1      47.429  25.129  26.202  1.00  0.00    -0.237 OA
ATOM     91  O   UNL A   1      49.670  26.102  26.473  1.00  0.00    -0.744 OA
ENDBRANCH  84  88
ENDBRANCH  58  81
ENDBRANCH  32  33
ENDBRANCH  24  27
ENDBRANCH  22  23
ENDBRANCH   1  22
TORSDOF 17
ENDMDL
MODEL 3
REMARK VINA RESULT:     -12.0      3.280      7.750
REMARK SMILES Cc1ccc(C)c([C@@H](O)[C@@H](C)[C@@H](C)C(=O)NCCCNC(=O)c2ccc(-c3c4nc(c(-c5cc(S(=O)(=O)[O-])ccc5F)c5ccc([nH]5)c(-c5cc(S(=O)(=O)[O-])ccc5F)c5nc(c(-c6cc(S(=O)(=O)[O-])ccc6F)c6ccc3[nH]6)C=C5)C=C4)cc2)c1
REMARK SMILES IDX 18 1 17 2 16 3 14 4 15 5 12 7 13 8 10 9 11 10 8 11 7 12 1 13
REMARK SMILES IDX 2 14 3 15 86 16 4 17 5 18 6 19 9 20 19 22 20 23 21 24 22 26
REMARK SMILES IDX 23 27 24 28 85 29 25 30 84 31 26 32 27 33 28 34 78 35 29 36
REMARK SMILES IDX 83 37 77 38 79 39 30 40 82 41 76 42 75 43 31 45 63 46 43 47
REMARK SMILES IDX 62 48 44 49 47 50 61 51 80 52 45 53 46 54 60 56 81 57 48 58
REMARK SMILES IDX 32 59 33 60 41 61 34 62 40 63 42 64 39 65 35 66 36 67 37 68
REMARK SMILES IDX 38 69 64 70 65 71 73 72 66 73 72 74 74 75 71 76 67 77 68 78
REMARK SMILES IDX 69 79 70 80 49 81 50 82 58 83 51 84 57 85 59 86 56 87 52 88
REMARK SMILES IDX 53 89 54 90 55 91
REMARK H PARENT 16 6 9 21 20 25 79 44 47 55
REMARK Flexibility Score: inf
ROOT
ATOM      1  C   UNL A   1      36.576  23.453  26.429  1.00  0.00     0.042 C 
ENDROOT
BRANCH   1   2
ATOM      2  C   UNL A   1      35.721  22.421  25.688  1.00  0.00     0.117 C 
BRANCH   2   3
ATOM      3  N   UNL A   1      35.500  22.685  24.273  1.00  0.00    -0.356 N 
ATOM      4  C   UNL A   1      34.462  23.258  23.600  1.00  0.00     0.223 C 
ATOM      5  O   UNL A   1      34.640  23.525  22.410  1.00  0.00    -0.275 OA
ATOM      6  H   UNL A   1      36.240  22.394  23.694  1.00  0.00     0.163 HD
BRANCH   4   7
ATOM      7  C   UNL A   1      33.100  23.546  24.242  1.00  0.00     0.081 C 
ATOM      8  C   UNL A   1      31.973  23.210  23.268  1.00  0.00     0.018 C 
BRANCH   7   9
ATOM      9  C   UNL A   1      33.115  24.932  24.950  1.00  0.00     0.031 C 
ATOM     10  C   UNL A   1      32.217  24.851  26.204  1.00  0.00     0.011 C 
BRANCH   9  11
ATOM     11  C   UNL A   1      32.738  26.164  24.090  1.00  0.00     0.148 C 
BRANCH  11  12
ATOM     12  C   UNL A   1      32.736  27.482  24.871  1.00  0.00    -0.016 A 
ATOM     13  C   UNL A   1      35.054  29.136  27.438  1.00  0.00     0.044 C 
ATOM     14  C   UNL A   1      33.919  28.907  26.485  1.00  0.00    -0.051 A 
ATOM     15  C   UNL A   1      32.959  29.902  26.311  1.00  0.00     0.004 A 
ATOM     16  C   UNL A   1      33.809  27.715  25.758  1.00  0.00     0.010 A 
ATOM     17  C   UNL A   1      31.884  29.690  25.456  1.00  0.00     0.004 A 
ATOM     18  C   UNL A   1      31.742  28.480  24.750  1.00  0.00    -0.045 A 
ATOM     19  C   UNL A   1      30.505  28.371  23.907  1.00  0.00     0.045 C 
ENDBRANCH  11  12
BRANCH  11  20
ATOM     20  O   UNL A   1      33.611  26.327  22.974  1.00  0.00    -0.388 OA
ATOM     21  H   UNL A   1      34.088  27.167  23.056  1.00  0.00     0.211 HD
ENDBRANCH  11  20
ENDBRANCH   9  11
ENDBRANCH   7   9
ENDBRANCH   4   7
ENDBRANCH   2   3
ENDBRANCH   1   2
BRANCH   1  22
ATOM     22  C   UNL A   1      38.034  23.533  26.032  1.00  0.00     0.118 C 
BRANCH  22  23
ATOM     23  N   UNL A   1      38.904  22.608  26.767  1.00  0.00    -0.352 N 
ATOM     24  C   UNL A   1      40.102  22.807  27.434  1.00  0.00     0.251 C 
ATOM     25  H   UNL A   1      38.579  21.679  26.788  1.00  0.00     0.163 HD
ATOM     26  O   UNL A   1      40.798  21.831  27.723  1.00  0.00    -0.269 OA
BRANCH  24  27
ATOM     27  C   UNL A   1      40.550  24.168  27.792  1.00  0.00     0.039 A 
ATOM     28  C   UNL A   1      41.847  24.527  28.166  1.00  0.00     0.014 A 
ATOM     29  C   UNL A   1      39.571  25.117  27.965  1.00  0.00     0.014 A 
ATOM     30  C   UNL A   1      42.044  25.802  28.726  1.00  0.00     0.010 A 
ATOM     31  C   UNL A   1      39.891  26.427  27.925  1.00  0.00     0.010 A 
ATOM     32  C   UNL A   1      40.991  26.721  28.688  1.00  0.00    -0.014 A 
BRANCH  32  33
ATOM     33  C   UNL A   1      40.990  28.077  29.196  1.00  0.00     0.031 A 
ATOM     34  C   UNL A   1      42.003  28.941  28.561  1.00  0.00     0.074 A 
ATOM     35  C   UNL A   1      39.916  28.630  29.798  1.00  0.00     0.049 A 
ATOM     36  N   UNL A   1      43.190  29.196  28.994  1.00  0.00    -0.248 NA
ATOM     37  C   UNL A   1      41.777  29.354  27.160  1.00  0.00     0.031 C 
ATOM     38  C   UNL A   1      38.597  28.041  30.050  1.00  0.00     0.029 A 
ATOM     39  N   UNL A   1      39.758  29.916  30.216  1.00  0.00    -0.354 N 
ATOM     40  C   UNL A   1      43.727  30.050  28.043  1.00  0.00     0.074 A 
ATOM     41  C   UNL A   1      42.999  29.778  26.839  1.00  0.00     0.031 C 
ATOM     42  C   UNL A   1      37.732  29.016  30.416  1.00  0.00     0.029 A 
ATOM     43  C   UNL A   1      38.455  30.272  30.547  1.00  0.00     0.049 A 
ATOM     44  H   UNL A   1      40.512  30.547  30.280  1.00  0.00     0.167 HD
ATOM     45  C   UNL A   1      44.443  31.153  28.400  1.00  0.00     0.034 A 
ATOM     46  C   UNL A   1      38.013  31.521  30.856  1.00  0.00     0.034 A 
ATOM     47  C   UNL A   1      44.721  31.136  29.827  1.00  0.00     0.049 A 
ATOM     48  C   UNL A   1      39.209  32.321  31.235  1.00  0.00     0.074 A 
ATOM     49  C   UNL A   1      45.289  30.217  30.692  1.00  0.00     0.029 A 
ATOM     50  N   UNL A   1      44.003  31.998  30.633  1.00  0.00    -0.354 N 
ATOM     51  N   UNL A   1      39.946  32.071  32.283  1.00  0.00    -0.248 NA
ATOM     52  C   UNL A   1      39.869  33.106  30.201  1.00  0.00     0.031 C 
ATOM     53  C   UNL A   1      44.489  30.274  31.873  1.00  0.00     0.029 A 
ATOM     54  C   UNL A   1      43.537  31.283  31.712  1.00  0.00     0.049 A 
ATOM     55  H   UNL A   1      43.851  32.956  30.465  1.00  0.00     0.167 HD
ATOM     56  C   UNL A   1      41.253  32.268  31.864  1.00  0.00     0.074 A 
ATOM     57  C   UNL A   1      41.136  33.018  30.617  1.00  0.00     0.031 C 
ATOM     58  C   UNL A   1      42.286  31.551  32.403  1.00  0.00     0.034 A 
BRANCH  45  59
ATOM     59  C   UNL A   1      44.568  32.421  27.576  1.00  0.00     0.023 A 
ATOM     60  C   UNL A   1      43.947  33.569  28.101  1.00  0.00     0.031 A 
ATOM     61  C   UNL A   1      45.039  32.545  26.247  1.00  0.00     0.131 A 
ATOM     62  C   UNL A   1      43.721  34.703  27.305  1.00  0.00     0.055 A 
ATOM     63  C   UNL A   1      44.876  33.704  25.481  1.00  0.00     0.041 A 
ATOM     64  F   UNL A   1      45.613  31.548  25.568  1.00  0.00    -0.206 F 
ATOM     65  C   UNL A   1      44.182  34.781  25.995  1.00  0.00     0.022 A 
BRANCH  62  66
ATOM     66  S   UNL A   1      42.659  36.006  27.966  1.00  0.00     0.124 S 
ATOM     67  O   UNL A   1      43.297  37.203  27.427  1.00  0.00    -0.237 OA
ATOM     68  O   UNL A   1      41.364  35.652  27.395  1.00  0.00    -0.237 OA
ATOM     69  O   UNL A   1      42.774  35.834  29.412  1.00  0.00    -0.744 OA
ENDBRANCH  62  66
ENDBRANCH  45  59
BRANCH  46  70
ATOM     70  C   UNL A   1      36.676  32.123  30.593  1.00  0.00     0.023 A 
ATOM     71  C   UNL A   1      35.927  32.783  31.592  1.00  0.00     0.031 A 
ATOM     72  C   UNL A   1      36.218  32.265  29.264  1.00  0.00     0.131 A 
ATOM     73  C   UNL A   1      34.782  33.539  31.244  1.00  0.00     0.055 A 
ATOM     74  C   UNL A   1      35.079  33.000  28.927  1.00  0.00     0.041 A 
ATOM     75  F   UNL A   1      36.919  31.770  28.232  1.00  0.00    -0.206 F 
ATOM     76  C   UNL A   1      34.360  33.650  29.917  1.00  0.00     0.022 A 
BRANCH  73  77
ATOM     77  S   UNL A   1      33.884  34.494  32.511  1.00  0.00     0.124 S 
ATOM     78  O   UNL A   1      32.839  35.147  31.729  1.00  0.00    -0.237 OA
ATOM     79  O   UNL A   1      33.447  33.456  33.437  1.00  0.00    -0.237 OA
ATOM     80  O   UNL A   1      34.904  35.397  33.046  1.00  0.00    -0.744 OA
ENDBRANCH  73  77
ENDBRANCH  46  70
BRANCH  58  81
ATOM     81  C   UNL A   1      42.044  30.804  33.703  1.00  0.00     0.023 A 
ATOM     82  C   UNL A   1      41.943  29.398  33.830  1.00  0.00     0.031 A 
ATOM     83  C   UNL A   1      42.030  31.563  34.889  1.00  0.00     0.131 A 
ATOM     84  C   UNL A   1      41.823  28.809  35.106  1.00  0.00     0.055 A 
ATOM     85  C   UNL A   1      41.933  30.975  36.149  1.00  0.00     0.041 A 
ATOM     86  F   UNL A   1      42.147  32.900  34.841  1.00  0.00    -0.206 F 
ATOM     87  C   UNL A   1      41.822  29.595  36.263  1.00  0.00     0.022 A 
BRANCH  84  88
ATOM     88  S   UNL A   1      41.654  27.004  35.286  1.00  0.00     0.124 S 
ATOM     89  O   UNL A   1      42.964  26.498  34.897  1.00  0.00    -0.237 OA
ATOM     90  O   UNL A   1      41.301  26.859  36.697  1.00  0.00    -0.237 OA
ATOM     91  O   UNL A   1      40.572  26.670  34.356  1.00  0.00    -0.744 OA
ENDBRANCH  84  88
ENDBRANCH  58  81
ENDBRANCH  32  33
ENDBRANCH  24  27
ENDBRANCH  22  23
ENDBRANCH   1  22
TORSDOF 17
ENDMDL
