MODEL 1
REMARK VINA RESULT:     -11.1      0.000      0.000
REMARK SMILES CC[N@@H+]1CCO[C@H](C[NH2+][C@@H]2CCC[C@H](C(=O)NCCCNC(=O)c3ccc(-c4c5nc(c(-c6cc(S(=O)(=O)[O-])ccc6F)c6ccc([nH]6)c(-c6cc(S(=O)(=O)[O-])ccc6F)c6nc(c(-c7cc(S(=O)(=O)[O-])ccc7F)c7ccc4[nH]7)C=C6)C=C5)cc3)C2)C1
REMARK SMILES IDX 18 1 17 2 15 3 16 4 14 6 10 7 11 8 87 9 12 10 13 11 9 12
REMARK SMILES IDX 8 15 7 16 3 17 4 18 88 19 5 21 6 22 2 23 1 24 19 25 20 26
REMARK SMILES IDX 21 27 22 28 23 30 24 31 25 32 86 33 26 34 85 35 27 36 28 37
REMARK SMILES IDX 29 38 79 39 30 40 84 41 78 42 80 43 31 44 83 45 77 46 76 47
REMARK SMILES IDX 32 49 64 50 44 51 63 52 45 53 48 54 62 55 81 56 46 57 47 58
REMARK SMILES IDX 61 60 82 61 49 62 33 63 34 64 42 65 35 66 41 67 43 68 40 69
REMARK SMILES IDX 36 70 37 71 38 72 39 73 65 74 66 75 74 76 67 77 73 78 75 79
REMARK SMILES IDX 72 80 68 81 69 82 70 83 71 84 50 85 51 86 59 87 52 88 58 89
REMARK SMILES IDX 60 90 57 91 53 92 54 93 55 94 56 95
REMARK H PARENT 17 5 9 13 9 14 3 20 21 29 80 48 48 59
REMARK Flexibility Score: inf
ROOT
ATOM      1  C   UNL A   1      31.794  28.713  24.909  1.00  0.00     0.117 C 
ENDROOT
BRANCH   1   2
ATOM      2  N   UNL A   1      31.144  29.265  23.734  1.00  0.00    -0.356 N 
ATOM      3  C   UNL A   1      30.657  28.667  22.611  1.00  0.00     0.223 C 
ATOM      4  O   UNL A   1      30.050  29.381  21.809  1.00  0.00    -0.275 OA
ATOM      5  H   UNL A   1      31.037  30.243  23.752  1.00  0.00     0.163 HD
BRANCH   3   6
ATOM      6  C   UNL A   1      30.818  27.171  22.340  1.00  0.00     0.084 C 
ATOM      7  C   UNL A   1      30.559  24.829  23.424  1.00  0.00     0.183 C 
ATOM      8  C   UNL A   1      32.053  24.623  23.112  1.00  0.00     0.065 C 
ATOM      9  C   UNL A   1      30.216  26.328  23.480  1.00  0.00     0.078 C 
ATOM     10  C   UNL A   1      32.489  25.327  21.839  1.00  0.00     0.007 C 
ATOM     11  C   UNL A   1      32.253  26.824  21.932  1.00  0.00     0.014 C 
BRANCH   7  12
ATOM     12  N   UNL A   1      30.316  24.071  24.659  1.00  0.00    -0.341 N 
ATOM     13  H   UNL A   1      29.408  24.369  25.016  1.00  0.00     0.346 HD
ATOM     14  H   UNL A   1      30.401  23.098  24.364  1.00  0.00     0.346 HD
BRANCH  12  15
ATOM     15  C   UNL A   1      31.261  24.176  25.765  1.00  0.00     0.299 C 
BRANCH  15  16
ATOM     16  C   UNL A   1      31.803  22.821  26.354  1.00  0.00     0.227 C 
ATOM     17  N   UNL A   1      34.258  22.434  25.794  1.00  0.00    -0.331 N 
ATOM     18  C   UNL A   1      33.864  21.318  24.955  1.00  0.00     0.291 C 
ATOM     19  C   UNL A   1      33.287  22.807  26.806  1.00  0.00     0.300 C 
ATOM     20  H   UNL A   1      34.984  22.036  26.390  1.00  0.00     0.348 HD
ATOM     21  C   UNL A   1      32.387  21.329  24.538  1.00  0.00     0.222 C 
ATOM     22  O   UNL A   1      31.467  21.645  25.590  1.00  0.00    -0.361 OA
BRANCH  17  23
ATOM     23  C   UNL A   1      35.237  23.378  25.313  1.00  0.00     0.258 C 
ATOM     24  C   UNL A   1      34.832  24.827  25.448  1.00  0.00     0.071 C 
ENDBRANCH  17  23
ENDBRANCH  15  16
ENDBRANCH  12  15
ENDBRANCH   7  12
ENDBRANCH   3   6
ENDBRANCH   1   2
BRANCH   1  25
ATOM     25  C   UNL A   1      33.308  28.612  24.779  1.00  0.00     0.042 C 
BRANCH  25  26
ATOM     26  C   UNL A   1      34.068  28.928  26.061  1.00  0.00     0.118 C 
BRANCH  26  27
ATOM     27  N   UNL A   1      33.712  30.225  26.624  1.00  0.00    -0.352 N 
ATOM     28  C   UNL A   1      34.298  30.956  27.625  1.00  0.00     0.251 C 
ATOM     29  H   UNL A   1      32.919  30.644  26.218  1.00  0.00     0.163 HD
ATOM     30  O   UNL A   1      33.706  31.952  28.052  1.00  0.00    -0.269 OA
BRANCH  28  31
ATOM     31  C   UNL A   1      35.597  30.558  28.215  1.00  0.00     0.039 A 
ATOM     32  C   UNL A   1      35.598  29.701  29.320  1.00  0.00     0.014 A 
ATOM     33  C   UNL A   1      36.810  31.035  27.712  1.00  0.00     0.014 A 
ATOM     34  C   UNL A   1      36.809  29.272  29.868  1.00  0.00     0.010 A 
ATOM     35  C   UNL A   1      38.016  30.531  28.197  1.00  0.00     0.010 A 
ATOM     36  C   UNL A   1      38.031  29.646  29.284  1.00  0.00    -0.014 A 
BRANCH  36  37
ATOM     37  C   UNL A   1      39.319  29.105  29.799  1.00  0.00     0.031 A 
ATOM     38  C   UNL A   1      39.998  29.736  30.986  1.00  0.00     0.074 A 
ATOM     39  C   UNL A   1      39.895  28.063  29.166  1.00  0.00     0.049 A 
ATOM     40  N   UNL A   1      41.122  29.403  31.568  1.00  0.00    -0.248 NA
ATOM     41  C   UNL A   1      39.344  30.912  31.577  1.00  0.00     0.031 C 
ATOM     42  C   UNL A   1      39.364  27.405  27.969  1.00  0.00     0.029 A 
ATOM     43  N   UNL A   1      41.049  27.371  29.437  1.00  0.00    -0.354 N 
ATOM     44  C   UNL A   1      41.314  30.332  32.587  1.00  0.00     0.074 A 
ATOM     45  C   UNL A   1      40.224  31.279  32.495  1.00  0.00     0.031 C 
ATOM     46  C   UNL A   1      40.166  26.382  27.636  1.00  0.00     0.029 A 
ATOM     47  C   UNL A   1      41.294  26.338  28.560  1.00  0.00     0.049 A 
ATOM     48  H   UNL A   1      41.645  27.592  30.187  1.00  0.00     0.167 HD
ATOM     49  C   UNL A   1      42.293  30.373  33.525  1.00  0.00     0.034 A 
ATOM     50  C   UNL A   1      42.313  25.459  28.501  1.00  0.00     0.034 A 
ATOM     51  C   UNL A   1      43.370  29.415  33.603  1.00  0.00     0.049 A 
ATOM     52  C   UNL A   1      43.394  25.532  29.548  1.00  0.00     0.074 A 
ATOM     53  C   UNL A   1      44.379  29.327  34.547  1.00  0.00     0.029 A 
ATOM     54  N   UNL A   1      43.591  28.385  32.695  1.00  0.00    -0.354 N 
ATOM     55  N   UNL A   1      43.520  26.373  30.550  1.00  0.00    -0.248 NA
ATOM     56  C   UNL A   1      44.459  24.527  29.467  1.00  0.00     0.031 C 
ATOM     57  C   UNL A   1      45.251  28.301  34.165  1.00  0.00     0.029 A 
ATOM     58  C   UNL A   1      44.740  27.685  33.035  1.00  0.00     0.049 A 
ATOM     59  H   UNL A   1      43.015  28.183  31.923  1.00  0.00     0.167 HD
ATOM     60  C   UNL A   1      44.669  25.980  31.232  1.00  0.00     0.074 A 
ATOM     61  C   UNL A   1      45.174  24.808  30.544  1.00  0.00     0.031 C 
ATOM     62  C   UNL A   1      45.252  26.535  32.326  1.00  0.00     0.034 A 
BRANCH  49  63
ATOM     63  C   UNL A   1      42.256  31.512  34.522  1.00  0.00     0.023 A 
ATOM     64  C   UNL A   1      41.354  31.524  35.602  1.00  0.00     0.031 A 
ATOM     65  C   UNL A   1      43.120  32.612  34.380  1.00  0.00     0.131 A 
ATOM     66  C   UNL A   1      41.282  32.643  36.445  1.00  0.00     0.055 A 
ATOM     67  C   UNL A   1      43.103  33.684  35.275  1.00  0.00     0.041 A 
ATOM     68  F   UNL A   1      43.987  32.673  33.357  1.00  0.00    -0.206 F 
ATOM     69  C   UNL A   1      42.169  33.711  36.306  1.00  0.00     0.022 A 
BRANCH  66  70
ATOM     70  S   UNL A   1      39.910  32.750  37.628  1.00  0.00     0.124 S 
ATOM     71  O   UNL A   1      40.603  32.561  38.900  1.00  0.00    -0.237 OA
ATOM     72  O   UNL A   1      39.383  34.087  37.380  1.00  0.00    -0.237 OA
ATOM     73  O   UNL A   1      39.032  31.649  37.236  1.00  0.00    -0.744 OA
ENDBRANCH  66  70
ENDBRANCH  49  63
BRANCH  50  74
ATOM     74  C   UNL A   1      42.370  24.439  27.411  1.00  0.00     0.023 A 
ATOM     75  C   UNL A   1      41.673  23.225  27.514  1.00  0.00     0.031 A 
ATOM     76  C   UNL A   1      43.160  24.651  26.267  1.00  0.00     0.131 A 
ATOM     77  C   UNL A   1      41.819  22.248  26.514  1.00  0.00     0.055 A 
ATOM     78  C   UNL A   1      43.254  23.702  25.248  1.00  0.00     0.041 A 
ATOM     79  F   UNL A   1      43.844  25.796  26.116  1.00  0.00    -0.206 F 
ATOM     80  C   UNL A   1      42.591  22.485  25.377  1.00  0.00     0.022 A 
BRANCH  77  81
ATOM     81  S   UNL A   1      41.053  20.624  26.769  1.00  0.00     0.124 S 
ATOM     82  O   UNL A   1      42.081  19.726  26.259  1.00  0.00    -0.237 OA
ATOM     83  O   UNL A   1      40.846  20.610  28.214  1.00  0.00    -0.237 OA
ATOM     84  O   UNL A   1      39.832  20.696  25.968  1.00  0.00    -0.744 OA
ENDBRANCH  77  81
ENDBRANCH  50  74
BRANCH  62  85
ATOM     85  C   UNL A   1      46.493  25.851  32.855  1.00  0.00     0.023 A 
ATOM     86  C   UNL A   1      47.767  26.116  32.324  1.00  0.00     0.031 A 
ATOM     87  C   UNL A   1      46.392  24.884  33.872  1.00  0.00     0.131 A 
ATOM     88  C   UNL A   1      48.873  25.363  32.746  1.00  0.00     0.055 A 
ATOM     89  C   UNL A   1      47.511  24.195  34.346  1.00  0.00     0.041 A 
ATOM     90  F   UNL A   1      45.203  24.583  34.417  1.00  0.00    -0.206 F 
ATOM     91  C   UNL A   1      48.757  24.418  33.768  1.00  0.00     0.022 A 
BRANCH  88  92
ATOM     92  S   UNL A   1      50.435  25.534  31.840  1.00  0.00     0.124 S 
ATOM     93  O   UNL A   1      50.632  24.185  31.319  1.00  0.00    -0.237 OA
ATOM     94  O   UNL A   1      50.112  26.558  30.851  1.00  0.00    -0.237 OA
ATOM     95  O   UNL A   1      51.386  25.947  32.870  1.00  0.00    -0.744 OA
ENDBRANCH  88  92
ENDBRANCH  62  85
ENDBRANCH  36  37
ENDBRANCH  28  31
ENDBRANCH  26  27
ENDBRANCH  25  26
ENDBRANCH   1  25
TORSDOF 17
ENDMDL
MODEL 2
REMARK VINA RESULT:     -11.1      3.515      8.661
REMARK SMILES CC[N@@H+]1CCO[C@H](C[NH2+][C@@H]2CCC[C@H](C(=O)NCCCNC(=O)c3ccc(-c4c5nc(c(-c6cc(S(=O)(=O)[O-])ccc6F)c6ccc([nH]6)c(-c6cc(S(=O)(=O)[O-])ccc6F)c6nc(c(-c7cc(S(=O)(=O)[O-])ccc7F)c7ccc4[nH]7)C=C6)C=C5)cc3)C2)C1
REMARK SMILES IDX 18 1 17 2 15 3 16 4 14 6 10 7 11 8 87 9 12 10 13 11 9 12
REMARK SMILES IDX 8 15 7 16 3 17 4 18 88 19 5 21 6 22 2 23 1 24 19 25 20 26
REMARK SMILES IDX 21 27 22 28 23 30 24 31 25 32 86 33 26 34 85 35 27 36 28 37
REMARK SMILES IDX 29 38 79 39 30 40 84 41 78 42 80 43 31 44 83 45 77 46 76 47
REMARK SMILES IDX 32 49 64 50 44 51 63 52 45 53 48 54 62 55 81 56 46 57 47 58
REMARK SMILES IDX 61 60 82 61 49 62 33 63 34 64 42 65 35 66 41 67 43 68 40 69
REMARK SMILES IDX 36 70 37 71 38 72 39 73 65 74 66 75 74 76 67 77 73 78 75 79
REMARK SMILES IDX 72 80 68 81 69 82 70 83 71 84 50 85 51 86 59 87 52 88 58 89
REMARK SMILES IDX 60 90 57 91 53 92 54 93 55 94 56 95
REMARK H PARENT 17 5 9 13 9 14 3 20 21 29 80 48 48 59
REMARK Flexibility Score: inf
ROOT
ATOM      1  C   UNL A   1      31.739  30.581  26.593  1.00  0.00     0.117 C 
ENDROOT
BRANCH   1   2
ATOM      2  N   UNL A   1      32.367  30.161  25.353  1.00  0.00    -0.356 N 
ATOM      3  C   UNL A   1      32.074  29.145  24.495  1.00  0.00     0.223 C 
ATOM      4  O   UNL A   1      32.721  29.086  23.446  1.00  0.00    -0.275 OA
ATOM      5  H   UNL A   1      33.141  30.707  25.086  1.00  0.00     0.163 HD
BRANCH   3   6
ATOM      6  C   UNL A   1      30.977  28.118  24.779  1.00  0.00     0.084 C 
ATOM      7  C   UNL A   1      30.563  25.730  25.703  1.00  0.00     0.183 C 
ATOM      8  C   UNL A   1      29.930  25.411  24.336  1.00  0.00     0.065 C 
ATOM      9  C   UNL A   1      31.521  26.930  25.594  1.00  0.00     0.078 C 
ATOM     10  C   UNL A   1      29.229  26.611  23.721  1.00  0.00     0.007 C 
ATOM     11  C   UNL A   1      30.197  27.762  23.510  1.00  0.00     0.014 C 
BRANCH   7  12
ATOM     12  N   UNL A   1      31.168  24.467  26.150  1.00  0.00    -0.341 N 
ATOM     13  H   UNL A   1      30.958  24.373  27.144  1.00  0.00     0.346 HD
ATOM     14  H   UNL A   1      30.761  23.772  25.523  1.00  0.00     0.346 HD
BRANCH  12  15
ATOM     15  C   UNL A   1      32.605  24.265  25.999  1.00  0.00     0.299 C 
BRANCH  15  16
ATOM     16  C   UNL A   1      33.181  22.904  26.539  1.00  0.00     0.227 C 
ATOM     17  N   UNL A   1      35.496  22.394  25.607  1.00  0.00    -0.331 N 
ATOM     18  C   UNL A   1      34.928  21.273  24.881  1.00  0.00     0.291 C 
ATOM     19  C   UNL A   1      34.717  22.838  26.747  1.00  0.00     0.300 C 
ATOM     20  H   UNL A   1      36.293  21.981  26.092  1.00  0.00     0.348 HD
ATOM     21  C   UNL A   1      33.405  21.338  24.706  1.00  0.00     0.222 C 
ATOM     22  O   UNL A   1      32.680  21.724  25.880  1.00  0.00    -0.361 OA
BRANCH  17  23
ATOM     23  C   UNL A   1      36.421  23.280  24.942  1.00  0.00     0.258 C 
ATOM     24  C   UNL A   1      37.588  23.723  25.792  1.00  0.00     0.071 C 
ENDBRANCH  17  23
ENDBRANCH  15  16
ENDBRANCH  12  15
ENDBRANCH   7  12
ENDBRANCH   3   6
ENDBRANCH   1   2
BRANCH   1  25
ATOM     25  C   UNL A   1      31.637  32.092  26.745  1.00  0.00     0.042 C 
BRANCH  25  26
ATOM     26  C   UNL A   1      32.907  32.754  27.267  1.00  0.00     0.118 C 
BRANCH  26  27
ATOM     27  N   UNL A   1      32.681  34.113  27.742  1.00  0.00    -0.352 N 
ATOM     28  C   UNL A   1      33.249  34.801  28.785  1.00  0.00     0.251 C 
ATOM     29  H   UNL A   1      32.010  34.621  27.232  1.00  0.00     0.163 HD
ATOM     30  O   UNL A   1      32.763  35.890  29.106  1.00  0.00    -0.269 OA
BRANCH  28  31
ATOM     31  C   UNL A   1      34.400  34.253  29.539  1.00  0.00     0.039 A 
ATOM     32  C   UNL A   1      34.152  33.517  30.700  1.00  0.00     0.014 A 
ATOM     33  C   UNL A   1      35.718  34.473  29.132  1.00  0.00     0.014 A 
ATOM     34  C   UNL A   1      35.214  32.948  31.406  1.00  0.00     0.010 A 
ATOM     35  C   UNL A   1      36.769  33.827  29.780  1.00  0.00     0.010 A 
ATOM     36  C   UNL A   1      36.531  33.058  30.928  1.00  0.00    -0.014 A 
BRANCH  36  37
ATOM     37  C   UNL A   1      37.653  32.364  31.618  1.00  0.00     0.031 A 
ATOM     38  C   UNL A   1      38.392  31.238  30.944  1.00  0.00     0.074 A 
ATOM     39  C   UNL A   1      37.980  32.730  32.874  1.00  0.00     0.049 A 
ATOM     40  N   UNL A   1      39.389  30.519  31.392  1.00  0.00    -0.248 NA
ATOM     41  C   UNL A   1      37.930  30.851  29.602  1.00  0.00     0.031 C 
ATOM     42  C   UNL A   1      37.298  33.766  33.655  1.00  0.00     0.029 A 
ATOM     43  N   UNL A   1      38.964  32.278  33.716  1.00  0.00    -0.354 N 
ATOM     44  C   UNL A   1      39.669  29.591  30.393  1.00  0.00     0.074 A 
ATOM     45  C   UNL A   1      38.689  29.796  29.349  1.00  0.00     0.031 C 
ATOM     46  C   UNL A   1      37.911  33.898  34.842  1.00  0.00     0.029 A 
ATOM     47  C   UNL A   1      38.995  32.926  34.930  1.00  0.00     0.049 A 
ATOM     48  H   UNL A   1      39.590  31.558  33.475  1.00  0.00     0.167 HD
ATOM     49  C   UNL A   1      40.665  28.670  30.344  1.00  0.00     0.034 A 
ATOM     50  C   UNL A   1      39.799  32.755  35.998  1.00  0.00     0.034 A 
ATOM     51  C   UNL A   1      41.636  28.483  31.395  1.00  0.00     0.049 A 
ATOM     52  C   UNL A   1      40.892  31.720  35.922  1.00  0.00     0.074 A 
ATOM     53  C   UNL A   1      42.722  27.624  31.423  1.00  0.00     0.029 A 
ATOM     54  N   UNL A   1      41.633  29.153  32.614  1.00  0.00    -0.354 N 
ATOM     55  N   UNL A   1      41.188  30.899  34.940  1.00  0.00    -0.248 NA
ATOM     56  C   UNL A   1      41.768  31.600  37.093  1.00  0.00     0.031 C 
ATOM     57  C   UNL A   1      43.323  27.715  32.684  1.00  0.00     0.029 A 
ATOM     58  C   UNL A   1      42.673  28.697  33.413  1.00  0.00     0.049 A 
ATOM     59  H   UNL A   1      40.988  29.849  32.873  1.00  0.00     0.167 HD
ATOM     60  C   UNL A   1      42.303  30.183  35.367  1.00  0.00     0.074 A 
ATOM     61  C   UNL A   1      42.641  30.694  36.681  1.00  0.00     0.031 C 
ATOM     62  C   UNL A   1      42.985  29.193  34.734  1.00  0.00     0.034 A 
BRANCH  49  63
ATOM     63  C   UNL A   1      40.730  27.779  29.123  1.00  0.00     0.023 A 
ATOM     64  C   UNL A   1      41.674  27.987  28.101  1.00  0.00     0.031 A 
ATOM     65  C   UNL A   1      39.822  26.716  28.966  1.00  0.00     0.131 A 
ATOM     66  C   UNL A   1      41.638  27.202  26.939  1.00  0.00     0.055 A 
ATOM     67  C   UNL A   1      39.848  25.882  27.847  1.00  0.00     0.041 A 
ATOM     68  F   UNL A   1      38.882  26.478  29.895  1.00  0.00    -0.206 F 
ATOM     69  C   UNL A   1      40.749  26.132  26.817  1.00  0.00     0.022 A 
BRANCH  66  70
ATOM     70  S   UNL A   1      42.663  27.696  25.526  1.00  0.00     0.124 S 
ATOM     71  O   UNL A   1      43.947  27.958  26.172  1.00  0.00    -0.237 OA
ATOM     72  O   UNL A   1      42.608  26.518  24.668  1.00  0.00    -0.237 OA
ATOM     73  O   UNL A   1      41.983  28.880  25.006  1.00  0.00    -0.744 OA
ENDBRANCH  66  70
ENDBRANCH  49  63
BRANCH  50  74
ATOM     74  C   UNL A   1      39.603  33.571  37.232  1.00  0.00     0.023 A 
ATOM     75  C   UNL A   1      39.055  33.010  38.397  1.00  0.00     0.031 A 
ATOM     76  C   UNL A   1      39.925  34.940  37.249  1.00  0.00     0.131 A 
ATOM     77  C   UNL A   1      38.799  33.824  39.513  1.00  0.00     0.055 A 
ATOM     78  C   UNL A   1      39.724  35.732  38.381  1.00  0.00     0.041 A 
ATOM     79  F   UNL A   1      40.455  35.528  36.165  1.00  0.00    -0.206 F 
ATOM     80  C   UNL A   1      39.144  35.177  39.517  1.00  0.00     0.022 A 
BRANCH  77  81
ATOM     81  S   UNL A   1      37.922  33.106  40.929  1.00  0.00     0.124 S 
ATOM     82  O   UNL A   1      38.466  33.879  42.039  1.00  0.00    -0.237 OA
ATOM     83  O   UNL A   1      36.528  33.367  40.587  1.00  0.00    -0.237 OA
ATOM     84  O   UNL A   1      38.318  31.699  40.894  1.00  0.00    -0.744 OA
ENDBRANCH  77  81
ENDBRANCH  50  74
BRANCH  62  85
ATOM     85  C   UNL A   1      44.186  28.626  35.456  1.00  0.00     0.023 A 
ATOM     86  C   UNL A   1      44.069  27.545  36.348  1.00  0.00     0.031 A 
ATOM     87  C   UNL A   1      45.457  29.205  35.288  1.00  0.00     0.131 A 
ATOM     88  C   UNL A   1      45.180  27.136  37.102  1.00  0.00     0.055 A 
ATOM     89  C   UNL A   1      46.576  28.740  35.981  1.00  0.00     0.041 A 
ATOM     90  F   UNL A   1      45.632  30.243  34.454  1.00  0.00    -0.206 F 
ATOM     91  C   UNL A   1      46.437  27.713  36.909  1.00  0.00     0.022 A 
BRANCH  88  92
ATOM     92  S   UNL A   1      44.925  25.938  38.440  1.00  0.00     0.124 S 
ATOM     93  O   UNL A   1      46.282  25.751  38.942  1.00  0.00    -0.237 OA
ATOM     94  O   UNL A   1      44.010  26.651  39.326  1.00  0.00    -0.237 OA
ATOM     95  O   UNL A   1      44.350  24.780  37.758  1.00  0.00    -0.744 OA
ENDBRANCH  88  92
ENDBRANCH  62  85
ENDBRANCH  36  37
ENDBRANCH  28  31
ENDBRANCH  26  27
ENDBRANCH  25  26
ENDBRANCH   1  25
TORSDOF 17
ENDMDL
MODEL 3
REMARK VINA RESULT:     -10.9      3.784      5.639
REMARK SMILES CC[N@@H+]1CCO[C@H](C[NH2+][C@@H]2CCC[C@H](C(=O)NCCCNC(=O)c3ccc(-c4c5nc(c(-c6cc(S(=O)(=O)[O-])ccc6F)c6ccc([nH]6)c(-c6cc(S(=O)(=O)[O-])ccc6F)c6nc(c(-c7cc(S(=O)(=O)[O-])ccc7F)c7ccc4[nH]7)C=C6)C=C5)cc3)C2)C1
REMARK SMILES IDX 18 1 17 2 15 3 16 4 14 6 10 7 11 8 87 9 12 10 13 11 9 12
REMARK SMILES IDX 8 15 7 16 3 17 4 18 88 19 5 21 6 22 2 23 1 24 19 25 20 26
REMARK SMILES IDX 21 27 22 28 23 30 24 31 25 32 86 33 26 34 85 35 27 36 28 37
REMARK SMILES IDX 29 38 79 39 30 40 84 41 78 42 80 43 31 44 83 45 77 46 76 47
REMARK SMILES IDX 32 49 64 50 44 51 63 52 45 53 48 54 62 55 81 56 46 57 47 58
REMARK SMILES IDX 61 60 82 61 49 62 33 63 34 64 42 65 35 66 41 67 43 68 40 69
REMARK SMILES IDX 36 70 37 71 38 72 39 73 65 74 66 75 74 76 67 77 73 78 75 79
REMARK SMILES IDX 72 80 68 81 69 82 70 83 71 84 50 85 51 86 59 87 52 88 58 89
REMARK SMILES IDX 60 90 57 91 53 92 54 93 55 94 56 95
REMARK H PARENT 17 5 9 13 9 14 3 20 21 29 80 48 48 59
REMARK Flexibility Score: inf
ROOT
ATOM      1  C   UNL A   1      31.867  30.256  27.113  1.00  0.00     0.117 C 
ENDROOT
BRANCH   1   2
ATOM      2  N   UNL A   1      33.192  29.907  27.590  1.00  0.00    -0.356 N 
ATOM      3  C   UNL A   1      34.192  29.181  27.017  1.00  0.00     0.223 C 
ATOM      4  O   UNL A   1      35.271  29.134  27.616  1.00  0.00    -0.275 OA
ATOM      5  H   UNL A   1      33.406  30.255  28.486  1.00  0.00     0.163 HD
BRANCH   3   6
ATOM      6  C   UNL A   1      34.026  28.465  25.677  1.00  0.00     0.084 C 
ATOM      7  C   UNL A   1      32.858  28.637  23.366  1.00  0.00     0.183 C 
ATOM      8  C   UNL A   1      32.206  27.282  23.699  1.00  0.00     0.065 C 
ATOM      9  C   UNL A   1      33.302  29.359  24.652  1.00  0.00     0.078 C 
ATOM     10  C   UNL A   1      33.104  26.391  24.539  1.00  0.00     0.007 C 
ATOM     11  C   UNL A   1      33.457  27.055  25.859  1.00  0.00     0.014 C 
BRANCH   7  12
ATOM     12  N   UNL A   1      31.869  29.348  22.544  1.00  0.00    -0.341 N 
ATOM     13  H   UNL A   1      31.635  30.208  23.039  1.00  0.00     0.346 HD
ATOM     14  H   UNL A   1      32.335  29.446  21.641  1.00  0.00     0.346 HD
BRANCH  12  15
ATOM     15  C   UNL A   1      30.609  28.694  22.209  1.00  0.00     0.299 C 
BRANCH  15  16
ATOM     16  C   UNL A   1      29.366  29.074  23.097  1.00  0.00     0.227 C 
ATOM     17  N   UNL A   1      27.931  30.887  22.028  1.00  0.00    -0.331 N 
ATOM     18  C   UNL A   1      28.321  31.789  23.096  1.00  0.00     0.291 C 
ATOM     19  C   UNL A   1      28.074  29.478  22.339  1.00  0.00     0.300 C 
ATOM     20  H   UNL A   1      26.914  30.960  22.018  1.00  0.00     0.348 HD
ATOM     21  C   UNL A   1      29.586  31.363  23.854  1.00  0.00     0.222 C 
ATOM     22  O   UNL A   1      29.648  29.972  24.189  1.00  0.00    -0.361 OA
BRANCH  17  23
ATOM     23  C   UNL A   1      27.931  31.355  20.663  1.00  0.00     0.258 C 
ATOM     24  C   UNL A   1      27.733  32.845  20.509  1.00  0.00     0.071 C 
ENDBRANCH  17  23
ENDBRANCH  15  16
ENDBRANCH  12  15
ENDBRANCH   7  12
ENDBRANCH   3   6
ENDBRANCH   1   2
BRANCH   1  25
ATOM     25  C   UNL A   1      31.676  31.748  26.878  1.00  0.00     0.042 C 
BRANCH  25  26
ATOM     26  C   UNL A   1      32.937  32.578  27.081  1.00  0.00     0.118 C 
BRANCH  26  27
ATOM     27  N   UNL A   1      32.661  33.904  27.622  1.00  0.00    -0.352 N 
ATOM     28  C   UNL A   1      33.224  34.573  28.678  1.00  0.00     0.251 C 
ATOM     29  H   UNL A   1      31.952  34.399  27.152  1.00  0.00     0.163 HD
ATOM     30  O   UNL A   1      32.697  35.622  29.060  1.00  0.00    -0.269 OA
BRANCH  28  31
ATOM     31  C   UNL A   1      34.421  34.050  29.376  1.00  0.00     0.039 A 
ATOM     32  C   UNL A   1      34.241  33.210  30.479  1.00  0.00     0.014 A 
ATOM     33  C   UNL A   1      35.715  34.393  28.976  1.00  0.00     0.014 A 
ATOM     34  C   UNL A   1      35.350  32.664  31.129  1.00  0.00     0.010 A 
ATOM     35  C   UNL A   1      36.817  33.773  29.562  1.00  0.00     0.010 A 
ATOM     36  C   UNL A   1      36.649  32.903  30.649  1.00  0.00    -0.014 A 
BRANCH  36  37
ATOM     37  C   UNL A   1      37.826  32.238  31.272  1.00  0.00     0.031 A 
ATOM     38  C   UNL A   1      38.394  32.740  32.573  1.00  0.00     0.074 A 
ATOM     39  C   UNL A   1      38.408  31.200  30.637  1.00  0.00     0.049 A 
ATOM     40  N   UNL A   1      39.413  32.290  33.259  1.00  0.00    -0.248 NA
ATOM     41  C   UNL A   1      37.748  33.921  33.167  1.00  0.00     0.031 C 
ATOM     42  C   UNL A   1      37.987  30.661  29.341  1.00  0.00     0.029 A 
ATOM     43  N   UNL A   1      39.473  30.410  30.991  1.00  0.00    -0.354 N 
ATOM     44  C   UNL A   1      39.537  33.134  34.358  1.00  0.00     0.074 A 
ATOM     45  C   UNL A   1      38.531  34.163  34.207  1.00  0.00     0.031 C 
ATOM     46  C   UNL A   1      38.756  29.606  29.031  1.00  0.00     0.029 A 
ATOM     47  C   UNL A   1      39.757  29.421  30.077  1.00  0.00     0.049 A 
ATOM     48  H   UNL A   1      39.985  30.538  31.822  1.00  0.00     0.167 HD
ATOM     49  C   UNL A   1      40.394  33.044  35.406  1.00  0.00     0.034 A 
ATOM     50  C   UNL A   1      40.717  28.476  30.075  1.00  0.00     0.034 A 
ATOM     51  C   UNL A   1      41.389  32.007  35.541  1.00  0.00     0.049 A 
ATOM     52  C   UNL A   1      41.663  28.402  31.246  1.00  0.00     0.074 A 
ATOM     53  C   UNL A   1      42.267  31.785  36.589  1.00  0.00     0.029 A 
ATOM     54  N   UNL A   1      41.654  31.025  34.593  1.00  0.00    -0.354 N 
ATOM     55  N   UNL A   1      41.719  29.165  32.314  1.00  0.00    -0.248 NA
ATOM     56  C   UNL A   1      42.663  27.329  31.218  1.00  0.00     0.031 C 
ATOM     57  C   UNL A   1      43.111  30.725  36.240  1.00  0.00     0.029 A 
ATOM     58  C   UNL A   1      42.705  30.222  35.015  1.00  0.00     0.049 A 
ATOM     59  H   UNL A   1      41.166  30.915  33.745  1.00  0.00     0.167 HD
ATOM     60  C   UNL A   1      42.747  28.646  33.097  1.00  0.00     0.074 A 
ATOM     61  C   UNL A   1      43.256  27.488  32.390  1.00  0.00     0.031 C 
ATOM     62  C   UNL A   1      43.226  29.086  34.290  1.00  0.00     0.034 A 
BRANCH  49  63
ATOM     63  C   UNL A   1      40.308  34.115  36.472  1.00  0.00     0.023 A 
ATOM     64  C   UNL A   1      41.312  35.087  36.631  1.00  0.00     0.031 A 
ATOM     65  C   UNL A   1      39.214  34.154  37.356  1.00  0.00     0.131 A 
ATOM     66  C   UNL A   1      41.244  36.001  37.694  1.00  0.00     0.055 A 
ATOM     67  C   UNL A   1      39.110  35.122  38.357  1.00  0.00     0.041 A 
ATOM     68  F   UNL A   1      38.234  33.241  37.272  1.00  0.00    -0.206 F 
ATOM     69  C   UNL A   1      40.136  36.044  38.541  1.00  0.00     0.022 A 
BRANCH  66  70
ATOM     70  S   UNL A   1      42.696  37.030  38.047  1.00  0.00     0.124 S 
ATOM     71  O   UNL A   1      43.023  37.542  36.718  1.00  0.00    -0.237 OA
ATOM     72  O   UNL A   1      42.170  38.004  38.995  1.00  0.00    -0.237 OA
ATOM     73  O   UNL A   1      43.663  36.082  38.596  1.00  0.00    -0.744 OA
ENDBRANCH  66  70
ENDBRANCH  49  63
BRANCH  50  74
ATOM     74  C   UNL A   1      40.842  27.527  28.929  1.00  0.00     0.023 A 
ATOM     75  C   UNL A   1      41.828  27.701  27.944  1.00  0.00     0.031 A 
ATOM     76  C   UNL A   1      39.947  26.452  28.782  1.00  0.00     0.131 A 
ATOM     77  C   UNL A   1      41.864  26.844  26.831  1.00  0.00     0.055 A 
ATOM     78  C   UNL A   1      40.025  25.568  27.705  1.00  0.00     0.041 A 
ATOM     79  F   UNL A   1      38.988  26.236  29.697  1.00  0.00    -0.206 F 
ATOM     80  C   UNL A   1      40.979  25.771  26.713  1.00  0.00     0.022 A 
BRANCH  77  81
ATOM     81  S   UNL A   1      43.030  27.211  25.491  1.00  0.00     0.124 S 
ATOM     82  O   UNL A   1      42.291  28.200  24.715  1.00  0.00    -0.237 OA
ATOM     83  O   UNL A   1      44.190  27.706  26.225  1.00  0.00    -0.237 OA
ATOM     84  O   UNL A   1      43.214  25.915  24.839  1.00  0.00    -0.744 OA
ENDBRANCH  77  81
ENDBRANCH  50  74
BRANCH  62  85
ATOM     85  C   UNL A   1      44.345  28.280  34.911  1.00  0.00     0.023 A 
ATOM     86  C   UNL A   1      44.107  27.366  35.952  1.00  0.00     0.031 A 
ATOM     87  C   UNL A   1      45.674  28.466  34.488  1.00  0.00     0.131 A 
ATOM     88  C   UNL A   1      45.186  26.739  36.594  1.00  0.00     0.055 A 
ATOM     89  C   UNL A   1      46.736  27.777  35.078  1.00  0.00     0.041 A 
ATOM     90  F   UNL A   1      45.965  29.328  33.502  1.00  0.00    -0.206 F 
ATOM     91  C   UNL A   1      46.497  26.924  36.150  1.00  0.00     0.022 A 
BRANCH  88  92
ATOM     92  S   UNL A   1      44.863  25.795  38.109  1.00  0.00     0.124 S 
ATOM     93  O   UNL A   1      44.723  24.436  37.594  1.00  0.00    -0.237 OA
ATOM     94  O   UNL A   1      46.061  26.056  38.901  1.00  0.00    -0.237 OA
ATOM     95  O   UNL A   1      43.634  26.391  38.629  1.00  0.00    -0.744 OA
ENDBRANCH  88  92
ENDBRANCH  62  85
ENDBRANCH  36  37
ENDBRANCH  28  31
ENDBRANCH  26  27
ENDBRANCH  25  26
ENDBRANCH   1  25
TORSDOF 17
ENDMDL
