MODEL 1
REMARK VINA RESULT:     -11.9      0.000      0.000
REMARK SMILES O=C(CN1C(=O)/C(=C2/Sc3ccccc3N2CCCS(=O)(=O)[O-])SC1=S)NCCCNC(=O)c1ccc(-c2c3nc(c(-c4cc(S(=O)(=O)[O-])ccc4F)c4ccc([nH]4)c(-c4cc(S(=O)(=O)[O-])ccc4F)c4nc(c(-c5cc(S(=O)(=O)[O-])ccc5F)c5ccc2[nH]5)C=C4)C=C3)cc1
REMARK SMILES IDX 28 1 27 2 1 3 2 4 3 6 4 7 5 8 25 9 6 10 7 11 24 12 26 13
REMARK SMILES IDX 8 14 9 15 16 16 10 17 15 18 11 19 14 20 12 21 13 22 17 23
REMARK SMILES IDX 18 24 19 25 20 26 21 27 22 28 23 29 29 30 30 31 31 32 32 33
REMARK SMILES IDX 33 35 34 36 35 37 96 38 36 39 95 40 37 41 38 42 39 43 89 44
REMARK SMILES IDX 40 45 94 46 88 47 90 48 41 49 93 50 87 51 86 52 42 54 74 55
REMARK SMILES IDX 54 56 73 57 55 58 58 59 72 60 91 61 56 62 57 63 71 65 92 66
REMARK SMILES IDX 59 67 43 68 44 69 52 70 45 71 51 72 53 73 50 74 46 75 47 76
REMARK SMILES IDX 48 77 49 78 75 79 76 80 84 81 77 82 83 83 85 84 82 85 78 86
REMARK SMILES IDX 79 87 80 88 81 89 60 90 61 91 69 92 62 93 68 94 70 95 67 96
REMARK SMILES IDX 63 97 64 98 65 99 66 100
REMARK H PARENT 27 5 31 34 90 53 58 64
REMARK Flexibility Score: inf
ROOT
ATOM      1  C   UNL A   1      36.804  21.029  25.362  1.00  0.00     0.117 C 
ENDROOT
BRANCH   1   2
ATOM      2  N   UNL A   1      36.263  22.256  25.924  1.00  0.00    -0.354 N 
ATOM      3  O   UNL A   1      35.991  23.312  23.916  1.00  0.00    -0.273 OA
ATOM      4  C   UNL A   1      35.722  23.228  25.113  1.00  0.00     0.240 C 
ATOM      5  H   UNL A   1      36.283  22.394  26.898  1.00  0.00     0.163 HD
BRANCH   4   6
ATOM      6  C   UNL A   1      34.778  24.248  25.766  1.00  0.00     0.227 C 
BRANCH   6   7
ATOM      7  N   UNL A   1      33.376  24.327  25.330  1.00  0.00    -0.283 N 
ATOM      8  C   UNL A   1      33.043  25.344  24.457  1.00  0.00     0.269 C 
ATOM      9  C   UNL A   1      32.500  23.275  25.249  1.00  0.00     0.148 C 
ATOM     10  O   UNL A   1      33.868  25.916  23.755  1.00  0.00    -0.268 OA
ATOM     11  C   UNL A   1      31.571  25.450  24.279  1.00  0.00     0.111 C 
ATOM     12  S   UNL A   1      30.948  23.867  24.679  1.00  0.00    -0.052 SA
ATOM     13  S   UNL A   1      32.760  21.668  25.599  1.00  0.00    -0.052 S 
ATOM     14  C   UNL A   1      30.844  26.541  23.927  1.00  0.00     0.100 C 
ATOM     15  S   UNL A   1      29.031  26.323  23.870  1.00  0.00    -0.068 SA
ATOM     16  N   UNL A   1      31.214  27.877  23.608  1.00  0.00    -0.334 N 
ATOM     17  C   UNL A   1      28.843  28.027  23.422  1.00  0.00     0.037 A 
ATOM     18  C   UNL A   1      30.075  28.699  23.355  1.00  0.00     0.056 A 
ATOM     19  C   UNL A   1      27.636  28.648  23.123  1.00  0.00     0.017 A 
ATOM     20  C   UNL A   1      30.066  30.056  23.029  1.00  0.00     0.027 A 
ATOM     21  C   UNL A   1      27.647  29.992  22.761  1.00  0.00     0.001 A 
ATOM     22  C   UNL A   1      28.855  30.695  22.726  1.00  0.00     0.002 A 
BRANCH  16  23
ATOM     23  C   UNL A   1      32.491  28.378  23.085  1.00  0.00     0.124 C 
BRANCH  23  24
ATOM     24  C   UNL A   1      33.244  29.301  24.058  1.00  0.00     0.037 C 
BRANCH  24  25
ATOM     25  C   UNL A   1      33.344  28.873  25.519  1.00  0.00     0.124 C 
BRANCH  25  26
ATOM     26  S   UNL A   1      32.336  29.789  26.692  1.00  0.00     0.095 S 
ATOM     27  O   UNL A   1      31.618  30.827  25.991  1.00  0.00    -0.243 OA
ATOM     28  O   UNL A   1      31.675  28.848  27.569  1.00  0.00    -0.243 OA
ATOM     29  O   UNL A   1      33.478  30.498  27.583  1.00  0.00    -0.748 OA
ENDBRANCH  25  26
ENDBRANCH  24  25
ENDBRANCH  23  24
ENDBRANCH  16  23
ENDBRANCH   6   7
ENDBRANCH   4   6
ENDBRANCH   1   2
BRANCH   1  30
ATOM     30  C   UNL A   1      38.294  21.079  25.076  1.00  0.00     0.042 C 
BRANCH  30  31
ATOM     31  C   UNL A   1      39.189  20.826  26.281  1.00  0.00     0.118 C 
BRANCH  31  32
ATOM     32  N   UNL A   1      40.114  19.711  26.116  1.00  0.00    -0.352 N 
ATOM     33  C   UNL A   1      41.492  19.693  26.115  1.00  0.00     0.251 C 
ATOM     34  H   UNL A   1      39.688  18.832  25.985  1.00  0.00     0.163 HD
ATOM     35  O   UNL A   1      42.084  18.643  25.882  1.00  0.00    -0.269 OA
BRANCH  33  36
ATOM     36  C   UNL A   1      42.247  20.944  26.335  1.00  0.00     0.039 A 
ATOM     37  C   UNL A   1      42.582  21.360  27.623  1.00  0.00     0.014 A 
ATOM     38  C   UNL A   1      42.572  21.743  25.235  1.00  0.00     0.014 A 
ATOM     39  C   UNL A   1      43.036  22.657  27.829  1.00  0.00     0.010 A 
ATOM     40  C   UNL A   1      43.124  23.010  25.438  1.00  0.00     0.010 A 
ATOM     41  C   UNL A   1      43.297  23.505  26.739  1.00  0.00    -0.014 A 
BRANCH  41  42
ATOM     42  C   UNL A   1      43.731  24.906  26.986  1.00  0.00     0.031 A 
ATOM     43  C   UNL A   1      42.765  25.929  27.526  1.00  0.00     0.074 A 
ATOM     44  C   UNL A   1      45.018  25.244  26.774  1.00  0.00     0.049 A 
ATOM     45  N   UNL A   1      42.974  27.187  27.815  1.00  0.00    -0.248 NA
ATOM     46  C   UNL A   1      41.382  25.485  27.772  1.00  0.00     0.031 C 
ATOM     47  C   UNL A   1      46.045  24.332  26.268  1.00  0.00     0.029 A 
ATOM     48  N   UNL A   1      45.691  26.424  26.975  1.00  0.00    -0.354 N 
ATOM     49  C   UNL A   1      41.754  27.690  28.255  1.00  0.00     0.074 A 
ATOM     50  C   UNL A   1      40.799  26.610  28.165  1.00  0.00     0.031 C 
ATOM     51  C   UNL A   1      47.223  24.968  26.249  1.00  0.00     0.029 A 
ATOM     52  C   UNL A   1      47.029  26.354  26.664  1.00  0.00     0.049 A 
ATOM     53  H   UNL A   1      45.256  27.241  27.311  1.00  0.00     0.167 HD
ATOM     54  C   UNL A   1      41.466  28.934  28.709  1.00  0.00     0.034 A 
ATOM     55  C   UNL A   1      47.992  27.299  26.691  1.00  0.00     0.034 A 
ATOM     56  C   UNL A   1      42.438  29.992  28.818  1.00  0.00     0.049 A 
ATOM     57  C   UNL A   1      47.636  28.684  27.164  1.00  0.00     0.074 A 
ATOM     58  C   UNL A   1      42.248  31.277  29.294  1.00  0.00     0.029 A 
ATOM     59  N   UNL A   1      43.774  29.894  28.457  1.00  0.00    -0.354 N 
ATOM     60  N   UNL A   1      46.487  29.130  27.612  1.00  0.00    -0.248 NA
ATOM     61  C   UNL A   1      48.701  29.696  27.138  1.00  0.00     0.031 C 
ATOM     62  C   UNL A   1      43.450  31.974  29.163  1.00  0.00     0.029 A 
ATOM     63  C   UNL A   1      44.412  31.105  28.674  1.00  0.00     0.049 A 
ATOM     64  H   UNL A   1      44.205  29.084  28.100  1.00  0.00     0.167 HD
ATOM     65  C   UNL A   1      46.693  30.467  27.936  1.00  0.00     0.074 A 
ATOM     66  C   UNL A   1      48.086  30.750  27.659  1.00  0.00     0.031 C 
ATOM     67  C   UNL A   1      45.805  31.376  28.413  1.00  0.00     0.034 A 
BRANCH  54  68
ATOM     68  C   UNL A   1      40.053  29.242  29.141  1.00  0.00     0.023 A 
ATOM     69  C   UNL A   1      39.722  29.246  30.510  1.00  0.00     0.031 A 
ATOM     70  C   UNL A   1      39.013  29.391  28.206  1.00  0.00     0.131 A 
ATOM     71  C   UNL A   1      38.382  29.357  30.903  1.00  0.00     0.055 A 
ATOM     72  C   UNL A   1      37.684  29.542  28.605  1.00  0.00     0.041 A 
ATOM     73  F   UNL A   1      39.276  29.393  26.889  1.00  0.00    -0.206 F 
ATOM     74  C   UNL A   1      37.362  29.511  29.958  1.00  0.00     0.022 A 
BRANCH  71  75
ATOM     75  S   UNL A   1      37.902  29.234  32.649  1.00  0.00     0.124 S 
ATOM     76  O   UNL A   1      39.033  29.876  33.315  1.00  0.00    -0.237 OA
ATOM     77  O   UNL A   1      36.652  29.988  32.675  1.00  0.00    -0.237 OA
ATOM     78  O   UNL A   1      37.779  27.799  32.878  1.00  0.00    -0.744 OA
ENDBRANCH  71  75
ENDBRANCH  54  68
BRANCH  55  79
ATOM     79  C   UNL A   1      49.380  26.927  26.289  1.00  0.00     0.023 A 
ATOM     80  C   UNL A   1      49.917  27.364  25.063  1.00  0.00     0.031 A 
ATOM     81  C   UNL A   1      50.138  26.032  27.059  1.00  0.00     0.131 A 
ATOM     82  C   UNL A   1      51.131  26.836  24.605  1.00  0.00     0.055 A 
ATOM     83  C   UNL A   1      51.387  25.571  26.637  1.00  0.00     0.041 A 
ATOM     84  F   UNL A   1      49.665  25.577  28.230  1.00  0.00    -0.206 F 
ATOM     85  C   UNL A   1      51.879  25.956  25.393  1.00  0.00     0.022 A 
BRANCH  82  86
ATOM     86  S   UNL A   1      51.698  27.150  22.910  1.00  0.00     0.124 S 
ATOM     87  O   UNL A   1      51.928  28.591  22.928  1.00  0.00    -0.237 OA
ATOM     88  O   UNL A   1      52.898  26.320  22.839  1.00  0.00    -0.237 OA
ATOM     89  O   UNL A   1      50.584  26.698  22.084  1.00  0.00    -0.744 OA
ENDBRANCH  82  86
ENDBRANCH  55  79
BRANCH  67  90
ATOM     90  C   UNL A   1      46.284  32.782  28.682  1.00  0.00     0.023 A 
ATOM     91  C   UNL A   1      46.254  33.743  27.652  1.00  0.00     0.031 A 
ATOM     92  C   UNL A   1      46.920  33.120  29.888  1.00  0.00     0.131 A 
ATOM     93  C   UNL A   1      46.894  34.976  27.830  1.00  0.00     0.055 A 
ATOM     94  C   UNL A   1      47.513  34.368  30.080  1.00  0.00     0.041 A 
ATOM     95  F   UNL A   1      46.984  32.234  30.896  1.00  0.00    -0.206 F 
ATOM     96  C   UNL A   1      47.517  35.296  29.042  1.00  0.00     0.022 A 
BRANCH  93  97
ATOM     97  S   UNL A   1      47.026  36.168  26.469  1.00  0.00     0.124 S 
ATOM     98  O   UNL A   1      47.496  35.324  25.373  1.00  0.00    -0.237 OA
ATOM     99  O   UNL A   1      45.651  36.644  26.344  1.00  0.00    -0.237 OA
ATOM    100  O   UNL A   1      47.989  37.150  26.954  1.00  0.00    -0.744 OA
ENDBRANCH  93  97
ENDBRANCH  67  90
ENDBRANCH  41  42
ENDBRANCH  33  36
ENDBRANCH  31  32
ENDBRANCH  30  31
ENDBRANCH   1  30
TORSDOF 18
ENDMDL
MODEL 2
REMARK VINA RESULT:     -11.8      0.409      7.474
REMARK SMILES O=C(CN1C(=O)/C(=C2/Sc3ccccc3N2CCCS(=O)(=O)[O-])SC1=S)NCCCNC(=O)c1ccc(-c2c3nc(c(-c4cc(S(=O)(=O)[O-])ccc4F)c4ccc([nH]4)c(-c4cc(S(=O)(=O)[O-])ccc4F)c4nc(c(-c5cc(S(=O)(=O)[O-])ccc5F)c5ccc2[nH]5)C=C4)C=C3)cc1
REMARK SMILES IDX 28 1 27 2 1 3 2 4 3 6 4 7 5 8 25 9 6 10 7 11 24 12 26 13
REMARK SMILES IDX 8 14 9 15 16 16 10 17 15 18 11 19 14 20 12 21 13 22 17 23
REMARK SMILES IDX 18 24 19 25 20 26 21 27 22 28 23 29 29 30 30 31 31 32 32 33
REMARK SMILES IDX 33 35 34 36 35 37 96 38 36 39 95 40 37 41 38 42 39 43 89 44
REMARK SMILES IDX 40 45 94 46 88 47 90 48 41 49 93 50 87 51 86 52 42 54 74 55
REMARK SMILES IDX 54 56 73 57 55 58 58 59 72 60 91 61 56 62 57 63 71 65 92 66
REMARK SMILES IDX 59 67 43 68 44 69 52 70 45 71 51 72 53 73 50 74 46 75 47 76
REMARK SMILES IDX 48 77 49 78 75 79 76 80 84 81 77 82 83 83 85 84 82 85 78 86
REMARK SMILES IDX 79 87 80 88 81 89 60 90 61 91 69 92 62 93 68 94 70 95 67 96
REMARK SMILES IDX 63 97 64 98 65 99 66 100
REMARK H PARENT 27 5 31 34 90 53 58 64
REMARK Flexibility Score: inf
ROOT
ATOM      1  C   UNL A   1      36.691  21.043  25.381  1.00  0.00     0.117 C 
ENDROOT
BRANCH   1   2
ATOM      2  N   UNL A   1      36.160  22.295  25.895  1.00  0.00    -0.354 N 
ATOM      3  O   UNL A   1      35.729  23.206  23.844  1.00  0.00    -0.273 OA
ATOM      4  C   UNL A   1      35.543  23.199  25.060  1.00  0.00     0.240 C 
ATOM      5  H   UNL A   1      36.242  22.500  26.855  1.00  0.00     0.163 HD
BRANCH   4   6
ATOM      6  C   UNL A   1      34.622  24.243  25.706  1.00  0.00     0.227 C 
BRANCH   6   7
ATOM      7  N   UNL A   1      33.216  24.334  25.285  1.00  0.00    -0.283 N 
ATOM      8  C   UNL A   1      32.885  25.344  24.403  1.00  0.00     0.269 C 
ATOM      9  C   UNL A   1      32.326  23.292  25.228  1.00  0.00     0.148 C 
ATOM     10  O   UNL A   1      33.709  25.897  23.684  1.00  0.00    -0.268 OA
ATOM     11  C   UNL A   1      31.413  25.467  24.241  1.00  0.00     0.111 C 
ATOM     12  S   UNL A   1      30.775  23.897  24.668  1.00  0.00    -0.052 SA
ATOM     13  S   UNL A   1      32.569  21.687  25.595  1.00  0.00    -0.052 S 
ATOM     14  C   UNL A   1      30.695  26.563  23.883  1.00  0.00     0.100 C 
ATOM     15  S   UNL A   1      28.879  26.367  23.850  1.00  0.00    -0.068 SA
ATOM     16  N   UNL A   1      31.078  27.890  23.543  1.00  0.00    -0.334 N 
ATOM     17  C   UNL A   1      28.707  28.068  23.383  1.00  0.00     0.037 A 
ATOM     18  C   UNL A   1      29.947  28.723  23.293  1.00  0.00     0.056 A 
ATOM     19  C   UNL A   1      27.504  28.700  23.090  1.00  0.00     0.017 A 
ATOM     20  C   UNL A   1      29.951  30.076  22.950  1.00  0.00     0.027 A 
ATOM     21  C   UNL A   1      27.528  30.039  22.711  1.00  0.00     0.001 A 
ATOM     22  C   UNL A   1      28.745  30.727  22.653  1.00  0.00     0.002 A 
BRANCH  16  23
ATOM     23  C   UNL A   1      32.355  28.368  22.999  1.00  0.00     0.124 C 
BRANCH  23  24
ATOM     24  C   UNL A   1      33.306  28.948  24.060  1.00  0.00     0.037 C 
BRANCH  24  25
ATOM     25  C   UNL A   1      32.694  29.712  25.230  1.00  0.00     0.124 C 
BRANCH  25  26
ATOM     26  S   UNL A   1      33.074  29.095  26.875  1.00  0.00     0.095 S 
ATOM     27  O   UNL A   1      33.889  30.062  27.568  1.00  0.00    -0.243 OA
ATOM     28  O   UNL A   1      31.868  28.542  27.452  1.00  0.00    -0.243 OA
ATOM     29  O   UNL A   1      34.010  27.832  26.514  1.00  0.00    -0.748 OA
ENDBRANCH  25  26
ENDBRANCH  24  25
ENDBRANCH  23  24
ENDBRANCH  16  23
ENDBRANCH   6   7
ENDBRANCH   4   6
ENDBRANCH   1   2
BRANCH   1  30
ATOM     30  C   UNL A   1      38.156  21.101  24.990  1.00  0.00     0.042 C 
BRANCH  30  31
ATOM     31  C   UNL A   1      39.135  20.982  26.149  1.00  0.00     0.118 C 
BRANCH  31  32
ATOM     32  N   UNL A   1      40.046  19.847  26.049  1.00  0.00    -0.352 N 
ATOM     33  C   UNL A   1      41.420  19.800  26.142  1.00  0.00     0.251 C 
ATOM     34  H   UNL A   1      39.611  18.977  25.891  1.00  0.00     0.163 HD
ATOM     35  O   UNL A   1      42.004  18.738  25.951  1.00  0.00    -0.269 OA
BRANCH  33  36
ATOM     36  C   UNL A   1      42.185  21.036  26.411  1.00  0.00     0.039 A 
ATOM     37  C   UNL A   1      42.601  21.352  27.704  1.00  0.00     0.014 A 
ATOM     38  C   UNL A   1      42.436  21.921  25.359  1.00  0.00     0.014 A 
ATOM     39  C   UNL A   1      43.065  22.633  27.982  1.00  0.00     0.010 A 
ATOM     40  C   UNL A   1      42.997  23.173  25.626  1.00  0.00     0.010 A 
ATOM     41  C   UNL A   1      43.253  23.565  26.948  1.00  0.00    -0.014 A 
BRANCH  41  42
ATOM     42  C   UNL A   1      43.698  24.947  27.276  1.00  0.00     0.031 A 
ATOM     43  C   UNL A   1      45.123  25.375  27.034  1.00  0.00     0.074 A 
ATOM     44  C   UNL A   1      42.799  25.835  27.741  1.00  0.00     0.049 A 
ATOM     45  N   UNL A   1      45.679  26.539  27.246  1.00  0.00    -0.248 NA
ATOM     46  C   UNL A   1      46.046  24.366  26.487  1.00  0.00     0.031 C 
ATOM     47  C   UNL A   1      41.390  25.536  27.998  1.00  0.00     0.029 A 
ATOM     48  N   UNL A   1      42.920  27.165  28.058  1.00  0.00    -0.354 N 
ATOM     49  C   UNL A   1      47.014  26.401  26.880  1.00  0.00     0.074 A 
ATOM     50  C   UNL A   1      47.195  25.029  26.463  1.00  0.00     0.031 C 
ATOM     51  C   UNL A   1      40.767  26.658  28.380  1.00  0.00     0.029 A 
ATOM     52  C   UNL A   1      41.742  27.741  28.475  1.00  0.00     0.049 A 
ATOM     53  H   UNL A   1      43.769  27.659  27.993  1.00  0.00     0.167 HD
ATOM     54  C   UNL A   1      47.992  27.339  26.877  1.00  0.00     0.034 A 
ATOM     55  C   UNL A   1      41.474  28.992  28.902  1.00  0.00     0.034 A 
ATOM     56  C   UNL A   1      47.787  28.711  27.270  1.00  0.00     0.049 A 
ATOM     57  C   UNL A   1      42.587  30.005  28.924  1.00  0.00     0.074 A 
ATOM     58  C   UNL A   1      48.710  29.742  27.272  1.00  0.00     0.029 A 
ATOM     59  N   UNL A   1      46.590  29.246  27.721  1.00  0.00    -0.354 N 
ATOM     60  N   UNL A   1      43.833  29.867  28.539  1.00  0.00    -0.248 NA
ATOM     61  C   UNL A   1      42.265  31.345  29.436  1.00  0.00     0.031 C 
ATOM     62  C   UNL A   1      48.089  30.883  27.783  1.00  0.00     0.029 A 
ATOM     63  C   UNL A   1      46.759  30.586  28.031  1.00  0.00     0.049 A 
ATOM     64  H   UNL A   1      45.746  28.747  27.809  1.00  0.00     0.167 HD
ATOM     65  C   UNL A   1      44.439  31.102  28.746  1.00  0.00     0.074 A 
ATOM     66  C   UNL A   1      43.416  31.984  29.265  1.00  0.00     0.031 C 
ATOM     67  C   UNL A   1      45.729  31.465  28.531  1.00  0.00     0.034 A 
BRANCH  54  68
ATOM     68  C   UNL A   1      49.378  26.946  26.426  1.00  0.00     0.023 A 
ATOM     69  C   UNL A   1      49.844  27.343  25.158  1.00  0.00     0.031 A 
ATOM     70  C   UNL A   1      50.176  26.068  27.182  1.00  0.00     0.131 A 
ATOM     71  C   UNL A   1      51.053  26.834  24.668  1.00  0.00     0.055 A 
ATOM     72  C   UNL A   1      51.400  25.596  26.706  1.00  0.00     0.041 A 
ATOM     73  F   UNL A   1      49.776  25.659  28.397  1.00  0.00    -0.206 F 
ATOM     74  C   UNL A   1      51.837  25.968  25.438  1.00  0.00     0.022 A 
BRANCH  71  75
ATOM     75  S   UNL A   1      51.623  27.217  22.989  1.00  0.00     0.124 S 
ATOM     76  O   UNL A   1      52.771  26.324  22.852  1.00  0.00    -0.237 OA
ATOM     77  O   UNL A   1      50.458  26.864  22.182  1.00  0.00    -0.237 OA
ATOM     78  O   UNL A   1      51.946  28.639  23.044  1.00  0.00    -0.744 OA
ENDBRANCH  71  75
ENDBRANCH  54  68
BRANCH  55  79
ATOM     79  C   UNL A   1      40.076  29.336  29.299  1.00  0.00     0.023 A 
ATOM     80  C   UNL A   1      39.708  29.401  30.656  1.00  0.00     0.031 A 
ATOM     81  C   UNL A   1      39.067  29.478  28.334  1.00  0.00     0.131 A 
ATOM     82  C   UNL A   1      38.357  29.512  31.008  1.00  0.00     0.055 A 
ATOM     83  C   UNL A   1      37.730  29.671  28.689  1.00  0.00     0.041 A 
ATOM     84  F   UNL A   1      39.366  29.411  27.027  1.00  0.00    -0.206 F 
ATOM     85  C   UNL A   1      37.367  29.666  30.033  1.00  0.00     0.022 A 
BRANCH  82  86
ATOM     86  S   UNL A   1      37.826  29.301  32.730  1.00  0.00     0.124 S 
ATOM     87  O   UNL A   1      36.572  30.047  32.756  1.00  0.00    -0.237 OA
ATOM     88  O   UNL A   1      37.698  27.848  32.827  1.00  0.00    -0.237 OA
ATOM     89  O   UNL A   1      38.922  29.878  33.501  1.00  0.00    -0.744 OA
ENDBRANCH  82  86
ENDBRANCH  55  79
BRANCH  67  90
ATOM     90  C   UNL A   1      46.143  32.883  28.845  1.00  0.00     0.023 A 
ATOM     91  C   UNL A   1      46.079  33.870  27.842  1.00  0.00     0.031 A 
ATOM     92  C   UNL A   1      46.752  33.214  30.067  1.00  0.00     0.131 A 
ATOM     93  C   UNL A   1      46.663  35.125  28.061  1.00  0.00     0.055 A 
ATOM     94  C   UNL A   1      47.287  34.481  30.299  1.00  0.00     0.041 A 
ATOM     95  F   UNL A   1      46.845  32.304  31.050  1.00  0.00    -0.206 F 
ATOM     96  C   UNL A   1      47.259  35.438  29.288  1.00  0.00     0.022 A 
BRANCH  93  97
ATOM     97  S   UNL A   1      46.753  36.359  26.736  1.00  0.00     0.124 S 
ATOM     98  O   UNL A   1      46.489  35.549  25.549  1.00  0.00    -0.237 OA
ATOM     99  O   UNL A   1      45.689  37.287  27.106  1.00  0.00    -0.237 OA
ATOM    100  O   UNL A   1      48.110  36.886  26.837  1.00  0.00    -0.744 OA
ENDBRANCH  93  97
ENDBRANCH  67  90
ENDBRANCH  41  42
ENDBRANCH  33  36
ENDBRANCH  31  32
ENDBRANCH  30  31
ENDBRANCH   1  30
TORSDOF 18
ENDMDL
MODEL 3
REMARK VINA RESULT:     -11.4      5.720     11.222
REMARK SMILES O=C(CN1C(=O)/C(=C2/Sc3ccccc3N2CCCS(=O)(=O)[O-])SC1=S)NCCCNC(=O)c1ccc(-c2c3nc(c(-c4cc(S(=O)(=O)[O-])ccc4F)c4ccc([nH]4)c(-c4cc(S(=O)(=O)[O-])ccc4F)c4nc(c(-c5cc(S(=O)(=O)[O-])ccc5F)c5ccc2[nH]5)C=C4)C=C3)cc1
REMARK SMILES IDX 28 1 27 2 1 3 2 4 3 6 4 7 5 8 25 9 6 10 7 11 24 12 26 13
REMARK SMILES IDX 8 14 9 15 16 16 10 17 15 18 11 19 14 20 12 21 13 22 17 23
REMARK SMILES IDX 18 24 19 25 20 26 21 27 22 28 23 29 29 30 30 31 31 32 32 33
REMARK SMILES IDX 33 35 34 36 35 37 96 38 36 39 95 40 37 41 38 42 39 43 89 44
REMARK SMILES IDX 40 45 94 46 88 47 90 48 41 49 93 50 87 51 86 52 42 54 74 55
REMARK SMILES IDX 54 56 73 57 55 58 58 59 72 60 91 61 56 62 57 63 71 65 92 66
REMARK SMILES IDX 59 67 43 68 44 69 52 70 45 71 51 72 53 73 50 74 46 75 47 76
REMARK SMILES IDX 48 77 49 78 75 79 76 80 84 81 77 82 83 83 85 84 82 85 78 86
REMARK SMILES IDX 79 87 80 88 81 89 60 90 61 91 69 92 62 93 68 94 70 95 67 96
REMARK SMILES IDX 63 97 64 98 65 99 66 100
REMARK H PARENT 27 5 31 34 90 53 58 64
REMARK Flexibility Score: inf
ROOT
ATOM      1  C   UNL A   1      31.397  30.460  25.901  1.00  0.00     0.117 C 
ENDROOT
BRANCH   1   2
ATOM      2  N   UNL A   1      32.453  29.473  25.741  1.00  0.00    -0.354 N 
ATOM      3  O   UNL A   1      31.335  27.785  26.799  1.00  0.00    -0.273 OA
ATOM      4  C   UNL A   1      32.238  28.149  26.047  1.00  0.00     0.240 C 
ATOM      5  H   UNL A   1      33.335  29.756  25.408  1.00  0.00     0.163 HD
BRANCH   4   6
ATOM      6  C   UNL A   1      33.198  27.117  25.438  1.00  0.00     0.227 C 
BRANCH   6   7
ATOM      7  N   UNL A   1      32.678  26.086  24.528  1.00  0.00    -0.283 N 
ATOM      8  C   UNL A   1      32.453  24.831  25.059  1.00  0.00     0.269 C 
ATOM      9  C   UNL A   1      31.918  26.312  23.409  1.00  0.00     0.148 C 
ATOM     10  O   UNL A   1      32.296  24.633  26.258  1.00  0.00    -0.268 OA
ATOM     11  C   UNL A   1      32.152  23.835  23.998  1.00  0.00     0.111 C 
ATOM     12  S   UNL A   1      31.542  24.771  22.654  1.00  0.00    -0.052 SA
ATOM     13  S   UNL A   1      31.380  27.758  22.784  1.00  0.00    -0.052 S 
ATOM     14  C   UNL A   1      32.344  22.491  24.028  1.00  0.00     0.100 C 
ATOM     15  S   UNL A   1      31.919  21.578  22.504  1.00  0.00    -0.068 SA
ATOM     16  N   UNL A   1      32.851  21.618  25.029  1.00  0.00    -0.334 N 
ATOM     17  C   UNL A   1      32.439  20.066  23.268  1.00  0.00     0.037 A 
ATOM     18  C   UNL A   1      32.922  20.268  24.572  1.00  0.00     0.056 A 
ATOM     19  C   UNL A   1      32.353  18.805  22.689  1.00  0.00     0.017 A 
ATOM     20  C   UNL A   1      33.381  19.157  25.281  1.00  0.00     0.027 A 
ATOM     21  C   UNL A   1      32.778  17.702  23.424  1.00  0.00     0.001 A 
ATOM     22  C   UNL A   1      33.300  17.879  24.710  1.00  0.00     0.002 A 
BRANCH  16  23
ATOM     23  C   UNL A   1      32.870  21.801  26.485  1.00  0.00     0.124 C 
BRANCH  23  24
ATOM     24  C   UNL A   1      34.284  21.906  27.082  1.00  0.00     0.037 C 
BRANCH  24  25
ATOM     25  C   UNL A   1      35.206  22.999  26.551  1.00  0.00     0.124 C 
BRANCH  25  26
ATOM     26  S   UNL A   1      36.464  22.482  25.376  1.00  0.00     0.095 S 
ATOM     27  O   UNL A   1      37.596  23.373  25.470  1.00  0.00    -0.243 OA
ATOM     28  O   UNL A   1      36.603  21.044  25.448  1.00  0.00    -0.243 OA
ATOM     29  O   UNL A   1      35.716  22.785  23.980  1.00  0.00    -0.748 OA
ENDBRANCH  25  26
ENDBRANCH  24  25
ENDBRANCH  23  24
ENDBRANCH  16  23
ENDBRANCH   6   7
ENDBRANCH   4   6
ENDBRANCH   1   2
BRANCH   1  30
ATOM     30  C   UNL A   1      31.679  31.508  26.962  1.00  0.00     0.042 C 
BRANCH  30  31
ATOM     31  C   UNL A   1      32.588  32.644  26.516  1.00  0.00     0.118 C 
BRANCH  31  32
ATOM     32  N   UNL A   1      32.532  33.826  27.370  1.00  0.00    -0.352 N 
ATOM     33  C   UNL A   1      33.362  34.220  28.396  1.00  0.00     0.251 C 
ATOM     34  H   UNL A   1      31.783  34.439  27.183  1.00  0.00     0.163 HD
ATOM     35  O   UNL A   1      33.088  35.227  29.044  1.00  0.00    -0.269 OA
BRANCH  33  36
ATOM     36  C   UNL A   1      34.540  33.401  28.750  1.00  0.00     0.039 A 
ATOM     37  C   UNL A   1      34.389  32.100  29.229  1.00  0.00     0.014 A 
ATOM     38  C   UNL A   1      35.814  33.969  28.654  1.00  0.00     0.014 A 
ATOM     39  C   UNL A   1      35.473  31.455  29.814  1.00  0.00     0.010 A 
ATOM     40  C   UNL A   1      36.921  33.275  29.152  1.00  0.00     0.010 A 
ATOM     41  C   UNL A   1      36.749  32.042  29.798  1.00  0.00    -0.014 A 
BRANCH  41  42
ATOM     42  C   UNL A   1      37.881  31.357  30.477  1.00  0.00     0.031 A 
ATOM     43  C   UNL A   1      38.748  30.376  29.731  1.00  0.00     0.074 A 
ATOM     44  C   UNL A   1      38.163  31.664  31.758  1.00  0.00     0.049 A 
ATOM     45  N   UNL A   1      39.784  29.701  30.159  1.00  0.00    -0.248 NA
ATOM     46  C   UNL A   1      38.410  30.113  28.321  1.00  0.00     0.031 C 
ATOM     47  C   UNL A   1      37.402  32.610  32.573  1.00  0.00     0.029 A 
ATOM     48  N   UNL A   1      39.168  31.239  32.592  1.00  0.00    -0.354 N 
ATOM     49  C   UNL A   1      40.207  28.923  29.087  1.00  0.00     0.074 A 
ATOM     50  C   UNL A   1      39.298  29.183  27.995  1.00  0.00     0.031 C 
ATOM     51  C   UNL A   1      37.995  32.736  33.768  1.00  0.00     0.029 A 
ATOM     52  C   UNL A   1      39.132  31.822  33.838  1.00  0.00     0.049 A 
ATOM     53  H   UNL A   1      39.849  30.581  32.323  1.00  0.00     0.167 HD
ATOM     54  C   UNL A   1      41.269  28.083  29.018  1.00  0.00     0.034 A 
ATOM     55  C   UNL A   1      39.912  31.634  34.923  1.00  0.00     0.034 A 
ATOM     56  C   UNL A   1      42.183  27.856  30.108  1.00  0.00     0.049 A 
ATOM     57  C   UNL A   1      41.062  30.667  34.831  1.00  0.00     0.074 A 
ATOM     58  C   UNL A   1      43.305  27.046  30.125  1.00  0.00     0.029 A 
ATOM     59  N   UNL A   1      42.091  28.435  31.366  1.00  0.00    -0.354 N 
ATOM     60  N   UNL A   1      41.469  29.970  33.798  1.00  0.00    -0.248 NA
ATOM     61  C   UNL A   1      41.861  30.457  36.046  1.00  0.00     0.031 C 
ATOM     62  C   UNL A   1      43.854  27.086  31.407  1.00  0.00     0.029 A 
ATOM     63  C   UNL A   1      43.121  27.978  32.172  1.00  0.00     0.049 A 
ATOM     64  H   UNL A   1      41.397  29.076  31.643  1.00  0.00     0.167 HD
ATOM     65  C   UNL A   1      42.580  29.252  34.232  1.00  0.00     0.074 A 
ATOM     66  C   UNL A   1      42.797  29.621  35.615  1.00  0.00     0.031 C 
ATOM     67  C   UNL A   1      43.342  28.364  33.546  1.00  0.00     0.034 A 
BRANCH  54  68
ATOM     68  C   UNL A   1      41.531  27.345  27.727  1.00  0.00     0.023 A 
ATOM     69  C   UNL A   1      41.481  25.938  27.699  1.00  0.00     0.031 A 
ATOM     70  C   UNL A   1      41.967  28.017  26.571  1.00  0.00     0.131 A 
ATOM     71  C   UNL A   1      41.895  25.248  26.553  1.00  0.00     0.055 A 
ATOM     72  C   UNL A   1      42.340  27.326  25.417  1.00  0.00     0.041 A 
ATOM     73  F   UNL A   1      42.033  29.358  26.547  1.00  0.00    -0.206 F 
ATOM     74  C   UNL A   1      42.318  25.934  25.410  1.00  0.00     0.022 A 
BRANCH  71  75
ATOM     75  S   UNL A   1      41.970  23.435  26.523  1.00  0.00     0.124 S 
ATOM     76  O   UNL A   1      42.734  23.148  27.735  1.00  0.00    -0.237 OA
ATOM     77  O   UNL A   1      40.557  23.070  26.574  1.00  0.00    -0.237 OA
ATOM     78  O   UNL A   1      42.656  23.133  25.271  1.00  0.00    -0.744 OA
ENDBRANCH  71  75
ENDBRANCH  54  68
BRANCH  55  79
ATOM     79  C   UNL A   1      39.628  32.420  36.160  1.00  0.00     0.023 A 
ATOM     80  C   UNL A   1      38.730  31.938  37.131  1.00  0.00     0.031 A 
ATOM     81  C   UNL A   1      40.150  33.712  36.329  1.00  0.00     0.131 A 
ATOM     82  C   UNL A   1      38.314  32.774  38.174  1.00  0.00     0.055 A 
ATOM     83  C   UNL A   1      39.795  34.514  37.416  1.00  0.00     0.041 A 
ATOM     84  F   UNL A   1      41.001  34.221  35.424  1.00  0.00    -0.206 F 
ATOM     85  C   UNL A   1      38.855  34.053  38.333  1.00  0.00     0.022 A 
BRANCH  82  86
ATOM     86  S   UNL A   1      36.944  32.291  39.261  1.00  0.00     0.124 S 
ATOM     87  O   UNL A   1      37.138  30.848  39.371  1.00  0.00    -0.237 OA
ATOM     88  O   UNL A   1      37.236  33.061  40.468  1.00  0.00    -0.237 OA
ATOM     89  O   UNL A   1      35.756  32.715  38.529  1.00  0.00    -0.744 OA
ENDBRANCH  82  86
ENDBRANCH  55  79
BRANCH  67  90
ATOM     90  C   UNL A   1      44.503  27.709  34.254  1.00  0.00     0.023 A 
ATOM     91  C   UNL A   1      44.313  26.489  34.933  1.00  0.00     0.031 A 
ATOM     92  C   UNL A   1      45.736  28.366  34.401  1.00  0.00     0.131 A 
ATOM     93  C   UNL A   1      45.321  25.992  35.769  1.00  0.00     0.055 A 
ATOM     94  C   UNL A   1      46.756  27.842  35.195  1.00  0.00     0.041 A 
ATOM     95  F   UNL A   1      45.961  29.537  33.782  1.00  0.00    -0.206 F 
ATOM     96  C   UNL A   1      46.545  26.658  35.897  1.00  0.00     0.022 A 
BRANCH  93  97
ATOM     97  S   UNL A   1      45.048  24.519  36.791  1.00  0.00     0.124 S 
ATOM     98  O   UNL A   1      46.414  24.127  37.128  1.00  0.00    -0.237 OA
ATOM     99  O   UNL A   1      44.262  25.055  37.899  1.00  0.00    -0.237 OA
ATOM    100  O   UNL A   1      44.339  23.601  35.905  1.00  0.00    -0.744 OA
ENDBRANCH  93  97
ENDBRANCH  67  90
ENDBRANCH  41  42
ENDBRANCH  33  36
ENDBRANCH  31  32
ENDBRANCH  30  31
ENDBRANCH   1  30
TORSDOF 18
ENDMDL
