MODEL 1
REMARK VINA RESULT:     -11.8      0.000      0.000
REMARK SMILES O=C(C[C@H](CNC(=O)c1ccccn1)c1ccc(Cl)cc1)NCCCNC(=O)c1ccc(-c2c3nc(c(-c4cc(S(=O)(=O)[O-])ccc4F)c4ccc([nH]4)c(-c4cc(S(=O)(=O)[O-])ccc4F)c4nc(c(-c5cc(S(=O)(=O)[O-])ccc5F)c5ccc2[nH]5)C=C4)C=C3)cc1
REMARK SMILES IDX 23 1 22 2 1 3 2 4 3 6 4 7 15 8 16 9 21 10 17 11 20 12 18 13
REMARK SMILES IDX 19 14 5 15 6 16 7 17 8 19 9 20 10 21 14 22 11 23 13 24 12 25
REMARK SMILES IDX 24 26 25 27 26 28 27 29 28 31 29 32 30 33 91 34 31 35 90 36
REMARK SMILES IDX 32 37 33 38 34 39 84 40 35 41 89 42 83 43 85 44 36 45 88 46
REMARK SMILES IDX 82 47 81 48 37 50 69 51 49 52 68 53 50 54 53 55 67 56 86 57
REMARK SMILES IDX 51 58 52 59 66 61 87 62 54 63 38 64 39 65 47 66 40 67 46 68
REMARK SMILES IDX 48 69 45 70 41 71 42 72 43 73 44 74 70 75 71 76 79 77 72 78
REMARK SMILES IDX 78 79 80 80 77 81 73 82 74 83 75 84 76 85 55 86 56 87 64 88
REMARK SMILES IDX 57 89 63 90 65 91 62 92 58 93 59 94 60 95 61 96
REMARK H PARENT 22 5 6 18 26 30 85 49 53 60
REMARK Flexibility Score: inf
ROOT
ATOM      1  C   UNL A   1      32.581  27.214  26.096  1.00  0.00     0.117 C 
ENDROOT
BRANCH   1   2
ATOM      2  N   UNL A   1      33.569  26.318  25.526  1.00  0.00    -0.356 N 
ATOM      3  O   UNL A   1      32.581  24.409  26.297  1.00  0.00    -0.275 OA
ATOM      4  C   UNL A   1      33.456  24.950  25.628  1.00  0.00     0.220 C 
ATOM      5  H   UNL A   1      34.343  26.699  25.052  1.00  0.00     0.163 HD
BRANCH   4   6
ATOM      6  C   UNL A   1      34.530  24.148  24.916  1.00  0.00     0.110 C 
BRANCH   6   7
ATOM      7  C   UNL A   1      34.021  23.320  23.722  1.00  0.00     0.048 C 
BRANCH   7   8
ATOM      8  C   UNL A   1      33.869  21.841  24.061  1.00  0.00    -0.043 A 
ATOM      9  C   UNL A   1      32.678  21.176  23.715  1.00  0.00     0.005 A 
ATOM     10  C   UNL A   1      34.875  21.114  24.714  1.00  0.00     0.005 A 
ATOM     11  C   UNL A   1      32.493  19.829  24.030  1.00  0.00     0.021 A 
ATOM     12  C   UNL A   1      34.684  19.769  25.041  1.00  0.00     0.021 A 
ATOM     13  C   UNL A   1      33.494  19.132  24.700  1.00  0.00     0.041 A 
ATOM     14  Cl  UNL A   1      33.256  17.480  25.112  1.00  0.00    -0.084 Cl
ENDBRANCH   7   8
BRANCH   7  15
ATOM     15  C   UNL A   1      32.758  23.905  23.046  1.00  0.00     0.125 C 
BRANCH  15  16
ATOM     16  N   UNL A   1      32.884  24.186  21.624  1.00  0.00    -0.350 N 
ATOM     17  C   UNL A   1      32.817  25.386  20.949  1.00  0.00     0.269 C 
ATOM     18  H   UNL A   1      33.042  23.397  21.056  1.00  0.00     0.163 HD
ATOM     19  O   UNL A   1      32.905  25.387  19.722  1.00  0.00    -0.268 OA
BRANCH  17  20
ATOM     20  C   UNL A   1      32.671  26.660  21.706  1.00  0.00     0.128 A 
ATOM     21  C   UNL A   1      31.413  27.083  22.124  1.00  0.00     0.034 A 
ATOM     22  N   UNL A   1      33.809  27.356  21.930  1.00  0.00    -0.251 NA
ATOM     23  C   UNL A   1      31.308  28.326  22.740  1.00  0.00     0.004 A 
ATOM     24  C   UNL A   1      33.674  28.560  22.522  1.00  0.00     0.112 A 
ATOM     25  C   UNL A   1      32.457  29.085  22.933  1.00  0.00     0.020 A 
ENDBRANCH  17  20
ENDBRANCH  15  16
ENDBRANCH   7  15
ENDBRANCH   6   7
ENDBRANCH   4   6
ENDBRANCH   1   2
BRANCH   1  26
ATOM     26  C   UNL A   1      33.200  28.283  26.989  1.00  0.00     0.042 C 
BRANCH  26  27
ATOM     27  C   UNL A   1      33.882  29.422  26.235  1.00  0.00     0.118 C 
BRANCH  27  28
ATOM     28  N   UNL A   1      33.708  30.716  26.879  1.00  0.00    -0.352 N 
ATOM     29  C   UNL A   1      34.426  31.317  27.881  1.00  0.00     0.251 C 
ATOM     30  H   UNL A   1      32.952  31.247  26.539  1.00  0.00     0.163 HD
ATOM     31  O   UNL A   1      33.988  32.362  28.366  1.00  0.00    -0.269 OA
BRANCH  29  32
ATOM     32  C   UNL A   1      35.686  30.731  28.396  1.00  0.00     0.039 A 
ATOM     33  C   UNL A   1      36.892  31.111  27.795  1.00  0.00     0.014 A 
ATOM     34  C   UNL A   1      35.697  29.778  29.419  1.00  0.00     0.014 A 
ATOM     35  C   UNL A   1      38.101  30.571  28.244  1.00  0.00     0.010 A 
ATOM     36  C   UNL A   1      36.910  29.297  29.916  1.00  0.00     0.010 A 
ATOM     37  C   UNL A   1      38.124  29.674  29.325  1.00  0.00    -0.014 A 
BRANCH  37  38
ATOM     38  C   UNL A   1      39.408  29.097  29.813  1.00  0.00     0.031 A 
ATOM     39  C   UNL A   1      40.108  29.709  30.999  1.00  0.00     0.074 A 
ATOM     40  C   UNL A   1      39.960  28.048  29.174  1.00  0.00     0.049 A 
ATOM     41  N   UNL A   1      41.250  29.381  31.549  1.00  0.00    -0.248 NA
ATOM     42  C   UNL A   1      39.450  30.862  31.630  1.00  0.00     0.031 C 
ATOM     43  C   UNL A   1      39.400  27.388  27.993  1.00  0.00     0.029 A 
ATOM     44  N   UNL A   1      41.117  27.351  29.424  1.00  0.00    -0.354 N 
ATOM     45  C   UNL A   1      41.452  30.291  32.582  1.00  0.00     0.074 A 
ATOM     46  C   UNL A   1      40.347  31.225  32.534  1.00  0.00     0.031 C 
ATOM     47  C   UNL A   1      40.198  26.368  27.639  1.00  0.00     0.029 A 
ATOM     48  C   UNL A   1      41.347  26.324  28.538  1.00  0.00     0.049 A 
ATOM     49  H   UNL A   1      41.725  27.567  30.168  1.00  0.00     0.167 HD
ATOM     50  C   UNL A   1      42.452  30.332  33.499  1.00  0.00     0.034 A 
ATOM     51  C   UNL A   1      42.370  25.448  28.456  1.00  0.00     0.034 A 
ATOM     52  C   UNL A   1      43.541  29.386  33.543  1.00  0.00     0.049 A 
ATOM     53  C   UNL A   1      43.477  25.520  29.479  1.00  0.00     0.074 A 
ATOM     54  C   UNL A   1      44.581  29.310  34.453  1.00  0.00     0.029 A 
ATOM     55  N   UNL A   1      43.735  28.353  32.633  1.00  0.00    -0.354 N 
ATOM     56  N   UNL A   1      43.628  26.359  30.477  1.00  0.00    -0.248 NA
ATOM     57  C   UNL A   1      44.540  24.512  29.374  1.00  0.00     0.031 C 
ATOM     58  C   UNL A   1      45.436  28.275  34.058  1.00  0.00     0.029 A 
ATOM     59  C   UNL A   1      44.890  27.652  32.949  1.00  0.00     0.049 A 
ATOM     60  H   UNL A   1      43.140  28.149  31.876  1.00  0.00     0.167 HD
ATOM     61  C   UNL A   1      44.784  25.955  31.141  1.00  0.00     0.074 A 
ATOM     62  C   UNL A   1      45.279  24.789  30.438  1.00  0.00     0.031 C 
ATOM     63  C   UNL A   1      45.377  26.492  32.238  1.00  0.00     0.034 A 
BRANCH  50  64
ATOM     64  C   UNL A   1      42.416  31.453  34.513  1.00  0.00     0.023 A 
ATOM     65  C   UNL A   1      41.509  31.449  35.588  1.00  0.00     0.031 A 
ATOM     66  C   UNL A   1      43.277  32.558  34.387  1.00  0.00     0.131 A 
ATOM     67  C   UNL A   1      41.424  32.561  36.440  1.00  0.00     0.055 A 
ATOM     68  C   UNL A   1      43.248  33.622  35.291  1.00  0.00     0.041 A 
ATOM     69  F   UNL A   1      44.151  32.632  33.371  1.00  0.00    -0.206 F 
ATOM     70  C   UNL A   1      42.305  33.636  36.315  1.00  0.00     0.022 A 
BRANCH  67  71
ATOM     71  S   UNL A   1      40.041  32.651  37.610  1.00  0.00     0.124 S 
ATOM     72  O   UNL A   1      39.142  31.626  37.081  1.00  0.00    -0.237 OA
ATOM     73  O   UNL A   1      40.683  32.344  38.883  1.00  0.00    -0.237 OA
ATOM     74  O   UNL A   1      39.559  34.023  37.466  1.00  0.00    -0.744 OA
ENDBRANCH  67  71
ENDBRANCH  50  64
BRANCH  51  75
ATOM     75  C   UNL A   1      42.404  24.425  27.371  1.00  0.00     0.023 A 
ATOM     76  C   UNL A   1      41.611  23.270  27.440  1.00  0.00     0.031 A 
ATOM     77  C   UNL A   1      43.270  24.566  26.271  1.00  0.00     0.131 A 
ATOM     78  C   UNL A   1      41.735  22.276  26.457  1.00  0.00     0.055 A 
ATOM     79  C   UNL A   1      43.349  23.600  25.266  1.00  0.00     0.041 A 
ATOM     80  F   UNL A   1      44.046  25.654  26.153  1.00  0.00    -0.206 F 
ATOM     81  C   UNL A   1      42.588  22.439  25.364  1.00  0.00     0.022 A 
BRANCH  78  82
ATOM     82  S   UNL A   1      40.825  20.721  26.674  1.00  0.00     0.124 S 
ATOM     83  O   UNL A   1      41.646  19.788  25.913  1.00  0.00    -0.237 OA
ATOM     84  O   UNL A   1      40.846  20.559  28.125  1.00  0.00    -0.237 OA
ATOM     85  O   UNL A   1      39.512  21.012  26.101  1.00  0.00    -0.744 OA
ENDBRANCH  78  82
ENDBRANCH  51  75
BRANCH  63  86
ATOM     86  C   UNL A   1      46.596  25.782  32.777  1.00  0.00     0.023 A 
ATOM     87  C   UNL A   1      47.878  25.987  32.237  1.00  0.00     0.031 A 
ATOM     88  C   UNL A   1      46.466  24.869  33.839  1.00  0.00     0.131 A 
ATOM     89  C   UNL A   1      48.967  25.243  32.717  1.00  0.00     0.055 A 
ATOM     90  C   UNL A   1      47.563  24.179  34.356  1.00  0.00     0.041 A 
ATOM     91  F   UNL A   1      45.267  24.632  34.393  1.00  0.00    -0.206 F 
ATOM     92  C   UNL A   1      48.820  24.352  33.784  1.00  0.00     0.022 A 
BRANCH  89  93
ATOM     93  S   UNL A   1      50.560  25.374  31.858  1.00  0.00     0.124 S 
ATOM     94  O   UNL A   1      50.914  23.971  31.660  1.00  0.00    -0.237 OA
ATOM     95  O   UNL A   1      50.204  26.117  30.655  1.00  0.00    -0.237 OA
ATOM     96  O   UNL A   1      51.403  26.097  32.808  1.00  0.00    -0.744 OA
ENDBRANCH  89  93
ENDBRANCH  63  86
ENDBRANCH  37  38
ENDBRANCH  29  32
ENDBRANCH  27  28
ENDBRANCH  26  27
ENDBRANCH   1  26
TORSDOF 18
ENDMDL
MODEL 2
REMARK VINA RESULT:     -11.7      1.527      2.975
REMARK SMILES O=C(C[C@H](CNC(=O)c1ccccn1)c1ccc(Cl)cc1)NCCCNC(=O)c1ccc(-c2c3nc(c(-c4cc(S(=O)(=O)[O-])ccc4F)c4ccc([nH]4)c(-c4cc(S(=O)(=O)[O-])ccc4F)c4nc(c(-c5cc(S(=O)(=O)[O-])ccc5F)c5ccc2[nH]5)C=C4)C=C3)cc1
REMARK SMILES IDX 23 1 22 2 1 3 2 4 3 6 4 7 15 8 16 9 21 10 17 11 20 12 18 13
REMARK SMILES IDX 19 14 5 15 6 16 7 17 8 19 9 20 10 21 14 22 11 23 13 24 12 25
REMARK SMILES IDX 24 26 25 27 26 28 27 29 28 31 29 32 30 33 91 34 31 35 90 36
REMARK SMILES IDX 32 37 33 38 34 39 84 40 35 41 89 42 83 43 85 44 36 45 88 46
REMARK SMILES IDX 82 47 81 48 37 50 69 51 49 52 68 53 50 54 53 55 67 56 86 57
REMARK SMILES IDX 51 58 52 59 66 61 87 62 54 63 38 64 39 65 47 66 40 67 46 68
REMARK SMILES IDX 48 69 45 70 41 71 42 72 43 73 44 74 70 75 71 76 79 77 72 78
REMARK SMILES IDX 78 79 80 80 77 81 73 82 74 83 75 84 76 85 55 86 56 87 64 88
REMARK SMILES IDX 57 89 63 90 65 91 62 92 58 93 59 94 60 95 61 96
REMARK H PARENT 22 5 6 18 26 30 85 49 53 60
REMARK Flexibility Score: inf
ROOT
ATOM      1  C   UNL A   1      32.712  29.203  24.343  1.00  0.00     0.117 C 
ENDROOT
BRANCH   1   2
ATOM      2  N   UNL A   1      32.313  27.872  23.927  1.00  0.00    -0.356 N 
ATOM      3  O   UNL A   1      30.075  28.324  23.915  1.00  0.00    -0.275 OA
ATOM      4  C   UNL A   1      30.997  27.547  23.687  1.00  0.00     0.220 C 
ATOM      5  H   UNL A   1      33.004  27.179  23.814  1.00  0.00     0.163 HD
BRANCH   4   6
ATOM      6  C   UNL A   1      30.749  26.134  23.189  1.00  0.00     0.110 C 
BRANCH   6   7
ATOM      7  C   UNL A   1      31.135  25.030  24.189  1.00  0.00     0.048 C 
BRANCH   7   8
ATOM      8  C   UNL A   1      32.545  24.499  23.957  1.00  0.00    -0.043 A 
ATOM      9  C   UNL A   1      32.789  23.655  22.859  1.00  0.00     0.005 A 
ATOM     10  C   UNL A   1      33.614  24.816  24.807  1.00  0.00     0.005 A 
ATOM     11  C   UNL A   1      34.062  23.130  22.628  1.00  0.00     0.021 A 
ATOM     12  C   UNL A   1      34.885  24.280  24.585  1.00  0.00     0.021 A 
ATOM     13  C   UNL A   1      35.104  23.437  23.498  1.00  0.00     0.041 A 
ATOM     14  Cl  UNL A   1      36.666  22.770  23.231  1.00  0.00    -0.084 Cl
ENDBRANCH   7   8
BRANCH   7  15
ATOM     15  C   UNL A   1      30.879  25.405  25.668  1.00  0.00     0.125 C 
BRANCH  15  16
ATOM     16  N   UNL A   1      29.974  24.523  26.389  1.00  0.00    -0.350 N 
ATOM     17  C   UNL A   1      30.185  23.256  26.891  1.00  0.00     0.269 C 
ATOM     18  H   UNL A   1      29.072  24.887  26.543  1.00  0.00     0.163 HD
ATOM     19  O   UNL A   1      29.252  22.665  27.433  1.00  0.00    -0.268 OA
BRANCH  17  20
ATOM     20  C   UNL A   1      31.534  22.632  26.800  1.00  0.00     0.128 A 
ATOM     21  C   UNL A   1      31.818  21.731  25.779  1.00  0.00     0.034 A 
ATOM     22  N   UNL A   1      32.420  22.982  27.761  1.00  0.00    -0.251 NA
ATOM     23  C   UNL A   1      33.056  21.096  25.788  1.00  0.00     0.004 A 
ATOM     24  C   UNL A   1      33.608  22.344  27.747  1.00  0.00     0.112 A 
ATOM     25  C   UNL A   1      33.965  21.398  26.797  1.00  0.00     0.020 A 
ENDBRANCH  17  20
ENDBRANCH  15  16
ENDBRANCH   7  15
ENDBRANCH   6   7
ENDBRANCH   4   6
ENDBRANCH   1   2
BRANCH   1  26
ATOM     26  C   UNL A   1      32.448  29.462  25.821  1.00  0.00     0.042 C 
BRANCH  26  27
ATOM     27  C   UNL A   1      33.687  29.832  26.632  1.00  0.00     0.118 C 
BRANCH  27  28
ATOM     28  N   UNL A   1      33.604  31.156  27.231  1.00  0.00    -0.352 N 
ATOM     29  C   UNL A   1      34.395  31.759  28.174  1.00  0.00     0.251 C 
ATOM     30  H   UNL A   1      32.857  31.709  26.904  1.00  0.00     0.163 HD
ATOM     31  O   UNL A   1      34.029  32.841  28.637  1.00  0.00    -0.269 OA
BRANCH  29  32
ATOM     32  C   UNL A   1      35.649  31.133  28.656  1.00  0.00     0.039 A 
ATOM     33  C   UNL A   1      36.859  31.792  28.410  1.00  0.00     0.014 A 
ATOM     34  C   UNL A   1      35.660  29.888  29.293  1.00  0.00     0.014 A 
ATOM     35  C   UNL A   1      38.065  31.228  28.837  1.00  0.00     0.010 A 
ATOM     36  C   UNL A   1      36.856  29.363  29.785  1.00  0.00     0.010 A 
ATOM     37  C   UNL A   1      38.074  30.017  29.549  1.00  0.00    -0.014 A 
BRANCH  37  38
ATOM     38  C   UNL A   1      39.354  29.411  30.012  1.00  0.00     0.031 A 
ATOM     39  C   UNL A   1      40.069  29.979  31.211  1.00  0.00     0.074 A 
ATOM     40  C   UNL A   1      39.889  28.374  29.338  1.00  0.00     0.049 A 
ATOM     41  N   UNL A   1      41.210  29.621  31.743  1.00  0.00    -0.248 NA
ATOM     42  C   UNL A   1      39.428  31.120  31.880  1.00  0.00     0.031 C 
ATOM     43  C   UNL A   1      39.314  27.756  28.142  1.00  0.00     0.029 A 
ATOM     44  N   UNL A   1      41.039  27.657  29.560  1.00  0.00    -0.354 N 
ATOM     45  C   UNL A   1      41.429  30.498  32.801  1.00  0.00     0.074 A 
ATOM     46  C   UNL A   1      40.336  31.446  32.788  1.00  0.00     0.031 C 
ATOM     47  C   UNL A   1      40.097  26.737  27.753  1.00  0.00     0.029 A 
ATOM     48  C   UNL A   1      41.251  26.653  28.643  1.00  0.00     0.049 A 
ATOM     49  H   UNL A   1      41.654  27.843  30.306  1.00  0.00     0.167 HD
ATOM     50  C   UNL A   1      42.435  30.500  33.713  1.00  0.00     0.034 A 
ATOM     51  C   UNL A   1      42.262  25.768  28.529  1.00  0.00     0.034 A 
ATOM     52  C   UNL A   1      43.513  29.540  33.722  1.00  0.00     0.049 A 
ATOM     53  C   UNL A   1      43.376  25.796  29.547  1.00  0.00     0.074 A 
ATOM     54  C   UNL A   1      44.558  29.424  34.622  1.00  0.00     0.029 A 
ATOM     55  N   UNL A   1      43.689  28.532  32.781  1.00  0.00    -0.354 N 
ATOM     56  N   UNL A   1      43.545  26.604  30.568  1.00  0.00    -0.248 NA
ATOM     57  C   UNL A   1      44.427  24.780  29.405  1.00  0.00     0.031 C 
ATOM     58  C   UNL A   1      45.398  28.391  34.191  1.00  0.00     0.029 A 
ATOM     59  C   UNL A   1      44.837  27.808  33.068  1.00  0.00     0.049 A 
ATOM     60  H   UNL A   1      43.087  28.358  32.022  1.00  0.00     0.167 HD
ATOM     61  C   UNL A   1      44.699  26.166  31.212  1.00  0.00     0.074 A 
ATOM     62  C   UNL A   1      45.176  25.016  30.471  1.00  0.00     0.031 C 
ATOM     63  C   UNL A   1      45.306  26.664  32.320  1.00  0.00     0.034 A 
BRANCH  50  64
ATOM     64  C   UNL A   1      42.419  31.591  34.760  1.00  0.00     0.023 A 
ATOM     65  C   UNL A   1      41.510  31.573  35.832  1.00  0.00     0.031 A 
ATOM     66  C   UNL A   1      43.302  32.682  34.667  1.00  0.00     0.131 A 
ATOM     67  C   UNL A   1      41.445  32.661  36.716  1.00  0.00     0.055 A 
ATOM     68  C   UNL A   1      43.293  33.719  35.603  1.00  0.00     0.041 A 
ATOM     69  F   UNL A   1      44.180  32.768  33.656  1.00  0.00    -0.206 F 
ATOM     70  C   UNL A   1      42.348  33.722  36.625  1.00  0.00     0.022 A 
BRANCH  67  71
ATOM     71  S   UNL A   1      40.060  32.744  37.885  1.00  0.00     0.124 S 
ATOM     72  O   UNL A   1      39.646  34.139  37.752  1.00  0.00    -0.237 OA
ATOM     73  O   UNL A   1      39.137  31.749  37.352  1.00  0.00    -0.237 OA
ATOM     74  O   UNL A   1      40.673  32.405  39.168  1.00  0.00    -0.744 OA
ENDBRANCH  67  71
ENDBRANCH  50  64
BRANCH  51  75
ATOM     75  C   UNL A   1      42.278  24.777  27.414  1.00  0.00     0.023 A 
ATOM     76  C   UNL A   1      41.494  23.615  27.468  1.00  0.00     0.031 A 
ATOM     77  C   UNL A   1      43.116  24.956  26.299  1.00  0.00     0.131 A 
ATOM     78  C   UNL A   1      41.601  22.651  26.454  1.00  0.00     0.055 A 
ATOM     79  C   UNL A   1      43.178  24.020  25.264  1.00  0.00     0.041 A 
ATOM     80  F   UNL A   1      43.883  26.053  26.194  1.00  0.00    -0.206 F 
ATOM     81  C   UNL A   1      42.427  22.852  25.346  1.00  0.00     0.022 A 
BRANCH  78  82
ATOM     82  S   UNL A   1      40.706  21.084  26.647  1.00  0.00     0.124 S 
ATOM     83  O   UNL A   1      39.399  21.418  26.093  1.00  0.00    -0.237 OA
ATOM     84  O   UNL A   1      41.524  20.170  25.856  1.00  0.00    -0.237 OA
ATOM     85  O   UNL A   1      40.734  20.852  28.090  1.00  0.00    -0.744 OA
ENDBRANCH  78  82
ENDBRANCH  51  75
BRANCH  63  86
ATOM     86  C   UNL A   1      46.519  25.924  32.830  1.00  0.00     0.023 A 
ATOM     87  C   UNL A   1      47.805  26.150  32.307  1.00  0.00     0.031 A 
ATOM     88  C   UNL A   1      46.380  24.961  33.846  1.00  0.00     0.131 A 
ATOM     89  C   UNL A   1      48.888  25.379  32.756  1.00  0.00     0.055 A 
ATOM     90  C   UNL A   1      47.472  24.242  34.334  1.00  0.00     0.041 A 
ATOM     91  F   UNL A   1      45.177  24.702  34.382  1.00  0.00    -0.206 F 
ATOM     92  C   UNL A   1      48.733  24.438  33.778  1.00  0.00     0.022 A 
BRANCH  89  93
ATOM     93  S   UNL A   1      50.486  25.545  31.912  1.00  0.00     0.124 S 
ATOM     94  O   UNL A   1      51.379  25.881  33.017  1.00  0.00    -0.237 OA
ATOM     95  O   UNL A   1      50.667  24.221  31.326  1.00  0.00    -0.237 OA
ATOM     96  O   UNL A   1      50.256  26.622  30.951  1.00  0.00    -0.744 OA
ENDBRANCH  89  93
ENDBRANCH  63  86
ENDBRANCH  37  38
ENDBRANCH  29  32
ENDBRANCH  27  28
ENDBRANCH  26  27
ENDBRANCH   1  26
TORSDOF 18
ENDMDL
MODEL 3
REMARK VINA RESULT:     -11.7      2.670      3.810
REMARK SMILES O=C(C[C@H](CNC(=O)c1ccccn1)c1ccc(Cl)cc1)NCCCNC(=O)c1ccc(-c2c3nc(c(-c4cc(S(=O)(=O)[O-])ccc4F)c4ccc([nH]4)c(-c4cc(S(=O)(=O)[O-])ccc4F)c4nc(c(-c5cc(S(=O)(=O)[O-])ccc5F)c5ccc2[nH]5)C=C4)C=C3)cc1
REMARK SMILES IDX 23 1 22 2 1 3 2 4 3 6 4 7 15 8 16 9 21 10 17 11 20 12 18 13
REMARK SMILES IDX 19 14 5 15 6 16 7 17 8 19 9 20 10 21 14 22 11 23 13 24 12 25
REMARK SMILES IDX 24 26 25 27 26 28 27 29 28 31 29 32 30 33 91 34 31 35 90 36
REMARK SMILES IDX 32 37 33 38 34 39 84 40 35 41 89 42 83 43 85 44 36 45 88 46
REMARK SMILES IDX 82 47 81 48 37 50 69 51 49 52 68 53 50 54 53 55 67 56 86 57
REMARK SMILES IDX 51 58 52 59 66 61 87 62 54 63 38 64 39 65 47 66 40 67 46 68
REMARK SMILES IDX 48 69 45 70 41 71 42 72 43 73 44 74 70 75 71 76 79 77 72 78
REMARK SMILES IDX 78 79 80 80 77 81 73 82 74 83 75 84 76 85 55 86 56 87 64 88
REMARK SMILES IDX 57 89 63 90 65 91 62 92 58 93 59 94 60 95 61 96
REMARK H PARENT 22 5 6 18 26 30 85 49 53 60
REMARK Flexibility Score: inf
ROOT
ATOM      1  C   UNL A   1      31.442  29.777  25.320  1.00  0.00     0.117 C 
ENDROOT
BRANCH   1   2
ATOM      2  N   UNL A   1      32.321  28.630  25.439  1.00  0.00    -0.356 N 
ATOM      3  O   UNL A   1      30.962  27.482  26.872  1.00  0.00    -0.275 OA
ATOM      4  C   UNL A   1      31.975  27.522  26.181  1.00  0.00     0.220 C 
ATOM      5  H   UNL A   1      33.190  28.642  24.977  1.00  0.00     0.163 HD
BRANCH   4   6
ATOM      6  C   UNL A   1      32.968  26.374  26.149  1.00  0.00     0.110 C 
BRANCH   6   7
ATOM      7  C   UNL A   1      32.988  25.587  24.826  1.00  0.00     0.048 C 
BRANCH   7   8
ATOM      8  C   UNL A   1      34.163  24.619  24.740  1.00  0.00    -0.043 A 
ATOM      9  C   UNL A   1      34.203  23.679  23.695  1.00  0.00     0.005 A 
ATOM     10  C   UNL A   1      35.210  24.626  25.674  1.00  0.00     0.005 A 
ATOM     11  C   UNL A   1      35.250  22.761  23.598  1.00  0.00     0.021 A 
ATOM     12  C   UNL A   1      36.251  23.699  25.584  1.00  0.00     0.021 A 
ATOM     13  C   UNL A   1      36.266  22.768  24.548  1.00  0.00     0.041 A 
ATOM     14  Cl  UNL A   1      37.543  21.621  24.445  1.00  0.00    -0.084 Cl
ENDBRANCH   7   8
BRANCH   7  15
ATOM     15  C   UNL A   1      31.640  24.912  24.477  1.00  0.00     0.125 C 
BRANCH  15  16
ATOM     16  N   UNL A   1      30.752  24.669  25.604  1.00  0.00    -0.350 N 
ATOM     17  C   UNL A   1      30.689  23.595  26.466  1.00  0.00     0.269 C 
ATOM     18  H   UNL A   1      30.096  25.382  25.778  1.00  0.00     0.163 HD
ATOM     19  O   UNL A   1      29.816  23.575  27.332  1.00  0.00    -0.268 OA
BRANCH  17  20
ATOM     20  C   UNL A   1      31.686  22.495  26.361  1.00  0.00     0.128 A 
ATOM     21  C   UNL A   1      32.762  22.442  27.243  1.00  0.00     0.034 A 
ATOM     22  N   UNL A   1      31.484  21.598  25.369  1.00  0.00    -0.251 NA
ATOM     23  C   UNL A   1      33.724  21.456  27.048  1.00  0.00     0.004 A 
ATOM     24  C   UNL A   1      32.438  20.658  25.200  1.00  0.00     0.112 A 
ATOM     25  C   UNL A   1      33.567  20.554  26.000  1.00  0.00     0.020 A 
ENDBRANCH  17  20
ENDBRANCH  15  16
ENDBRANCH   7  15
ENDBRANCH   6   7
ENDBRANCH   4   6
ENDBRANCH   1   2
BRANCH   1  26
ATOM     26  C   UNL A   1      31.505  30.696  26.534  1.00  0.00     0.042 C 
BRANCH  26  27
ATOM     27  C   UNL A   1      32.907  31.183  26.891  1.00  0.00     0.118 C 
BRANCH  27  28
ATOM     28  N   UNL A   1      32.953  32.600  27.218  1.00  0.00    -0.352 N 
ATOM     29  C   UNL A   1      33.824  33.305  28.009  1.00  0.00     0.251 C 
ATOM     30  H   UNL A   1      32.243  33.142  26.804  1.00  0.00     0.163 HD
ATOM     31  O   UNL A   1      33.565  34.484  28.256  1.00  0.00    -0.269 OA
BRANCH  29  32
ATOM     32  C   UNL A   1      35.040  32.678  28.579  1.00  0.00     0.039 A 
ATOM     33  C   UNL A   1      34.886  31.570  29.421  1.00  0.00     0.014 A 
ATOM     34  C   UNL A   1      36.319  33.192  28.347  1.00  0.00     0.014 A 
ATOM     35  C   UNL A   1      36.007  30.958  29.990  1.00  0.00     0.010 A 
ATOM     36  C   UNL A   1      37.442  32.536  28.854  1.00  0.00     0.010 A 
ATOM     37  C   UNL A   1      37.299  31.422  29.694  1.00  0.00    -0.014 A 
BRANCH  37  38
ATOM     38  C   UNL A   1      38.500  30.774  30.291  1.00  0.00     0.031 A 
ATOM     39  C   UNL A   1      38.955  31.157  31.676  1.00  0.00     0.074 A 
ATOM     40  C   UNL A   1      39.200  29.868  29.580  1.00  0.00     0.049 A 
ATOM     41  N   UNL A   1      39.996  30.740  32.352  1.00  0.00    -0.248 NA
ATOM     42  C   UNL A   1      38.148  32.163  32.380  1.00  0.00     0.031 C 
ATOM     43  C   UNL A   1      38.884  29.439  28.217  1.00  0.00     0.029 A 
ATOM     44  N   UNL A   1      40.324  29.148  29.902  1.00  0.00    -0.354 N 
ATOM     45  C   UNL A   1      39.975  31.441  33.555  1.00  0.00     0.074 A 
ATOM     46  C   UNL A   1      38.857  32.358  33.481  1.00  0.00     0.031 C 
ATOM     47  C   UNL A   1      39.774  28.511  27.830  1.00  0.00     0.029 A 
ATOM     48  C   UNL A   1      40.749  28.308  28.898  1.00  0.00     0.049 A 
ATOM     49  H   UNL A   1      40.782  29.224  30.770  1.00  0.00     0.167 HD
ATOM     50  C   UNL A   1      40.795  31.316  34.629  1.00  0.00     0.034 A 
ATOM     51  C   UNL A   1      41.806  27.472  28.842  1.00  0.00     0.034 A 
ATOM     52  C   UNL A   1      41.899  30.389  34.694  1.00  0.00     0.049 A 
ATOM     53  C   UNL A   1      42.712  27.359  30.043  1.00  0.00     0.074 A 
ATOM     54  C   UNL A   1      42.766  30.151  35.746  1.00  0.00     0.029 A 
ATOM     55  N   UNL A   1      42.294  29.548  33.659  1.00  0.00    -0.354 N 
ATOM     56  N   UNL A   1      42.651  27.996  31.189  1.00  0.00    -0.248 NA
ATOM     57  C   UNL A   1      43.819  26.398  29.948  1.00  0.00     0.031 C 
ATOM     58  C   UNL A   1      43.720  29.217  35.328  1.00  0.00     0.029 A 
ATOM     59  C   UNL A   1      43.404  28.809  34.043  1.00  0.00     0.049 A 
ATOM     60  H   UNL A   1      41.850  29.486  32.783  1.00  0.00     0.167 HD
ATOM     61  C   UNL A   1      43.688  27.483  31.964  1.00  0.00     0.074 A 
ATOM     62  C   UNL A   1      44.348  26.476  31.160  1.00  0.00     0.031 C 
ATOM     63  C   UNL A   1      44.057  27.809  33.230  1.00  0.00     0.034 A 
BRANCH  50  64
ATOM     64  C   UNL A   1      40.535  32.225  35.809  1.00  0.00     0.023 A 
ATOM     65  C   UNL A   1      39.496  31.972  36.723  1.00  0.00     0.031 A 
ATOM     66  C   UNL A   1      41.313  33.380  36.006  1.00  0.00     0.131 A 
ATOM     67  C   UNL A   1      39.209  32.900  37.735  1.00  0.00     0.055 A 
ATOM     68  C   UNL A   1      41.079  34.254  37.070  1.00  0.00     0.041 A 
ATOM     69  F   UNL A   1      42.306  33.689  35.158  1.00  0.00    -0.206 F 
ATOM     70  C   UNL A   1      40.010  34.026  37.932  1.00  0.00     0.022 A 
BRANCH  67  71
ATOM     71  S   UNL A   1      37.680  32.695  38.688  1.00  0.00     0.124 S 
ATOM     72  O   UNL A   1      36.669  33.102  37.713  1.00  0.00    -0.237 OA
ATOM     73  O   UNL A   1      37.706  31.276  39.026  1.00  0.00    -0.237 OA
ATOM     74  O   UNL A   1      37.851  33.610  39.814  1.00  0.00    -0.744 OA
ENDBRANCH  67  71
ENDBRANCH  50  64
BRANCH  51  75
ATOM     75  C   UNL A   1      42.074  26.673  27.611  1.00  0.00     0.023 A 
ATOM     76  C   UNL A   1      41.737  25.312  27.545  1.00  0.00     0.031 A 
ATOM     77  C   UNL A   1      42.716  27.249  26.500  1.00  0.00     0.131 A 
ATOM     78  C   UNL A   1      42.089  24.558  26.414  1.00  0.00     0.055 A 
ATOM     79  C   UNL A   1      43.014  26.508  25.355  1.00  0.00     0.041 A 
ATOM     80  F   UNL A   1      43.054  28.547  26.509  1.00  0.00    -0.206 F 
ATOM     81  C   UNL A   1      42.713  25.150  25.314  1.00  0.00     0.022 A 
BRANCH  78  82
ATOM     82  S   UNL A   1      41.797  22.768  26.439  1.00  0.00     0.124 S 
ATOM     83  O   UNL A   1      40.341  22.706  26.497  1.00  0.00    -0.237 OA
ATOM     84  O   UNL A   1      42.408  22.345  25.182  1.00  0.00    -0.237 OA
ATOM     85  O   UNL A   1      42.491  22.326  27.647  1.00  0.00    -0.744 OA
ENDBRANCH  78  82
ENDBRANCH  51  75
BRANCH  63  86
ATOM     86  C   UNL A   1      45.191  27.021  33.840  1.00  0.00     0.023 A 
ATOM     87  C   UNL A   1      44.971  25.836  34.565  1.00  0.00     0.031 A 
ATOM     88  C   UNL A   1      46.515  27.477  33.709  1.00  0.00     0.131 A 
ATOM     89  C   UNL A   1      46.049  25.183  35.183  1.00  0.00     0.055 A 
ATOM     90  C   UNL A   1      47.591  26.789  34.272  1.00  0.00     0.041 A 
ATOM     91  F   UNL A   1      46.785  28.603  33.030  1.00  0.00    -0.206 F 
ATOM     92  C   UNL A   1      47.359  25.643  35.027  1.00  0.00     0.022 A 
BRANCH  89  93
ATOM     93  S   UNL A   1      45.705  23.783  36.284  1.00  0.00     0.124 S 
ATOM     94  O   UNL A   1      46.011  24.346  37.596  1.00  0.00    -0.237 OA
ATOM     95  O   UNL A   1      44.296  23.517  36.018  1.00  0.00    -0.237 OA
ATOM     96  O   UNL A   1      46.629  22.748  35.823  1.00  0.00    -0.744 OA
ENDBRANCH  89  93
ENDBRANCH  63  86
ENDBRANCH  37  38
ENDBRANCH  29  32
ENDBRANCH  27  28
ENDBRANCH  26  27
ENDBRANCH   1  26
TORSDOF 18
ENDMDL
