MODEL 1
REMARK VINA RESULT:     -11.7      0.000      0.000
REMARK SMILES Cc1ccc(C#N)cc1Nc1cc(C)c(N)c(C(=O)NCCCNC(=O)c2ccc(-c3c4nc(c(-c5cc(S(=O)(=O)[O-])ccc5F)c5ccc([nH]5)c(-c5cc(S(=O)(=O)[O-])ccc5F)c5nc(c(-c6cc(S(=O)(=O)[O-])ccc6F)c6ccc3[nH]6)C=C5)C=C4)cc2)c1
REMARK SMILES IDX 22 1 21 2 20 3 18 4 19 5 17 7 11 8 12 9 90 10 13 11 14 12
REMARK SMILES IDX 15 13 10 14 9 16 1 17 2 18 3 19 4 20 8 21 5 22 6 23 7 24
REMARK SMILES IDX 16 25 23 28 24 29 25 30 26 32 27 33 28 34 89 35 29 36 88 37
REMARK SMILES IDX 30 38 31 39 32 40 82 41 33 42 87 43 81 44 83 45 34 46 86 47
REMARK SMILES IDX 80 48 79 49 35 51 67 52 47 53 66 54 48 55 51 56 65 57 84 58
REMARK SMILES IDX 49 59 50 60 64 62 85 63 52 64 36 65 37 66 45 67 38 68 44 69
REMARK SMILES IDX 46 70 43 71 39 72 40 73 41 74 42 75 68 76 69 77 77 78 70 79
REMARK SMILES IDX 76 80 78 81 75 82 71 83 72 84 73 85 74 86 53 87 54 88 62 89
REMARK SMILES IDX 55 90 61 91 63 92 60 93 56 94 57 95 58 96 59 97
REMARK H PARENT 20 6 10 15 16 26 16 27 24 31 83 50 51 61
REMARK Flexibility Score: inf
ROOT
ATOM      1  C   UNL A   1      31.291  31.743  26.796  1.00  0.00     0.042 C 
ENDROOT
BRANCH   1   2
ATOM      2  C   UNL A   1      31.711  30.274  26.750  1.00  0.00     0.118 C 
BRANCH   2   3
ATOM      3  N   UNL A   1      33.143  30.149  26.959  1.00  0.00    -0.352 N 
ATOM      4  C   UNL A   1      34.090  29.220  26.603  1.00  0.00     0.253 C 
ATOM      5  O   UNL A   1      35.228  29.433  27.031  1.00  0.00    -0.269 OA
ATOM      6  H   UNL A   1      33.520  30.899  27.473  1.00  0.00     0.163 HD
BRANCH   4   7
ATOM      7  C   UNL A   1      33.835  28.039  25.708  1.00  0.00     0.065 A 
ATOM      8  C   UNL A   1      33.259  25.684  25.437  1.00  0.00     0.040 A 
ATOM      9  C   UNL A   1      33.150  25.867  24.065  1.00  0.00     0.031 A 
ATOM     10  C   UNL A   1      33.695  26.749  26.223  1.00  0.00     0.042 A 
ATOM     11  C   UNL A   1      33.401  27.122  23.478  1.00  0.00    -0.025 A 
ATOM     12  C   UNL A   1      33.269  27.205  21.981  1.00  0.00     0.047 C 
ATOM     13  C   UNL A   1      33.724  28.229  24.300  1.00  0.00     0.047 A 
BRANCH   8  14
ATOM     14  N   UNL A   1      32.761  24.521  26.058  1.00  0.00    -0.355 N 
ATOM     15  H   UNL A   1      32.096  24.649  26.772  1.00  0.00     0.167 HD
BRANCH  14  16
ATOM     16  C   UNL A   1      33.126  23.184  25.755  1.00  0.00     0.043 A 
ATOM     17  C   UNL A   1      30.693  22.366  25.918  1.00  0.00     0.046 C 
ATOM     18  C   UNL A   1      32.166  22.153  25.687  1.00  0.00    -0.027 A 
ATOM     19  C   UNL A   1      32.571  20.840  25.371  1.00  0.00     0.007 A 
ATOM     20  C   UNL A   1      33.907  20.537  25.110  1.00  0.00     0.020 A 
ATOM     21  C   UNL A   1      34.466  22.857  25.456  1.00  0.00     0.045 A 
ATOM     22  C   UNL A   1      34.859  21.549  25.151  1.00  0.00     0.054 A 
BRANCH  22  23
ATOM     23  C   UNL A   1      36.240  21.251  24.899  1.00  0.00     0.099 C 
ATOM     24  N   UNL A   1      37.360  21.019  24.709  1.00  0.00    -0.192 NA
ENDBRANCH  22  23
ENDBRANCH  14  16
ENDBRANCH   8  14
BRANCH  13  25
ATOM     25  N   UNL A   1      33.761  29.517  23.750  1.00  0.00    -0.398 N 
ATOM     26  H   UNL A   1      32.962  30.090  23.784  1.00  0.00     0.156 HD
ATOM     27  H   UNL A   1      34.587  29.849  23.329  1.00  0.00     0.156 HD
ENDBRANCH  13  25
ENDBRANCH   4   7
ENDBRANCH   2   3
ENDBRANCH   1   2
BRANCH   1  28
ATOM     28  C   UNL A   1      32.465  32.685  26.545  1.00  0.00     0.118 C 
BRANCH  28  29
ATOM     29  N   UNL A   1      32.404  33.873  27.392  1.00  0.00    -0.352 N 
ATOM     30  C   UNL A   1      33.160  34.217  28.487  1.00  0.00     0.251 C 
ATOM     31  H   UNL A   1      31.714  34.529  27.140  1.00  0.00     0.163 HD
ATOM     32  O   UNL A   1      32.804  35.145  29.205  1.00  0.00    -0.269 OA
BRANCH  30  33
ATOM     33  C   UNL A   1      34.376  33.441  28.802  1.00  0.00     0.039 A 
ATOM     34  C   UNL A   1      34.270  32.144  29.305  1.00  0.00     0.014 A 
ATOM     35  C   UNL A   1      35.628  34.036  28.639  1.00  0.00     0.014 A 
ATOM     36  C   UNL A   1      35.389  31.526  29.844  1.00  0.00     0.010 A 
ATOM     37  C   UNL A   1      36.768  33.365  29.085  1.00  0.00     0.010 A 
ATOM     38  C   UNL A   1      36.649  32.136  29.755  1.00  0.00    -0.014 A 
BRANCH  38  39
ATOM     39  C   UNL A   1      37.827  31.504  30.405  1.00  0.00     0.031 A 
ATOM     40  C   UNL A   1      38.628  30.465  29.665  1.00  0.00     0.074 A 
ATOM     41  C   UNL A   1      38.192  31.887  31.643  1.00  0.00     0.049 A 
ATOM     42  N   UNL A   1      39.639  29.754  30.089  1.00  0.00    -0.248 NA
ATOM     43  C   UNL A   1      38.244  30.180  28.270  1.00  0.00     0.031 C 
ATOM     44  C   UNL A   1      37.508  32.908  32.439  1.00  0.00     0.029 A 
ATOM     45  N   UNL A   1      39.223  31.474  32.451  1.00  0.00    -0.354 N 
ATOM     46  C   UNL A   1      39.991  28.922  29.032  1.00  0.00     0.074 A 
ATOM     47  C   UNL A   1      39.070  29.191  27.953  1.00  0.00     0.031 C 
ATOM     48  C   UNL A   1      38.150  33.059  33.606  1.00  0.00     0.029 A 
ATOM     49  C   UNL A   1      39.234  32.085  33.684  1.00  0.00     0.049 A 
ATOM     50  H   UNL A   1      39.890  30.805  32.174  1.00  0.00     0.167 HD
ATOM     51  C   UNL A   1      41.004  28.027  28.969  1.00  0.00     0.034 A 
ATOM     52  C   UNL A   1      40.000  31.862  34.774  1.00  0.00     0.034 A 
ATOM     53  C   UNL A   1      41.939  27.806  30.043  1.00  0.00     0.049 A 
ATOM     54  C   UNL A   1      41.091  30.826  34.691  1.00  0.00     0.074 A 
ATOM     55  C   UNL A   1      43.025  26.949  30.056  1.00  0.00     0.029 A 
ATOM     56  N   UNL A   1      41.911  28.439  31.276  1.00  0.00    -0.354 N 
ATOM     57  N   UNL A   1      41.438  30.078  33.669  1.00  0.00    -0.248 NA
ATOM     58  C   UNL A   1      41.902  30.600  35.895  1.00  0.00     0.031 C 
ATOM     59  C   UNL A   1      43.595  26.993  31.325  1.00  0.00     0.029 A 
ATOM     60  C   UNL A   1      42.940  27.962  32.069  1.00  0.00     0.049 A 
ATOM     61  H   UNL A   1      41.257  29.123  31.547  1.00  0.00     0.167 HD
ATOM     62  C   UNL A   1      42.529  29.327  34.095  1.00  0.00     0.074 A 
ATOM     63  C   UNL A   1      42.796  29.720  35.461  1.00  0.00     0.031 C 
ATOM     64  C   UNL A   1      43.238  28.395  33.414  1.00  0.00     0.034 A 
BRANCH  51  65
ATOM     65  C   UNL A   1      41.203  27.211  27.716  1.00  0.00     0.023 A 
ATOM     66  C   UNL A   1      40.834  25.850  27.714  1.00  0.00     0.031 A 
ATOM     67  C   UNL A   1      41.935  27.703  26.623  1.00  0.00     0.131 A 
ATOM     68  C   UNL A   1      41.268  25.014  26.679  1.00  0.00     0.055 A 
ATOM     69  C   UNL A   1      42.315  26.876  25.565  1.00  0.00     0.041 A 
ATOM     70  F   UNL A   1      42.308  28.993  26.577  1.00  0.00    -0.206 F 
ATOM     71  C   UNL A   1      42.001  25.521  25.602  1.00  0.00     0.022 A 
BRANCH  68  72
ATOM     72  S   UNL A   1      40.994  23.223  26.751  1.00  0.00     0.124 S 
ATOM     73  O   UNL A   1      41.397  22.912  28.121  1.00  0.00    -0.237 OA
ATOM     74  O   UNL A   1      39.562  23.123  26.485  1.00  0.00    -0.237 OA
ATOM     75  O   UNL A   1      41.870  22.691  25.713  1.00  0.00    -0.744 OA
ENDBRANCH  68  72
ENDBRANCH  51  65
BRANCH  52  76
ATOM     76  C   UNL A   1      39.746  32.647  36.018  1.00  0.00     0.023 A 
ATOM     77  C   UNL A   1      38.843  32.178  36.992  1.00  0.00     0.031 A 
ATOM     78  C   UNL A   1      40.323  33.912  36.216  1.00  0.00     0.131 A 
ATOM     79  C   UNL A   1      38.488  32.995  38.072  1.00  0.00     0.055 A 
ATOM     80  C   UNL A   1      40.035  34.686  37.341  1.00  0.00     0.041 A 
ATOM     81  F   UNL A   1      41.178  34.415  35.311  1.00  0.00    -0.206 F 
ATOM     82  C   UNL A   1      39.098  34.236  38.267  1.00  0.00     0.022 A 
BRANCH  79  83
ATOM     83  S   UNL A   1      37.121  32.535  39.171  1.00  0.00     0.124 S 
ATOM     84  O   UNL A   1      35.954  32.916  38.383  1.00  0.00    -0.237 OA
ATOM     85  O   UNL A   1      37.336  31.098  39.328  1.00  0.00    -0.237 OA
ATOM     86  O   UNL A   1      37.360  33.330  40.371  1.00  0.00    -0.744 OA
ENDBRANCH  79  83
ENDBRANCH  52  76
BRANCH  64  87
ATOM     87  C   UNL A   1      44.424  27.734  34.075  1.00  0.00     0.023 A 
ATOM     88  C   UNL A   1      44.216  26.588  34.868  1.00  0.00     0.031 A 
ATOM     89  C   UNL A   1      45.686  28.348  34.109  1.00  0.00     0.131 A 
ATOM     90  C   UNL A   1      45.226  26.143  35.728  1.00  0.00     0.055 A 
ATOM     91  C   UNL A   1      46.713  27.858  34.917  1.00  0.00     0.041 A 
ATOM     92  F   UNL A   1      45.929  29.449  33.379  1.00  0.00    -0.206 F 
ATOM     93  C   UNL A   1      46.478  26.767  35.750  1.00  0.00     0.022 A 
BRANCH  90  94
ATOM     94  S   UNL A   1      44.906  24.833  36.942  1.00  0.00     0.124 S 
ATOM     95  O   UNL A   1      44.286  23.800  36.116  1.00  0.00    -0.237 OA
ATOM     96  O   UNL A   1      46.251  24.525  37.421  1.00  0.00    -0.237 OA
ATOM     97  O   UNL A   1      44.020  25.464  37.915  1.00  0.00    -0.744 OA
ENDBRANCH  90  94
ENDBRANCH  64  87
ENDBRANCH  38  39
ENDBRANCH  30  33
ENDBRANCH  28  29
ENDBRANCH   1  28
TORSDOF 17
ENDMDL
MODEL 2
REMARK VINA RESULT:     -11.6      2.187      2.598
REMARK SMILES Cc1ccc(C#N)cc1Nc1cc(C)c(N)c(C(=O)NCCCNC(=O)c2ccc(-c3c4nc(c(-c5cc(S(=O)(=O)[O-])ccc5F)c5ccc([nH]5)c(-c5cc(S(=O)(=O)[O-])ccc5F)c5nc(c(-c6cc(S(=O)(=O)[O-])ccc6F)c6ccc3[nH]6)C=C5)C=C4)cc2)c1
REMARK SMILES IDX 22 1 21 2 20 3 18 4 19 5 17 7 11 8 12 9 90 10 13 11 14 12
REMARK SMILES IDX 15 13 10 14 9 16 1 17 2 18 3 19 4 20 8 21 5 22 6 23 7 24
REMARK SMILES IDX 16 25 23 28 24 29 25 30 26 32 27 33 28 34 89 35 29 36 88 37
REMARK SMILES IDX 30 38 31 39 32 40 82 41 33 42 87 43 81 44 83 45 34 46 86 47
REMARK SMILES IDX 80 48 79 49 35 51 67 52 47 53 66 54 48 55 51 56 65 57 84 58
REMARK SMILES IDX 49 59 50 60 64 62 85 63 52 64 36 65 37 66 45 67 38 68 44 69
REMARK SMILES IDX 46 70 43 71 39 72 40 73 41 74 42 75 68 76 69 77 77 78 70 79
REMARK SMILES IDX 76 80 78 81 75 82 71 83 72 84 73 85 74 86 53 87 54 88 62 89
REMARK SMILES IDX 55 90 61 91 63 92 60 93 56 94 57 95 58 96 59 97
REMARK H PARENT 20 6 10 15 16 26 16 27 24 31 83 50 51 61
REMARK Flexibility Score: inf
ROOT
ATOM      1  C   UNL A   1      32.061  31.197  26.764  1.00  0.00     0.042 C 
ENDROOT
BRANCH   1   2
ATOM      2  C   UNL A   1      32.488  29.768  26.433  1.00  0.00     0.118 C 
BRANCH   2   3
ATOM      3  N   UNL A   1      33.026  29.699  25.085  1.00  0.00    -0.352 N 
ATOM      4  C   UNL A   1      32.646  29.060  23.929  1.00  0.00     0.253 C 
ATOM      5  O   UNL A   1      33.416  29.193  22.973  1.00  0.00    -0.269 OA
ATOM      6  H   UNL A   1      33.848  30.228  24.975  1.00  0.00     0.163 HD
BRANCH   4   7
ATOM      7  C   UNL A   1      31.367  28.288  23.759  1.00  0.00     0.065 A 
ATOM      8  C   UNL A   1      30.108  26.213  24.006  1.00  0.00     0.040 A 
ATOM      9  C   UNL A   1      28.941  26.877  23.649  1.00  0.00     0.031 A 
ATOM     10  C   UNL A   1      31.315  26.907  23.959  1.00  0.00     0.042 A 
ATOM     11  C   UNL A   1      28.958  28.246  23.317  1.00  0.00    -0.025 A 
ATOM     12  C   UNL A   1      27.640  28.862  22.929  1.00  0.00     0.047 C 
ATOM     13  C   UNL A   1      30.172  28.971  23.393  1.00  0.00     0.047 A 
BRANCH   8  14
ATOM     14  N   UNL A   1      30.065  24.931  24.588  1.00  0.00    -0.355 N 
ATOM     15  H   UNL A   1      29.177  24.580  24.825  1.00  0.00     0.167 HD
BRANCH  14  16
ATOM     16  C   UNL A   1      31.178  24.096  24.867  1.00  0.00     0.043 A 
ATOM     17  C   UNL A   1      30.048  23.096  26.949  1.00  0.00     0.046 C 
ATOM     18  C   UNL A   1      31.190  23.227  25.976  1.00  0.00    -0.027 A 
ATOM     19  C   UNL A   1      32.313  22.405  26.209  1.00  0.00     0.007 A 
ATOM     20  C   UNL A   1      33.415  22.425  25.355  1.00  0.00     0.020 A 
ATOM     21  C   UNL A   1      32.293  24.075  24.000  1.00  0.00     0.045 A 
ATOM     22  C   UNL A   1      33.405  23.261  24.244  1.00  0.00     0.054 A 
BRANCH  22  23
ATOM     23  C   UNL A   1      34.537  23.304  23.363  1.00  0.00     0.099 C 
ATOM     24  N   UNL A   1      35.461  23.333  22.664  1.00  0.00    -0.192 NA
ENDBRANCH  22  23
ENDBRANCH  14  16
ENDBRANCH   8  14
BRANCH  13  25
ATOM     25  N   UNL A   1      30.156  30.368  23.276  1.00  0.00    -0.398 N 
ATOM     26  H   UNL A   1      30.691  30.809  22.577  1.00  0.00     0.156 HD
ATOM     27  H   UNL A   1      29.610  30.907  23.892  1.00  0.00     0.156 HD
ENDBRANCH  13  25
ENDBRANCH   4   7
ENDBRANCH   2   3
ENDBRANCH   1   2
BRANCH   1  28
ATOM     28  C   UNL A   1      33.168  31.983  27.460  1.00  0.00     0.118 C 
BRANCH  28  29
ATOM     29  N   UNL A   1      32.813  33.388  27.639  1.00  0.00    -0.352 N 
ATOM     30  C   UNL A   1      33.240  34.294  28.580  1.00  0.00     0.251 C 
ATOM     31  H   UNL A   1      32.168  33.740  26.984  1.00  0.00     0.163 HD
ATOM     32  O   UNL A   1      32.650  35.361  28.707  1.00  0.00    -0.269 OA
BRANCH  30  33
ATOM     33  C   UNL A   1      34.384  33.954  29.449  1.00  0.00     0.039 A 
ATOM     34  C   UNL A   1      35.673  34.363  29.104  1.00  0.00     0.014 A 
ATOM     35  C   UNL A   1      34.170  33.180  30.590  1.00  0.00     0.014 A 
ATOM     36  C   UNL A   1      36.762  33.823  29.771  1.00  0.00     0.010 A 
ATOM     37  C   UNL A   1      35.267  32.725  31.325  1.00  0.00     0.010 A 
ATOM     38  C   UNL A   1      36.573  32.984  30.879  1.00  0.00    -0.014 A 
BRANCH  38  39
ATOM     39  C   UNL A   1      37.744  32.348  31.537  1.00  0.00     0.031 A 
ATOM     40  C   UNL A   1      38.454  31.201  30.866  1.00  0.00     0.074 A 
ATOM     41  C   UNL A   1      38.186  32.822  32.718  1.00  0.00     0.049 A 
ATOM     42  N   UNL A   1      39.444  30.475  31.314  1.00  0.00    -0.248 NA
ATOM     43  C   UNL A   1      37.991  30.812  29.522  1.00  0.00     0.031 C 
ATOM     44  C   UNL A   1      37.595  33.950  33.441  1.00  0.00     0.029 A 
ATOM     45  N   UNL A   1      39.229  32.426  33.518  1.00  0.00    -0.354 N 
ATOM     46  C   UNL A   1      39.702  29.530  30.328  1.00  0.00     0.074 A 
ATOM     47  C   UNL A   1      38.748  29.752  29.266  1.00  0.00     0.031 C 
ATOM     48  C   UNL A   1      38.296  34.170  34.561  1.00  0.00     0.029 A 
ATOM     49  C   UNL A   1      39.330  33.147  34.687  1.00  0.00     0.049 A 
ATOM     50  H   UNL A   1      39.846  31.698  33.279  1.00  0.00     0.167 HD
ATOM     51  C   UNL A   1      40.661  28.577  30.308  1.00  0.00     0.034 A 
ATOM     52  C   UNL A   1      40.131  32.981  35.761  1.00  0.00     0.034 A 
ATOM     53  C   UNL A   1      41.631  28.402  31.359  1.00  0.00     0.049 A 
ATOM     54  C   UNL A   1      41.160  31.880  35.732  1.00  0.00     0.074 A 
ATOM     55  C   UNL A   1      42.669  27.489  31.410  1.00  0.00     0.029 A 
ATOM     56  N   UNL A   1      41.693  29.146  32.528  1.00  0.00    -0.354 N 
ATOM     57  N   UNL A   1      41.419  31.023  34.772  1.00  0.00    -0.248 NA
ATOM     58  C   UNL A   1      42.012  31.720  36.918  1.00  0.00     0.031 C 
ATOM     59  C   UNL A   1      43.298  27.615  32.644  1.00  0.00     0.029 A 
ATOM     60  C   UNL A   1      42.731  28.685  33.319  1.00  0.00     0.049 A 
ATOM     61  H   UNL A   1      41.091  29.889  32.759  1.00  0.00     0.167 HD
ATOM     62  C   UNL A   1      42.487  30.253  35.223  1.00  0.00     0.074 A 
ATOM     63  C   UNL A   1      42.837  30.753  36.533  1.00  0.00     0.031 C 
ATOM     64  C   UNL A   1      43.113  29.222  34.604  1.00  0.00     0.034 A 
BRANCH  51  65
ATOM     65  C   UNL A   1      40.758  27.638  29.131  1.00  0.00     0.023 A 
ATOM     66  C   UNL A   1      41.689  27.910  28.108  1.00  0.00     0.031 A 
ATOM     67  C   UNL A   1      39.811  26.624  28.915  1.00  0.00     0.131 A 
ATOM     68  C   UNL A   1      41.601  27.231  26.888  1.00  0.00     0.055 A 
ATOM     69  C   UNL A   1      39.765  25.909  27.717  1.00  0.00     0.041 A 
ATOM     70  F   UNL A   1      38.904  26.325  29.859  1.00  0.00    -0.206 F 
ATOM     71  C   UNL A   1      40.648  26.227  26.689  1.00  0.00     0.022 A 
BRANCH  68  72
ATOM     72  S   UNL A   1      42.644  27.701  25.481  1.00  0.00     0.124 S 
ATOM     73  O   UNL A   1      43.940  27.908  26.124  1.00  0.00    -0.237 OA
ATOM     74  O   UNL A   1      42.553  26.520  24.627  1.00  0.00    -0.237 OA
ATOM     75  O   UNL A   1      42.011  28.909  24.963  1.00  0.00    -0.744 OA
ENDBRANCH  68  72
ENDBRANCH  51  65
BRANCH  52  76
ATOM     76  C   UNL A   1      39.977  33.890  36.934  1.00  0.00     0.023 A 
ATOM     77  C   UNL A   1      39.377  33.433  38.124  1.00  0.00     0.031 A 
ATOM     78  C   UNL A   1      40.338  35.246  36.863  1.00  0.00     0.131 A 
ATOM     79  C   UNL A   1      39.089  34.334  39.156  1.00  0.00     0.055 A 
ATOM     80  C   UNL A   1      40.131  36.122  37.929  1.00  0.00     0.041 A 
ATOM     81  F   UNL A   1      40.898  35.739  35.746  1.00  0.00    -0.206 F 
ATOM     82  C   UNL A   1      39.484  35.671  39.077  1.00  0.00     0.022 A 
BRANCH  79  83
ATOM     83  S   UNL A   1      38.063  33.831  40.565  1.00  0.00     0.124 S 
ATOM     84  O   UNL A   1      37.787  35.108  41.213  1.00  0.00    -0.237 OA
ATOM     85  O   UNL A   1      36.926  33.204  39.895  1.00  0.00    -0.237 OA
ATOM     86  O   UNL A   1      38.923  32.917  41.309  1.00  0.00    -0.744 OA
ENDBRANCH  79  83
ENDBRANCH  52  76
BRANCH  64  87
ATOM     87  C   UNL A   1      44.291  28.558  35.276  1.00  0.00     0.023 A 
ATOM     88  C   UNL A   1      44.059  27.504  36.182  1.00  0.00     0.031 A 
ATOM     89  C   UNL A   1      45.584  29.098  35.200  1.00  0.00     0.131 A 
ATOM     90  C   UNL A   1      45.082  27.083  37.038  1.00  0.00     0.055 A 
ATOM     91  C   UNL A   1      46.620  28.627  36.008  1.00  0.00     0.041 A 
ATOM     92  F   UNL A   1      45.853  30.111  34.360  1.00  0.00    -0.206 F 
ATOM     93  C   UNL A   1      46.364  27.632  36.949  1.00  0.00     0.022 A 
BRANCH  90  94
ATOM     94  S   UNL A   1      44.747  25.911  38.383  1.00  0.00     0.124 S 
ATOM     95  O   UNL A   1      45.975  25.998  39.171  1.00  0.00    -0.237 OA
ATOM     96  O   UNL A   1      43.563  26.493  39.007  1.00  0.00    -0.237 OA
ATOM     97  O   UNL A   1      44.539  24.639  37.699  1.00  0.00    -0.744 OA
ENDBRANCH  90  94
ENDBRANCH  64  87
ENDBRANCH  38  39
ENDBRANCH  30  33
ENDBRANCH  28  29
ENDBRANCH   1  28
TORSDOF 17
ENDMDL
MODEL 3
REMARK VINA RESULT:     -11.6      2.626      3.052
REMARK SMILES Cc1ccc(C#N)cc1Nc1cc(C)c(N)c(C(=O)NCCCNC(=O)c2ccc(-c3c4nc(c(-c5cc(S(=O)(=O)[O-])ccc5F)c5ccc([nH]5)c(-c5cc(S(=O)(=O)[O-])ccc5F)c5nc(c(-c6cc(S(=O)(=O)[O-])ccc6F)c6ccc3[nH]6)C=C5)C=C4)cc2)c1
REMARK SMILES IDX 22 1 21 2 20 3 18 4 19 5 17 7 11 8 12 9 90 10 13 11 14 12
REMARK SMILES IDX 15 13 10 14 9 16 1 17 2 18 3 19 4 20 8 21 5 22 6 23 7 24
REMARK SMILES IDX 16 25 23 28 24 29 25 30 26 32 27 33 28 34 89 35 29 36 88 37
REMARK SMILES IDX 30 38 31 39 32 40 82 41 33 42 87 43 81 44 83 45 34 46 86 47
REMARK SMILES IDX 80 48 79 49 35 51 67 52 47 53 66 54 48 55 51 56 65 57 84 58
REMARK SMILES IDX 49 59 50 60 64 62 85 63 52 64 36 65 37 66 45 67 38 68 44 69
REMARK SMILES IDX 46 70 43 71 39 72 40 73 41 74 42 75 68 76 69 77 77 78 70 79
REMARK SMILES IDX 76 80 78 81 75 82 71 83 72 84 73 85 74 86 53 87 54 88 62 89
REMARK SMILES IDX 55 90 61 91 63 92 60 93 56 94 57 95 58 96 59 97
REMARK H PARENT 20 6 10 15 16 26 16 27 24 31 83 50 51 61
REMARK Flexibility Score: inf
ROOT
ATOM      1  C   UNL A   1      32.093  31.248  26.923  1.00  0.00     0.042 C 
ENDROOT
BRANCH   1   2
ATOM      2  C   UNL A   1      32.528  29.823  26.585  1.00  0.00     0.118 C 
BRANCH   2   3
ATOM      3  N   UNL A   1      33.055  29.761  25.233  1.00  0.00    -0.352 N 
ATOM      4  C   UNL A   1      32.671  29.123  24.079  1.00  0.00     0.253 C 
ATOM      5  O   UNL A   1      33.432  29.264  23.117  1.00  0.00    -0.269 OA
ATOM      6  H   UNL A   1      33.873  30.297  25.118  1.00  0.00     0.163 HD
BRANCH   4   7
ATOM      7  C   UNL A   1      31.396  28.342  23.917  1.00  0.00     0.065 A 
ATOM      8  C   UNL A   1      30.106  26.308  24.304  1.00  0.00     0.040 A 
ATOM      9  C   UNL A   1      28.967  26.936  23.816  1.00  0.00     0.031 A 
ATOM     10  C   UNL A   1      31.321  26.989  24.254  1.00  0.00     0.042 A 
ATOM     11  C   UNL A   1      29.015  28.264  23.348  1.00  0.00    -0.025 A 
ATOM     12  C   UNL A   1      27.726  28.841  22.826  1.00  0.00     0.047 C 
ATOM     13  C   UNL A   1      30.229  28.988  23.416  1.00  0.00     0.047 A 
BRANCH   8  14
ATOM     14  N   UNL A   1      30.020  25.092  25.010  1.00  0.00    -0.355 N 
ATOM     15  H   UNL A   1      29.189  24.929  25.512  1.00  0.00     0.167 HD
BRANCH  14  16
ATOM     16  C   UNL A   1      31.013  24.081  25.068  1.00  0.00     0.043 A 
ATOM     17  C   UNL A   1      29.779  22.822  26.941  1.00  0.00     0.046 C 
ATOM     18  C   UNL A   1      30.919  23.004  25.974  1.00  0.00    -0.027 A 
ATOM     19  C   UNL A   1      31.923  22.014  25.990  1.00  0.00     0.007 A 
ATOM     20  C   UNL A   1      33.009  22.070  25.117  1.00  0.00     0.020 A 
ATOM     21  C   UNL A   1      32.106  24.097  24.175  1.00  0.00     0.045 A 
ATOM     22  C   UNL A   1      33.101  23.114  24.204  1.00  0.00     0.054 A 
BRANCH  22  23
ATOM     23  C   UNL A   1      34.220  23.193  23.309  1.00  0.00     0.099 C 
ATOM     24  N   UNL A   1      35.123  23.273  22.586  1.00  0.00    -0.192 NA
ENDBRANCH  22  23
ENDBRANCH  14  16
ENDBRANCH   8  14
BRANCH  13  25
ATOM     25  N   UNL A   1      30.233  30.366  23.157  1.00  0.00    -0.398 N 
ATOM     26  H   UNL A   1      30.971  30.926  23.487  1.00  0.00     0.156 HD
ATOM     27  H   UNL A   1      29.498  30.772  22.644  1.00  0.00     0.156 HD
ENDBRANCH  13  25
ENDBRANCH   4   7
ENDBRANCH   2   3
ENDBRANCH   1   2
BRANCH   1  28
ATOM     28  C   UNL A   1      33.265  32.117  27.372  1.00  0.00     0.118 C 
BRANCH  28  29
ATOM     29  N   UNL A   1      32.865  33.504  27.592  1.00  0.00    -0.352 N 
ATOM     30  C   UNL A   1      33.278  34.401  28.548  1.00  0.00     0.251 C 
ATOM     31  H   UNL A   1      32.197  33.850  26.958  1.00  0.00     0.163 HD
ATOM     32  O   UNL A   1      32.655  35.444  28.713  1.00  0.00    -0.269 OA
BRANCH  30  33
ATOM     33  C   UNL A   1      34.448  34.080  29.388  1.00  0.00     0.039 A 
ATOM     34  C   UNL A   1      35.738  34.340  28.924  1.00  0.00     0.014 A 
ATOM     35  C   UNL A   1      34.254  33.470  30.629  1.00  0.00     0.014 A 
ATOM     36  C   UNL A   1      36.827  33.800  29.593  1.00  0.00     0.010 A 
ATOM     37  C   UNL A   1      35.360  33.022  31.353  1.00  0.00     0.010 A 
ATOM     38  C   UNL A   1      36.651  33.120  30.807  1.00  0.00    -0.014 A 
BRANCH  38  39
ATOM     39  C   UNL A   1      37.813  32.478  31.474  1.00  0.00     0.031 A 
ATOM     40  C   UNL A   1      38.503  31.309  30.822  1.00  0.00     0.074 A 
ATOM     41  C   UNL A   1      38.264  32.966  32.645  1.00  0.00     0.049 A 
ATOM     42  N   UNL A   1      39.483  30.575  31.281  1.00  0.00    -0.248 NA
ATOM     43  C   UNL A   1      38.033  30.903  29.486  1.00  0.00     0.031 C 
ATOM     44  C   UNL A   1      37.691  34.115  33.350  1.00  0.00     0.029 A 
ATOM     45  N   UNL A   1      39.302  32.568  33.451  1.00  0.00    -0.354 N 
ATOM     46  C   UNL A   1      39.725  29.610  30.311  1.00  0.00     0.074 A 
ATOM     47  C   UNL A   1      38.773  29.828  29.247  1.00  0.00     0.031 C 
ATOM     48  C   UNL A   1      38.398  34.344  34.464  1.00  0.00     0.029 A 
ATOM     49  C   UNL A   1      39.416  33.307  34.607  1.00  0.00     0.049 A 
ATOM     50  H   UNL A   1      39.907  31.826  33.223  1.00  0.00     0.167 HD
ATOM     51  C   UNL A   1      40.669  28.642  30.307  1.00  0.00     0.034 A 
ATOM     52  C   UNL A   1      40.216  33.149  35.682  1.00  0.00     0.034 A 
ATOM     53  C   UNL A   1      41.639  28.470  31.359  1.00  0.00     0.049 A 
ATOM     54  C   UNL A   1      41.228  32.032  35.672  1.00  0.00     0.074 A 
ATOM     55  C   UNL A   1      42.662  27.542  31.424  1.00  0.00     0.029 A 
ATOM     56  N   UNL A   1      41.714  29.233  32.515  1.00  0.00    -0.354 N 
ATOM     57  N   UNL A   1      41.473  31.154  34.726  1.00  0.00    -0.248 NA
ATOM     58  C   UNL A   1      42.080  31.879  36.858  1.00  0.00     0.031 C 
ATOM     59  C   UNL A   1      43.295  27.681  32.655  1.00  0.00     0.029 A 
ATOM     60  C   UNL A   1      42.746  28.771  33.313  1.00  0.00     0.049 A 
ATOM     61  H   UNL A   1      41.123  29.989  32.734  1.00  0.00     0.167 HD
ATOM     62  C   UNL A   1      42.529  30.375  35.189  1.00  0.00     0.074 A 
ATOM     63  C   UNL A   1      42.889  30.893  36.489  1.00  0.00     0.031 C 
ATOM     64  C   UNL A   1      43.138  29.324  34.587  1.00  0.00     0.034 A 
BRANCH  51  65
ATOM     65  C   UNL A   1      40.750  27.681  29.146  1.00  0.00     0.023 A 
ATOM     66  C   UNL A   1      41.678  27.926  28.113  1.00  0.00     0.031 A 
ATOM     67  C   UNL A   1      39.792  26.673  28.954  1.00  0.00     0.131 A 
ATOM     68  C   UNL A   1      41.575  27.225  26.906  1.00  0.00     0.055 A 
ATOM     69  C   UNL A   1      39.732  25.937  27.770  1.00  0.00     0.041 A 
ATOM     70  F   UNL A   1      38.888  26.400  29.909  1.00  0.00    -0.206 F 
ATOM     71  C   UNL A   1      40.611  26.228  26.731  1.00  0.00     0.022 A 
BRANCH  68  72
ATOM     72  S   UNL A   1      42.614  27.660  25.484  1.00  0.00     0.124 S 
ATOM     73  O   UNL A   1      42.498  26.465  24.651  1.00  0.00    -0.237 OA
ATOM     74  O   UNL A   1      41.940  28.847  24.967  1.00  0.00    -0.237 OA
ATOM     75  O   UNL A   1      43.932  27.883  26.067  1.00  0.00    -0.744 OA
ENDBRANCH  68  72
ENDBRANCH  51  65
BRANCH  52  76
ATOM     76  C   UNL A   1      40.078  34.080  36.840  1.00  0.00     0.023 A 
ATOM     77  C   UNL A   1      41.019  35.107  37.054  1.00  0.00     0.031 A 
ATOM     78  C   UNL A   1      39.065  33.911  37.799  1.00  0.00     0.131 A 
ATOM     79  C   UNL A   1      40.973  35.867  38.228  1.00  0.00     0.055 A 
ATOM     80  C   UNL A   1      38.970  34.731  38.924  1.00  0.00     0.041 A 
ATOM     81  F   UNL A   1      38.152  32.938  37.654  1.00  0.00    -0.206 F 
ATOM     82  C   UNL A   1      39.940  35.703  39.153  1.00  0.00     0.022 A 
BRANCH  79  83
ATOM     83  S   UNL A   1      42.333  36.988  38.659  1.00  0.00     0.124 S 
ATOM     84  O   UNL A   1      41.657  37.987  39.478  1.00  0.00    -0.237 OA
ATOM     85  O   UNL A   1      43.240  36.092  39.374  1.00  0.00    -0.237 OA
ATOM     86  O   UNL A   1      42.819  37.454  37.365  1.00  0.00    -0.744 OA
ENDBRANCH  79  83
ENDBRANCH  52  76
BRANCH  64  87
ATOM     87  C   UNL A   1      44.307  28.654  35.269  1.00  0.00     0.023 A 
ATOM     88  C   UNL A   1      44.062  27.597  36.167  1.00  0.00     0.031 A 
ATOM     89  C   UNL A   1      45.603  29.192  35.210  1.00  0.00     0.131 A 
ATOM     90  C   UNL A   1      45.075  27.169  37.032  1.00  0.00     0.055 A 
ATOM     91  C   UNL A   1      46.628  28.714  36.027  1.00  0.00     0.041 A 
ATOM     92  F   UNL A   1      45.883  30.208  34.378  1.00  0.00    -0.206 F 
ATOM     93  C   UNL A   1      46.360  27.716  36.961  1.00  0.00     0.022 A 
BRANCH  90  94
ATOM     94  S   UNL A   1      44.723  25.991  38.368  1.00  0.00     0.124 S 
ATOM     95  O   UNL A   1      44.182  26.866  39.407  1.00  0.00    -0.237 OA
ATOM     96  O   UNL A   1      43.756  25.097  37.740  1.00  0.00    -0.237 OA
ATOM     97  O   UNL A   1      46.023  25.402  38.669  1.00  0.00    -0.744 OA
ENDBRANCH  90  94
ENDBRANCH  64  87
ENDBRANCH  38  39
ENDBRANCH  30  33
ENDBRANCH  28  29
ENDBRANCH   1  28
TORSDOF 17
ENDMDL
