MODEL 1
REMARK VINA RESULT:     -11.6      0.000      0.000
REMARK SMILES O=C(NCCCNC(=O)c1ccc(-c2c3nc(c(-c4cc(S(=O)(=O)[O-])ccc4F)c4ccc([nH]4)c(-c4cc(S(=O)(=O)[O-])ccc4F)c4nc(c(-c5cc(S(=O)(=O)[O-])ccc5F)c5ccc2[nH]5)C=C4)C=C3)cc1)c1ccc(/[NH+]=C2\S[C@@H](Cc3ccc(F)cc3)C(=O)N2Cc2ccccc2)cc1
REMARK SMILES IDX 5 1 4 2 3 3 1 4 2 5 73 7 74 8 100 9 75 10 99 11 76 12 77 13
REMARK SMILES IDX 78 14 79 16 91 17 80 18 89 19 90 20 92 21 93 22 94 23 98 24
REMARK SMILES IDX 95 25 97 26 96 27 81 28 82 29 83 30 88 31 84 32 87 33 85 34
REMARK SMILES IDX 86 35 6 36 7 37 8 38 9 40 10 41 11 42 72 43 12 44 71 45
REMARK SMILES IDX 13 46 14 47 15 48 65 49 16 50 70 51 64 52 66 53 17 54 69 55
REMARK SMILES IDX 63 56 62 57 18 59 50 60 30 61 49 62 31 63 34 64 48 65 67 66
REMARK SMILES IDX 32 67 33 68 47 70 68 71 35 72 19 73 20 74 28 75 21 76 27 77
REMARK SMILES IDX 29 78 26 79 22 80 23 81 24 82 25 83 51 84 52 85 60 86 53 87
REMARK SMILES IDX 59 88 61 89 58 90 54 91 55 92 56 93 57 94 36 95 37 96 45 97
REMARK SMILES IDX 38 98 44 99 46 100 43 101 39 102 40 103 41 104 42 105
REMARK H PARENT 3 6 77 15 7 39 66 58 34 69
REMARK Flexibility Score: inf
ROOT
ATOM      1  C   UNL A   1      34.271  34.860  28.346  1.00  0.00     0.042 C 
ENDROOT
BRANCH   1   2
ATOM      2  C   UNL A   1      35.086  33.718  27.762  1.00  0.00     0.118 C 
BRANCH   2   3
ATOM      3  N   UNL A   1      35.430  32.709  28.757  1.00  0.00    -0.352 N 
ATOM      4  O   UNL A   1      35.323  30.730  29.837  1.00  0.00    -0.269 OA
ATOM      5  C   UNL A   1      35.091  31.381  28.819  1.00  0.00     0.251 C 
ATOM      6  H   UNL A   1      35.991  33.030  29.499  1.00  0.00     0.163 HD
BRANCH   5   7
ATOM      7  C   UNL A   1      34.450  30.723  27.665  1.00  0.00     0.040 A 
ATOM      8  C   UNL A   1      35.136  29.745  26.946  1.00  0.00     0.018 A 
ATOM      9  C   UNL A   1      33.129  31.043  27.331  1.00  0.00     0.018 A 
ATOM     10  C   UNL A   1      34.543  29.177  25.827  1.00  0.00     0.052 A 
ATOM     11  C   UNL A   1      32.519  30.425  26.234  1.00  0.00     0.052 A 
ATOM     12  C   UNL A   1      33.236  29.512  25.459  1.00  0.00     0.125 A 
BRANCH  12  13
ATOM     13  N   UNL A   1      32.664  28.794  24.410  1.00  0.00    -0.235 N 
ATOM     14  C   UNL A   1      32.339  27.551  24.504  1.00  0.00     0.320 C 
ATOM     15  H   UNL A   1      32.499  29.259  23.558  1.00  0.00     0.313 HD
ATOM     16  S   UNL A   1      32.704  26.447  25.797  1.00  0.00    -0.022 SA
ATOM     17  N   UNL A   1      31.602  26.938  23.528  1.00  0.00    -0.186 N 
ATOM     18  C   UNL A   1      32.270  24.998  24.780  1.00  0.00     0.178 C 
ATOM     19  C   UNL A   1      31.436  25.572  23.639  1.00  0.00     0.324 C 
ATOM     20  O   UNL A   1      30.786  24.893  22.852  1.00  0.00    -0.245 OA
BRANCH  17  21
ATOM     21  C   UNL A   1      31.044  27.672  22.394  1.00  0.00     0.283 C 
BRANCH  21  22
ATOM     22  C   UNL A   1      29.791  28.477  22.703  1.00  0.00    -0.006 A 
ATOM     23  C   UNL A   1      28.625  27.855  23.168  1.00  0.00     0.008 A 
ATOM     24  C   UNL A   1      29.745  29.859  22.464  1.00  0.00     0.008 A 
ATOM     25  C   UNL A   1      27.458  28.600  23.387  1.00  0.00     0.000 A 
ATOM     26  C   UNL A   1      28.597  30.611  22.721  1.00  0.00     0.000 A 
ATOM     27  C   UNL A   1      27.448  29.978  23.176  1.00  0.00     0.000 A 
ENDBRANCH  21  22
ENDBRANCH  17  21
BRANCH  18  28
ATOM     28  C   UNL A   1      31.568  23.928  25.616  1.00  0.00     0.063 C 
BRANCH  28  29
ATOM     29  C   UNL A   1      32.134  22.533  25.436  1.00  0.00    -0.046 A 
ATOM     30  C   UNL A   1      32.897  21.953  26.463  1.00  0.00     0.007 A 
ATOM     31  C   UNL A   1      31.906  21.801  24.259  1.00  0.00     0.007 A 
ATOM     32  C   UNL A   1      33.395  20.657  26.328  1.00  0.00     0.039 A 
ATOM     33  C   UNL A   1      32.403  20.502  24.130  1.00  0.00     0.039 A 
ATOM     34  C   UNL A   1      33.138  19.941  25.168  1.00  0.00     0.123 A 
ATOM     35  F   UNL A   1      33.603  18.691  25.047  1.00  0.00    -0.207 F 
ENDBRANCH  28  29
ENDBRANCH  18  28
ENDBRANCH  12  13
ENDBRANCH   5   7
ENDBRANCH   2   3
ENDBRANCH   1   2
BRANCH   1  36
ATOM     36  C   UNL A   1      33.175  34.415  29.301  1.00  0.00     0.118 C 
BRANCH  36  37
ATOM     37  N   UNL A   1      33.069  35.270  30.477  1.00  0.00    -0.352 N 
ATOM     38  C   UNL A   1      33.749  35.233  31.670  1.00  0.00     0.251 C 
ATOM     39  H   UNL A   1      32.404  35.992  30.404  1.00  0.00     0.163 HD
ATOM     40  O   UNL A   1      33.361  35.936  32.600  1.00  0.00    -0.269 OA
BRANCH  38  41
ATOM     41  C   UNL A   1      34.912  34.336  31.847  1.00  0.00     0.039 A 
ATOM     42  C   UNL A   1      36.174  34.776  31.438  1.00  0.00     0.014 A 
ATOM     43  C   UNL A   1      34.767  33.063  32.405  1.00  0.00     0.014 A 
ATOM     44  C   UNL A   1      37.294  33.974  31.662  1.00  0.00     0.010 A 
ATOM     45  C   UNL A   1      35.895  32.308  32.715  1.00  0.00     0.010 A 
ATOM     46  C   UNL A   1      37.172  32.753  32.345  1.00  0.00    -0.014 A 
BRANCH  46  47
ATOM     47  C   UNL A   1      38.364  31.929  32.680  1.00  0.00     0.031 A 
ATOM     48  C   UNL A   1      39.123  32.178  33.956  1.00  0.00     0.074 A 
ATOM     49  C   UNL A   1      38.799  31.000  31.805  1.00  0.00     0.049 A 
ATOM     50  N   UNL A   1      40.225  31.621  34.386  1.00  0.00    -0.248 NA
ATOM     51  C   UNL A   1      38.586  33.215  34.850  1.00  0.00     0.031 C 
ATOM     52  C   UNL A   1      38.173  30.694  30.516  1.00  0.00     0.029 A 
ATOM     53  N   UNL A   1      39.873  30.147  31.859  1.00  0.00    -0.354 N 
ATOM     54  C   UNL A   1      40.519  32.244  35.594  1.00  0.00     0.074 A 
ATOM     55  C   UNL A   1      39.518  33.269  35.789  1.00  0.00     0.031 C 
ATOM     56  C   UNL A   1      38.853  29.703  29.921  1.00  0.00     0.029 A 
ATOM     57  C   UNL A   1      39.994  29.338  30.753  1.00  0.00     0.049 A 
ATOM     58  H   UNL A   1      40.498  30.116  32.620  1.00  0.00     0.167 HD
ATOM     59  C   UNL A   1      41.518  31.970  36.470  1.00  0.00     0.034 A 
ATOM     60  C   UNL A   1      40.928  28.419  30.435  1.00  0.00     0.034 A 
ATOM     61  C   UNL A   1      42.505  30.938  36.263  1.00  0.00     0.049 A 
ATOM     62  C   UNL A   1      42.053  28.160  31.406  1.00  0.00     0.074 A 
ATOM     63  C   UNL A   1      43.526  30.539  37.108  1.00  0.00     0.029 A 
ATOM     64  N   UNL A   1      42.606  30.149  35.123  1.00  0.00    -0.354 N 
ATOM     65  N   UNL A   1      42.287  28.722  32.569  1.00  0.00    -0.248 NA
ATOM     66  C   UNL A   1      43.034  27.137  31.023  1.00  0.00     0.031 C 
ATOM     67  C   UNL A   1      44.288  29.567  36.449  1.00  0.00     0.029 A 
ATOM     68  C   UNL A   1      43.693  29.294  35.228  1.00  0.00     0.049 A 
ATOM     69  H   UNL A   1      41.994  30.190  34.352  1.00  0.00     0.167 HD
ATOM     70  C   UNL A   1      43.425  28.097  33.070  1.00  0.00     0.074 A 
ATOM     71  C   UNL A   1      43.818  27.105  32.089  1.00  0.00     0.031 C 
ATOM     72  C   UNL A   1      44.085  28.320  34.235  1.00  0.00     0.034 A 
BRANCH  59  73
ATOM     73  C   UNL A   1      41.601  32.820  37.718  1.00  0.00     0.023 A 
ATOM     74  C   UNL A   1      40.791  32.567  38.840  1.00  0.00     0.031 A 
ATOM     75  C   UNL A   1      42.479  33.916  37.778  1.00  0.00     0.131 A 
ATOM     76  C   UNL A   1      40.815  33.444  39.934  1.00  0.00     0.055 A 
ATOM     77  C   UNL A   1      42.563  34.733  38.908  1.00  0.00     0.041 A 
ATOM     78  F   UNL A   1      43.263  34.223  36.732  1.00  0.00    -0.206 F 
ATOM     79  C   UNL A   1      41.714  34.510  39.988  1.00  0.00     0.022 A 
BRANCH  76  80
ATOM     80  S   UNL A   1      39.541  33.264  41.213  1.00  0.00     0.124 S 
ATOM     81  O   UNL A   1      39.414  34.636  41.698  1.00  0.00    -0.237 OA
ATOM     82  O   UNL A   1      38.406  32.745  40.459  1.00  0.00    -0.237 OA
ATOM     83  O   UNL A   1      40.140  32.329  42.164  1.00  0.00    -0.744 OA
ENDBRANCH  76  80
ENDBRANCH  59  73
BRANCH  60  84
ATOM     84  C   UNL A   1      40.854  27.682  29.140  1.00  0.00     0.023 A 
ATOM     85  C   UNL A   1      41.770  27.939  28.108  1.00  0.00     0.031 A 
ATOM     86  C   UNL A   1      39.839  26.737  28.900  1.00  0.00     0.131 A 
ATOM     87  C   UNL A   1      41.627  27.297  26.868  1.00  0.00     0.055 A 
ATOM     88  C   UNL A   1      39.735  26.060  27.684  1.00  0.00     0.041 A 
ATOM     89  F   UNL A   1      38.937  26.451  29.852  1.00  0.00    -0.206 F 
ATOM     90  C   UNL A   1      40.624  26.349  26.654  1.00  0.00     0.022 A 
BRANCH  87  91
ATOM     91  S   UNL A   1      42.718  27.790  25.505  1.00  0.00     0.124 S 
ATOM     92  O   UNL A   1      43.850  28.362  26.223  1.00  0.00    -0.237 OA
ATOM     93  O   UNL A   1      42.958  26.516  24.835  1.00  0.00    -0.237 OA
ATOM     94  O   UNL A   1      41.907  28.745  24.751  1.00  0.00    -0.744 OA
ENDBRANCH  87  91
ENDBRANCH  60  84
BRANCH  72  95
ATOM     95  C   UNL A   1      45.279  27.441  34.529  1.00  0.00     0.023 A 
ATOM     96  C   UNL A   1      45.147  26.212  35.199  1.00  0.00     0.031 A 
ATOM     97  C   UNL A   1      46.568  27.847  34.141  1.00  0.00     0.131 A 
ATOM     98  C   UNL A   1      46.292  25.461  35.512  1.00  0.00     0.055 A 
ATOM     99  C   UNL A   1      47.694  27.064  34.394  1.00  0.00     0.041 A 
ATOM    100  F   UNL A   1      46.754  29.013  33.502  1.00  0.00    -0.206 F 
ATOM    101  C   UNL A   1      47.561  25.870  35.096  1.00  0.00     0.022 A 
BRANCH  98 102
ATOM    102  S   UNL A   1      46.108  23.990  36.558  1.00  0.00     0.124 S 
ATOM    103  O   UNL A   1      46.204  22.910  35.581  1.00  0.00    -0.237 OA
ATOM    104  O   UNL A   1      47.231  24.119  37.479  1.00  0.00    -0.237 OA
ATOM    105  O   UNL A   1      44.787  24.164  37.162  1.00  0.00    -0.744 OA
ENDBRANCH  98 102
ENDBRANCH  72  95
ENDBRANCH  46  47
ENDBRANCH  38  41
ENDBRANCH  36  37
ENDBRANCH   1  36
TORSDOF 18
ENDMDL
MODEL 2
REMARK VINA RESULT:     -11.6      7.026     13.748
REMARK SMILES O=C(NCCCNC(=O)c1ccc(-c2c3nc(c(-c4cc(S(=O)(=O)[O-])ccc4F)c4ccc([nH]4)c(-c4cc(S(=O)(=O)[O-])ccc4F)c4nc(c(-c5cc(S(=O)(=O)[O-])ccc5F)c5ccc2[nH]5)C=C4)C=C3)cc1)c1ccc(/[NH+]=C2\S[C@@H](Cc3ccc(F)cc3)C(=O)N2Cc2ccccc2)cc1
REMARK SMILES IDX 5 1 4 2 3 3 1 4 2 5 73 7 74 8 100 9 75 10 99 11 76 12 77 13
REMARK SMILES IDX 78 14 79 16 91 17 80 18 89 19 90 20 92 21 93 22 94 23 98 24
REMARK SMILES IDX 95 25 97 26 96 27 81 28 82 29 83 30 88 31 84 32 87 33 85 34
REMARK SMILES IDX 86 35 6 36 7 37 8 38 9 40 10 41 11 42 72 43 12 44 71 45
REMARK SMILES IDX 13 46 14 47 15 48 65 49 16 50 70 51 64 52 66 53 17 54 69 55
REMARK SMILES IDX 63 56 62 57 18 59 50 60 30 61 49 62 31 63 34 64 48 65 67 66
REMARK SMILES IDX 32 67 33 68 47 70 68 71 35 72 19 73 20 74 28 75 21 76 27 77
REMARK SMILES IDX 29 78 26 79 22 80 23 81 24 82 25 83 51 84 52 85 60 86 53 87
REMARK SMILES IDX 59 88 61 89 58 90 54 91 55 92 56 93 57 94 36 95 37 96 45 97
REMARK SMILES IDX 38 98 44 99 46 100 43 101 39 102 40 103 41 104 42 105
REMARK H PARENT 3 6 77 15 7 39 66 58 34 69
REMARK Flexibility Score: inf
ROOT
ATOM      1  C   UNL A   1      48.175  36.265  26.162  1.00  0.00     0.042 C 
ENDROOT
BRANCH   1   2
ATOM      2  C   UNL A   1      48.434  37.750  26.357  1.00  0.00     0.118 C 
BRANCH   2   3
ATOM      3  N   UNL A   1      48.047  38.544  25.196  1.00  0.00    -0.352 N 
ATOM      4  O   UNL A   1      46.706  39.808  23.894  1.00  0.00    -0.269 OA
ATOM      5  C   UNL A   1      46.963  39.364  25.012  1.00  0.00     0.251 C 
ATOM      6  H   UNL A   1      48.657  38.481  24.426  1.00  0.00     0.163 HD
BRANCH   5   7
ATOM      7  C   UNL A   1      46.100  39.723  26.154  1.00  0.00     0.040 A 
ATOM      8  C   UNL A   1      46.405  40.834  26.940  1.00  0.00     0.018 A 
ATOM      9  C   UNL A   1      44.943  38.979  26.408  1.00  0.00     0.018 A 
ATOM     10  C   UNL A   1      45.618  41.125  28.046  1.00  0.00     0.052 A 
ATOM     11  C   UNL A   1      44.125  39.313  27.493  1.00  0.00     0.052 A 
ATOM     12  C   UNL A   1      44.478  40.369  28.335  1.00  0.00     0.125 A 
BRANCH  12  13
ATOM     13  N   UNL A   1      43.664  40.813  29.376  1.00  0.00    -0.235 N 
ATOM     14  C   UNL A   1      43.697  40.305  30.559  1.00  0.00     0.320 C 
ATOM     15  H   UNL A   1      43.035  41.549  29.198  1.00  0.00     0.313 HD
ATOM     16  S   UNL A   1      44.544  38.881  31.087  1.00  0.00    -0.022 SA
ATOM     17  N   UNL A   1      43.032  40.896  31.600  1.00  0.00    -0.186 N 
ATOM     18  C   UNL A   1      43.594  38.803  32.641  1.00  0.00     0.178 C 
ATOM     19  C   UNL A   1      42.998  40.198  32.791  1.00  0.00     0.324 C 
ATOM     20  O   UNL A   1      42.457  40.611  33.811  1.00  0.00    -0.245 OA
BRANCH  17  21
ATOM     21  C   UNL A   1      42.353  42.182  31.462  1.00  0.00     0.283 C 
BRANCH  21  22
ATOM     22  C   UNL A   1      43.016  43.341  32.189  1.00  0.00    -0.006 A 
ATOM     23  C   UNL A   1      44.401  43.545  32.120  1.00  0.00     0.008 A 
ATOM     24  C   UNL A   1      42.268  44.201  33.008  1.00  0.00     0.008 A 
ATOM     25  C   UNL A   1      45.006  44.579  32.847  1.00  0.00     0.000 A 
ATOM     26  C   UNL A   1      42.862  45.258  33.700  1.00  0.00     0.000 A 
ATOM     27  C   UNL A   1      44.236  45.442  33.626  1.00  0.00     0.000 A 
ENDBRANCH  21  22
ENDBRANCH  17  21
BRANCH  18  28
ATOM     28  C   UNL A   1      44.475  38.350  33.805  1.00  0.00     0.063 C 
BRANCH  28  29
ATOM     29  C   UNL A   1      43.706  37.758  34.969  1.00  0.00    -0.046 A 
ATOM     30  C   UNL A   1      44.192  37.914  36.277  1.00  0.00     0.007 A 
ATOM     31  C   UNL A   1      42.506  37.056  34.767  1.00  0.00     0.007 A 
ATOM     32  C   UNL A   1      43.478  37.406  37.363  1.00  0.00     0.039 A 
ATOM     33  C   UNL A   1      41.792  36.553  35.857  1.00  0.00     0.039 A 
ATOM     34  C   UNL A   1      42.282  36.738  37.144  1.00  0.00     0.123 A 
ATOM     35  F   UNL A   1      41.589  36.265  38.189  1.00  0.00    -0.207 F 
ENDBRANCH  28  29
ENDBRANCH  18  28
ENDBRANCH  12  13
ENDBRANCH   5   7
ENDBRANCH   2   3
ENDBRANCH   1   2
BRANCH   1  36
ATOM     36  C   UNL A   1      46.796  35.812  26.614  1.00  0.00     0.118 C 
BRANCH  36  37
ATOM     37  N   UNL A   1      45.958  35.365  25.508  1.00  0.00    -0.352 N 
ATOM     38  C   UNL A   1      44.739  34.731  25.513  1.00  0.00     0.251 C 
ATOM     39  H   UNL A   1      46.324  35.547  24.613  1.00  0.00     0.163 HD
ATOM     40  O   UNL A   1      44.302  34.271  24.461  1.00  0.00    -0.269 OA
BRANCH  38  41
ATOM     41  C   UNL A   1      43.976  34.575  26.771  1.00  0.00     0.039 A 
ATOM     42  C   UNL A   1      43.938  33.321  27.387  1.00  0.00     0.014 A 
ATOM     43  C   UNL A   1      43.294  35.652  27.343  1.00  0.00     0.014 A 
ATOM     44  C   UNL A   1      43.284  33.170  28.611  1.00  0.00     0.010 A 
ATOM     45  C   UNL A   1      42.728  35.522  28.608  1.00  0.00     0.010 A 
ATOM     46  C   UNL A   1      42.713  34.279  29.256  1.00  0.00    -0.014 A 
BRANCH  46  47
ATOM     47  C   UNL A   1      42.097  34.159  30.604  1.00  0.00     0.031 A 
ATOM     48  C   UNL A   1      42.955  33.863  31.806  1.00  0.00     0.074 A 
ATOM     49  C   UNL A   1      40.759  34.254  30.736  1.00  0.00     0.049 A 
ATOM     50  N   UNL A   1      42.598  33.647  33.045  1.00  0.00    -0.248 NA
ATOM     51  C   UNL A   1      44.404  33.767  31.573  1.00  0.00     0.031 C 
ATOM     52  C   UNL A   1      39.817  34.498  29.641  1.00  0.00     0.029 A 
ATOM     53  N   UNL A   1      39.955  34.149  31.844  1.00  0.00    -0.354 N 
ATOM     54  C   UNL A   1      43.774  33.380  33.738  1.00  0.00     0.074 A 
ATOM     55  C   UNL A   1      44.844  33.392  32.764  1.00  0.00     0.031 C 
ATOM     56  C   UNL A   1      38.571  34.557  30.137  1.00  0.00     0.029 A 
ATOM     57  C   UNL A   1      38.615  34.300  31.572  1.00  0.00     0.049 A 
ATOM     58  H   UNL A   1      40.305  33.983  32.749  1.00  0.00     0.167 HD
ATOM     59  C   UNL A   1      43.948  33.169  35.067  1.00  0.00     0.034 A 
ATOM     60  C   UNL A   1      37.540  34.224  32.383  1.00  0.00     0.034 A 
ATOM     61  C   UNL A   1      42.870  33.167  36.026  1.00  0.00     0.049 A 
ATOM     62  C   UNL A   1      37.754  33.946  33.850  1.00  0.00     0.074 A 
ATOM     63  C   UNL A   1      42.939  33.018  37.400  1.00  0.00     0.029 A 
ATOM     64  N   UNL A   1      41.523  33.308  35.711  1.00  0.00    -0.354 N 
ATOM     65  N   UNL A   1      38.879  33.748  34.498  1.00  0.00    -0.248 NA
ATOM     66  C   UNL A   1      36.554  33.890  34.694  1.00  0.00     0.031 C 
ATOM     67  C   UNL A   1      41.634  32.990  37.905  1.00  0.00     0.029 A 
ATOM     68  C   UNL A   1      40.752  33.210  36.860  1.00  0.00     0.049 A 
ATOM     69  H   UNL A   1      41.168  33.456  34.805  1.00  0.00     0.167 HD
ATOM     70  C   UNL A   1      38.521  33.575  35.832  1.00  0.00     0.074 A 
ATOM     71  C   UNL A   1      37.080  33.709  35.896  1.00  0.00     0.031 C 
ATOM     72  C   UNL A   1      39.312  33.330  36.908  1.00  0.00     0.034 A 
BRANCH  59  73
ATOM     73  C   UNL A   1      45.355  32.896  35.549  1.00  0.00     0.023 A 
ATOM     74  C   UNL A   1      45.859  31.588  35.659  1.00  0.00     0.031 A 
ATOM     75  C   UNL A   1      46.196  33.956  35.932  1.00  0.00     0.131 A 
ATOM     76  C   UNL A   1      47.127  31.369  36.216  1.00  0.00     0.055 A 
ATOM     77  C   UNL A   1      47.493  33.736  36.402  1.00  0.00     0.041 A 
ATOM     78  F   UNL A   1      45.767  35.227  35.872  1.00  0.00    -0.206 F 
ATOM     79  C   UNL A   1      47.959  32.434  36.563  1.00  0.00     0.022 A 
BRANCH  76  80
ATOM     80  S   UNL A   1      47.607  29.668  36.628  1.00  0.00     0.124 S 
ATOM     81  O   UNL A   1      48.633  29.890  37.645  1.00  0.00    -0.237 OA
ATOM     82  O   UNL A   1      46.355  29.091  37.100  1.00  0.00    -0.237 OA
ATOM     83  O   UNL A   1      48.104  29.136  35.361  1.00  0.00    -0.744 OA
ENDBRANCH  76  80
ENDBRANCH  59  73
BRANCH  60  84
ATOM     84  C   UNL A   1      36.164  34.398  31.833  1.00  0.00     0.023 A 
ATOM     85  C   UNL A   1      35.388  35.519  32.169  1.00  0.00     0.031 A 
ATOM     86  C   UNL A   1      35.589  33.425  30.994  1.00  0.00     0.131 A 
ATOM     87  C   UNL A   1      34.065  35.617  31.709  1.00  0.00     0.055 A 
ATOM     88  C   UNL A   1      34.292  33.556  30.494  1.00  0.00     0.041 A 
ATOM     89  F   UNL A   1      36.287  32.335  30.639  1.00  0.00    -0.206 F 
ATOM     90  C   UNL A   1      33.517  34.651  30.862  1.00  0.00     0.022 A 
BRANCH  87  91
ATOM     91  S   UNL A   1      33.037  36.985  32.311  1.00  0.00     0.124 S 
ATOM     92  O   UNL A   1      31.776  36.309  32.590  1.00  0.00    -0.237 OA
ATOM     93  O   UNL A   1      33.793  37.443  33.471  1.00  0.00    -0.237 OA
ATOM     94  O   UNL A   1      33.012  37.912  31.180  1.00  0.00    -0.744 OA
ENDBRANCH  87  91
ENDBRANCH  60  84
BRANCH  72  95
ATOM     95  C   UNL A   1      38.633  33.234  38.254  1.00  0.00     0.023 A 
ATOM     96  C   UNL A   1      38.751  34.251  39.218  1.00  0.00     0.031 A 
ATOM     97  C   UNL A   1      37.864  32.103  38.579  1.00  0.00     0.131 A 
ATOM     98  C   UNL A   1      38.158  34.089  40.481  1.00  0.00     0.055 A 
ATOM     99  C   UNL A   1      37.222  31.978  39.811  1.00  0.00     0.041 A 
ATOM    100  F   UNL A   1      37.720  31.098  37.700  1.00  0.00    -0.206 F 
ATOM    101  C   UNL A   1      37.379  32.969  40.776  1.00  0.00     0.022 A 
BRANCH  98 102
ATOM    102  S   UNL A   1      38.505  35.320  41.768  1.00  0.00     0.124 S 
ATOM    103  O   UNL A   1      37.353  35.168  42.650  1.00  0.00    -0.237 OA
ATOM    104  O   UNL A   1      39.783  34.862  42.302  1.00  0.00    -0.237 OA
ATOM    105  O   UNL A   1      38.558  36.581  41.030  1.00  0.00    -0.744 OA
ENDBRANCH  98 102
ENDBRANCH  72  95
ENDBRANCH  46  47
ENDBRANCH  38  41
ENDBRANCH  36  37
ENDBRANCH   1  36
TORSDOF 18
ENDMDL
MODEL 3
REMARK VINA RESULT:     -11.5      6.511     10.092
REMARK SMILES O=C(NCCCNC(=O)c1ccc(-c2c3nc(c(-c4cc(S(=O)(=O)[O-])ccc4F)c4ccc([nH]4)c(-c4cc(S(=O)(=O)[O-])ccc4F)c4nc(c(-c5cc(S(=O)(=O)[O-])ccc5F)c5ccc2[nH]5)C=C4)C=C3)cc1)c1ccc(/[NH+]=C2\S[C@@H](Cc3ccc(F)cc3)C(=O)N2Cc2ccccc2)cc1
REMARK SMILES IDX 5 1 4 2 3 3 1 4 2 5 73 7 74 8 100 9 75 10 99 11 76 12 77 13
REMARK SMILES IDX 78 14 79 16 91 17 80 18 89 19 90 20 92 21 93 22 94 23 98 24
REMARK SMILES IDX 95 25 97 26 96 27 81 28 82 29 83 30 88 31 84 32 87 33 85 34
REMARK SMILES IDX 86 35 6 36 7 37 8 38 9 40 10 41 11 42 72 43 12 44 71 45
REMARK SMILES IDX 13 46 14 47 15 48 65 49 16 50 70 51 64 52 66 53 17 54 69 55
REMARK SMILES IDX 63 56 62 57 18 59 50 60 30 61 49 62 31 63 34 64 48 65 67 66
REMARK SMILES IDX 32 67 33 68 47 70 68 71 35 72 19 73 20 74 28 75 21 76 27 77
REMARK SMILES IDX 29 78 26 79 22 80 23 81 24 82 25 83 51 84 52 85 60 86 53 87
REMARK SMILES IDX 59 88 61 89 58 90 54 91 55 92 56 93 57 94 36 95 37 96 45 97
REMARK SMILES IDX 38 98 44 99 46 100 43 101 39 102 40 103 41 104 42 105
REMARK H PARENT 3 6 77 15 7 39 66 58 34 69
REMARK Flexibility Score: inf
ROOT
ATOM      1  C   UNL A   1      35.142  32.926  32.204  1.00  0.00     0.042 C 
ENDROOT
BRANCH   1   2
ATOM      2  C   UNL A   1      34.753  32.264  30.892  1.00  0.00     0.118 C 
BRANCH   2   3
ATOM      3  N   UNL A   1      34.779  33.190  29.767  1.00  0.00    -0.352 N 
ATOM      4  O   UNL A   1      35.058  33.862  27.630  1.00  0.00    -0.269 OA
ATOM      5  C   UNL A   1      34.863  32.939  28.421  1.00  0.00     0.251 C 
ATOM      6  H   UNL A   1      34.728  34.142  30.010  1.00  0.00     0.163 HD
BRANCH   5   7
ATOM      7  C   UNL A   1      34.716  31.563  27.911  1.00  0.00     0.040 A 
ATOM      8  C   UNL A   1      33.461  31.084  27.536  1.00  0.00     0.018 A 
ATOM      9  C   UNL A   1      35.851  30.759  27.749  1.00  0.00     0.018 A 
ATOM     10  C   UNL A   1      33.329  29.768  27.115  1.00  0.00     0.052 A 
ATOM     11  C   UNL A   1      35.716  29.452  27.271  1.00  0.00     0.052 A 
ATOM     12  C   UNL A   1      34.449  28.941  26.982  1.00  0.00     0.125 A 
BRANCH  12  13
ATOM     13  N   UNL A   1      34.250  27.682  26.417  1.00  0.00    -0.235 N 
ATOM     14  C   UNL A   1      33.448  27.473  25.431  1.00  0.00     0.320 C 
ATOM     15  H   UNL A   1      34.746  26.918  26.790  1.00  0.00     0.313 HD
ATOM     16  S   UNL A   1      32.308  28.581  24.729  1.00  0.00    -0.022 SA
ATOM     17  N   UNL A   1      33.430  26.270  24.779  1.00  0.00    -0.186 N 
ATOM     18  C   UNL A   1      31.440  27.243  23.845  1.00  0.00     0.178 C 
ATOM     19  C   UNL A   1      32.434  26.086  23.841  1.00  0.00     0.324 C 
ATOM     20  O   UNL A   1      32.306  25.070  23.167  1.00  0.00    -0.245 OA
BRANCH  17  21
ATOM     21  C   UNL A   1      34.386  25.206  25.078  1.00  0.00     0.283 C 
BRANCH  21  22
ATOM     22  C   UNL A   1      33.886  24.143  26.043  1.00  0.00    -0.006 A 
ATOM     23  C   UNL A   1      32.534  24.068  26.404  1.00  0.00     0.008 A 
ATOM     24  C   UNL A   1      34.777  23.247  26.654  1.00  0.00     0.008 A 
ATOM     25  C   UNL A   1      32.098  23.124  27.344  1.00  0.00     0.000 A 
ATOM     26  C   UNL A   1      34.339  22.278  27.558  1.00  0.00     0.000 A 
ATOM     27  C   UNL A   1      32.997  22.222  27.910  1.00  0.00     0.000 A 
ENDBRANCH  21  22
ENDBRANCH  17  21
BRANCH  18  28
ATOM     28  C   UNL A   1      30.981  27.703  22.461  1.00  0.00     0.063 C 
BRANCH  28  29
ATOM     29  C   UNL A   1      29.908  28.773  22.491  1.00  0.00    -0.046 A 
ATOM     30  C   UNL A   1      28.663  28.496  23.078  1.00  0.00     0.007 A 
ATOM     31  C   UNL A   1      30.135  30.047  21.944  1.00  0.00     0.007 A 
ATOM     32  C   UNL A   1      27.677  29.480  23.145  1.00  0.00     0.039 A 
ATOM     33  C   UNL A   1      29.147  31.031  22.018  1.00  0.00     0.039 A 
ATOM     34  C   UNL A   1      27.930  30.740  22.623  1.00  0.00     0.123 A 
ATOM     35  F   UNL A   1      26.988  31.689  22.703  1.00  0.00    -0.207 F 
ENDBRANCH  28  29
ENDBRANCH  18  28
ENDBRANCH  12  13
ENDBRANCH   5   7
ENDBRANCH   2   3
ENDBRANCH   1   2
BRANCH   1  36
ATOM     36  C   UNL A   1      36.448  32.416  32.793  1.00  0.00     0.118 C 
BRANCH  36  37
ATOM     37  N   UNL A   1      36.452  30.972  32.990  1.00  0.00    -0.352 N 
ATOM     38  C   UNL A   1      37.335  30.016  32.552  1.00  0.00     0.251 C 
ATOM     39  H   UNL A   1      35.700  30.626  33.523  1.00  0.00     0.163 HD
ATOM     40  O   UNL A   1      37.038  28.830  32.672  1.00  0.00    -0.269 OA
BRANCH  38  41
ATOM     41  C   UNL A   1      38.613  30.405  31.916  1.00  0.00     0.039 A 
ATOM     42  C   UNL A   1      38.674  30.498  30.523  1.00  0.00     0.014 A 
ATOM     43  C   UNL A   1      39.751  30.672  32.681  1.00  0.00     0.014 A 
ATOM     44  C   UNL A   1      39.850  30.933  29.908  1.00  0.00     0.010 A 
ATOM     45  C   UNL A   1      40.889  31.198  32.074  1.00  0.00     0.010 A 
ATOM     46  C   UNL A   1      40.952  31.332  30.680  1.00  0.00    -0.014 A 
BRANCH  46  47
ATOM     47  C   UNL A   1      42.179  31.890  30.050  1.00  0.00     0.031 A 
ATOM     48  C   UNL A   1      43.334  30.986  29.712  1.00  0.00     0.074 A 
ATOM     49  C   UNL A   1      42.276  33.218  29.841  1.00  0.00     0.049 A 
ATOM     50  N   UNL A   1      44.512  31.292  29.232  1.00  0.00    -0.248 NA
ATOM     51  C   UNL A   1      43.149  29.552  29.980  1.00  0.00     0.031 C 
ATOM     52  C   UNL A   1      41.240  34.203  30.164  1.00  0.00     0.029 A 
ATOM     53  N   UNL A   1      43.295  33.973  29.315  1.00  0.00    -0.354 N 
ATOM     54  C   UNL A   1      45.212  30.093  29.150  1.00  0.00     0.074 A 
ATOM     55  C   UNL A   1      44.349  29.068  29.696  1.00  0.00     0.031 C 
ATOM     56  C   UNL A   1      41.663  35.423  29.799  1.00  0.00     0.029 A 
ATOM     57  C   UNL A   1      43.018  35.321  29.270  1.00  0.00     0.049 A 
ATOM     58  H   UNL A   1      44.143  33.587  28.999  1.00  0.00     0.167 HD
ATOM     59  C   UNL A   1      46.449  29.864  28.643  1.00  0.00     0.034 A 
ATOM     60  C   UNL A   1      43.776  36.359  28.863  1.00  0.00     0.034 A 
ATOM     61  C   UNL A   1      47.294  30.897  28.095  1.00  0.00     0.049 A 
ATOM     62  C   UNL A   1      45.165  36.086  28.342  1.00  0.00     0.074 A 
ATOM     63  C   UNL A   1      48.540  30.770  27.507  1.00  0.00     0.029 A 
ATOM     64  N   UNL A   1      46.987  32.253  28.080  1.00  0.00    -0.354 N 
ATOM     65  N   UNL A   1      45.792  34.938  28.221  1.00  0.00    -0.248 NA
ATOM     66  C   UNL A   1      45.944  37.247  27.895  1.00  0.00     0.031 C 
ATOM     67  C   UNL A   1      49.019  32.051  27.209  1.00  0.00     0.029 A 
ATOM     68  C   UNL A   1      48.036  32.974  27.528  1.00  0.00     0.049 A 
ATOM     69  H   UNL A   1      46.147  32.645  28.412  1.00  0.00     0.167 HD
ATOM     70  C   UNL A   1      47.027  35.239  27.656  1.00  0.00     0.074 A 
ATOM     71  C   UNL A   1      47.048  36.672  27.444  1.00  0.00     0.031 C 
ATOM     72  C   UNL A   1      48.051  34.406  27.337  1.00  0.00     0.034 A 
BRANCH  59  73
ATOM     73  C   UNL A   1      46.966  28.443  28.685  1.00  0.00     0.023 A 
ATOM     74  C   UNL A   1      46.678  27.521  27.663  1.00  0.00     0.031 A 
ATOM     75  C   UNL A   1      47.732  27.995  29.775  1.00  0.00     0.131 A 
ATOM     76  C   UNL A   1      47.079  26.183  27.792  1.00  0.00     0.055 A 
ATOM     77  C   UNL A   1      48.206  26.683  29.854  1.00  0.00     0.041 A 
ATOM     78  F   UNL A   1      48.023  28.820  30.794  1.00  0.00    -0.206 F 
ATOM     79  C   UNL A   1      47.864  25.763  28.867  1.00  0.00     0.022 A 
BRANCH  76  80
ATOM     80  S   UNL A   1      46.422  24.968  26.616  1.00  0.00     0.124 S 
ATOM     81  O   UNL A   1      45.312  25.706  26.019  1.00  0.00    -0.237 OA
ATOM     82  O   UNL A   1      47.565  24.719  25.747  1.00  0.00    -0.237 OA
ATOM     83  O   UNL A   1      46.028  23.847  27.467  1.00  0.00    -0.744 OA
ENDBRANCH  76  80
ENDBRANCH  59  73
BRANCH  60  84
ATOM     84  C   UNL A   1      43.252  37.753  28.941  1.00  0.00     0.023 A 
ATOM     85  C   UNL A   1      42.507  38.306  27.887  1.00  0.00     0.031 A 
ATOM     86  C   UNL A   1      43.523  38.570  30.054  1.00  0.00     0.131 A 
ATOM     87  C   UNL A   1      42.100  39.649  27.945  1.00  0.00     0.055 A 
ATOM     88  C   UNL A   1      43.066  39.887  30.132  1.00  0.00     0.041 A 
ATOM     89  F   UNL A   1      44.229  38.092  31.092  1.00  0.00    -0.206 F 
ATOM     90  C   UNL A   1      42.362  40.437  29.067  1.00  0.00     0.022 A 
BRANCH  87  91
ATOM     91  S   UNL A   1      41.298  40.376  26.490  1.00  0.00     0.124 S 
ATOM     92  O   UNL A   1      40.319  41.265  27.104  1.00  0.00    -0.237 OA
ATOM     93  O   UNL A   1      42.421  41.021  25.818  1.00  0.00    -0.237 OA
ATOM     94  O   UNL A   1      40.741  39.216  25.795  1.00  0.00    -0.744 OA
ENDBRANCH  87  91
ENDBRANCH  60  84
BRANCH  72  95
ATOM     95  C   UNL A   1      49.264  35.027  26.685  1.00  0.00     0.023 A 
ATOM     96  C   UNL A   1      50.394  35.406  27.431  1.00  0.00     0.031 A 
ATOM     97  C   UNL A   1      49.284  35.251  25.297  1.00  0.00     0.131 A 
ATOM     98  C   UNL A   1      51.472  36.042  26.793  1.00  0.00     0.055 A 
ATOM     99  C   UNL A   1      50.386  35.822  24.659  1.00  0.00     0.041 A 
ATOM    100  F   UNL A   1      48.232  34.913  24.534  1.00  0.00    -0.206 F 
ATOM    101  C   UNL A   1      51.482  36.234  25.410  1.00  0.00     0.022 A 
BRANCH  98 102
ATOM    102  S   UNL A   1      52.817  36.706  27.813  1.00  0.00     0.124 S 
ATOM    103  O   UNL A   1      52.567  38.142  27.747  1.00  0.00    -0.237 OA
ATOM    104  O   UNL A   1      52.571  36.074  29.105  1.00  0.00    -0.237 OA
ATOM    105  O   UNL A   1      54.024  36.254  27.123  1.00  0.00    -0.744 OA
ENDBRANCH  98 102
ENDBRANCH  72  95
ENDBRANCH  46  47
ENDBRANCH  38  41
ENDBRANCH  36  37
ENDBRANCH   1  36
TORSDOF 18
ENDMDL
