MODEL 1
REMARK VINA RESULT:     -11.4      0.000      0.000
REMARK SMILES Cn1cc(C[C@H](C(=O)NCCCNC(=O)c2ccc(-c3c4nc(c(-c5cc(S(=O)(=O)[O-])ccc5F)c5ccc([nH]5)c(-c5cc(S(=O)(=O)[O-])ccc5F)c5nc(c(-c6cc(S(=O)(=O)[O-])ccc6F)c6ccc3[nH]6)C=C5)C=C4)cc2)c2ccc(F)cc2)cn1
REMARK SMILES IDX 11 1 10 2 9 3 7 4 8 5 6 7 5 8 4 9 1 10 2 11 3 12 87 13 86 14
REMARK SMILES IDX 79 15 80 16 85 17 81 18 84 19 82 20 83 21 12 22 13 23 14 24
REMARK SMILES IDX 15 26 16 27 17 28 78 29 18 30 77 31 19 32 20 33 21 34 71 35
REMARK SMILES IDX 22 36 76 37 70 38 72 39 23 40 75 41 69 42 68 43 24 45 56 46
REMARK SMILES IDX 36 47 55 48 37 49 40 50 54 51 73 52 38 53 39 54 53 56 74 57
REMARK SMILES IDX 41 58 25 59 26 60 34 61 27 62 33 63 35 64 32 65 28 66 29 67
REMARK SMILES IDX 30 68 31 69 57 70 58 71 66 72 59 73 65 74 67 75 64 76 60 77
REMARK SMILES IDX 61 78 62 79 63 80 42 81 43 82 51 83 44 84 50 85 52 86 49 87
REMARK SMILES IDX 45 88 46 89 47 90 48 91
REMARK H PARENT 9 6 13 25 72 44 40 55
REMARK Flexibility Score: inf
ROOT
ATOM      1  C   UNL A   1      33.120  28.569  24.765  1.00  0.00     0.042 C 
ENDROOT
BRANCH   1   2
ATOM      2  C   UNL A   1      32.656  27.125  24.585  1.00  0.00     0.117 C 
BRANCH   2   3
ATOM      3  N   UNL A   1      32.919  26.653  23.240  1.00  0.00    -0.355 N 
ATOM      4  C   UNL A   1      33.331  25.430  22.803  1.00  0.00     0.227 C 
ATOM      5  O   UNL A   1      33.652  25.350  21.613  1.00  0.00    -0.274 OA
ATOM      6  H   UNL A   1      32.777  27.321  22.530  1.00  0.00     0.163 HD
BRANCH   4   7
ATOM      7  C   UNL A   1      33.343  24.201  23.739  1.00  0.00     0.113 C 
BRANCH   7   8
ATOM      8  C   UNL A   1      32.707  23.040  22.938  1.00  0.00     0.057 C 
BRANCH   8   9
ATOM      9  C   UNL A   1      32.522  21.720  23.610  1.00  0.00    -0.009 A 
ATOM     10  C   UNL A   1      32.403  18.116  23.727  1.00  0.00     0.173 C 
ATOM     11  N   UNL A   1      32.397  19.545  23.923  1.00  0.00    -0.276 N 
ATOM     12  C   UNL A   1      32.699  20.493  22.996  1.00  0.00     0.112 A 
ATOM     13  N   UNL A   1      32.036  20.060  25.111  1.00  0.00    -0.182 NA
ATOM     14  C   UNL A   1      32.127  21.381  24.923  1.00  0.00     0.138 A 
ENDBRANCH   8   9
ENDBRANCH   7   8
BRANCH   7  15
ATOM     15  C   UNL A   1      34.747  23.898  24.262  1.00  0.00    -0.035 A 
ATOM     16  C   UNL A   1      35.677  23.232  23.440  1.00  0.00     0.007 A 
ATOM     17  C   UNL A   1      35.129  24.218  25.575  1.00  0.00     0.007 A 
ATOM     18  C   UNL A   1      36.924  22.845  23.934  1.00  0.00     0.039 A 
ATOM     19  C   UNL A   1      36.391  23.858  26.058  1.00  0.00     0.039 A 
ATOM     20  C   UNL A   1      37.270  23.162  25.239  1.00  0.00     0.123 A 
ATOM     21  F   UNL A   1      38.463  22.786  25.716  1.00  0.00    -0.207 F 
ENDBRANCH   7  15
ENDBRANCH   4   7
ENDBRANCH   2   3
ENDBRANCH   1   2
BRANCH   1  22
ATOM     22  C   UNL A   1      33.877  28.812  26.068  1.00  0.00     0.118 C 
BRANCH  22  23
ATOM     23  N   UNL A   1      33.703  30.171  26.551  1.00  0.00    -0.352 N 
ATOM     24  C   UNL A   1      34.389  30.862  27.518  1.00  0.00     0.251 C 
ATOM     25  H   UNL A   1      32.977  30.675  26.116  1.00  0.00     0.163 HD
ATOM     26  O   UNL A   1      33.915  31.919  27.931  1.00  0.00    -0.269 OA
BRANCH  24  27
ATOM     27  C   UNL A   1      35.668  30.355  28.074  1.00  0.00     0.039 A 
ATOM     28  C   UNL A   1      36.833  30.523  27.318  1.00  0.00     0.014 A 
ATOM     29  C   UNL A   1      35.727  29.656  29.284  1.00  0.00     0.014 A 
ATOM     30  C   UNL A   1      38.052  30.026  27.788  1.00  0.00     0.010 A 
ATOM     31  C   UNL A   1      36.956  29.223  29.786  1.00  0.00     0.010 A 
ATOM     32  C   UNL A   1      38.129  29.388  29.036  1.00  0.00    -0.014 A 
BRANCH  32  33
ATOM     33  C   UNL A   1      39.428  28.872  29.547  1.00  0.00     0.031 A 
ATOM     34  C   UNL A   1      40.112  29.548  30.707  1.00  0.00     0.074 A 
ATOM     35  C   UNL A   1      40.004  27.812  28.950  1.00  0.00     0.049 A 
ATOM     36  N   UNL A   1      41.251  29.255  31.285  1.00  0.00    -0.248 NA
ATOM     37  C   UNL A   1      39.441  30.728  31.273  1.00  0.00     0.031 C 
ATOM     38  C   UNL A   1      39.462  27.101  27.789  1.00  0.00     0.029 A 
ATOM     39  N   UNL A   1      41.168  27.143  29.232  1.00  0.00    -0.354 N 
ATOM     40  C   UNL A   1      41.437  30.217  32.272  1.00  0.00     0.074 A 
ATOM     41  C   UNL A   1      40.324  31.138  32.170  1.00  0.00     0.031 C 
ATOM     42  C   UNL A   1      40.276  26.080  27.479  1.00  0.00     0.029 A 
ATOM     43  C   UNL A   1      41.413  26.081  28.392  1.00  0.00     0.049 A 
ATOM     44  H   UNL A   1      41.771  27.399  29.967  1.00  0.00     0.167 HD
ATOM     45  C   UNL A   1      42.430  30.311  33.193  1.00  0.00     0.034 A 
ATOM     46  C   UNL A   1      42.440  25.208  28.362  1.00  0.00     0.034 A 
ATOM     47  C   UNL A   1      43.528  29.377  33.288  1.00  0.00     0.049 A 
ATOM     48  C   UNL A   1      43.527  25.327  29.398  1.00  0.00     0.074 A 
ATOM     49  C   UNL A   1      44.561  29.348  34.209  1.00  0.00     0.029 A 
ATOM     50  N   UNL A   1      43.738  28.306  32.427  1.00  0.00    -0.354 N 
ATOM     51  N   UNL A   1      43.660  26.212  30.359  1.00  0.00    -0.248 NA
ATOM     52  C   UNL A   1      44.590  24.316  29.356  1.00  0.00     0.031 C 
ATOM     53  C   UNL A   1      45.425  28.300  33.869  1.00  0.00     0.029 A 
ATOM     54  C   UNL A   1      44.895  27.628  32.781  1.00  0.00     0.049 A 
ATOM     55  H   UNL A   1      43.151  28.065  31.675  1.00  0.00     0.167 HD
ATOM     56  C   UNL A   1      44.812  25.847  31.052  1.00  0.00     0.074 A 
ATOM     57  C   UNL A   1      45.317  24.649  30.412  1.00  0.00     0.031 C 
ATOM     58  C   UNL A   1      45.398  26.445  32.121  1.00  0.00     0.034 A 
BRANCH  45  59
ATOM     59  C   UNL A   1      42.381  31.481  34.150  1.00  0.00     0.023 A 
ATOM     60  C   UNL A   1      41.538  31.479  35.277  1.00  0.00     0.031 A 
ATOM     61  C   UNL A   1      43.159  32.629  33.917  1.00  0.00     0.131 A 
ATOM     62  C   UNL A   1      41.432  32.627  36.077  1.00  0.00     0.055 A 
ATOM     63  C   UNL A   1      43.112  33.737  34.765  1.00  0.00     0.041 A 
ATOM     64  F   UNL A   1      43.968  32.700  32.848  1.00  0.00    -0.206 F 
ATOM     65  C   UNL A   1      42.233  33.747  35.845  1.00  0.00     0.022 A 
BRANCH  62  66
ATOM     66  S   UNL A   1      40.127  32.688  37.336  1.00  0.00     0.124 S 
ATOM     67  O   UNL A   1      40.894  32.490  38.563  1.00  0.00    -0.237 OA
ATOM     68  O   UNL A   1      39.562  34.018  37.141  1.00  0.00    -0.237 OA
ATOM     69  O   UNL A   1      39.249  31.577  36.972  1.00  0.00    -0.744 OA
ENDBRANCH  62  66
ENDBRANCH  45  59
BRANCH  46  70
ATOM     70  C   UNL A   1      42.490  24.139  27.323  1.00  0.00     0.023 A 
ATOM     71  C   UNL A   1      41.853  22.904  27.525  1.00  0.00     0.031 A 
ATOM     72  C   UNL A   1      43.208  24.326  26.129  1.00  0.00     0.131 A 
ATOM     73  C   UNL A   1      41.985  21.886  26.567  1.00  0.00     0.055 A 
ATOM     74  C   UNL A   1      43.294  23.327  25.157  1.00  0.00     0.041 A 
ATOM     75  F   UNL A   1      43.829  25.491  25.885  1.00  0.00    -0.206 F 
ATOM     76  C   UNL A   1      42.690  22.093  25.380  1.00  0.00     0.022 A 
BRANCH  73  77
ATOM     77  S   UNL A   1      41.281  20.254  26.934  1.00  0.00     0.124 S 
ATOM     78  O   UNL A   1      40.955  20.382  28.350  1.00  0.00    -0.237 OA
ATOM     79  O   UNL A   1      40.148  20.201  26.016  1.00  0.00    -0.237 OA
ATOM     80  O   UNL A   1      42.375  19.336  26.625  1.00  0.00    -0.744 OA
ENDBRANCH  73  77
ENDBRANCH  46  70
BRANCH  58  81
ATOM     81  C   UNL A   1      46.634  25.779  32.676  1.00  0.00     0.023 A 
ATOM     82  C   UNL A   1      47.907  26.003  32.119  1.00  0.00     0.031 A 
ATOM     83  C   UNL A   1      46.532  24.878  33.751  1.00  0.00     0.131 A 
ATOM     84  C   UNL A   1      49.012  25.278  32.591  1.00  0.00     0.055 A 
ATOM     85  C   UNL A   1      47.647  24.210  34.258  1.00  0.00     0.041 A 
ATOM     86  F   UNL A   1      45.342  24.626  34.320  1.00  0.00    -0.206 F 
ATOM     87  C   UNL A   1      48.893  24.395  33.666  1.00  0.00     0.022 A 
BRANCH  84  88
ATOM     88  S   UNL A   1      50.587  25.420  31.700  1.00  0.00     0.124 S 
ATOM     89  O   UNL A   1      51.173  26.612  32.306  1.00  0.00    -0.237 OA
ATOM     90  O   UNL A   1      51.240  24.155  32.021  1.00  0.00    -0.237 OA
ATOM     91  O   UNL A   1      50.179  25.570  30.304  1.00  0.00    -0.744 OA
ENDBRANCH  84  88
ENDBRANCH  58  81
ENDBRANCH  32  33
ENDBRANCH  24  27
ENDBRANCH  22  23
ENDBRANCH   1  22
TORSDOF 16
ENDMDL
MODEL 2
REMARK VINA RESULT:     -11.4      4.202      9.396
REMARK SMILES Cn1cc(C[C@H](C(=O)NCCCNC(=O)c2ccc(-c3c4nc(c(-c5cc(S(=O)(=O)[O-])ccc5F)c5ccc([nH]5)c(-c5cc(S(=O)(=O)[O-])ccc5F)c5nc(c(-c6cc(S(=O)(=O)[O-])ccc6F)c6ccc3[nH]6)C=C5)C=C4)cc2)c2ccc(F)cc2)cn1
REMARK SMILES IDX 11 1 10 2 9 3 7 4 8 5 6 7 5 8 4 9 1 10 2 11 3 12 87 13 86 14
REMARK SMILES IDX 79 15 80 16 85 17 81 18 84 19 82 20 83 21 12 22 13 23 14 24
REMARK SMILES IDX 15 26 16 27 17 28 78 29 18 30 77 31 19 32 20 33 21 34 71 35
REMARK SMILES IDX 22 36 76 37 70 38 72 39 23 40 75 41 69 42 68 43 24 45 56 46
REMARK SMILES IDX 36 47 55 48 37 49 40 50 54 51 73 52 38 53 39 54 53 56 74 57
REMARK SMILES IDX 41 58 25 59 26 60 34 61 27 62 33 63 35 64 32 65 28 66 29 67
REMARK SMILES IDX 30 68 31 69 57 70 58 71 66 72 59 73 65 74 67 75 64 76 60 77
REMARK SMILES IDX 61 78 62 79 63 80 42 81 43 82 51 83 44 84 50 85 52 86 49 87
REMARK SMILES IDX 45 88 46 89 47 90 48 91
REMARK H PARENT 9 6 13 25 72 44 40 55
REMARK Flexibility Score: inf
ROOT
ATOM      1  C   UNL A   1      37.098  22.151  24.545  1.00  0.00     0.042 C 
ENDROOT
BRANCH   1   2
ATOM      2  C   UNL A   1      36.541  20.741  24.732  1.00  0.00     0.117 C 
BRANCH   2   3
ATOM      3  N   UNL A   1      35.486  20.720  25.726  1.00  0.00    -0.355 N 
ATOM      4  C   UNL A   1      34.137  20.838  25.577  1.00  0.00     0.227 C 
ATOM      5  O   UNL A   1      33.479  20.967  26.614  1.00  0.00    -0.274 OA
ATOM      6  H   UNL A   1      35.793  20.603  26.655  1.00  0.00     0.163 HD
BRANCH   4   7
ATOM      7  C   UNL A   1      33.469  20.760  24.187  1.00  0.00     0.113 C 
BRANCH   7   8
ATOM      8  C   UNL A   1      32.346  19.702  24.305  1.00  0.00     0.057 C 
BRANCH   8   9
ATOM      9  C   UNL A   1      32.708  18.256  24.215  1.00  0.00    -0.009 A 
ATOM     10  C   UNL A   1      32.996  14.889  25.477  1.00  0.00     0.173 C 
ATOM     11  N   UNL A   1      32.979  16.142  24.764  1.00  0.00    -0.276 N 
ATOM     12  C   UNL A   1      32.469  17.322  25.207  1.00  0.00     0.112 A 
ATOM     13  N   UNL A   1      33.535  16.229  23.544  1.00  0.00    -0.182 NA
ATOM     14  C   UNL A   1      33.356  17.510  23.206  1.00  0.00     0.138 A 
ENDBRANCH   8   9
ENDBRANCH   7   8
BRANCH   7  15
ATOM     15  C   UNL A   1      32.986  22.128  23.710  1.00  0.00    -0.035 A 
ATOM     16  C   UNL A   1      31.677  22.557  24.008  1.00  0.00     0.007 A 
ATOM     17  C   UNL A   1      33.797  22.964  22.924  1.00  0.00     0.007 A 
ATOM     18  C   UNL A   1      31.177  23.752  23.488  1.00  0.00     0.039 A 
ATOM     19  C   UNL A   1      33.304  24.176  22.431  1.00  0.00     0.039 A 
ATOM     20  C   UNL A   1      31.995  24.551  22.703  1.00  0.00     0.123 A 
ATOM     21  F   UNL A   1      31.515  25.694  22.199  1.00  0.00    -0.207 F 
ENDBRANCH   7  15
ENDBRANCH   4   7
ENDBRANCH   2   3
ENDBRANCH   1   2
BRANCH   1  22
ATOM     22  C   UNL A   1      37.961  22.629  25.709  1.00  0.00     0.118 C 
BRANCH  22  23
ATOM     23  N   UNL A   1      39.139  21.797  25.886  1.00  0.00    -0.352 N 
ATOM     24  C   UNL A   1      40.419  22.139  26.248  1.00  0.00     0.251 C 
ATOM     25  H   UNL A   1      38.998  20.837  25.720  1.00  0.00     0.163 HD
ATOM     26  O   UNL A   1      41.311  21.307  26.103  1.00  0.00    -0.269 OA
BRANCH  24  27
ATOM     27  C   UNL A   1      40.737  23.483  26.793  1.00  0.00     0.039 A 
ATOM     28  C   UNL A   1      40.778  24.565  25.909  1.00  0.00     0.014 A 
ATOM     29  C   UNL A   1      41.066  23.679  28.139  1.00  0.00     0.014 A 
ATOM     30  C   UNL A   1      41.111  25.840  26.376  1.00  0.00     0.010 A 
ATOM     31  C   UNL A   1      41.328  24.964  28.618  1.00  0.00     0.010 A 
ATOM     32  C   UNL A   1      41.371  26.056  27.739  1.00  0.00    -0.014 A 
BRANCH  32  33
ATOM     33  C   UNL A   1      41.709  27.415  28.242  1.00  0.00     0.031 A 
ATOM     34  C   UNL A   1      43.143  27.876  28.282  1.00  0.00     0.074 A 
ATOM     35  C   UNL A   1      40.728  28.223  28.686  1.00  0.00     0.049 A 
ATOM     36  N   UNL A   1      43.637  29.017  28.697  1.00  0.00    -0.248 NA
ATOM     37  C   UNL A   1      44.158  26.917  27.823  1.00  0.00     0.031 C 
ATOM     38  C   UNL A   1      39.307  27.872  28.741  1.00  0.00     0.029 A 
ATOM     39  N   UNL A   1      40.770  29.505  29.175  1.00  0.00    -0.354 N 
ATOM     40  C   UNL A   1      45.017  28.908  28.559  1.00  0.00     0.074 A 
ATOM     41  C   UNL A   1      45.282  27.567  28.082  1.00  0.00     0.031 C 
ATOM     42  C   UNL A   1      38.612  28.922  29.207  1.00  0.00     0.029 A 
ATOM     43  C   UNL A   1      39.536  30.007  29.516  1.00  0.00     0.049 A 
ATOM     44  H   UNL A   1      41.606  30.015  29.273  1.00  0.00     0.167 HD
ATOM     45  C   UNL A   1      45.972  29.846  28.786  1.00  0.00     0.034 A 
ATOM     46  C   UNL A   1      39.189  31.208  30.021  1.00  0.00     0.034 A 
ATOM     47  C   UNL A   1      45.688  31.184  29.252  1.00  0.00     0.049 A 
ATOM     48  C   UNL A   1      40.264  32.236  30.258  1.00  0.00     0.074 A 
ATOM     49  C   UNL A   1      46.570  32.228  29.469  1.00  0.00     0.029 A 
ATOM     50  N   UNL A   1      44.424  31.662  29.576  1.00  0.00    -0.354 N 
ATOM     51  N   UNL A   1      41.561  32.135  30.072  1.00  0.00    -0.248 NA
ATOM     52  C   UNL A   1      39.826  33.545  30.754  1.00  0.00     0.031 C 
ATOM     53  C   UNL A   1      45.850  33.314  29.981  1.00  0.00     0.029 A 
ATOM     54  C   UNL A   1      44.507  32.976  30.014  1.00  0.00     0.049 A 
ATOM     55  H   UNL A   1      43.590  31.143  29.505  1.00  0.00     0.167 HD
ATOM     56  C   UNL A   1      42.089  33.380  30.405  1.00  0.00     0.074 A 
ATOM     57  C   UNL A   1      40.967  34.218  30.779  1.00  0.00     0.031 C 
ATOM     58  C   UNL A   1      43.382  33.793  30.402  1.00  0.00     0.034 A 
BRANCH  45  59
ATOM     59  C   UNL A   1      47.410  29.441  28.556  1.00  0.00     0.023 A 
ATOM     60  C   UNL A   1      47.912  29.196  27.265  1.00  0.00     0.031 A 
ATOM     61  C   UNL A   1      48.285  29.264  29.643  1.00  0.00     0.131 A 
ATOM     62  C   UNL A   1      49.218  28.710  27.099  1.00  0.00     0.055 A 
ATOM     63  C   UNL A   1      49.610  28.861  29.465  1.00  0.00     0.041 A 
ATOM     64  F   UNL A   1      47.862  29.463  30.901  1.00  0.00    -0.206 F 
ATOM     65  C   UNL A   1      50.080  28.565  28.188  1.00  0.00     0.022 A 
BRANCH  62  66
ATOM     66  S   UNL A   1      49.724  28.130  25.456  1.00  0.00     0.124 S 
ATOM     67  O   UNL A   1      48.482  28.267  24.701  1.00  0.00    -0.237 OA
ATOM     68  O   UNL A   1      50.791  29.061  25.108  1.00  0.00    -0.237 OA
ATOM     69  O   UNL A   1      50.151  26.753  25.696  1.00  0.00    -0.744 OA
ENDBRANCH  62  66
ENDBRANCH  45  59
BRANCH  46  70
ATOM     70  C   UNL A   1      37.763  31.511  30.331  1.00  0.00     0.023 A 
ATOM     71  C   UNL A   1      36.892  31.991  29.339  1.00  0.00     0.031 A 
ATOM     72  C   UNL A   1      37.259  31.361  31.635  1.00  0.00     0.131 A 
ATOM     73  C   UNL A   1      35.577  32.347  29.676  1.00  0.00     0.055 A 
ATOM     74  C   UNL A   1      35.935  31.668  31.954  1.00  0.00     0.041 A 
ATOM     75  F   UNL A   1      38.048  30.898  32.619  1.00  0.00    -0.206 F 
ATOM     76  C   UNL A   1      35.089  32.178  30.973  1.00  0.00     0.022 A 
BRANCH  73  77
ATOM     77  S   UNL A   1      34.532  33.110  28.404  1.00  0.00     0.124 S 
ATOM     78  O   UNL A   1      33.777  31.963  27.912  1.00  0.00    -0.237 OA
ATOM     79  O   UNL A   1      33.779  34.090  29.179  1.00  0.00    -0.237 OA
ATOM     80  O   UNL A   1      35.498  33.672  27.463  1.00  0.00    -0.744 OA
ENDBRANCH  73  77
ENDBRANCH  46  70
BRANCH  58  81
ATOM     81  C   UNL A   1      43.633  35.233  30.785  1.00  0.00     0.023 A 
ATOM     82  C   UNL A   1      43.791  35.623  32.127  1.00  0.00     0.031 A 
ATOM     83  C   UNL A   1      43.675  36.232  29.796  1.00  0.00     0.131 A 
ATOM     84  C   UNL A   1      43.909  36.984  32.450  1.00  0.00     0.055 A 
ATOM     85  C   UNL A   1      43.858  37.577  30.119  1.00  0.00     0.041 A 
ATOM     86  F   UNL A   1      43.529  35.917  28.500  1.00  0.00    -0.206 F 
ATOM     87  C   UNL A   1      43.959  37.961  31.453  1.00  0.00     0.022 A 
BRANCH  84  88
ATOM     88  S   UNL A   1      43.879  37.468  34.198  1.00  0.00     0.124 S 
ATOM     89  O   UNL A   1      45.138  38.192  34.335  1.00  0.00    -0.237 OA
ATOM     90  O   UNL A   1      42.666  38.276  34.276  1.00  0.00    -0.237 OA
ATOM     91  O   UNL A   1      43.818  36.190  34.906  1.00  0.00    -0.744 OA
ENDBRANCH  84  88
ENDBRANCH  58  81
ENDBRANCH  32  33
ENDBRANCH  24  27
ENDBRANCH  22  23
ENDBRANCH   1  22
TORSDOF 16
ENDMDL
MODEL 3
REMARK VINA RESULT:     -11.3      4.587      9.598
REMARK SMILES Cn1cc(C[C@H](C(=O)NCCCNC(=O)c2ccc(-c3c4nc(c(-c5cc(S(=O)(=O)[O-])ccc5F)c5ccc([nH]5)c(-c5cc(S(=O)(=O)[O-])ccc5F)c5nc(c(-c6cc(S(=O)(=O)[O-])ccc6F)c6ccc3[nH]6)C=C5)C=C4)cc2)c2ccc(F)cc2)cn1
REMARK SMILES IDX 11 1 10 2 9 3 7 4 8 5 6 7 5 8 4 9 1 10 2 11 3 12 87 13 86 14
REMARK SMILES IDX 79 15 80 16 85 17 81 18 84 19 82 20 83 21 12 22 13 23 14 24
REMARK SMILES IDX 15 26 16 27 17 28 78 29 18 30 77 31 19 32 20 33 21 34 71 35
REMARK SMILES IDX 22 36 76 37 70 38 72 39 23 40 75 41 69 42 68 43 24 45 56 46
REMARK SMILES IDX 36 47 55 48 37 49 40 50 54 51 73 52 38 53 39 54 53 56 74 57
REMARK SMILES IDX 41 58 25 59 26 60 34 61 27 62 33 63 35 64 32 65 28 66 29 67
REMARK SMILES IDX 30 68 31 69 57 70 58 71 66 72 59 73 65 74 67 75 64 76 60 77
REMARK SMILES IDX 61 78 62 79 63 80 42 81 43 82 51 83 44 84 50 85 52 86 49 87
REMARK SMILES IDX 45 88 46 89 47 90 48 91
REMARK H PARENT 9 6 13 25 72 44 40 55
REMARK Flexibility Score: inf
ROOT
ATOM      1  C   UNL A   1      36.297  23.787  24.675  1.00  0.00     0.042 C 
ENDROOT
BRANCH   1   2
ATOM      2  C   UNL A   1      35.973  22.789  23.564  1.00  0.00     0.117 C 
BRANCH   2   3
ATOM      3  N   UNL A   1      34.657  23.033  23.007  1.00  0.00    -0.355 N 
ATOM      4  C   UNL A   1      33.452  22.484  23.329  1.00  0.00     0.227 C 
ATOM      5  O   UNL A   1      32.512  22.740  22.571  1.00  0.00    -0.274 OA
ATOM      6  H   UNL A   1      34.630  23.698  22.282  1.00  0.00     0.163 HD
BRANCH   4   7
ATOM      7  C   UNL A   1      33.268  21.634  24.605  1.00  0.00     0.113 C 
BRANCH   7   8
ATOM      8  C   UNL A   1      31.911  22.056  25.215  1.00  0.00     0.057 C 
BRANCH   8   9
ATOM      9  C   UNL A   1      31.730  23.471  25.657  1.00  0.00    -0.009 A 
ATOM     10  C   UNL A   1      32.864  26.799  26.465  1.00  0.00     0.173 C 
ATOM     11  N   UNL A   1      32.184  25.555  26.200  1.00  0.00    -0.276 N 
ATOM     12  C   UNL A   1      32.740  24.414  25.710  1.00  0.00     0.112 A 
ATOM     13  N   UNL A   1      30.874  25.433  26.471  1.00  0.00    -0.182 NA
ATOM     14  C   UNL A   1      30.596  24.171  26.127  1.00  0.00     0.138 A 
ENDBRANCH   8   9
ENDBRANCH   7   8
BRANCH   7  15
ATOM     15  C   UNL A   1      33.380  20.138  24.313  1.00  0.00    -0.035 A 
ATOM     16  C   UNL A   1      34.531  19.428  24.706  1.00  0.00     0.007 A 
ATOM     17  C   UNL A   1      32.381  19.448  23.607  1.00  0.00     0.007 A 
ATOM     18  C   UNL A   1      34.704  18.088  24.351  1.00  0.00     0.039 A 
ATOM     19  C   UNL A   1      32.541  18.099  23.280  1.00  0.00     0.039 A 
ATOM     20  C   UNL A   1      33.707  17.436  23.641  1.00  0.00     0.123 A 
ATOM     21  F   UNL A   1      33.874  16.154  23.295  1.00  0.00    -0.207 F 
ENDBRANCH   7  15
ENDBRANCH   4   7
ENDBRANCH   2   3
ENDBRANCH   1   2
BRANCH   1  22
ATOM     22  C   UNL A   1      36.414  23.149  26.056  1.00  0.00     0.118 C 
BRANCH  22  23
ATOM     23  N   UNL A   1      37.564  22.265  26.149  1.00  0.00    -0.352 N 
ATOM     24  C   UNL A   1      38.884  22.552  26.392  1.00  0.00     0.251 C 
ATOM     25  H   UNL A   1      37.364  21.310  26.016  1.00  0.00     0.163 HD
ATOM     26  O   UNL A   1      39.721  21.676  26.187  1.00  0.00    -0.269 OA
BRANCH  24  27
ATOM     27  C   UNL A   1      39.310  23.888  26.879  1.00  0.00     0.039 A 
ATOM     28  C   UNL A   1      39.826  24.799  25.952  1.00  0.00     0.014 A 
ATOM     29  C   UNL A   1      39.278  24.228  28.235  1.00  0.00     0.014 A 
ATOM     30  C   UNL A   1      40.273  26.054  26.376  1.00  0.00     0.010 A 
ATOM     31  C   UNL A   1      39.659  25.507  28.648  1.00  0.00     0.010 A 
ATOM     32  C   UNL A   1      40.176  26.428  27.726  1.00  0.00    -0.014 A 
BRANCH  32  33
ATOM     33  C   UNL A   1      40.636  27.769  28.177  1.00  0.00     0.031 A 
ATOM     34  C   UNL A   1      42.097  28.134  28.114  1.00  0.00     0.074 A 
ATOM     35  C   UNL A   1      39.742  28.648  28.669  1.00  0.00     0.049 A 
ATOM     36  N   UNL A   1      42.691  29.245  28.471  1.00  0.00    -0.248 NA
ATOM     37  C   UNL A   1      43.013  27.102  27.608  1.00  0.00     0.031 C 
ATOM     38  C   UNL A   1      38.308  28.393  28.825  1.00  0.00     0.029 A 
ATOM     39  N   UNL A   1      39.901  29.931  29.128  1.00  0.00    -0.354 N 
ATOM     40  C   UNL A   1      44.048  29.042  28.245  1.00  0.00     0.074 A 
ATOM     41  C   UNL A   1      44.193  27.679  27.779  1.00  0.00     0.031 C 
ATOM     42  C   UNL A   1      37.716  29.494  29.314  1.00  0.00     0.029 A 
ATOM     43  C   UNL A   1      38.728  30.520  29.540  1.00  0.00     0.049 A 
ATOM     44  H   UNL A   1      40.773  30.386  29.160  1.00  0.00     0.167 HD
ATOM     45  C   UNL A   1      45.076  29.918  28.389  1.00  0.00     0.034 A 
ATOM     46  C   UNL A   1      38.495  31.749  30.042  1.00  0.00     0.034 A 
ATOM     47  C   UNL A   1      44.912  31.279  28.845  1.00  0.00     0.049 A 
ATOM     48  C   UNL A   1      39.650  32.707  30.187  1.00  0.00     0.074 A 
ATOM     49  C   UNL A   1      45.874  32.266  28.983  1.00  0.00     0.029 A 
ATOM     50  N   UNL A   1      43.707  31.846  29.243  1.00  0.00    -0.354 N 
ATOM     51  N   UNL A   1      40.921  32.517  29.917  1.00  0.00    -0.248 NA
ATOM     52  C   UNL A   1      39.332  34.050  30.684  1.00  0.00     0.031 C 
ATOM     53  C   UNL A   1      45.262  33.405  29.519  1.00  0.00     0.029 A 
ATOM     54  C   UNL A   1      43.906  33.158  29.648  1.00  0.00     0.049 A 
ATOM     55  H   UNL A   1      42.838  31.383  29.237  1.00  0.00     0.167 HD
ATOM     56  C   UNL A   1      41.551  33.728  30.190  1.00  0.00     0.074 A 
ATOM     57  C   UNL A   1      40.514  34.645  30.620  1.00  0.00     0.031 C 
ATOM     58  C   UNL A   1      42.865  34.055  30.093  1.00  0.00     0.034 A 
BRANCH  45  59
ATOM     59  C   UNL A   1      46.466  29.415  28.073  1.00  0.00     0.023 A 
ATOM     60  C   UNL A   1      46.834  29.029  26.771  1.00  0.00     0.031 A 
ATOM     61  C   UNL A   1      47.428  29.285  29.091  1.00  0.00     0.131 A 
ATOM     62  C   UNL A   1      48.094  28.458  26.538  1.00  0.00     0.055 A 
ATOM     63  C   UNL A   1      48.710  28.794  28.836  1.00  0.00     0.041 A 
ATOM     64  F   UNL A   1      47.132  29.618  30.357  1.00  0.00    -0.206 F 
ATOM     65  C   UNL A   1      49.045  28.361  27.556  1.00  0.00     0.022 A 
BRANCH  62  66
ATOM     66  S   UNL A   1      48.419  27.708  24.918  1.00  0.00     0.124 S 
ATOM     67  O   UNL A   1      47.323  28.249  24.119  1.00  0.00    -0.237 OA
ATOM     68  O   UNL A   1      49.750  28.208  24.599  1.00  0.00    -0.237 OA
ATOM     69  O   UNL A   1      48.338  26.272  25.183  1.00  0.00    -0.744 OA
ENDBRANCH  62  66
ENDBRANCH  45  59
BRANCH  46  70
ATOM     70  C   UNL A   1      37.116  32.152  30.440  1.00  0.00     0.023 A 
ATOM     71  C   UNL A   1      36.241  32.746  29.516  1.00  0.00     0.031 A 
ATOM     72  C   UNL A   1      36.667  31.982  31.761  1.00  0.00     0.131 A 
ATOM     73  C   UNL A   1      34.978  33.191  29.937  1.00  0.00     0.055 A 
ATOM     74  C   UNL A   1      35.390  32.381  32.163  1.00  0.00     0.041 A 
ATOM     75  F   UNL A   1      37.462  31.412  32.681  1.00  0.00    -0.206 F 
ATOM     76  C   UNL A   1      34.542  33.001  31.250  1.00  0.00     0.022 A 
BRANCH  73  77
ATOM     77  S   UNL A   1      33.939  34.094  28.755  1.00  0.00     0.124 S 
ATOM     78  O   UNL A   1      34.870  35.093  28.244  1.00  0.00    -0.237 OA
ATOM     79  O   UNL A   1      33.553  33.039  27.824  1.00  0.00    -0.237 OA
ATOM     80  O   UNL A   1      32.856  34.616  29.586  1.00  0.00    -0.744 OA
ENDBRANCH  73  77
ENDBRANCH  46  70
BRANCH  58  81
ATOM     81  C   UNL A   1      43.235  35.480  30.429  1.00  0.00     0.023 A 
ATOM     82  C   UNL A   1      43.266  36.486  29.446  1.00  0.00     0.031 A 
ATOM     83  C   UNL A   1      43.602  35.827  31.742  1.00  0.00     0.131 A 
ATOM     84  C   UNL A   1      43.724  37.770  29.775  1.00  0.00     0.055 A 
ATOM     85  C   UNL A   1      43.994  37.123  32.076  1.00  0.00     0.041 A 
ATOM     86  F   UNL A   1      43.591  34.907  32.720  1.00  0.00    -0.206 F 
ATOM     87  C   UNL A   1      44.074  38.099  31.087  1.00  0.00     0.022 A 
BRANCH  84  88
ATOM     88  S   UNL A   1      43.969  38.974  28.440  1.00  0.00     0.124 S 
ATOM     89  O   UNL A   1      45.270  38.579  27.909  1.00  0.00    -0.237 OA
ATOM     90  O   UNL A   1      42.822  38.717  27.575  1.00  0.00    -0.237 OA
ATOM     91  O   UNL A   1      43.947  40.262  29.131  1.00  0.00    -0.744 OA
ENDBRANCH  84  88
ENDBRANCH  58  81
ENDBRANCH  32  33
ENDBRANCH  24  27
ENDBRANCH  22  23
ENDBRANCH   1  22
TORSDOF 16
ENDMDL
