MODEL 1
REMARK VINA RESULT:     -10.8      0.000      0.000
REMARK SMILES CC[C@@H]1CCC[C@](CCCCCO)(C(=O)NCCCNC(=O)c2ccc(-c3c4nc(c(-c5cc(S(=O)(=O)[O-])ccc5F)c5ccc([nH]5)c(-c5cc(S(=O)(=O)[O-])ccc5F)c5nc(c(-c6cc(S(=O)(=O)[O-])ccc6F)c6ccc3[nH]6)C=C5)C=C4)cc2)C1
REMARK SMILES IDX 14 1 15 2 16 3 7 5 3 6 4 7 86 8 5 9 6 10 2 11 1 12 8 13 9 14
REMARK SMILES IDX 10 15 11 16 12 17 13 18 17 20 18 21 19 22 20 23 21 24 22 26
REMARK SMILES IDX 23 27 24 28 85 29 25 30 84 31 26 32 27 33 28 34 78 35 29 36
REMARK SMILES IDX 83 37 77 38 79 39 30 40 82 41 76 42 75 43 31 45 63 46 43 47
REMARK SMILES IDX 62 48 44 49 47 50 61 51 80 52 45 53 46 54 60 56 81 57 48 58
REMARK SMILES IDX 32 59 33 60 41 61 34 62 40 63 42 64 39 65 35 66 36 67 37 68
REMARK SMILES IDX 38 69 64 70 65 71 73 72 66 73 72 74 74 75 71 76 67 77 68 78
REMARK SMILES IDX 69 79 70 80 49 81 50 82 58 83 51 84 57 85 59 86 56 87 52 88
REMARK SMILES IDX 53 89 54 90 55 91
REMARK H PARENT 16 4 13 19 20 25 79 44 47 55
REMARK Flexibility Score: inf
ROOT
ATOM      1  C   UNL A   1      33.437  22.765  27.386  1.00  0.00     0.226 C 
ATOM      2  O   UNL A   1      32.813  22.203  28.294  1.00  0.00    -0.274 OA
ATOM      3  N   UNL A   1      34.789  22.613  27.431  1.00  0.00    -0.356 N 
ATOM      4  H   UNL A   1      35.131  22.342  28.315  1.00  0.00     0.163 HD
ENDROOT
BRANCH   1   5
ATOM      5  C   UNL A   1      32.695  23.560  26.278  1.00  0.00     0.049 C 
ATOM      6  C   UNL A   1      32.482  26.062  25.451  1.00  0.00    -0.010 C 
ATOM      7  C   UNL A   1      31.082  26.159  26.051  1.00  0.00     0.003 C 
ATOM      8  C   UNL A   1      33.327  24.968  26.118  1.00  0.00     0.020 C 
ATOM      9  C   UNL A   1      30.404  24.799  26.065  1.00  0.00     0.001 C 
ATOM     10  C   UNL A   1      31.241  23.784  26.840  1.00  0.00     0.017 C 
BRANCH   6  11
ATOM     11  C   UNL A   1      33.218  27.425  25.467  1.00  0.00     0.000 C 
ATOM     12  C   UNL A   1      33.225  28.169  26.800  1.00  0.00     0.004 C 
ENDBRANCH   6  11
BRANCH   5  13
ATOM     13  C   UNL A   1      32.537  22.727  24.960  1.00  0.00     0.017 C 
BRANCH  13  14
ATOM     14  C   UNL A   1      33.322  23.080  23.686  1.00  0.00     0.001 C 
BRANCH  14  15
ATOM     15  C   UNL A   1      32.524  23.785  22.576  1.00  0.00     0.002 C 
BRANCH  15  16
ATOM     16  C   UNL A   1      33.189  24.991  21.914  1.00  0.00     0.028 C 
BRANCH  16  17
ATOM     17  C   UNL A   1      32.253  26.163  21.648  1.00  0.00     0.156 C 
BRANCH  17  18
ATOM     18  O   UNL A   1      31.548  25.999  20.426  1.00  0.00    -0.396 OA
ATOM     19  H   UNL A   1      32.171  25.752  19.723  1.00  0.00     0.210 HD
ENDBRANCH  17  18
ENDBRANCH  16  17
ENDBRANCH  15  16
ENDBRANCH  14  15
ENDBRANCH  13  14
ENDBRANCH   5  13
ENDBRANCH   1   5
BRANCH   3  20
ATOM     20  C   UNL A   1      35.826  22.773  26.425  1.00  0.00     0.117 C 
BRANCH  20  21
ATOM     21  C   UNL A   1      36.121  21.507  25.651  1.00  0.00     0.042 C 
BRANCH  21  22
ATOM     22  C   UNL A   1      37.500  21.540  25.008  1.00  0.00     0.118 C 
BRANCH  22  23
ATOM     23  N   UNL A   1      38.372  20.460  25.479  1.00  0.00    -0.352 N 
ATOM     24  C   UNL A   1      39.583  20.506  26.128  1.00  0.00     0.251 C 
ATOM     25  H   UNL A   1      38.035  19.553  25.301  1.00  0.00     0.163 HD
ATOM     26  O   UNL A   1      40.268  19.491  26.218  1.00  0.00    -0.269 OA
BRANCH  24  27
ATOM     27  C   UNL A   1      40.059  21.786  26.687  1.00  0.00     0.039 A 
ATOM     28  C   UNL A   1      41.021  21.793  27.698  1.00  0.00     0.014 A 
ATOM     29  C   UNL A   1      39.573  22.987  26.170  1.00  0.00     0.014 A 
ATOM     30  C   UNL A   1      41.573  23.009  28.110  1.00  0.00     0.010 A 
ATOM     31  C   UNL A   1      40.214  24.173  26.481  1.00  0.00     0.010 A 
ATOM     32  C   UNL A   1      41.219  24.201  27.458  1.00  0.00    -0.014 A 
BRANCH  32  33
ATOM     33  C   UNL A   1      41.859  25.505  27.775  1.00  0.00     0.031 A 
ATOM     34  C   UNL A   1      41.069  26.547  28.523  1.00  0.00     0.074 A 
ATOM     35  C   UNL A   1      43.084  25.788  27.291  1.00  0.00     0.049 A 
ATOM     36  N   UNL A   1      41.340  27.810  28.720  1.00  0.00    -0.248 NA
ATOM     37  C   UNL A   1      39.768  26.121  29.067  1.00  0.00     0.031 C 
ATOM     38  C   UNL A   1      43.918  24.880  26.498  1.00  0.00     0.029 A 
ATOM     39  N   UNL A   1      43.836  26.933  27.377  1.00  0.00    -0.354 N 
ATOM     40  C   UNL A   1      40.230  28.336  29.372  1.00  0.00     0.074 A 
ATOM     41  C   UNL A   1      39.254  27.272  29.469  1.00  0.00     0.031 C 
ATOM     42  C   UNL A   1      45.076  25.492  26.198  1.00  0.00     0.029 A 
ATOM     43  C   UNL A   1      45.046  26.850  26.726  1.00  0.00     0.049 A 
ATOM     44  H   UNL A   1      43.538  27.738  27.859  1.00  0.00     0.167 HD
ATOM     45  C   UNL A   1      40.051  29.583  29.872  1.00  0.00     0.034 A 
ATOM     46  C   UNL A   1      46.015  27.774  26.564  1.00  0.00     0.034 A 
ATOM     47  C   UNL A   1      41.059  30.612  29.814  1.00  0.00     0.049 A 
ATOM     48  C   UNL A   1      45.813  29.141  27.170  1.00  0.00     0.074 A 
ATOM     49  C   UNL A   1      41.017  31.892  30.335  1.00  0.00     0.029 A 
ATOM     50  N   UNL A   1      42.301  30.467  29.209  1.00  0.00    -0.354 N 
ATOM     51  N   UNL A   1      44.768  29.613  27.811  1.00  0.00    -0.248 NA
ATOM     52  C   UNL A   1      46.923  30.093  27.041  1.00  0.00     0.031 C 
ATOM     53  C   UNL A   1      42.218  32.535  30.010  1.00  0.00     0.029 A 
ATOM     54  C   UNL A   1      43.031  31.636  29.339  1.00  0.00     0.049 A 
ATOM     55  H   UNL A   1      42.615  29.652  28.753  1.00  0.00     0.167 HD
ATOM     56  C   UNL A   1      45.112  30.907  28.192  1.00  0.00     0.074 A 
ATOM     57  C   UNL A   1      46.463  31.133  27.722  1.00  0.00     0.031 C 
ATOM     58  C   UNL A   1      44.381  31.828  28.867  1.00  0.00     0.034 A 
BRANCH  45  59
ATOM     59  C   UNL A   1      38.723  29.889  30.521  1.00  0.00     0.023 A 
ATOM     60  C   UNL A   1      37.708  30.574  29.829  1.00  0.00     0.031 A 
ATOM     61  C   UNL A   1      38.479  29.529  31.857  1.00  0.00     0.131 A 
ATOM     62  C   UNL A   1      36.535  30.950  30.498  1.00  0.00     0.055 A 
ATOM     63  C   UNL A   1      37.271  29.831  32.492  1.00  0.00     0.041 A 
ATOM     64  F   UNL A   1      39.416  28.890  32.577  1.00  0.00    -0.206 F 
ATOM     65  C   UNL A   1      36.297  30.560  31.817  1.00  0.00     0.022 A 
BRANCH  62  66
ATOM     66  S   UNL A   1      35.388  32.077  29.659  1.00  0.00     0.124 S 
ATOM     67  O   UNL A   1      36.285  33.157  29.252  1.00  0.00    -0.237 OA
ATOM     68  O   UNL A   1      34.859  31.247  28.583  1.00  0.00    -0.237 OA
ATOM     69  O   UNL A   1      34.430  32.430  30.704  1.00  0.00    -0.744 OA
ENDBRANCH  62  66
ENDBRANCH  45  59
BRANCH  46  70
ATOM     70  C   UNL A   1      47.258  27.454  25.806  1.00  0.00     0.023 A 
ATOM     71  C   UNL A   1      47.374  27.779  24.445  1.00  0.00     0.031 A 
ATOM     72  C   UNL A   1      48.327  26.771  26.413  1.00  0.00     0.131 A 
ATOM     73  C   UNL A   1      48.502  27.368  23.719  1.00  0.00     0.055 A 
ATOM     74  C   UNL A   1      49.473  26.413  25.698  1.00  0.00     0.041 A 
ATOM     75  F   UNL A   1      48.275  26.446  27.714  1.00  0.00    -0.206 F 
ATOM     76  C   UNL A   1      49.558  26.697  24.339  1.00  0.00     0.022 A 
BRANCH  73  77
ATOM     77  S   UNL A   1      48.521  27.633  21.925  1.00  0.00     0.124 S 
ATOM     78  O   UNL A   1      49.646  28.547  21.770  1.00  0.00    -0.237 OA
ATOM     79  O   UNL A   1      48.721  26.277  21.423  1.00  0.00    -0.237 OA
ATOM     80  O   UNL A   1      47.206  28.208  21.652  1.00  0.00    -0.744 OA
ENDBRANCH  73  77
ENDBRANCH  46  70
BRANCH  58  81
ATOM     81  C   UNL A   1      45.059  33.136  29.184  1.00  0.00     0.023 A 
ATOM     82  C   UNL A   1      44.985  34.235  28.312  1.00  0.00     0.031 A 
ATOM     83  C   UNL A   1      45.795  33.276  30.373  1.00  0.00     0.131 A 
ATOM     84  C   UNL A   1      45.682  35.412  28.618  1.00  0.00     0.055 A 
ATOM     85  C   UNL A   1      46.440  34.469  30.698  1.00  0.00     0.041 A 
ATOM     86  F   UNL A   1      45.895  32.255  31.240  1.00  0.00    -0.206 F 
ATOM     87  C   UNL A   1      46.396  35.542  29.812  1.00  0.00     0.022 A 
BRANCH  84  88
ATOM     88  S   UNL A   1      45.707  36.748  27.392  1.00  0.00     0.124 S 
ATOM     89  O   UNL A   1      46.355  36.104  26.254  1.00  0.00    -0.237 OA
ATOM     90  O   UNL A   1      44.289  37.052  27.231  1.00  0.00    -0.237 OA
ATOM     91  O   UNL A   1      46.494  37.795  28.042  1.00  0.00    -0.744 OA
ENDBRANCH  84  88
ENDBRANCH  58  81
ENDBRANCH  32  33
ENDBRANCH  24  27
ENDBRANCH  22  23
ENDBRANCH  21  22
ENDBRANCH  20  21
ENDBRANCH   3  20
TORSDOF 20
ENDMDL
MODEL 2
REMARK VINA RESULT:     -10.8      1.348      7.817
REMARK SMILES CC[C@@H]1CCC[C@](CCCCCO)(C(=O)NCCCNC(=O)c2ccc(-c3c4nc(c(-c5cc(S(=O)(=O)[O-])ccc5F)c5ccc([nH]5)c(-c5cc(S(=O)(=O)[O-])ccc5F)c5nc(c(-c6cc(S(=O)(=O)[O-])ccc6F)c6ccc3[nH]6)C=C5)C=C4)cc2)C1
REMARK SMILES IDX 14 1 15 2 16 3 7 5 3 6 4 7 86 8 5 9 6 10 2 11 1 12 8 13 9 14
REMARK SMILES IDX 10 15 11 16 12 17 13 18 17 20 18 21 19 22 20 23 21 24 22 26
REMARK SMILES IDX 23 27 24 28 85 29 25 30 84 31 26 32 27 33 28 34 78 35 29 36
REMARK SMILES IDX 83 37 77 38 79 39 30 40 82 41 76 42 75 43 31 45 63 46 43 47
REMARK SMILES IDX 62 48 44 49 47 50 61 51 80 52 45 53 46 54 60 56 81 57 48 58
REMARK SMILES IDX 32 59 33 60 41 61 34 62 40 63 42 64 39 65 35 66 36 67 37 68
REMARK SMILES IDX 38 69 64 70 65 71 73 72 66 73 72 74 74 75 71 76 67 77 68 78
REMARK SMILES IDX 69 79 70 80 49 81 50 82 58 83 51 84 57 85 59 86 56 87 52 88
REMARK SMILES IDX 53 89 54 90 55 91
REMARK H PARENT 16 4 13 19 20 25 79 44 47 55
REMARK Flexibility Score: inf
ROOT
ATOM      1  C   UNL A   1      33.178  23.199  26.937  1.00  0.00     0.226 C 
ATOM      2  O   UNL A   1      32.436  22.617  27.737  1.00  0.00    -0.274 OA
ATOM      3  N   UNL A   1      34.489  22.834  26.990  1.00  0.00    -0.356 N 
ATOM      4  H   UNL A   1      34.745  22.390  27.832  1.00  0.00     0.163 HD
ENDROOT
BRANCH   1   5
ATOM      5  C   UNL A   1      32.615  24.249  25.942  1.00  0.00     0.049 C 
ATOM      6  C   UNL A   1      32.353  26.876  25.785  1.00  0.00    -0.010 C 
ATOM      7  C   UNL A   1      30.855  26.760  26.055  1.00  0.00     0.003 C 
ATOM      8  C   UNL A   1      33.136  25.665  26.310  1.00  0.00     0.020 C 
ATOM      9  C   UNL A   1      30.317  25.430  25.553  1.00  0.00     0.001 C 
ATOM     10  C   UNL A   1      31.062  24.264  26.199  1.00  0.00     0.017 C 
BRANCH   6  11
ATOM     11  C   UNL A   1      32.942  28.201  26.330  1.00  0.00     0.000 C 
ATOM     12  C   UNL A   1      32.025  29.023  27.231  1.00  0.00     0.004 C 
ENDBRANCH   6  11
BRANCH   5  13
ATOM     13  C   UNL A   1      32.815  23.815  24.450  1.00  0.00     0.017 C 
BRANCH  13  14
ATOM     14  C   UNL A   1      32.012  22.657  23.834  1.00  0.00     0.001 C 
BRANCH  14  15
ATOM     15  C   UNL A   1      32.696  21.280  23.849  1.00  0.00     0.002 C 
BRANCH  15  16
ATOM     16  C   UNL A   1      32.189  20.274  24.881  1.00  0.00     0.028 C 
BRANCH  16  17
ATOM     17  C   UNL A   1      33.249  19.311  25.401  1.00  0.00     0.156 C 
BRANCH  17  18
ATOM     18  O   UNL A   1      32.923  18.826  26.695  1.00  0.00    -0.396 OA
ATOM     19  H   UNL A   1      32.540  19.545  27.223  1.00  0.00     0.210 HD
ENDBRANCH  17  18
ENDBRANCH  16  17
ENDBRANCH  15  16
ENDBRANCH  14  15
ENDBRANCH  13  14
ENDBRANCH   5  13
ENDBRANCH   1   5
BRANCH   3  20
ATOM     20  C   UNL A   1      35.583  22.973  26.043  1.00  0.00     0.117 C 
BRANCH  20  21
ATOM     21  C   UNL A   1      36.185  21.654  25.613  1.00  0.00     0.042 C 
BRANCH  21  22
ATOM     22  C   UNL A   1      37.599  21.820  25.075  1.00  0.00     0.118 C 
BRANCH  22  23
ATOM     23  N   UNL A   1      38.541  20.854  25.646  1.00  0.00    -0.352 N 
ATOM     24  C   UNL A   1      39.706  21.050  26.351  1.00  0.00     0.251 C 
ATOM     25  H   UNL A   1      38.301  19.911  25.503  1.00  0.00     0.163 HD
ATOM     26  O   UNL A   1      40.477  20.112  26.530  1.00  0.00    -0.269 OA
BRANCH  24  27
ATOM     27  C   UNL A   1      40.027  22.397  26.861  1.00  0.00     0.039 A 
ATOM     28  C   UNL A   1      41.001  22.556  27.849  1.00  0.00     0.014 A 
ATOM     29  C   UNL A   1      39.385  23.510  26.322  1.00  0.00     0.014 A 
ATOM     30  C   UNL A   1      41.404  23.843  28.212  1.00  0.00     0.010 A 
ATOM     31  C   UNL A   1      39.878  24.776  26.583  1.00  0.00     0.010 A 
ATOM     32  C   UNL A   1      40.891  24.961  27.534  1.00  0.00    -0.014 A 
BRANCH  32  33
ATOM     33  C   UNL A   1      41.367  26.343  27.798  1.00  0.00     0.031 A 
ATOM     34  C   UNL A   1      42.768  26.726  27.399  1.00  0.00     0.074 A 
ATOM     35  C   UNL A   1      40.594  27.199  28.496  1.00  0.00     0.049 A 
ATOM     36  N   UNL A   1      43.460  27.789  27.716  1.00  0.00    -0.248 NA
ATOM     37  C   UNL A   1      43.510  25.748  26.586  1.00  0.00     0.031 C 
ATOM     38  C   UNL A   1      39.243  26.918  28.990  1.00  0.00     0.029 A 
ATOM     39  N   UNL A   1      40.840  28.478  28.928  1.00  0.00    -0.354 N 
ATOM     40  C   UNL A   1      44.726  27.588  27.176  1.00  0.00     0.074 A 
ATOM     41  C   UNL A   1      44.726  26.270  26.579  1.00  0.00     0.031 C 
ATOM     42  C   UNL A   1      38.772  28.001  29.630  1.00  0.00     0.029 A 
ATOM     43  C   UNL A   1      39.802  29.032  29.641  1.00  0.00     0.049 A 
ATOM     44  H   UNL A   1      41.682  28.955  28.745  1.00  0.00     0.167 HD
ATOM     45  C   UNL A   1      45.783  28.436  27.154  1.00  0.00     0.034 A 
ATOM     46  C   UNL A   1      39.701  30.233  30.247  1.00  0.00     0.034 A 
ATOM     47  C   UNL A   1      45.744  29.766  27.707  1.00  0.00     0.049 A 
ATOM     48  C   UNL A   1      40.875  31.177  30.168  1.00  0.00     0.074 A 
ATOM     49  C   UNL A   1      46.728  30.737  27.694  1.00  0.00     0.029 A 
ATOM     50  N   UNL A   1      44.648  30.318  28.359  1.00  0.00    -0.354 N 
ATOM     51  N   UNL A   1      42.055  30.984  29.627  1.00  0.00    -0.248 NA
ATOM     52  C   UNL A   1      40.697  32.505  30.770  1.00  0.00     0.031 C 
ATOM     53  C   UNL A   1      46.243  31.861  28.374  1.00  0.00     0.029 A 
ATOM     54  C   UNL A   1      44.935  31.612  28.757  1.00  0.00     0.049 A 
ATOM     55  H   UNL A   1      43.793  29.855  28.516  1.00  0.00     0.167 HD
ATOM     56  C   UNL A   1      42.748  32.179  29.794  1.00  0.00     0.074 A 
ATOM     57  C   UNL A   1      41.848  33.089  30.471  1.00  0.00     0.031 C 
ATOM     58  C   UNL A   1      44.013  32.500  29.423  1.00  0.00     0.034 A 
BRANCH  45  59
ATOM     59  C   UNL A   1      47.057  27.944  26.511  1.00  0.00     0.023 A 
ATOM     60  C   UNL A   1      47.292  28.097  25.134  1.00  0.00     0.031 A 
ATOM     61  C   UNL A   1      48.033  27.279  27.274  1.00  0.00     0.131 A 
ATOM     62  C   UNL A   1      48.427  27.522  24.547  1.00  0.00     0.055 A 
ATOM     63  C   UNL A   1      49.206  26.783  26.697  1.00  0.00     0.041 A 
ATOM     64  F   UNL A   1      47.858  27.084  28.590  1.00  0.00    -0.206 F 
ATOM     65  C   UNL A   1      49.400  26.889  25.323  1.00  0.00     0.022 A 
BRANCH  62  66
ATOM     66  S   UNL A   1      48.543  27.492  22.738  1.00  0.00     0.124 S 
ATOM     67  O   UNL A   1      47.337  28.224  22.356  1.00  0.00    -0.237 OA
ATOM     68  O   UNL A   1      49.808  28.173  22.490  1.00  0.00    -0.237 OA
ATOM     69  O   UNL A   1      48.527  26.066  22.417  1.00  0.00    -0.744 OA
ENDBRANCH  62  66
ENDBRANCH  45  59
BRANCH  46  70
ATOM     70  C   UNL A   1      38.459  30.620  30.975  1.00  0.00     0.023 A 
ATOM     71  C   UNL A   1      37.424  31.304  30.318  1.00  0.00     0.031 A 
ATOM     72  C   UNL A   1      38.308  30.361  32.349  1.00  0.00     0.131 A 
ATOM     73  C   UNL A   1      36.314  31.762  31.043  1.00  0.00     0.055 A 
ATOM     74  C   UNL A   1      37.175  30.770  33.055  1.00  0.00     0.041 A 
ATOM     75  F   UNL A   1      39.260  29.699  33.025  1.00  0.00    -0.206 F 
ATOM     76  C   UNL A   1      36.177  31.489  32.406  1.00  0.00     0.022 A 
BRANCH  73  77
ATOM     77  S   UNL A   1      35.100  32.811  30.199  1.00  0.00     0.124 S 
ATOM     78  O   UNL A   1      35.938  33.898  29.707  1.00  0.00    -0.237 OA
ATOM     79  O   UNL A   1      34.568  31.903  29.188  1.00  0.00    -0.237 OA
ATOM     80  O   UNL A   1      34.166  33.174  31.262  1.00  0.00    -0.744 OA
ENDBRANCH  73  77
ENDBRANCH  46  70
BRANCH  58  81
ATOM     81  C   UNL A   1      44.465  33.911  29.695  1.00  0.00     0.023 A 
ATOM     82  C   UNL A   1      44.377  34.915  28.716  1.00  0.00     0.031 A 
ATOM     83  C   UNL A   1      44.998  34.249  30.950  1.00  0.00     0.131 A 
ATOM     84  C   UNL A   1      44.866  36.200  28.991  1.00  0.00     0.055 A 
ATOM     85  C   UNL A   1      45.432  35.544  31.237  1.00  0.00     0.041 A 
ATOM     86  F   UNL A   1      45.103  33.325  31.920  1.00  0.00    -0.206 F 
ATOM     87  C   UNL A   1      45.378  36.524  30.250  1.00  0.00     0.022 A 
BRANCH  84  88
ATOM     88  S   UNL A   1      44.896  37.422  27.653  1.00  0.00     0.124 S 
ATOM     89  O   UNL A   1      43.473  37.650  27.418  1.00  0.00    -0.237 OA
ATOM     90  O   UNL A   1      45.627  38.531  28.258  1.00  0.00    -0.237 OA
ATOM     91  O   UNL A   1      45.600  36.732  26.574  1.00  0.00    -0.744 OA
ENDBRANCH  84  88
ENDBRANCH  58  81
ENDBRANCH  32  33
ENDBRANCH  24  27
ENDBRANCH  22  23
ENDBRANCH  21  22
ENDBRANCH  20  21
ENDBRANCH   3  20
TORSDOF 20
ENDMDL
MODEL 3
REMARK VINA RESULT:     -10.5      2.322      2.801
REMARK SMILES CC[C@@H]1CCC[C@](CCCCCO)(C(=O)NCCCNC(=O)c2ccc(-c3c4nc(c(-c5cc(S(=O)(=O)[O-])ccc5F)c5ccc([nH]5)c(-c5cc(S(=O)(=O)[O-])ccc5F)c5nc(c(-c6cc(S(=O)(=O)[O-])ccc6F)c6ccc3[nH]6)C=C5)C=C4)cc2)C1
REMARK SMILES IDX 14 1 15 2 16 3 7 5 3 6 4 7 86 8 5 9 6 10 2 11 1 12 8 13 9 14
REMARK SMILES IDX 10 15 11 16 12 17 13 18 17 20 18 21 19 22 20 23 21 24 22 26
REMARK SMILES IDX 23 27 24 28 85 29 25 30 84 31 26 32 27 33 28 34 78 35 29 36
REMARK SMILES IDX 83 37 77 38 79 39 30 40 82 41 76 42 75 43 31 45 63 46 43 47
REMARK SMILES IDX 62 48 44 49 47 50 61 51 80 52 45 53 46 54 60 56 81 57 48 58
REMARK SMILES IDX 32 59 33 60 41 61 34 62 40 63 42 64 39 65 35 66 36 67 37 68
REMARK SMILES IDX 38 69 64 70 65 71 73 72 66 73 72 74 74 75 71 76 67 77 68 78
REMARK SMILES IDX 69 79 70 80 49 81 50 82 58 83 51 84 57 85 59 86 56 87 52 88
REMARK SMILES IDX 53 89 54 90 55 91
REMARK H PARENT 16 4 13 19 20 25 79 44 47 55
REMARK Flexibility Score: inf
ROOT
ATOM      1  C   UNL A   1      32.819  23.407  26.947  1.00  0.00     0.226 C 
ATOM      2  O   UNL A   1      31.928  22.944  27.670  1.00  0.00    -0.274 OA
ATOM      3  N   UNL A   1      34.075  22.952  27.212  1.00  0.00    -0.356 N 
ATOM      4  H   UNL A   1      34.175  22.558  28.108  1.00  0.00     0.163 HD
ENDROOT
BRANCH   1   5
ATOM      5  C   UNL A   1      32.487  24.415  25.814  1.00  0.00     0.049 C 
ATOM      6  C   UNL A   1      32.600  27.024  25.399  1.00  0.00    -0.010 C 
ATOM      7  C   UNL A   1      31.083  27.129  25.537  1.00  0.00     0.003 C 
ATOM      8  C   UNL A   1      33.165  25.781  26.100  1.00  0.00     0.020 C 
ATOM      9  C   UNL A   1      30.410  25.835  25.109  1.00  0.00     0.001 C 
ATOM     10  C   UNL A   1      30.934  24.655  25.923  1.00  0.00     0.017 C 
BRANCH   6  11
ATOM     11  C   UNL A   1      33.319  28.311  25.874  1.00  0.00     0.000 C 
ATOM     12  C   UNL A   1      32.857  29.614  25.230  1.00  0.00     0.004 C 
ENDBRANCH   6  11
BRANCH   5  13
ATOM     13  C   UNL A   1      32.744  23.809  24.392  1.00  0.00     0.017 C 
BRANCH  13  14
ATOM     14  C   UNL A   1      31.859  22.690  23.821  1.00  0.00     0.001 C 
BRANCH  14  15
ATOM     15  C   UNL A   1      32.461  21.275  23.843  1.00  0.00     0.002 C 
BRANCH  15  16
ATOM     16  C   UNL A   1      32.029  20.363  24.990  1.00  0.00     0.028 C 
BRANCH  16  17
ATOM     17  C   UNL A   1      33.050  19.299  25.371  1.00  0.00     0.156 C 
BRANCH  17  18
ATOM     18  O   UNL A   1      32.601  18.516  26.468  1.00  0.00    -0.396 OA
ATOM     19  H   UNL A   1      31.793  18.908  26.836  1.00  0.00     0.210 HD
ENDBRANCH  17  18
ENDBRANCH  16  17
ENDBRANCH  15  16
ENDBRANCH  14  15
ENDBRANCH  13  14
ENDBRANCH   5  13
ENDBRANCH   1   5
BRANCH   3  20
ATOM     20  C   UNL A   1      35.296  22.938  26.423  1.00  0.00     0.117 C 
BRANCH  20  21
ATOM     21  C   UNL A   1      35.640  21.576  25.863  1.00  0.00     0.042 C 
BRANCH  21  22
ATOM     22  C   UNL A   1      36.902  21.611  25.012  1.00  0.00     0.118 C 
BRANCH  22  23
ATOM     23  N   UNL A   1      37.799  20.483  25.280  1.00  0.00    -0.352 N 
ATOM     24  C   UNL A   1      39.072  20.457  25.798  1.00  0.00     0.251 C 
ATOM     25  H   UNL A   1      37.428  19.600  25.053  1.00  0.00     0.163 HD
ATOM     26  O   UNL A   1      39.744  19.433  25.715  1.00  0.00    -0.269 OA
BRANCH  24  27
ATOM     27  C   UNL A   1      39.627  21.673  26.423  1.00  0.00     0.039 A 
ATOM     28  C   UNL A   1      40.656  21.569  27.361  1.00  0.00     0.014 A 
ATOM     29  C   UNL A   1      39.147  22.925  26.041  1.00  0.00     0.014 A 
ATOM     30  C   UNL A   1      41.275  22.731  27.830  1.00  0.00     0.010 A 
ATOM     31  C   UNL A   1      39.847  24.063  26.401  1.00  0.00     0.010 A 
ATOM     32  C   UNL A   1      40.917  23.982  27.303  1.00  0.00    -0.014 A 
BRANCH  32  33
ATOM     33  C   UNL A   1      41.619  25.237  27.679  1.00  0.00     0.031 A 
ATOM     34  C   UNL A   1      40.858  26.314  28.408  1.00  0.00     0.074 A 
ATOM     35  C   UNL A   1      42.882  25.451  27.262  1.00  0.00     0.049 A 
ATOM     36  N   UNL A   1      41.198  27.554  28.644  1.00  0.00    -0.248 NA
ATOM     37  C   UNL A   1      39.508  25.962  28.877  1.00  0.00     0.031 C 
ATOM     38  C   UNL A   1      43.699  24.506  26.494  1.00  0.00     0.029 A 
ATOM     39  N   UNL A   1      43.700  26.544  27.409  1.00  0.00    -0.354 N 
ATOM     40  C   UNL A   1      40.090  28.138  29.250  1.00  0.00     0.074 A 
ATOM     41  C   UNL A   1      39.046  27.136  29.276  1.00  0.00     0.031 C 
ATOM     42  C   UNL A   1      44.906  25.049  26.265  1.00  0.00     0.029 A 
ATOM     43  C   UNL A   1      44.934  26.397  26.819  1.00  0.00     0.049 A 
ATOM     44  H   UNL A   1      43.428  27.358  27.892  1.00  0.00     0.167 HD
ATOM     45  C   UNL A   1      39.964  29.385  29.766  1.00  0.00     0.034 A 
ATOM     46  C   UNL A   1      45.965  27.260  26.724  1.00  0.00     0.034 A 
ATOM     47  C   UNL A   1      41.035  30.349  29.779  1.00  0.00     0.049 A 
ATOM     48  C   UNL A   1      45.818  28.626  27.347  1.00  0.00     0.074 A 
ATOM     49  C   UNL A   1      41.047  31.620  30.324  1.00  0.00     0.029 A 
ATOM     50  N   UNL A   1      42.295  30.136  29.235  1.00  0.00    -0.354 N 
ATOM     51  N   UNL A   1      44.773  29.152  27.945  1.00  0.00    -0.248 NA
ATOM     52  C   UNL A   1      46.990  29.508  27.294  1.00  0.00     0.031 C 
ATOM     53  C   UNL A   1      42.301  32.191  30.073  1.00  0.00     0.029 A 
ATOM     54  C   UNL A   1      43.089  31.254  29.426  1.00  0.00     0.049 A 
ATOM     55  H   UNL A   1      42.581  29.311  28.779  1.00  0.00     0.167 HD
ATOM     56  C   UNL A   1      45.177  30.415  28.369  1.00  0.00     0.074 A 
ATOM     57  C   UNL A   1      46.562  30.563  27.972  1.00  0.00     0.031 C 
ATOM     58  C   UNL A   1      44.471  31.369  29.026  1.00  0.00     0.034 A 
BRANCH  45  59
ATOM     59  C   UNL A   1      38.626  29.763  30.353  1.00  0.00     0.023 A 
ATOM     60  C   UNL A   1      37.726  30.590  29.658  1.00  0.00     0.031 A 
ATOM     61  C   UNL A   1      38.258  29.326  31.638  1.00  0.00     0.131 A 
ATOM     62  C   UNL A   1      36.546  31.022  30.281  1.00  0.00     0.055 A 
ATOM     63  C   UNL A   1      37.040  29.690  32.219  1.00  0.00     0.041 A 
ATOM     64  F   UNL A   1      39.083  28.551  32.360  1.00  0.00    -0.206 F 
ATOM     65  C   UNL A   1      36.184  30.556  31.546  1.00  0.00     0.022 A 
BRANCH  62  66
ATOM     66  S   UNL A   1      35.564  32.310  29.468  1.00  0.00     0.124 S 
ATOM     67  O   UNL A   1      36.498  33.435  29.470  1.00  0.00    -0.237 OA
ATOM     68  O   UNL A   1      35.280  31.718  28.165  1.00  0.00    -0.237 OA
ATOM     69  O   UNL A   1      34.407  32.466  30.348  1.00  0.00    -0.744 OA
ENDBRANCH  62  66
ENDBRANCH  45  59
BRANCH  46  70
ATOM     70  C   UNL A   1      47.223  26.875  26.023  1.00  0.00     0.023 A 
ATOM     71  C   UNL A   1      48.267  26.242  26.716  1.00  0.00     0.031 A 
ATOM     72  C   UNL A   1      47.424  27.179  24.665  1.00  0.00     0.131 A 
ATOM     73  C   UNL A   1      49.487  25.990  26.070  1.00  0.00     0.055 A 
ATOM     74  C   UNL A   1      48.621  26.876  24.011  1.00  0.00     0.041 A 
ATOM     75  F   UNL A   1      46.456  27.773  23.950  1.00  0.00    -0.206 F 
ATOM     76  C   UNL A   1      49.667  26.292  24.719  1.00  0.00     0.022 A 
BRANCH  73  77
ATOM     77  S   UNL A   1      50.873  25.356  27.053  1.00  0.00     0.124 S 
ATOM     78  O   UNL A   1      51.325  26.559  27.742  1.00  0.00    -0.237 OA
ATOM     79  O   UNL A   1      50.218  24.349  27.882  1.00  0.00    -0.237 OA
ATOM     80  O   UNL A   1      51.792  24.830  26.046  1.00  0.00    -0.744 OA
ENDBRANCH  73  77
ENDBRANCH  46  70
BRANCH  58  81
ATOM     81  C   UNL A   1      45.211  32.625  29.403  1.00  0.00     0.023 A 
ATOM     82  C   UNL A   1      45.876  32.749  30.634  1.00  0.00     0.031 A 
ATOM     83  C   UNL A   1      45.241  33.716  28.517  1.00  0.00     0.131 A 
ATOM     84  C   UNL A   1      46.501  33.959  30.969  1.00  0.00     0.055 A 
ATOM     85  C   UNL A   1      45.911  34.898  28.832  1.00  0.00     0.041 A 
ATOM     86  F   UNL A   1      44.621  33.647  27.327  1.00  0.00    -0.206 F 
ATOM     87  C   UNL A   1      46.535  35.028  30.070  1.00  0.00     0.022 A 
BRANCH  84  88
ATOM     88  S   UNL A   1      47.200  34.143  32.631  1.00  0.00     0.124 S 
ATOM     89  O   UNL A   1      46.016  34.455  33.426  1.00  0.00    -0.237 OA
ATOM     90  O   UNL A   1      47.799  32.833  32.866  1.00  0.00    -0.237 OA
ATOM     91  O   UNL A   1      48.154  35.241  32.482  1.00  0.00    -0.744 OA
ENDBRANCH  84  88
ENDBRANCH  58  81
ENDBRANCH  32  33
ENDBRANCH  24  27
ENDBRANCH  22  23
ENDBRANCH  21  22
ENDBRANCH  20  21
ENDBRANCH   3  20
TORSDOF 20
ENDMDL
