MODEL 1
REMARK VINA RESULT:     -12.3      0.000      0.000
REMARK SMILES C[C@H](NC(=O)N1CC[C@@H](C(=O)NCCCNC(=O)c2ccc(-c3c4nc(c(-c5cc(S(=O)(=O)[O-])ccc5F)c5ccc([nH]5)c(-c5cc(S(=O)(=O)[O-])ccc5F)c5nc(c(-c6cc(S(=O)(=O)[O-])ccc6F)c6ccc3[nH]6)C=C5)C=C4)cc2)[C@@H]1C)c1cccc(Cl)c1
REMARK SMILES IDX 14 1 13 2 12 3 10 4 11 5 9 7 6 8 7 9 82 10 8 11 83 12 4 13
REMARK SMILES IDX 3 14 5 16 2 17 1 18 84 19 85 20 90 21 86 22 88 23 87 24
REMARK SMILES IDX 89 25 15 26 16 27 17 28 18 30 19 31 20 32 81 33 21 34 80 35
REMARK SMILES IDX 22 36 23 37 24 38 74 39 25 40 79 41 73 42 75 43 26 44 78 45
REMARK SMILES IDX 72 46 71 47 27 49 59 50 39 51 58 52 40 53 43 54 57 55 76 56
REMARK SMILES IDX 41 57 42 58 56 60 77 61 44 62 28 63 29 64 37 65 30 66 36 67
REMARK SMILES IDX 38 68 35 69 31 70 32 71 33 72 34 73 60 74 61 75 69 76 62 77
REMARK SMILES IDX 68 78 70 79 67 80 63 81 64 82 65 83 66 84 45 85 46 86 54 87
REMARK SMILES IDX 47 88 53 89 55 90 52 91 48 92 49 93 50 94 51 95
REMARK H PARENT 12 6 3 15 16 29 75 48 43 59
REMARK Flexibility Score: inf
ROOT
ATOM      1  C   UNL A   1      33.275  28.128  26.788  1.00  0.00     0.042 C 
ENDROOT
BRANCH   1   2
ATOM      2  C   UNL A   1      31.844  27.682  26.426  1.00  0.00     0.117 C 
BRANCH   2   3
ATOM      3  N   UNL A   1      31.569  26.313  26.875  1.00  0.00    -0.356 N 
ATOM      4  C   UNL A   1      31.723  25.046  26.423  1.00  0.00     0.225 C 
ATOM      5  O   UNL A   1      31.269  24.185  27.196  1.00  0.00    -0.275 OA
ATOM      6  H   UNL A   1      31.150  26.317  27.765  1.00  0.00     0.163 HD
BRANCH   4   7
ATOM      7  C   UNL A   1      32.327  24.540  25.106  1.00  0.00     0.102 C 
ATOM      8  N   UNL A   1      32.581  25.210  22.823  1.00  0.00    -0.321 N 
ATOM      9  C   UNL A   1      33.836  24.631  23.249  1.00  0.00     0.122 C 
ATOM     10  C   UNL A   1      31.537  24.941  23.833  1.00  0.00     0.096 C 
ATOM     11  C   UNL A   1      33.796  24.785  24.768  1.00  0.00     0.037 C 
ATOM     12  C   UNL A   1      30.632  23.804  23.346  1.00  0.00     0.032 C 
BRANCH   8  13
ATOM     13  C   UNL A   1      32.484  25.789  21.581  1.00  0.00     0.318 C 
ATOM     14  N   UNL A   1      31.738  26.923  21.435  1.00  0.00    -0.331 N 
ATOM     15  H   UNL A   1      31.519  27.197  20.515  1.00  0.00     0.165 HD
ATOM     16  O   UNL A   1      33.177  25.417  20.634  1.00  0.00    -0.249 OA
BRANCH  14  17
ATOM     17  C   UNL A   1      31.242  27.758  22.499  1.00  0.00     0.111 C 
ATOM     18  C   UNL A   1      32.276  28.811  22.909  1.00  0.00     0.036 C 
BRANCH  17  19
ATOM     19  C   UNL A   1      29.952  28.523  22.252  1.00  0.00    -0.024 A 
ATOM     20  C   UNL A   1      29.998  29.917  22.058  1.00  0.00     0.006 A 
ATOM     21  C   UNL A   1      28.761  27.925  22.699  1.00  0.00     0.026 A 
ATOM     22  C   UNL A   1      28.975  30.711  22.567  1.00  0.00     0.002 A 
ATOM     23  C   UNL A   1      27.732  28.725  23.175  1.00  0.00     0.041 A 
ATOM     24  C   UNL A   1      27.876  30.108  23.173  1.00  0.00     0.020 A 
ATOM     25  Cl  UNL A   1      26.366  27.986  23.907  1.00  0.00    -0.084 Cl
ENDBRANCH  17  19
ENDBRANCH  14  17
ENDBRANCH   8  13
ENDBRANCH   4   7
ENDBRANCH   2   3
ENDBRANCH   1   2
BRANCH   1  26
ATOM     26  C   UNL A   1      33.872  29.233  25.918  1.00  0.00     0.118 C 
BRANCH  26  27
ATOM     27  N   UNL A   1      33.861  30.523  26.602  1.00  0.00    -0.352 N 
ATOM     28  C   UNL A   1      34.536  31.048  27.684  1.00  0.00     0.251 C 
ATOM     29  H   UNL A   1      33.228  31.163  26.202  1.00  0.00     0.163 HD
ATOM     30  O   UNL A   1      34.076  32.093  28.152  1.00  0.00    -0.269 OA
BRANCH  28  31
ATOM     31  C   UNL A   1      35.754  30.456  28.322  1.00  0.00     0.039 A 
ATOM     32  C   UNL A   1      36.967  30.503  27.605  1.00  0.00     0.014 A 
ATOM     33  C   UNL A   1      35.748  29.760  29.525  1.00  0.00     0.014 A 
ATOM     34  C   UNL A   1      38.140  29.896  28.096  1.00  0.00     0.010 A 
ATOM     35  C   UNL A   1      36.936  29.233  30.057  1.00  0.00     0.010 A 
ATOM     36  C   UNL A   1      38.150  29.272  29.348  1.00  0.00    -0.014 A 
BRANCH  36  37
ATOM     37  C   UNL A   1      39.363  28.611  29.933  1.00  0.00     0.031 A 
ATOM     38  C   UNL A   1      40.087  29.267  31.087  1.00  0.00     0.074 A 
ATOM     39  C   UNL A   1      39.901  27.501  29.380  1.00  0.00     0.049 A 
ATOM     40  N   UNL A   1      41.239  28.961  31.628  1.00  0.00    -0.248 NA
ATOM     41  C   UNL A   1      39.425  30.424  31.712  1.00  0.00     0.031 C 
ATOM     42  C   UNL A   1      39.306  26.715  28.305  1.00  0.00     0.029 A 
ATOM     43  N   UNL A   1      41.104  26.869  29.604  1.00  0.00    -0.354 N 
ATOM     44  C   UNL A   1      41.436  29.879  32.655  1.00  0.00     0.074 A 
ATOM     45  C   UNL A   1      40.324  30.803  32.608  1.00  0.00     0.031 C 
ATOM     46  C   UNL A   1      40.186  25.800  27.868  1.00  0.00     0.029 A 
ATOM     47  C   UNL A   1      41.396  25.895  28.670  1.00  0.00     0.049 A 
ATOM     48  H   UNL A   1      41.698  27.091  30.357  1.00  0.00     0.167 HD
ATOM     49  C   UNL A   1      42.428  29.922  33.580  1.00  0.00     0.034 A 
ATOM     50  C   UNL A   1      42.505  25.154  28.474  1.00  0.00     0.034 A 
ATOM     51  C   UNL A   1      43.519  28.980  33.636  1.00  0.00     0.049 A 
ATOM     52  C   UNL A   1      43.634  25.266  29.463  1.00  0.00     0.074 A 
ATOM     53  C   UNL A   1      44.516  28.875  34.590  1.00  0.00     0.029 A 
ATOM     54  N   UNL A   1      43.767  27.991  32.694  1.00  0.00    -0.354 N 
ATOM     55  N   UNL A   1      43.750  26.074  30.490  1.00  0.00    -0.248 NA
ATOM     56  C   UNL A   1      44.752  24.328  29.304  1.00  0.00     0.031 C 
ATOM     57  C   UNL A   1      45.406  27.873  34.188  1.00  0.00     0.029 A 
ATOM     58  C   UNL A   1      44.922  27.300  33.023  1.00  0.00     0.049 A 
ATOM     59  H   UNL A   1      43.205  27.808  31.906  1.00  0.00     0.167 HD
ATOM     60  C   UNL A   1      44.921  25.693  31.137  1.00  0.00     0.074 A 
ATOM     61  C   UNL A   1      45.476  24.590  30.381  1.00  0.00     0.031 C 
ATOM     62  C   UNL A   1      45.472  26.199  32.269  1.00  0.00     0.034 A 
BRANCH  49  63
ATOM     63  C   UNL A   1      42.376  31.023  34.613  1.00  0.00     0.023 A 
ATOM     64  C   UNL A   1      42.918  32.295  34.360  1.00  0.00     0.031 A 
ATOM     65  C   UNL A   1      41.765  30.803  35.860  1.00  0.00     0.131 A 
ATOM     66  C   UNL A   1      42.895  33.278  35.360  1.00  0.00     0.055 A 
ATOM     67  C   UNL A   1      41.676  31.810  36.823  1.00  0.00     0.041 A 
ATOM     68  F   UNL A   1      41.244  29.604  36.164  1.00  0.00    -0.206 F 
ATOM     69  C   UNL A   1      42.254  33.053  36.581  1.00  0.00     0.022 A 
BRANCH  66  70
ATOM     70  S   UNL A   1      43.813  34.818  35.085  1.00  0.00     0.124 S 
ATOM     71  O   UNL A   1      43.892  34.857  33.627  1.00  0.00    -0.237 OA
ATOM     72  O   UNL A   1      42.948  35.817  35.705  1.00  0.00    -0.237 OA
ATOM     73  O   UNL A   1      45.085  34.585  35.766  1.00  0.00    -0.744 OA
ENDBRANCH  66  70
ENDBRANCH  49  63
BRANCH  50  74
ATOM     74  C   UNL A   1      42.606  24.224  27.310  1.00  0.00     0.023 A 
ATOM     75  C   UNL A   1      42.021  22.949  27.346  1.00  0.00     0.031 A 
ATOM     76  C   UNL A   1      43.348  24.577  26.169  1.00  0.00     0.131 A 
ATOM     77  C   UNL A   1      42.243  22.046  26.294  1.00  0.00     0.055 A 
ATOM     78  C   UNL A   1      43.524  23.693  25.102  1.00  0.00     0.041 A 
ATOM     79  F   UNL A   1      43.920  25.788  26.079  1.00  0.00    -0.206 F 
ATOM     80  C   UNL A   1      42.984  22.412  25.169  1.00  0.00     0.022 A 
BRANCH  77  81
ATOM     81  S   UNL A   1      41.637  20.345  26.470  1.00  0.00     0.124 S 
ATOM     82  O   UNL A   1      42.221  19.697  25.302  1.00  0.00    -0.237 OA
ATOM     83  O   UNL A   1      42.196  19.961  27.763  1.00  0.00    -0.237 OA
ATOM     84  O   UNL A   1      40.184  20.496  26.442  1.00  0.00    -0.744 OA
ENDBRANCH  77  81
ENDBRANCH  50  74
BRANCH  62  85
ATOM     85  C   UNL A   1      46.707  25.512  32.796  1.00  0.00     0.023 A 
ATOM     86  C   UNL A   1      47.983  25.766  32.264  1.00  0.00     0.031 A 
ATOM     87  C   UNL A   1      46.599  24.572  33.837  1.00  0.00     0.131 A 
ATOM     88  C   UNL A   1      49.089  25.042  32.732  1.00  0.00     0.055 A 
ATOM     89  C   UNL A   1      47.714  23.904  34.344  1.00  0.00     0.041 A 
ATOM     90  F   UNL A   1      45.403  24.287  34.380  1.00  0.00    -0.206 F 
ATOM     91  C   UNL A   1      48.967  24.128  33.780  1.00  0.00     0.022 A 
BRANCH  88  92
ATOM     92  S   UNL A   1      50.679  25.243  31.883  1.00  0.00     0.124 S 
ATOM     93  O   UNL A   1      50.277  25.893  30.639  1.00  0.00    -0.237 OA
ATOM     94  O   UNL A   1      51.432  26.071  32.819  1.00  0.00    -0.237 OA
ATOM     95  O   UNL A   1      51.166  23.873  31.738  1.00  0.00    -0.744 OA
ENDBRANCH  88  92
ENDBRANCH  62  85
ENDBRANCH  36  37
ENDBRANCH  28  31
ENDBRANCH  26  27
ENDBRANCH   1  26
TORSDOF 16
ENDMDL
MODEL 2
REMARK VINA RESULT:     -12.2      4.713      8.009
REMARK SMILES C[C@H](NC(=O)N1CC[C@@H](C(=O)NCCCNC(=O)c2ccc(-c3c4nc(c(-c5cc(S(=O)(=O)[O-])ccc5F)c5ccc([nH]5)c(-c5cc(S(=O)(=O)[O-])ccc5F)c5nc(c(-c6cc(S(=O)(=O)[O-])ccc6F)c6ccc3[nH]6)C=C5)C=C4)cc2)[C@@H]1C)c1cccc(Cl)c1
REMARK SMILES IDX 14 1 13 2 12 3 10 4 11 5 9 7 6 8 7 9 82 10 8 11 83 12 4 13
REMARK SMILES IDX 3 14 5 16 2 17 1 18 84 19 85 20 90 21 86 22 88 23 87 24
REMARK SMILES IDX 89 25 15 26 16 27 17 28 18 30 19 31 20 32 81 33 21 34 80 35
REMARK SMILES IDX 22 36 23 37 24 38 74 39 25 40 79 41 73 42 75 43 26 44 78 45
REMARK SMILES IDX 72 46 71 47 27 49 59 50 39 51 58 52 40 53 43 54 57 55 76 56
REMARK SMILES IDX 41 57 42 58 56 60 77 61 44 62 28 63 29 64 37 65 30 66 36 67
REMARK SMILES IDX 38 68 35 69 31 70 32 71 33 72 34 73 60 74 61 75 69 76 62 77
REMARK SMILES IDX 68 78 70 79 67 80 63 81 64 82 65 83 66 84 45 85 46 86 54 87
REMARK SMILES IDX 47 88 53 89 55 90 52 91 48 92 49 93 50 94 51 95
REMARK H PARENT 12 6 3 15 16 29 75 48 43 59
REMARK Flexibility Score: inf
ROOT
ATOM      1  C   UNL A   1      37.590  21.559  26.004  1.00  0.00     0.042 C 
ENDROOT
BRANCH   1   2
ATOM      2  C   UNL A   1      37.502  23.048  25.611  1.00  0.00     0.117 C 
BRANCH   2   3
ATOM      3  N   UNL A   1      36.646  23.252  24.438  1.00  0.00    -0.356 N 
ATOM      4  C   UNL A   1      35.367  23.014  24.060  1.00  0.00     0.225 C 
ATOM      5  O   UNL A   1      35.124  23.352  22.890  1.00  0.00    -0.275 OA
ATOM      6  H   UNL A   1      37.147  23.690  23.714  1.00  0.00     0.163 HD
BRANCH   4   7
ATOM      7  C   UNL A   1      34.218  22.362  24.841  1.00  0.00     0.102 C 
ATOM      8  N   UNL A   1      32.265  22.967  26.087  1.00  0.00    -0.321 N 
ATOM      9  C   UNL A   1      31.920  21.832  25.258  1.00  0.00     0.122 C 
ATOM     10  C   UNL A   1      33.729  23.170  26.073  1.00  0.00     0.096 C 
ATOM     11  C   UNL A   1      32.950  21.894  24.131  1.00  0.00     0.037 C 
ATOM     12  C   UNL A   1      34.334  22.637  27.376  1.00  0.00     0.032 C 
BRANCH   8  13
ATOM     13  C   UNL A   1      31.291  23.596  26.822  1.00  0.00     0.318 C 
ATOM     14  N   UNL A   1      30.965  24.888  26.522  1.00  0.00    -0.331 N 
ATOM     15  H   UNL A   1      30.422  25.374  27.183  1.00  0.00     0.165 HD
ATOM     16  O   UNL A   1      30.589  22.986  27.629  1.00  0.00    -0.249 OA
BRANCH  14  17
ATOM     17  C   UNL A   1      31.340  25.605  25.331  1.00  0.00     0.111 C 
ATOM     18  C   UNL A   1      30.108  26.114  24.577  1.00  0.00     0.036 C 
BRANCH  17  19
ATOM     19  C   UNL A   1      32.251  26.812  25.492  1.00  0.00    -0.024 A 
ATOM     20  C   UNL A   1      31.907  27.824  26.408  1.00  0.00     0.006 A 
ATOM     21  C   UNL A   1      33.106  27.113  24.418  1.00  0.00     0.026 A 
ATOM     22  C   UNL A   1      32.181  29.151  26.094  1.00  0.00     0.002 A 
ATOM     23  C   UNL A   1      33.401  28.437  24.130  1.00  0.00     0.041 A 
ATOM     24  C   UNL A   1      32.878  29.449  24.927  1.00  0.00     0.020 A 
ATOM     25  Cl  UNL A   1      34.277  28.809  22.700  1.00  0.00    -0.084 Cl
ENDBRANCH  17  19
ENDBRANCH  14  17
ENDBRANCH   8  13
ENDBRANCH   4   7
ENDBRANCH   2   3
ENDBRANCH   1   2
BRANCH   1  26
ATOM     26  C   UNL A   1      38.207  20.628  24.961  1.00  0.00     0.118 C 
BRANCH  26  27
ATOM     27  N   UNL A   1      39.200  19.737  25.553  1.00  0.00    -0.352 N 
ATOM     28  C   UNL A   1      40.461  19.913  26.083  1.00  0.00     0.251 C 
ATOM     29  H   UNL A   1      38.904  18.798  25.580  1.00  0.00     0.163 HD
ATOM     30  O   UNL A   1      41.125  18.886  26.249  1.00  0.00    -0.269 OA
BRANCH  28  31
ATOM     31  C   UNL A   1      41.074  21.227  26.455  1.00  0.00     0.039 A 
ATOM     32  C   UNL A   1      41.136  21.565  27.822  1.00  0.00     0.014 A 
ATOM     33  C   UNL A   1      41.484  22.188  25.538  1.00  0.00     0.014 A 
ATOM     34  C   UNL A   1      41.621  22.817  28.253  1.00  0.00     0.010 A 
ATOM     35  C   UNL A   1      42.050  23.399  25.970  1.00  0.00     0.010 A 
ATOM     36  C   UNL A   1      42.113  23.747  27.332  1.00  0.00    -0.014 A 
BRANCH  36  37
ATOM     37  C   UNL A   1      42.647  25.093  27.721  1.00  0.00     0.031 A 
ATOM     38  C   UNL A   1      41.701  26.146  28.252  1.00  0.00     0.074 A 
ATOM     39  C   UNL A   1      43.936  25.435  27.498  1.00  0.00     0.049 A 
ATOM     40  N   UNL A   1      41.917  27.416  28.486  1.00  0.00    -0.248 NA
ATOM     41  C   UNL A   1      40.329  25.710  28.558  1.00  0.00     0.031 C 
ATOM     42  C   UNL A   1      44.987  24.532  27.045  1.00  0.00     0.029 A 
ATOM     43  N   UNL A   1      44.575  26.654  27.564  1.00  0.00    -0.354 N 
ATOM     44  C   UNL A   1      40.716  27.926  28.969  1.00  0.00     0.074 A 
ATOM     45  C   UNL A   1      39.753  26.848  28.916  1.00  0.00     0.031 C 
ATOM     46  C   UNL A   1      46.092  25.232  26.743  1.00  0.00     0.029 A 
ATOM     47  C   UNL A   1      45.849  26.637  27.033  1.00  0.00     0.049 A 
ATOM     48  H   UNL A   1      44.162  27.459  27.952  1.00  0.00     0.167 HD
ATOM     49  C   UNL A   1      40.450  29.166  29.452  1.00  0.00     0.034 A 
ATOM     50  C   UNL A   1      46.730  27.631  26.804  1.00  0.00     0.034 A 
ATOM     51  C   UNL A   1      41.424  30.228  29.525  1.00  0.00     0.049 A 
ATOM     52  C   UNL A   1      46.394  29.020  27.275  1.00  0.00     0.074 A 
ATOM     53  C   UNL A   1      41.285  31.484  30.089  1.00  0.00     0.029 A 
ATOM     54  N   UNL A   1      42.710  30.167  29.006  1.00  0.00    -0.354 N 
ATOM     55  N   UNL A   1      45.285  29.455  27.825  1.00  0.00    -0.248 NA
ATOM     56  C   UNL A   1      47.445  30.036  27.151  1.00  0.00     0.031 C 
ATOM     57  C   UNL A   1      42.458  32.207  29.848  1.00  0.00     0.029 A 
ATOM     58  C   UNL A   1      43.359  31.376  29.202  1.00  0.00     0.049 A 
ATOM     59  H   UNL A   1      43.103  29.381  28.563  1.00  0.00     0.167 HD
ATOM     60  C   UNL A   1      45.533  30.779  28.174  1.00  0.00     0.074 A 
ATOM     61  C   UNL A   1      46.891  31.070  27.766  1.00  0.00     0.031 C 
ATOM     62  C   UNL A   1      44.714  31.663  28.796  1.00  0.00     0.034 A 
BRANCH  49  63
ATOM     63  C   UNL A   1      39.050  29.440  29.947  1.00  0.00     0.023 A 
ATOM     64  C   UNL A   1      38.103  30.103  29.146  1.00  0.00     0.031 A 
ATOM     65  C   UNL A   1      38.651  29.022  31.228  1.00  0.00     0.131 A 
ATOM     66  C   UNL A   1      36.827  30.383  29.655  1.00  0.00     0.055 A 
ATOM     67  C   UNL A   1      37.355  29.236  31.702  1.00  0.00     0.041 A 
ATOM     68  F   UNL A   1      39.516  28.399  32.044  1.00  0.00    -0.206 F 
ATOM     69  C   UNL A   1      36.438  29.932  30.918  1.00  0.00     0.022 A 
BRANCH  66  70
ATOM     70  S   UNL A   1      35.721  31.446  28.689  1.00  0.00     0.124 S 
ATOM     71  O   UNL A   1      35.201  30.507  27.698  1.00  0.00    -0.237 OA
ATOM     72  O   UNL A   1      34.767  31.906  29.692  1.00  0.00    -0.237 OA
ATOM     73  O   UNL A   1      36.612  32.475  28.157  1.00  0.00    -0.744 OA
ENDBRANCH  66  70
ENDBRANCH  49  63
BRANCH  50  74
ATOM     74  C   UNL A   1      48.026  27.357  26.115  1.00  0.00     0.023 A 
ATOM     75  C   UNL A   1      48.157  27.503  24.725  1.00  0.00     0.031 A 
ATOM     76  C   UNL A   1      49.137  26.881  26.835  1.00  0.00     0.131 A 
ATOM     77  C   UNL A   1      49.345  27.112  24.088  1.00  0.00     0.055 A 
ATOM     78  C   UNL A   1      50.335  26.541  26.201  1.00  0.00     0.041 A 
ATOM     79  F   UNL A   1      49.070  26.732  28.167  1.00  0.00    -0.206 F 
ATOM     80  C   UNL A   1      50.438  26.640  24.817  1.00  0.00     0.022 A 
BRANCH  77  81
ATOM     81  S   UNL A   1      49.401  27.130  22.275  1.00  0.00     0.124 S 
ATOM     82  O   UNL A   1      48.565  25.983  21.939  1.00  0.00    -0.237 OA
ATOM     83  O   UNL A   1      48.840  28.443  21.970  1.00  0.00    -0.237 OA
ATOM     84  O   UNL A   1      50.823  26.977  21.976  1.00  0.00    -0.744 OA
ENDBRANCH  77  81
ENDBRANCH  50  74
BRANCH  62  85
ATOM     85  C   UNL A   1      45.296  33.012  29.138  1.00  0.00     0.023 A 
ATOM     86  C   UNL A   1      45.202  34.105  28.260  1.00  0.00     0.031 A 
ATOM     87  C   UNL A   1      45.973  33.197  30.357  1.00  0.00     0.131 A 
ATOM     88  C   UNL A   1      45.830  35.317  28.586  1.00  0.00     0.055 A 
ATOM     89  C   UNL A   1      46.538  34.425  30.706  1.00  0.00     0.041 A 
ATOM     90  F   UNL A   1      46.097  32.186  31.232  1.00  0.00    -0.206 F 
ATOM     91  C   UNL A   1      46.480  35.489  29.810  1.00  0.00     0.022 A 
BRANCH  88  92
ATOM     92  S   UNL A   1      45.867  36.637  27.343  1.00  0.00     0.124 S 
ATOM     93  O   UNL A   1      46.374  35.932  26.170  1.00  0.00    -0.237 OA
ATOM     94  O   UNL A   1      44.470  37.050  27.284  1.00  0.00    -0.237 OA
ATOM     95  O   UNL A   1      46.781  37.623  27.918  1.00  0.00    -0.744 OA
ENDBRANCH  88  92
ENDBRANCH  62  85
ENDBRANCH  36  37
ENDBRANCH  28  31
ENDBRANCH  26  27
ENDBRANCH   1  26
TORSDOF 16
ENDMDL
MODEL 3
REMARK VINA RESULT:     -12.2      3.578      8.764
REMARK SMILES C[C@H](NC(=O)N1CC[C@@H](C(=O)NCCCNC(=O)c2ccc(-c3c4nc(c(-c5cc(S(=O)(=O)[O-])ccc5F)c5ccc([nH]5)c(-c5cc(S(=O)(=O)[O-])ccc5F)c5nc(c(-c6cc(S(=O)(=O)[O-])ccc6F)c6ccc3[nH]6)C=C5)C=C4)cc2)[C@@H]1C)c1cccc(Cl)c1
REMARK SMILES IDX 14 1 13 2 12 3 10 4 11 5 9 7 6 8 7 9 82 10 8 11 83 12 4 13
REMARK SMILES IDX 3 14 5 16 2 17 1 18 84 19 85 20 90 21 86 22 88 23 87 24
REMARK SMILES IDX 89 25 15 26 16 27 17 28 18 30 19 31 20 32 81 33 21 34 80 35
REMARK SMILES IDX 22 36 23 37 24 38 74 39 25 40 79 41 73 42 75 43 26 44 78 45
REMARK SMILES IDX 72 46 71 47 27 49 59 50 39 51 58 52 40 53 43 54 57 55 76 56
REMARK SMILES IDX 41 57 42 58 56 60 77 61 44 62 28 63 29 64 37 65 30 66 36 67
REMARK SMILES IDX 38 68 35 69 31 70 32 71 33 72 34 73 60 74 61 75 69 76 62 77
REMARK SMILES IDX 68 78 70 79 67 80 63 81 64 82 65 83 66 84 45 85 46 86 54 87
REMARK SMILES IDX 47 88 53 89 55 90 52 91 48 92 49 93 50 94 51 95
REMARK H PARENT 12 6 3 15 16 29 75 48 43 59
REMARK Flexibility Score: inf
ROOT
ATOM      1  C   UNL A   1      33.421  30.727  26.614  1.00  0.00     0.042 C 
ENDROOT
BRANCH   1   2
ATOM      2  C   UNL A   1      33.839  29.452  27.372  1.00  0.00     0.117 C 
BRANCH   2   3
ATOM      3  N   UNL A   1      32.730  28.499  27.490  1.00  0.00    -0.356 N 
ATOM      4  C   UNL A   1      31.894  27.809  26.678  1.00  0.00     0.225 C 
ATOM      5  O   UNL A   1      31.053  27.131  27.292  1.00  0.00    -0.275 OA
ATOM      6  H   UNL A   1      32.537  28.305  28.434  1.00  0.00     0.163 HD
BRANCH   4   7
ATOM      7  C   UNL A   1      31.814  27.782  25.146  1.00  0.00     0.102 C 
ATOM      8  N   UNL A   1      32.575  26.480  23.287  1.00  0.00    -0.321 N 
ATOM      9  C   UNL A   1      31.196  26.838  23.034  1.00  0.00     0.122 C 
ATOM     10  C   UNL A   1      33.088  27.252  24.438  1.00  0.00     0.096 C 
ATOM     11  C   UNL A   1      30.642  27.113  24.430  1.00  0.00     0.037 C 
ATOM     12  C   UNL A   1      33.975  28.396  23.934  1.00  0.00     0.032 C 
BRANCH   8  13
ATOM     13  C   UNL A   1      33.227  25.627  22.431  1.00  0.00     0.318 C 
ATOM     14  N   UNL A   1      33.394  24.322  22.795  1.00  0.00    -0.331 N 
ATOM     15  H   UNL A   1      34.033  23.791  22.266  1.00  0.00     0.165 HD
ATOM     16  O   UNL A   1      33.518  25.958  21.281  1.00  0.00    -0.249 OA
BRANCH  14  17
ATOM     17  C   UNL A   1      32.724  23.648  23.876  1.00  0.00     0.111 C 
ATOM     18  C   UNL A   1      31.499  22.875  23.378  1.00  0.00     0.036 C 
BRANCH  17  19
ATOM     19  C   UNL A   1      33.531  22.654  24.696  1.00  0.00    -0.024 A 
ATOM     20  C   UNL A   1      34.937  22.674  24.623  1.00  0.00     0.006 A 
ATOM     21  C   UNL A   1      32.876  21.476  25.095  1.00  0.00     0.026 A 
ATOM     22  C   UNL A   1      35.641  21.476  24.673  1.00  0.00     0.002 A 
ATOM     23  C   UNL A   1      33.592  20.290  25.175  1.00  0.00     0.041 A 
ATOM     24  C   UNL A   1      34.953  20.285  24.892  1.00  0.00     0.020 A 
ATOM     25  Cl  UNL A   1      32.750  18.821  25.463  1.00  0.00    -0.084 Cl
ENDBRANCH  17  19
ENDBRANCH  14  17
ENDBRANCH   8  13
ENDBRANCH   4   7
ENDBRANCH   2   3
ENDBRANCH   1   2
BRANCH   1  26
ATOM     26  C   UNL A   1      32.137  31.401  27.096  1.00  0.00     0.118 C 
BRANCH  26  27
ATOM     27  N   UNL A   1      32.311  32.842  27.257  1.00  0.00    -0.352 N 
ATOM     28  C   UNL A   1      33.149  33.634  28.013  1.00  0.00     0.251 C 
ATOM     29  H   UNL A   1      31.690  33.367  26.701  1.00  0.00     0.163 HD
ATOM     30  O   UNL A   1      32.834  34.824  28.100  1.00  0.00    -0.269 OA
BRANCH  28  31
ATOM     31  C   UNL A   1      34.381  33.168  28.725  1.00  0.00     0.039 A 
ATOM     32  C   UNL A   1      35.633  33.499  28.170  1.00  0.00     0.014 A 
ATOM     33  C   UNL A   1      34.374  32.333  29.837  1.00  0.00     0.014 A 
ATOM     34  C   UNL A   1      36.838  33.030  28.730  1.00  0.00     0.010 A 
ATOM     35  C   UNL A   1      35.575  31.940  30.448  1.00  0.00     0.010 A 
ATOM     36  C   UNL A   1      36.830  32.263  29.899  1.00  0.00    -0.014 A 
BRANCH  36  37
ATOM     37  C   UNL A   1      38.073  31.735  30.552  1.00  0.00     0.031 A 
ATOM     38  C   UNL A   1      38.831  30.598  29.905  1.00  0.00     0.074 A 
ATOM     39  C   UNL A   1      38.474  32.170  31.767  1.00  0.00     0.049 A 
ATOM     40  N   UNL A   1      39.822  29.884  30.377  1.00  0.00    -0.248 NA
ATOM     41  C   UNL A   1      38.413  30.212  28.547  1.00  0.00     0.031 C 
ATOM     42  C   UNL A   1      37.895  33.289  32.502  1.00  0.00     0.029 A 
ATOM     43  N   UNL A   1      39.428  31.684  32.634  1.00  0.00    -0.354 N 
ATOM     44  C   UNL A   1      40.148  28.973  29.376  1.00  0.00     0.074 A 
ATOM     45  C   UNL A   1      39.195  29.171  28.306  1.00  0.00     0.031 C 
ATOM     46  C   UNL A   1      38.396  33.326  33.747  1.00  0.00     0.029 A 
ATOM     47  C   UNL A   1      39.380  32.262  33.887  1.00  0.00     0.049 A 
ATOM     48  H   UNL A   1      40.081  30.991  32.384  1.00  0.00     0.167 HD
ATOM     49  C   UNL A   1      41.172  28.085  29.334  1.00  0.00     0.034 A 
ATOM     50  C   UNL A   1      40.046  31.980  35.024  1.00  0.00     0.034 A 
ATOM     51  C   UNL A   1      42.133  27.913  30.397  1.00  0.00     0.049 A 
ATOM     52  C   UNL A   1      41.130  30.937  34.987  1.00  0.00     0.074 A 
ATOM     53  C   UNL A   1      43.265  27.116  30.411  1.00  0.00     0.029 A 
ATOM     54  N   UNL A   1      42.071  28.535  31.636  1.00  0.00    -0.354 N 
ATOM     55  N   UNL A   1      41.488  30.159  33.993  1.00  0.00    -0.248 NA
ATOM     56  C   UNL A   1      41.938  30.775  36.201  1.00  0.00     0.031 C 
ATOM     57  C   UNL A   1      43.845  27.199  31.682  1.00  0.00     0.029 A 
ATOM     58  C   UNL A   1      43.120  28.108  32.435  1.00  0.00     0.049 A 
ATOM     59  H   UNL A   1      41.382  29.183  31.908  1.00  0.00     0.167 HD
ATOM     60  C   UNL A   1      42.607  29.465  34.444  1.00  0.00     0.074 A 
ATOM     61  C   UNL A   1      42.857  29.913  35.798  1.00  0.00     0.031 C 
ATOM     62  C   UNL A   1      43.369  28.557  33.784  1.00  0.00     0.034 A 
BRANCH  49  63
ATOM     63  C   UNL A   1      41.311  27.232  28.096  1.00  0.00     0.023 A 
ATOM     64  C   UNL A   1      40.922  25.881  28.085  1.00  0.00     0.031 A 
ATOM     65  C   UNL A   1      41.824  27.779  26.907  1.00  0.00     0.131 A 
ATOM     66  C   UNL A   1      41.109  25.107  26.931  1.00  0.00     0.055 A 
ATOM     67  C   UNL A   1      41.937  27.023  25.738  1.00  0.00     0.041 A 
ATOM     68  F   UNL A   1      42.227  29.058  26.861  1.00  0.00    -0.206 F 
ATOM     69  C   UNL A   1      41.590  25.675  25.750  1.00  0.00     0.022 A 
BRANCH  66  70
ATOM     70  S   UNL A   1      40.822  23.319  27.030  1.00  0.00     0.124 S 
ATOM     71  O   UNL A   1      41.631  22.829  25.917  1.00  0.00    -0.237 OA
ATOM     72  O   UNL A   1      41.311  22.993  28.366  1.00  0.00    -0.237 OA
ATOM     73  O   UNL A   1      39.378  23.192  26.846  1.00  0.00    -0.744 OA
ENDBRANCH  66  70
ENDBRANCH  49  63
BRANCH  50  74
ATOM     74  C   UNL A   1      39.733  32.703  36.292  1.00  0.00     0.023 A 
ATOM     75  C   UNL A   1      38.775  32.211  37.192  1.00  0.00     0.031 A 
ATOM     76  C   UNL A   1      40.343  33.935  36.588  1.00  0.00     0.131 A 
ATOM     77  C   UNL A   1      38.405  32.976  38.309  1.00  0.00     0.055 A 
ATOM     78  C   UNL A   1      40.007  34.669  37.728  1.00  0.00     0.041 A 
ATOM     79  F   UNL A   1      41.272  34.448  35.766  1.00  0.00    -0.206 F 
ATOM     80  C   UNL A   1      39.019  34.198  38.588  1.00  0.00     0.022 A 
BRANCH  77  81
ATOM     81  S   UNL A   1      37.025  32.397  39.336  1.00  0.00     0.124 S 
ATOM     82  O   UNL A   1      35.874  32.722  38.501  1.00  0.00    -0.237 OA
ATOM     83  O   UNL A   1      37.333  30.977  39.478  1.00  0.00    -0.237 OA
ATOM     84  O   UNL A   1      37.155  33.186  40.558  1.00  0.00    -0.744 OA
ENDBRANCH  77  81
ENDBRANCH  50  74
BRANCH  62  85
ATOM     85  C   UNL A   1      44.592  28.040  34.499  1.00  0.00     0.023 A 
ATOM     86  C   UNL A   1      44.556  26.875  35.284  1.00  0.00     0.031 A 
ATOM     87  C   UNL A   1      45.809  28.740  34.408  1.00  0.00     0.131 A 
ATOM     88  C   UNL A   1      45.698  26.479  35.996  1.00  0.00     0.055 A 
ATOM     89  C   UNL A   1      46.960  28.303  35.065  1.00  0.00     0.041 A 
ATOM     90  F   UNL A   1      45.899  29.862  33.675  1.00  0.00    -0.206 F 
ATOM     91  C   UNL A   1      46.904  27.174  35.877  1.00  0.00     0.022 A 
BRANCH  88  92
ATOM     92  S   UNL A   1      45.558  25.094  37.159  1.00  0.00     0.124 S 
ATOM     93  O   UNL A   1      44.229  24.576  36.853  1.00  0.00    -0.237 OA
ATOM     94  O   UNL A   1      46.679  24.244  36.770  1.00  0.00    -0.237 OA
ATOM     95  O   UNL A   1      45.690  25.732  38.468  1.00  0.00    -0.744 OA
ENDBRANCH  88  92
ENDBRANCH  62  85
ENDBRANCH  36  37
ENDBRANCH  28  31
ENDBRANCH  26  27
ENDBRANCH   1  26
TORSDOF 16
ENDMDL
