MODEL 1
REMARK VINA RESULT:     -14.1      0.000      0.000
REMARK SMILES Cc1c(C[NH2+][C@@H]2CCCc3ccccc32)c(C(=O)NCCCNC(=O)c2ccc(-c3c4nc(c(-c5cc(S(=O)(=O)[O-])ccc5F)c5ccc([nH]5)c(-c5cc(S(=O)(=O)[O-])ccc5F)c5nc(c(-c6cc(S(=O)(=O)[O-])ccc6F)c6ccc3[nH]6)C=C5)C=C4)cc2)c(C)n1Cc1cccc(Cl)c1
REMARK SMILES IDX 21 1 20 2 19 3 17 4 18 5 16 7 1 8 2 9 3 10 91 11 89 12 90 13
REMARK SMILES IDX 4 14 5 15 6 18 7 19 15 20 8 21 10 22 14 23 9 24 11 25 13 26
REMARK SMILES IDX 12 27 92 28 93 29 94 30 99 31 95 32 97 33 96 34 98 35 22 36
REMARK SMILES IDX 23 37 24 38 25 40 26 41 27 42 88 43 28 44 87 45 29 46 30 47
REMARK SMILES IDX 31 48 81 49 32 50 86 51 80 52 82 53 33 54 85 55 79 56 78 57
REMARK SMILES IDX 34 59 66 60 46 61 65 62 47 63 50 64 64 65 83 66 48 67 49 68
REMARK SMILES IDX 63 70 84 71 51 72 35 73 36 74 44 75 37 76 43 77 45 78 42 79
REMARK SMILES IDX 38 80 39 81 40 82 41 83 67 84 68 85 76 86 69 87 75 88 77 89
REMARK SMILES IDX 74 90 70 91 71 92 72 93 73 94 52 95 53 96 61 97 54 98 60 99
REMARK SMILES IDX 62 100 59 101 55 102 56 103 57 104 58 105
REMARK H PARENT 19 6 5 16 5 17 23 39 82 58 50 69
REMARK Flexibility Score: inf
ROOT
ATOM      1  C   UNL A   1      39.496  20.844  25.982  1.00  0.00     0.042 C 
ENDROOT
BRANCH   1   2
ATOM      2  C   UNL A   1      38.161  21.137  25.293  1.00  0.00     0.118 C 
BRANCH   2   3
ATOM      3  N   UNL A   1      37.639  22.470  25.533  1.00  0.00    -0.352 N 
ATOM      4  C   UNL A   1      36.428  23.112  25.549  1.00  0.00     0.253 C 
ATOM      5  O   UNL A   1      36.545  24.320  25.786  1.00  0.00    -0.269 OA
ATOM      6  H   UNL A   1      38.368  23.095  25.748  1.00  0.00     0.163 HD
BRANCH   4   7
ATOM      7  C   UNL A   1      35.105  22.527  25.232  1.00  0.00     0.069 A 
ATOM      8  C   UNL A   1      32.068  22.117  23.018  1.00  0.00     0.065 C 
ATOM      9  C   UNL A   1      33.198  22.099  23.996  1.00  0.00     0.025 A 
ATOM     10  C   UNL A   1      34.349  22.881  24.027  1.00  0.00     0.040 A 
ATOM     11  N   UNL A   1      33.288  21.217  25.055  1.00  0.00    -0.343 N 
ATOM     12  C   UNL A   1      34.210  21.735  25.961  1.00  0.00     0.028 A 
ATOM     13  C   UNL A   1      34.074  21.488  27.423  1.00  0.00     0.065 C 
BRANCH  10  14
ATOM     14  C   UNL A   1      34.741  23.888  22.970  1.00  0.00     0.300 C 
BRANCH  14  15
ATOM     15  N   UNL A   1      34.569  25.255  23.471  1.00  0.00    -0.336 N 
ATOM     16  H   UNL A   1      35.301  25.844  23.074  1.00  0.00     0.347 HD
ATOM     17  H   UNL A   1      34.627  25.221  24.489  1.00  0.00     0.347 HD
BRANCH  15  18
ATOM     18  C   UNL A   1      33.256  25.828  23.115  1.00  0.00     0.214 C 
ATOM     19  C   UNL A   1      33.437  26.913  22.033  1.00  0.00     0.070 C 
ATOM     20  C   UNL A   1      32.530  26.396  24.331  1.00  0.00     0.012 A 
ATOM     21  C   UNL A   1      34.013  28.207  22.598  1.00  0.00     0.011 C 
ATOM     22  C   UNL A   1      32.539  27.774  24.627  1.00  0.00    -0.039 A 
ATOM     23  C   UNL A   1      31.853  25.526  25.202  1.00  0.00     0.010 A 
ATOM     24  C   UNL A   1      33.083  28.793  23.655  1.00  0.00     0.036 C 
ATOM     25  C   UNL A   1      31.931  28.235  25.806  1.00  0.00     0.004 A 
ATOM     26  C   UNL A   1      31.264  25.991  26.376  1.00  0.00     0.001 A 
ATOM     27  C   UNL A   1      31.316  27.345  26.687  1.00  0.00     0.000 A 
ENDBRANCH  15  18
ENDBRANCH  14  15
ENDBRANCH  10  14
BRANCH  11  28
ATOM     28  C   UNL A   1      32.400  20.064  25.271  1.00  0.00     0.157 C 
BRANCH  28  29
ATOM     29  C   UNL A   1      33.072  18.709  25.138  1.00  0.00    -0.027 A 
ATOM     30  C   UNL A   1      34.273  18.574  24.418  1.00  0.00     0.005 A 
ATOM     31  C   UNL A   1      32.472  17.538  25.625  1.00  0.00     0.026 A 
ATOM     32  C   UNL A   1      34.843  17.315  24.192  1.00  0.00     0.002 A 
ATOM     33  C   UNL A   1      33.040  16.284  25.397  1.00  0.00     0.041 A 
ATOM     34  C   UNL A   1      34.223  16.166  24.679  1.00  0.00     0.020 A 
ATOM     35  Cl  UNL A   1      32.249  14.875  25.989  1.00  0.00    -0.084 Cl
ENDBRANCH  28  29
ENDBRANCH  11  28
ENDBRANCH   4   7
ENDBRANCH   2   3
ENDBRANCH   1   2
BRANCH   1  36
ATOM     36  C   UNL A   1      40.099  22.027  26.768  1.00  0.00     0.118 C 
BRANCH  36  37
ATOM     37  N   UNL A   1      41.195  22.682  26.078  1.00  0.00    -0.352 N 
ATOM     38  C   UNL A   1      41.723  23.943  26.277  1.00  0.00     0.251 C 
ATOM     39  H   UNL A   1      41.622  22.153  25.367  1.00  0.00     0.163 HD
ATOM     40  O   UNL A   1      42.644  24.293  25.544  1.00  0.00    -0.269 OA
BRANCH  38  41
ATOM     41  C   UNL A   1      41.140  24.913  27.261  1.00  0.00     0.039 A 
ATOM     42  C   UNL A   1      39.952  25.530  26.911  1.00  0.00     0.014 A 
ATOM     43  C   UNL A   1      41.810  25.406  28.396  1.00  0.00     0.014 A 
ATOM     44  C   UNL A   1      39.435  26.580  27.705  1.00  0.00     0.010 A 
ATOM     45  C   UNL A   1      41.318  26.543  29.152  1.00  0.00     0.010 A 
ATOM     46  C   UNL A   1      40.120  27.192  28.813  1.00  0.00    -0.014 A 
BRANCH  46  47
ATOM     47  C   UNL A   1      39.692  28.681  29.140  1.00  0.00     0.031 A 
ATOM     48  C   UNL A   1      40.988  29.389  29.364  1.00  0.00     0.074 A 
ATOM     49  C   UNL A   1      38.587  29.479  29.382  1.00  0.00     0.049 A 
ATOM     50  N   UNL A   1      41.842  28.939  30.240  1.00  0.00    -0.248 NA
ATOM     51  C   UNL A   1      41.542  30.332  28.390  1.00  0.00     0.031 C 
ATOM     52  C   UNL A   1      37.179  29.077  29.500  1.00  0.00     0.029 A 
ATOM     53  N   UNL A   1      38.464  30.885  29.580  1.00  0.00    -0.354 N 
ATOM     54  C   UNL A   1      42.948  29.743  30.133  1.00  0.00     0.074 A 
ATOM     55  C   UNL A   1      42.796  30.407  28.846  1.00  0.00     0.031 C 
ATOM     56  C   UNL A   1      36.360  30.164  29.600  1.00  0.00     0.029 A 
ATOM     57  C   UNL A   1      37.130  31.406  29.608  1.00  0.00     0.049 A 
ATOM     58  H   UNL A   1      39.252  31.466  29.688  1.00  0.00     0.167 HD
ATOM     59  C   UNL A   1      43.446  30.260  31.292  1.00  0.00     0.034 A 
ATOM     60  C   UNL A   1      36.665  32.712  29.688  1.00  0.00     0.034 A 
ATOM     61  C   UNL A   1      43.116  31.654  31.428  1.00  0.00     0.049 A 
ATOM     62  C   UNL A   1      37.723  33.511  30.313  1.00  0.00     0.074 A 
ATOM     63  C   UNL A   1      43.249  32.742  30.591  1.00  0.00     0.029 A 
ATOM     64  N   UNL A   1      42.140  31.977  32.347  1.00  0.00    -0.354 N 
ATOM     65  N   UNL A   1      37.921  33.479  31.592  1.00  0.00    -0.248 NA
ATOM     66  C   UNL A   1      38.557  34.450  29.574  1.00  0.00     0.031 C 
ATOM     67  C   UNL A   1      42.060  33.493  30.760  1.00  0.00     0.029 A 
ATOM     68  C   UNL A   1      41.372  33.026  31.876  1.00  0.00     0.049 A 
ATOM     69  H   UNL A   1      42.007  31.527  33.213  1.00  0.00     0.167 HD
ATOM     70  C   UNL A   1      39.179  33.972  31.735  1.00  0.00     0.074 A 
ATOM     71  C   UNL A   1      39.393  34.790  30.558  1.00  0.00     0.031 C 
ATOM     72  C   UNL A   1      40.056  33.234  32.463  1.00  0.00     0.034 A 
BRANCH  59  73
ATOM     73  C   UNL A   1      43.499  29.264  32.418  1.00  0.00     0.023 A 
ATOM     74  C   UNL A   1      42.919  29.593  33.651  1.00  0.00     0.031 A 
ATOM     75  C   UNL A   1      44.268  28.084  32.348  1.00  0.00     0.131 A 
ATOM     76  C   UNL A   1      43.164  28.787  34.777  1.00  0.00     0.055 A 
ATOM     77  C   UNL A   1      44.556  27.318  33.477  1.00  0.00     0.041 A 
ATOM     78  F   UNL A   1      44.776  27.672  31.174  1.00  0.00    -0.206 F 
ATOM     79  C   UNL A   1      44.012  27.677  34.705  1.00  0.00     0.022 A 
BRANCH  76  80
ATOM     80  S   UNL A   1      42.342  29.200  36.341  1.00  0.00     0.124 S 
ATOM     81  O   UNL A   1      43.352  28.854  37.337  1.00  0.00    -0.237 OA
ATOM     82  O   UNL A   1      42.083  30.629  36.184  1.00  0.00    -0.237 OA
ATOM     83  O   UNL A   1      41.149  28.356  36.344  1.00  0.00    -0.744 OA
ENDBRANCH  76  80
ENDBRANCH  59  73
BRANCH  60  84
ATOM     84  C   UNL A   1      35.384  33.546  29.522  1.00  0.00     0.023 A 
ATOM     85  C   UNL A   1      34.691  34.085  30.672  1.00  0.00     0.031 A 
ATOM     86  C   UNL A   1      34.988  34.084  28.296  1.00  0.00     0.131 A 
ATOM     87  C   UNL A   1      33.740  35.131  30.575  1.00  0.00     0.055 A 
ATOM     88  C   UNL A   1      34.014  35.106  28.198  1.00  0.00     0.041 A 
ATOM     89  F   UNL A   1      35.592  33.707  27.161  1.00  0.00    -0.206 F 
ATOM     90  C   UNL A   1      33.407  35.648  29.332  1.00  0.00     0.022 A 
BRANCH  87  91
ATOM     91  S   UNL A   1      33.098  35.987  32.073  1.00  0.00     0.124 S 
ATOM     92  O   UNL A   1      32.639  37.267  31.544  1.00  0.00    -0.237 OA
ATOM     93  O   UNL A   1      32.068  35.077  32.559  1.00  0.00    -0.237 OA
ATOM     94  O   UNL A   1      34.277  36.071  32.938  1.00  0.00    -0.744 OA
ENDBRANCH  87  91
ENDBRANCH  60  84
BRANCH  72  95
ATOM     95  C   UNL A   1      39.515  32.521  33.718  1.00  0.00     0.023 A 
ATOM     96  C   UNL A   1      39.363  33.087  35.015  1.00  0.00     0.031 A 
ATOM     97  C   UNL A   1      39.213  31.152  33.620  1.00  0.00     0.131 A 
ATOM     98  C   UNL A   1      38.998  32.305  36.129  1.00  0.00     0.055 A 
ATOM     99  C   UNL A   1      38.792  30.385  34.712  1.00  0.00     0.041 A 
ATOM    100  F   UNL A   1      39.338  30.511  32.446  1.00  0.00    -0.206 F 
ATOM    101  C   UNL A   1      38.705  30.953  35.978  1.00  0.00     0.022 A 
BRANCH  98 102
ATOM    102  S   UNL A   1      39.010  33.013  37.814  1.00  0.00     0.124 S 
ATOM    103  O   UNL A   1      40.440  33.202  38.086  1.00  0.00    -0.237 OA
ATOM    104  O   UNL A   1      38.237  34.248  37.645  1.00  0.00    -0.237 OA
ATOM    105  O   UNL A   1      38.372  31.995  38.622  1.00  0.00    -0.744 OA
ENDBRANCH  98 102
ENDBRANCH  72  95
ENDBRANCH  46  47
ENDBRANCH  38  41
ENDBRANCH  36  37
ENDBRANCH   1  36
TORSDOF 18
ENDMDL
MODEL 2
REMARK VINA RESULT:     -13.8      2.503      5.080
REMARK SMILES Cc1c(C[NH2+][C@@H]2CCCc3ccccc32)c(C(=O)NCCCNC(=O)c2ccc(-c3c4nc(c(-c5cc(S(=O)(=O)[O-])ccc5F)c5ccc([nH]5)c(-c5cc(S(=O)(=O)[O-])ccc5F)c5nc(c(-c6cc(S(=O)(=O)[O-])ccc6F)c6ccc3[nH]6)C=C5)C=C4)cc2)c(C)n1Cc1cccc(Cl)c1
REMARK SMILES IDX 21 1 20 2 19 3 17 4 18 5 16 7 1 8 2 9 3 10 91 11 89 12 90 13
REMARK SMILES IDX 4 14 5 15 6 18 7 19 15 20 8 21 10 22 14 23 9 24 11 25 13 26
REMARK SMILES IDX 12 27 92 28 93 29 94 30 99 31 95 32 97 33 96 34 98 35 22 36
REMARK SMILES IDX 23 37 24 38 25 40 26 41 27 42 88 43 28 44 87 45 29 46 30 47
REMARK SMILES IDX 31 48 81 49 32 50 86 51 80 52 82 53 33 54 85 55 79 56 78 57
REMARK SMILES IDX 34 59 66 60 46 61 65 62 47 63 50 64 64 65 83 66 48 67 49 68
REMARK SMILES IDX 63 70 84 71 51 72 35 73 36 74 44 75 37 76 43 77 45 78 42 79
REMARK SMILES IDX 38 80 39 81 40 82 41 83 67 84 68 85 76 86 69 87 75 88 77 89
REMARK SMILES IDX 74 90 70 91 71 92 72 93 73 94 52 95 53 96 61 97 54 98 60 99
REMARK SMILES IDX 62 100 59 101 55 102 56 103 57 104 58 105
REMARK H PARENT 19 6 5 16 5 17 23 39 82 58 50 69
REMARK Flexibility Score: inf
ROOT
ATOM      1  C   UNL A   1      36.433  23.744  24.430  1.00  0.00     0.042 C 
ENDROOT
BRANCH   1   2
ATOM      2  C   UNL A   1      35.059  24.394  24.245  1.00  0.00     0.118 C 
BRANCH   2   3
ATOM      3  N   UNL A   1      34.772  25.470  25.175  1.00  0.00    -0.352 N 
ATOM      4  C   UNL A   1      33.788  26.397  25.403  1.00  0.00     0.253 C 
ATOM      5  O   UNL A   1      34.063  27.144  26.348  1.00  0.00    -0.269 OA
ATOM      6  H   UNL A   1      35.496  25.561  25.835  1.00  0.00     0.163 HD
BRANCH   4   7
ATOM      7  C   UNL A   1      32.562  26.610  24.599  1.00  0.00     0.069 A 
ATOM      8  C   UNL A   1      28.818  26.474  24.102  1.00  0.00     0.065 C 
ATOM      9  C   UNL A   1      30.300  26.659  24.123  1.00  0.00     0.025 A 
ATOM     10  C   UNL A   1      31.224  26.258  25.084  1.00  0.00     0.040 A 
ATOM     11  N   UNL A   1      31.007  27.335  23.148  1.00  0.00    -0.343 N 
ATOM     12  C   UNL A   1      32.345  26.967  23.263  1.00  0.00     0.028 A 
ATOM     13  C   UNL A   1      33.233  26.911  22.069  1.00  0.00     0.065 C 
BRANCH  10  14
ATOM     14  C   UNL A   1      30.876  25.606  26.402  1.00  0.00     0.300 C 
BRANCH  14  15
ATOM     15  N   UNL A   1      31.957  24.716  26.839  1.00  0.00    -0.336 N 
ATOM     16  H   UNL A   1      32.198  24.944  27.803  1.00  0.00     0.347 HD
ATOM     17  H   UNL A   1      32.748  24.858  26.211  1.00  0.00     0.347 HD
BRANCH  15  18
ATOM     18  C   UNL A   1      31.579  23.291  26.770  1.00  0.00     0.214 C 
ATOM     19  C   UNL A   1      32.203  22.529  27.957  1.00  0.00     0.070 C 
ATOM     20  C   UNL A   1      31.988  22.653  25.446  1.00  0.00     0.012 A 
ATOM     21  C   UNL A   1      33.698  22.293  27.775  1.00  0.00     0.011 C 
ATOM     22  C   UNL A   1      33.159  21.878  25.323  1.00  0.00    -0.039 A 
ATOM     23  C   UNL A   1      31.197  22.862  24.303  1.00  0.00     0.010 A 
ATOM     24  C   UNL A   1      33.963  21.455  26.529  1.00  0.00     0.036 C 
ATOM     25  C   UNL A   1      33.538  21.388  24.062  1.00  0.00     0.004 A 
ATOM     26  C   UNL A   1      31.589  22.383  23.054  1.00  0.00     0.001 A 
ATOM     27  C   UNL A   1      32.769  21.657  22.931  1.00  0.00     0.000 A 
ENDBRANCH  15  18
ENDBRANCH  14  15
ENDBRANCH  10  14
BRANCH  11  28
ATOM     28  C   UNL A   1      30.404  28.121  22.060  1.00  0.00     0.157 C 
BRANCH  28  29
ATOM     29  C   UNL A   1      29.928  29.505  22.462  1.00  0.00    -0.027 A 
ATOM     30  C   UNL A   1      30.044  29.942  23.794  1.00  0.00     0.005 A 
ATOM     31  C   UNL A   1      29.263  30.347  21.558  1.00  0.00     0.026 A 
ATOM     32  C   UNL A   1      29.507  31.170  24.201  1.00  0.00     0.002 A 
ATOM     33  C   UNL A   1      28.727  31.569  21.966  1.00  0.00     0.041 A 
ATOM     34  C   UNL A   1      28.843  31.984  23.286  1.00  0.00     0.020 A 
ATOM     35  Cl  UNL A   1      27.893  32.551  20.825  1.00  0.00    -0.084 Cl
ENDBRANCH  28  29
ENDBRANCH  11  28
ENDBRANCH   4   7
ENDBRANCH   2   3
ENDBRANCH   1   2
BRANCH   1  36
ATOM     36  C   UNL A   1      37.108  24.020  25.789  1.00  0.00     0.118 C 
BRANCH  36  37
ATOM     37  N   UNL A   1      38.114  23.039  26.147  1.00  0.00    -0.352 N 
ATOM     38  C   UNL A   1      39.246  23.191  26.925  1.00  0.00     0.251 C 
ATOM     39  H   UNL A   1      37.971  22.136  25.783  1.00  0.00     0.163 HD
ATOM     40  O   UNL A   1      39.971  22.210  27.067  1.00  0.00    -0.269 OA
BRANCH  38  41
ATOM     41  C   UNL A   1      39.661  24.517  27.490  1.00  0.00     0.039 A 
ATOM     42  C   UNL A   1      39.048  24.923  28.662  1.00  0.00     0.014 A 
ATOM     43  C   UNL A   1      40.448  25.466  26.813  1.00  0.00     0.014 A 
ATOM     44  C   UNL A   1      39.259  26.230  29.158  1.00  0.00     0.010 A 
ATOM     45  C   UNL A   1      40.585  26.833  27.282  1.00  0.00     0.010 A 
ATOM     46  C   UNL A   1      39.967  27.273  28.464  1.00  0.00    -0.014 A 
BRANCH  46  47
ATOM     47  C   UNL A   1      39.562  28.752  28.859  1.00  0.00     0.031 A 
ATOM     48  C   UNL A   1      40.867  29.422  29.138  1.00  0.00     0.074 A 
ATOM     49  C   UNL A   1      38.468  29.558  29.126  1.00  0.00     0.049 A 
ATOM     50  N   UNL A   1      41.699  28.912  30.003  1.00  0.00    -0.248 NA
ATOM     51  C   UNL A   1      41.455  30.402  28.223  1.00  0.00     0.031 C 
ATOM     52  C   UNL A   1      37.052  29.179  29.202  1.00  0.00     0.029 A 
ATOM     53  N   UNL A   1      38.369  30.955  29.393  1.00  0.00    -0.354 N 
ATOM     54  C   UNL A   1      42.821  29.698  29.954  1.00  0.00     0.074 A 
ATOM     55  C   UNL A   1      42.702  30.429  28.700  1.00  0.00     0.031 C 
ATOM     56  C   UNL A   1      36.252  30.275  29.345  1.00  0.00     0.029 A 
ATOM     57  C   UNL A   1      37.045  31.500  29.428  1.00  0.00     0.049 A 
ATOM     58  H   UNL A   1      39.166  31.513  29.543  1.00  0.00     0.167 HD
ATOM     59  C   UNL A   1      43.310  30.146  31.145  1.00  0.00     0.034 A 
ATOM     60  C   UNL A   1      36.603  32.808  29.568  1.00  0.00     0.034 A 
ATOM     61  C   UNL A   1      43.004  31.537  31.347  1.00  0.00     0.049 A 
ATOM     62  C   UNL A   1      37.666  33.554  30.248  1.00  0.00     0.074 A 
ATOM     63  C   UNL A   1      43.171  32.664  30.568  1.00  0.00     0.029 A 
ATOM     64  N   UNL A   1      42.020  31.833  32.267  1.00  0.00    -0.354 N 
ATOM     65  N   UNL A   1      37.843  33.453  31.527  1.00  0.00    -0.248 NA
ATOM     66  C   UNL A   1      38.529  34.513  29.571  1.00  0.00     0.031 C 
ATOM     67  C   UNL A   1      41.994  33.428  30.757  1.00  0.00     0.029 A 
ATOM     68  C   UNL A   1      41.280  32.919  31.838  1.00  0.00     0.049 A 
ATOM     69  H   UNL A   1      41.866  31.342  33.106  1.00  0.00     0.167 HD
ATOM     70  C   UNL A   1      39.107  33.913  31.713  1.00  0.00     0.074 A 
ATOM     71  C   UNL A   1      39.355  34.786  30.583  1.00  0.00     0.031 C 
ATOM     72  C   UNL A   1      39.959  33.122  32.415  1.00  0.00     0.034 A 
BRANCH  59  73
ATOM     73  C   UNL A   1      43.328  29.093  32.219  1.00  0.00     0.023 A 
ATOM     74  C   UNL A   1      42.772  29.386  33.473  1.00  0.00     0.031 A 
ATOM     75  C   UNL A   1      44.041  27.884  32.082  1.00  0.00     0.131 A 
ATOM     76  C   UNL A   1      42.990  28.514  34.555  1.00  0.00     0.055 A 
ATOM     77  C   UNL A   1      44.303  27.051  33.168  1.00  0.00     0.041 A 
ATOM     78  F   UNL A   1      44.520  27.509  30.884  1.00  0.00    -0.206 F 
ATOM     79  C   UNL A   1      43.786  27.372  34.419  1.00  0.00     0.022 A 
BRANCH  76  80
ATOM     80  S   UNL A   1      42.200  28.884  36.145  1.00  0.00     0.124 S 
ATOM     81  O   UNL A   1      41.976  30.325  36.067  1.00  0.00    -0.237 OA
ATOM     82  O   UNL A   1      40.995  28.060  36.089  1.00  0.00    -0.237 OA
ATOM     83  O   UNL A   1      43.188  28.461  37.135  1.00  0.00    -0.744 OA
ENDBRANCH  76  80
ENDBRANCH  59  73
BRANCH  60  84
ATOM     84  C   UNL A   1      35.341  33.674  29.426  1.00  0.00     0.023 A 
ATOM     85  C   UNL A   1      34.613  34.128  30.590  1.00  0.00     0.031 A 
ATOM     86  C   UNL A   1      34.998  34.319  28.235  1.00  0.00     0.131 A 
ATOM     87  C   UNL A   1      33.680  35.194  30.547  1.00  0.00     0.055 A 
ATOM     88  C   UNL A   1      34.043  35.362  28.188  1.00  0.00     0.041 A 
ATOM     89  F   UNL A   1      35.640  34.027  27.095  1.00  0.00    -0.206 F 
ATOM     90  C   UNL A   1      33.401  35.818  29.341  1.00  0.00     0.022 A 
BRANCH  87  91
ATOM     91  S   UNL A   1      32.994  35.933  32.087  1.00  0.00     0.124 S 
ATOM     92  O   UNL A   1      31.987  34.960  32.495  1.00  0.00    -0.237 OA
ATOM     93  O   UNL A   1      34.166  36.055  32.947  1.00  0.00    -0.237 OA
ATOM     94  O   UNL A   1      32.455  37.215  31.628  1.00  0.00    -0.744 OA
ENDBRANCH  87  91
ENDBRANCH  60  84
BRANCH  72  95
ATOM     95  C   UNL A   1      39.385  32.357  33.625  1.00  0.00     0.023 A 
ATOM     96  C   UNL A   1      39.236  32.856  34.950  1.00  0.00     0.031 A 
ATOM     97  C   UNL A   1      39.046  31.005  33.448  1.00  0.00     0.131 A 
ATOM     98  C   UNL A   1      38.837  32.025  36.015  1.00  0.00     0.055 A 
ATOM     99  C   UNL A   1      38.593  30.192  34.492  1.00  0.00     0.041 A 
ATOM    100  F   UNL A   1      39.166  30.426  32.242  1.00  0.00    -0.206 F 
ATOM    101  C   UNL A   1      38.507  30.692  35.787  1.00  0.00     0.022 A 
BRANCH  98 102
ATOM    102  S   UNL A   1      38.850  32.639  37.736  1.00  0.00     0.124 S 
ATOM    103  O   UNL A   1      40.232  32.390  38.168  1.00  0.00    -0.237 OA
ATOM    104  O   UNL A   1      38.491  34.050  37.573  1.00  0.00    -0.237 OA
ATOM    105  O   UNL A   1      37.856  31.824  38.402  1.00  0.00    -0.744 OA
ENDBRANCH  98 102
ENDBRANCH  72  95
ENDBRANCH  46  47
ENDBRANCH  38  41
ENDBRANCH  36  37
ENDBRANCH   1  36
TORSDOF 18
ENDMDL
MODEL 3
REMARK VINA RESULT:     -13.6      2.142      4.795
REMARK SMILES Cc1c(C[NH2+][C@@H]2CCCc3ccccc32)c(C(=O)NCCCNC(=O)c2ccc(-c3c4nc(c(-c5cc(S(=O)(=O)[O-])ccc5F)c5ccc([nH]5)c(-c5cc(S(=O)(=O)[O-])ccc5F)c5nc(c(-c6cc(S(=O)(=O)[O-])ccc6F)c6ccc3[nH]6)C=C5)C=C4)cc2)c(C)n1Cc1cccc(Cl)c1
REMARK SMILES IDX 21 1 20 2 19 3 17 4 18 5 16 7 1 8 2 9 3 10 91 11 89 12 90 13
REMARK SMILES IDX 4 14 5 15 6 18 7 19 15 20 8 21 10 22 14 23 9 24 11 25 13 26
REMARK SMILES IDX 12 27 92 28 93 29 94 30 99 31 95 32 97 33 96 34 98 35 22 36
REMARK SMILES IDX 23 37 24 38 25 40 26 41 27 42 88 43 28 44 87 45 29 46 30 47
REMARK SMILES IDX 31 48 81 49 32 50 86 51 80 52 82 53 33 54 85 55 79 56 78 57
REMARK SMILES IDX 34 59 66 60 46 61 65 62 47 63 50 64 64 65 83 66 48 67 49 68
REMARK SMILES IDX 63 70 84 71 51 72 35 73 36 74 44 75 37 76 43 77 45 78 42 79
REMARK SMILES IDX 38 80 39 81 40 82 41 83 67 84 68 85 76 86 69 87 75 88 77 89
REMARK SMILES IDX 74 90 70 91 71 92 72 93 73 94 52 95 53 96 61 97 54 98 60 99
REMARK SMILES IDX 62 100 59 101 55 102 56 103 57 104 58 105
REMARK H PARENT 19 6 5 16 5 17 23 39 82 58 50 69
REMARK Flexibility Score: inf
ROOT
ATOM      1  C   UNL A   1      36.771  23.532  24.488  1.00  0.00     0.042 C 
ENDROOT
BRANCH   1   2
ATOM      2  C   UNL A   1      35.359  24.105  24.339  1.00  0.00     0.118 C 
BRANCH   2   3
ATOM      3  N   UNL A   1      34.702  23.770  23.089  1.00  0.00    -0.352 N 
ATOM      4  C   UNL A   1      33.606  24.165  22.366  1.00  0.00     0.253 C 
ATOM      5  O   UNL A   1      33.465  23.498  21.335  1.00  0.00    -0.269 OA
ATOM      6  H   UNL A   1      35.185  23.049  22.624  1.00  0.00     0.163 HD
BRANCH   4   7
ATOM      7  C   UNL A   1      32.605  25.186  22.751  1.00  0.00     0.069 A 
ATOM      8  C   UNL A   1      29.249  26.226  24.144  1.00  0.00     0.065 C 
ATOM      9  C   UNL A   1      30.634  26.025  23.621  1.00  0.00     0.025 A 
ATOM     10  C   UNL A   1      31.288  24.841  23.293  1.00  0.00     0.040 A 
ATOM     11  N   UNL A   1      31.537  27.049  23.413  1.00  0.00    -0.343 N 
ATOM     12  C   UNL A   1      32.531  26.571  22.563  1.00  0.00     0.028 A 
ATOM     13  C   UNL A   1      33.226  27.476  21.607  1.00  0.00     0.065 C 
BRANCH  10  14
ATOM     14  C   UNL A   1      30.724  23.453  23.501  1.00  0.00     0.300 C 
BRANCH  14  15
ATOM     15  N   UNL A   1      31.802  22.460  23.552  1.00  0.00    -0.336 N 
ATOM     16  H   UNL A   1      32.690  22.947  23.674  1.00  0.00     0.347 HD
ATOM     17  H   UNL A   1      31.780  21.935  22.678  1.00  0.00     0.347 HD
BRANCH  15  18
ATOM     18  C   UNL A   1      31.633  21.498  24.659  1.00  0.00     0.214 C 
ATOM     19  C   UNL A   1      31.895  22.204  26.006  1.00  0.00     0.070 C 
ATOM     20  C   UNL A   1      32.540  20.281  24.503  1.00  0.00     0.012 A 
ATOM     21  C   UNL A   1      33.379  22.452  26.253  1.00  0.00     0.011 C 
ATOM     22  C   UNL A   1      33.761  20.169  25.198  1.00  0.00    -0.039 A 
ATOM     23  C   UNL A   1      32.169  19.250  23.623  1.00  0.00     0.010 A 
ATOM     24  C   UNL A   1      34.146  21.136  26.292  1.00  0.00     0.036 C 
ATOM     25  C   UNL A   1      34.601  19.070  24.952  1.00  0.00     0.004 A 
ATOM     26  C   UNL A   1      33.016  18.171  23.376  1.00  0.00     0.001 A 
ATOM     27  C   UNL A   1      34.240  18.088  24.030  1.00  0.00     0.000 A 
ENDBRANCH  15  18
ENDBRANCH  14  15
ENDBRANCH  10  14
BRANCH  11  28
ATOM     28  C   UNL A   1      31.345  28.443  23.841  1.00  0.00     0.157 C 
BRANCH  28  29
ATOM     29  C   UNL A   1      32.185  28.865  25.033  1.00  0.00    -0.027 A 
ATOM     30  C   UNL A   1      33.054  27.950  25.655  1.00  0.00     0.005 A 
ATOM     31  C   UNL A   1      32.047  30.131  25.620  1.00  0.00     0.026 A 
ATOM     32  C   UNL A   1      33.749  28.292  26.822  1.00  0.00     0.002 A 
ATOM     33  C   UNL A   1      32.738  30.470  26.785  1.00  0.00     0.041 A 
ATOM     34  C   UNL A   1      33.587  29.554  27.391  1.00  0.00     0.020 A 
ATOM     35  Cl  UNL A   1      32.511  32.025  27.483  1.00  0.00    -0.084 Cl
ENDBRANCH  28  29
ENDBRANCH  11  28
ENDBRANCH   4   7
ENDBRANCH   2   3
ENDBRANCH   1   2
BRANCH   1  36
ATOM     36  C   UNL A   1      37.484  23.890  25.809  1.00  0.00     0.118 C 
BRANCH  36  37
ATOM     37  N   UNL A   1      38.485  22.918  26.208  1.00  0.00    -0.352 N 
ATOM     38  C   UNL A   1      39.583  23.083  27.030  1.00  0.00     0.251 C 
ATOM     39  H   UNL A   1      38.365  22.013  25.841  1.00  0.00     0.163 HD
ATOM     40  O   UNL A   1      40.311  22.109  27.203  1.00  0.00    -0.269 OA
BRANCH  38  41
ATOM     41  C   UNL A   1      39.963  24.414  27.607  1.00  0.00     0.039 A 
ATOM     42  C   UNL A   1      39.288  24.825  28.742  1.00  0.00     0.014 A 
ATOM     43  C   UNL A   1      40.782  25.362  26.967  1.00  0.00     0.014 A 
ATOM     44  C   UNL A   1      39.468  26.137  29.240  1.00  0.00     0.010 A 
ATOM     45  C   UNL A   1      40.889  26.732  27.433  1.00  0.00     0.010 A 
ATOM     46  C   UNL A   1      40.209  27.178  28.577  1.00  0.00    -0.014 A 
BRANCH  46  47
ATOM     47  C   UNL A   1      39.778  28.657  28.941  1.00  0.00     0.031 A 
ATOM     48  C   UNL A   1      41.070  29.351  29.223  1.00  0.00     0.074 A 
ATOM     49  C   UNL A   1      38.670  29.453  29.180  1.00  0.00     0.049 A 
ATOM     50  N   UNL A   1      41.898  28.868  30.107  1.00  0.00    -0.248 NA
ATOM     51  C   UNL A   1      41.655  30.323  28.297  1.00  0.00     0.031 C 
ATOM     52  C   UNL A   1      37.258  29.054  29.247  1.00  0.00     0.029 A 
ATOM     53  N   UNL A   1      38.548  30.852  29.421  1.00  0.00    -0.354 N 
ATOM     54  C   UNL A   1      43.010  29.669  30.056  1.00  0.00     0.074 A 
ATOM     55  C   UNL A   1      42.896  30.376  28.788  1.00  0.00     0.031 C 
ATOM     56  C   UNL A   1      36.441  30.141  29.361  1.00  0.00     0.029 A 
ATOM     57  C   UNL A   1      37.216  31.379  29.431  1.00  0.00     0.049 A 
ATOM     58  H   UNL A   1      39.335  31.425  29.570  1.00  0.00     0.167 HD
ATOM     59  C   UNL A   1      43.479  30.146  31.244  1.00  0.00     0.034 A 
ATOM     60  C   UNL A   1      36.755  32.683  29.542  1.00  0.00     0.034 A 
ATOM     61  C   UNL A   1      43.151  31.536  31.417  1.00  0.00     0.049 A 
ATOM     62  C   UNL A   1      37.798  33.456  30.220  1.00  0.00     0.074 A 
ATOM     63  C   UNL A   1      43.312  32.651  30.620  1.00  0.00     0.029 A 
ATOM     64  N   UNL A   1      42.152  31.834  32.320  1.00  0.00    -0.354 N 
ATOM     65  N   UNL A   1      37.962  33.381  31.503  1.00  0.00    -0.248 NA
ATOM     66  C   UNL A   1      38.656  34.415  29.535  1.00  0.00     0.031 C 
ATOM     67  C   UNL A   1      42.121  33.401  30.782  1.00  0.00     0.029 A 
ATOM     68  C   UNL A   1      41.402  32.902  31.863  1.00  0.00     0.049 A 
ATOM     69  H   UNL A   1      41.995  31.356  33.166  1.00  0.00     0.167 HD
ATOM     70  C   UNL A   1      39.217  33.862  31.695  1.00  0.00     0.074 A 
ATOM     71  C   UNL A   1      39.466  34.718  30.552  1.00  0.00     0.031 C 
ATOM     72  C   UNL A   1      40.072  33.097  32.421  1.00  0.00     0.034 A 
BRANCH  59  73
ATOM     73  C   UNL A   1      43.498  29.113  32.338  1.00  0.00     0.023 A 
ATOM     74  C   UNL A   1      42.917  29.418  33.577  1.00  0.00     0.031 A 
ATOM     75  C   UNL A   1      44.236  27.916  32.234  1.00  0.00     0.131 A 
ATOM     76  C   UNL A   1      43.133  28.570  34.678  1.00  0.00     0.055 A 
ATOM     77  C   UNL A   1      44.496  27.107  33.340  1.00  0.00     0.041 A 
ATOM     78  F   UNL A   1      44.742  27.528  31.051  1.00  0.00    -0.206 F 
ATOM     79  C   UNL A   1      43.952  27.440  34.576  1.00  0.00     0.022 A 
BRANCH  76  80
ATOM     80  S   UNL A   1      42.310  28.953  36.248  1.00  0.00     0.124 S 
ATOM     81  O   UNL A   1      42.044  30.384  36.132  1.00  0.00    -0.237 OA
ATOM     82  O   UNL A   1      41.132  28.092  36.196  1.00  0.00    -0.237 OA
ATOM     83  O   UNL A   1      43.297  28.583  37.261  1.00  0.00    -0.744 OA
ENDBRANCH  76  80
ENDBRANCH  59  73
BRANCH  60  84
ATOM     84  C   UNL A   1      35.482  33.529  29.369  1.00  0.00     0.023 A 
ATOM     85  C   UNL A   1      34.736  33.996  30.516  1.00  0.00     0.031 A 
ATOM     86  C   UNL A   1      35.142  34.144  28.161  1.00  0.00     0.131 A 
ATOM     87  C   UNL A   1      33.789  35.048  30.442  1.00  0.00     0.055 A 
ATOM     88  C   UNL A   1      34.173  35.172  28.083  1.00  0.00     0.041 A 
ATOM     89  F   UNL A   1      35.800  33.837  27.034  1.00  0.00    -0.206 F 
ATOM     90  C   UNL A   1      33.513  35.643  29.220  1.00  0.00     0.022 A 
BRANCH  87  91
ATOM     91  S   UNL A   1      33.078  35.809  31.959  1.00  0.00     0.124 S 
ATOM     92  O   UNL A   1      32.184  36.830  31.422  1.00  0.00    -0.237 OA
ATOM     93  O   UNL A   1      32.445  34.680  32.631  1.00  0.00    -0.237 OA
ATOM     94  O   UNL A   1      34.257  36.333  32.652  1.00  0.00    -0.744 OA
ENDBRANCH  87  91
ENDBRANCH  60  84
BRANCH  72  95
ATOM     95  C   UNL A   1      39.494  32.345  33.638  1.00  0.00     0.023 A 
ATOM     96  C   UNL A   1      39.308  32.870  34.948  1.00  0.00     0.031 A 
ATOM     97  C   UNL A   1      39.191  30.981  33.487  1.00  0.00     0.131 A 
ATOM     98  C   UNL A   1      38.909  32.054  36.025  1.00  0.00     0.055 A 
ATOM     99  C   UNL A   1      38.739  30.182  34.541  1.00  0.00     0.041 A 
ATOM    100  F   UNL A   1      39.348  30.378  32.297  1.00  0.00    -0.206 F 
ATOM    101  C   UNL A   1      38.617  30.709  35.822  1.00  0.00     0.022 A 
BRANCH  98 102
ATOM    102  S   UNL A   1      38.876  32.707  37.731  1.00  0.00     0.124 S 
ATOM    103  O   UNL A   1      38.405  34.087  37.551  1.00  0.00    -0.237 OA
ATOM    104  O   UNL A   1      37.931  31.807  38.398  1.00  0.00    -0.237 OA
ATOM    105  O   UNL A   1      40.250  32.593  38.173  1.00  0.00    -0.744 OA
ENDBRANCH  98 102
ENDBRANCH  72  95
ENDBRANCH  46  47
ENDBRANCH  38  41
ENDBRANCH  36  37
ENDBRANCH   1  36
TORSDOF 18
ENDMDL
