MODEL 1
REMARK VINA RESULT:     -11.8      0.000      0.000
REMARK SMILES COc1ccccc1NC(=O)N[C@@](C)(C(=O)NCCCNC(=O)c1ccc(-c2c3nc(c(-c4cc(S(=O)(=O)[O-])ccc4F)c4ccc([nH]4)c(-c4cc(S(=O)(=O)[O-])ccc4F)c4nc(c(-c5cc(S(=O)(=O)[O-])ccc5F)c5ccc2[nH]5)C=C4)C=C3)cc1)C(F)(F)F
REMARK SMILES IDX 19 1 18 2 17 3 15 4 16 5 13 7 14 8 12 9 9 10 10 11 11 13
REMARK SMILES IDX 8 15 3 16 4 17 5 18 7 19 6 20 2 21 1 22 87 23 88 24 89 25
REMARK SMILES IDX 90 26 20 27 21 28 22 29 23 31 24 32 25 33 86 34 26 35 85 36
REMARK SMILES IDX 27 37 28 38 29 39 79 40 30 41 84 42 78 43 80 44 31 45 83 46
REMARK SMILES IDX 77 47 76 48 32 50 64 51 44 52 63 53 45 54 48 55 62 56 81 57
REMARK SMILES IDX 46 58 47 59 61 61 82 62 49 63 33 64 34 65 42 66 35 67 41 68
REMARK SMILES IDX 43 69 40 70 36 71 37 72 38 73 39 74 65 75 66 76 74 77 67 78
REMARK SMILES IDX 73 79 75 80 72 81 68 82 69 83 70 84 71 85 50 86 51 87 59 88
REMARK SMILES IDX 52 89 58 90 60 91 57 92 53 93 54 94 55 95 56 96
REMARK H PARENT 17 6 9 12 12 14 21 30 80 49 48 60
REMARK Flexibility Score: inf
ROOT
ATOM      1  C   UNL A   1      35.050  21.370  24.984  1.00  0.00     0.042 C 
ENDROOT
BRANCH   1   2
ATOM      2  C   UNL A   1      34.470  22.179  23.825  1.00  0.00     0.117 C 
BRANCH   2   3
ATOM      3  N   UNL A   1      33.043  22.348  24.000  1.00  0.00    -0.354 N 
ATOM      4  C   UNL A   1      32.437  23.225  24.851  1.00  0.00     0.255 C 
ATOM      5  O   UNL A   1      31.728  22.695  25.708  1.00  0.00    -0.272 OA
ATOM      6  H   UNL A   1      32.456  21.779  23.452  1.00  0.00     0.163 HD
BRANCH   4   7
ATOM      7  C   UNL A   1      32.596  24.767  24.664  1.00  0.00     0.213 C 
ATOM      8  C   UNL A   1      31.216  25.378  24.981  1.00  0.00     0.056 C 
BRANCH   7   9
ATOM      9  N   UNL A   1      32.977  25.126  23.258  1.00  0.00    -0.316 N 
ATOM     10  N   UNL A   1      33.443  27.477  23.031  1.00  0.00    -0.305 N 
ATOM     11  C   UNL A   1      33.311  26.226  22.565  1.00  0.00     0.320 C 
ATOM     12  H   UNL A   1      34.061  28.005  22.475  1.00  0.00     0.172 HD
ATOM     13  O   UNL A   1      33.666  26.031  21.396  1.00  0.00    -0.248 OA
ATOM     14  H   UNL A   1      32.985  24.329  22.679  1.00  0.00     0.166 HD
BRANCH  10  15
ATOM     15  C   UNL A   1      32.935  28.233  24.098  1.00  0.00     0.085 A 
ATOM     16  C   UNL A   1      31.602  28.688  24.068  1.00  0.00     0.142 A 
ATOM     17  C   UNL A   1      31.201  29.711  24.938  1.00  0.00     0.048 A 
ATOM     18  C   UNL A   1      32.080  30.203  25.903  1.00  0.00     0.004 A 
ATOM     19  C   UNL A   1      33.731  28.595  25.181  1.00  0.00     0.030 A 
ATOM     20  C   UNL A   1      33.326  29.605  26.061  1.00  0.00     0.002 A 
BRANCH  16  21
ATOM     21  O   UNL A   1      30.695  28.367  23.091  1.00  0.00    -0.495 OA
ATOM     22  C   UNL A   1      29.886  29.460  22.664  1.00  0.00     0.278 C 
ENDBRANCH  16  21
ENDBRANCH  10  15
ENDBRANCH   7   9
BRANCH   7  23
ATOM     23  C   UNL A   1      33.675  25.047  25.749  1.00  0.00     0.420 C 
ATOM     24  F   UNL A   1      33.889  23.978  26.554  1.00  0.00    -0.168 F 
ATOM     25  F   UNL A   1      34.875  25.372  25.252  1.00  0.00    -0.168 F 
ATOM     26  F   UNL A   1      33.331  26.106  26.527  1.00  0.00    -0.168 F 
ENDBRANCH   7  23
ENDBRANCH   4   7
ENDBRANCH   2   3
ENDBRANCH   1   2
BRANCH   1  27
ATOM     27  C   UNL A   1      36.435  21.830  25.445  1.00  0.00     0.118 C 
BRANCH  27  28
ATOM     28  N   UNL A   1      37.407  20.744  25.508  1.00  0.00    -0.352 N 
ATOM     29  C   UNL A   1      38.742  20.787  25.837  1.00  0.00     0.251 C 
ATOM     30  H   UNL A   1      37.057  19.852  25.283  1.00  0.00     0.163 HD
ATOM     31  O   UNL A   1      39.446  19.805  25.669  1.00  0.00    -0.269 OA
BRANCH  29  32
ATOM     32  C   UNL A   1      39.304  22.050  26.355  1.00  0.00     0.039 A 
ATOM     33  C   UNL A   1      40.373  21.997  27.250  1.00  0.00     0.014 A 
ATOM     34  C   UNL A   1      38.811  23.275  25.901  1.00  0.00     0.014 A 
ATOM     35  C   UNL A   1      40.999  23.184  27.634  1.00  0.00     0.010 A 
ATOM     36  C   UNL A   1      39.499  24.442  26.204  1.00  0.00     0.010 A 
ATOM     37  C   UNL A   1      40.595  24.410  27.080  1.00  0.00    -0.014 A 
BRANCH  37  38
ATOM     38  C   UNL A   1      41.287  25.678  27.423  1.00  0.00     0.031 A 
ATOM     39  C   UNL A   1      40.561  26.728  28.219  1.00  0.00     0.074 A 
ATOM     40  C   UNL A   1      42.530  25.911  26.960  1.00  0.00     0.049 A 
ATOM     41  N   UNL A   1      40.944  27.936  28.543  1.00  0.00    -0.248 NA
ATOM     42  C   UNL A   1      39.204  26.386  28.672  1.00  0.00     0.031 C 
ATOM     43  C   UNL A   1      43.314  24.986  26.137  1.00  0.00     0.029 A 
ATOM     44  N   UNL A   1      43.353  26.999  27.107  1.00  0.00    -0.354 N 
ATOM     45  C   UNL A   1      39.869  28.501  29.223  1.00  0.00     0.074 A 
ATOM     46  C   UNL A   1      38.795  27.533  29.187  1.00  0.00     0.031 C 
ATOM     47  C   UNL A   1      44.513  25.533  25.879  1.00  0.00     0.029 A 
ATOM     48  C   UNL A   1      44.566  26.867  26.472  1.00  0.00     0.049 A 
ATOM     49  H   UNL A   1      43.099  27.800  27.620  1.00  0.00     0.167 HD
ATOM     50  C   UNL A   1      39.797  29.704  29.844  1.00  0.00     0.034 A 
ATOM     51  C   UNL A   1      45.598  27.727  26.367  1.00  0.00     0.034 A 
ATOM     52  C   UNL A   1      40.887  30.648  29.874  1.00  0.00     0.049 A 
ATOM     53  C   UNL A   1      45.491  29.069  27.044  1.00  0.00     0.074 A 
ATOM     54  C   UNL A   1      40.951  31.872  30.516  1.00  0.00     0.029 A 
ATOM     55  N   UNL A   1      42.104  30.477  29.224  1.00  0.00    -0.354 N 
ATOM     56  N   UNL A   1      44.489  29.570  27.731  1.00  0.00    -0.248 NA
ATOM     57  C   UNL A   1      46.656  29.955  26.944  1.00  0.00     0.031 C 
ATOM     58  C   UNL A   1      42.172  32.472  30.191  1.00  0.00     0.029 A 
ATOM     59  C   UNL A   1      42.910  31.588  29.421  1.00  0.00     0.049 A 
ATOM     60  H   UNL A   1      42.356  29.683  28.699  1.00  0.00     0.167 HD
ATOM     61  C   UNL A   1      44.918  30.820  28.170  1.00  0.00     0.074 A 
ATOM     62  C   UNL A   1      46.272  30.987  27.681  1.00  0.00     0.031 C 
ATOM     63  C   UNL A   1      44.255  31.744  28.914  1.00  0.00     0.034 A 
BRANCH  50  64
ATOM     64  C   UNL A   1      38.487  30.060  30.511  1.00  0.00     0.023 A 
ATOM     65  C   UNL A   1      37.477  30.763  29.828  1.00  0.00     0.031 A 
ATOM     66  C   UNL A   1      38.265  29.746  31.863  1.00  0.00     0.131 A 
ATOM     67  C   UNL A   1      36.344  31.215  30.521  1.00  0.00     0.055 A 
ATOM     68  C   UNL A   1      37.089  30.114  32.522  1.00  0.00     0.041 A 
ATOM     69  F   UNL A   1      39.197  29.096  32.577  1.00  0.00    -0.206 F 
ATOM     70  C   UNL A   1      36.129  30.872  31.856  1.00  0.00     0.022 A 
BRANCH  67  71
ATOM     71  S   UNL A   1      35.252  32.409  29.700  1.00  0.00     0.124 S 
ATOM     72  O   UNL A   1      34.512  31.548  28.780  1.00  0.00    -0.237 OA
ATOM     73  O   UNL A   1      34.489  32.957  30.815  1.00  0.00    -0.237 OA
ATOM     74  O   UNL A   1      36.180  33.340  29.061  1.00  0.00    -0.744 OA
ENDBRANCH  67  71
ENDBRANCH  50  64
BRANCH  51  75
ATOM     75  C   UNL A   1      46.814  27.351  25.590  1.00  0.00     0.023 A 
ATOM     76  C   UNL A   1      46.982  27.767  24.259  1.00  0.00     0.031 A 
ATOM     77  C   UNL A   1      47.820  26.553  26.162  1.00  0.00     0.131 A 
ATOM     78  C   UNL A   1      48.110  27.352  23.533  1.00  0.00     0.055 A 
ATOM     79  C   UNL A   1      48.966  26.185  25.453  1.00  0.00     0.041 A 
ATOM     80  F   UNL A   1      47.713  26.132  27.433  1.00  0.00    -0.206 F 
ATOM     81  C   UNL A   1      49.109  26.575  24.125  1.00  0.00     0.022 A 
BRANCH  78  82
ATOM     82  S   UNL A   1      48.220  27.781  21.774  1.00  0.00     0.124 S 
ATOM     83  O   UNL A   1      49.325  28.733  21.769  1.00  0.00    -0.237 OA
ATOM     84  O   UNL A   1      48.487  26.484  21.162  1.00  0.00    -0.237 OA
ATOM     85  O   UNL A   1      46.905  28.347  21.479  1.00  0.00    -0.744 OA
ENDBRANCH  78  82
ENDBRANCH  51  75
BRANCH  63  86
ATOM     86  C   UNL A   1      45.011  32.998  29.284  1.00  0.00     0.023 A 
ATOM     87  C   UNL A   1      44.968  34.154  28.488  1.00  0.00     0.031 A 
ATOM     88  C   UNL A   1      45.788  33.030  30.457  1.00  0.00     0.131 A 
ATOM     89  C   UNL A   1      45.732  35.276  28.843  1.00  0.00     0.055 A 
ATOM     90  C   UNL A   1      46.492  34.172  30.841  1.00  0.00     0.041 A 
ATOM     91  F   UNL A   1      45.869  31.953  31.255  1.00  0.00    -0.206 F 
ATOM     92  C   UNL A   1      46.478  35.299  30.025  1.00  0.00     0.022 A 
BRANCH  89  93
ATOM     93  S   UNL A   1      45.820  36.672  27.690  1.00  0.00     0.124 S 
ATOM     94  O   UNL A   1      46.050  37.797  28.592  1.00  0.00    -0.237 OA
ATOM     95  O   UNL A   1      46.944  36.301  26.835  1.00  0.00    -0.237 OA
ATOM     96  O   UNL A   1      44.513  36.660  27.035  1.00  0.00    -0.744 OA
ENDBRANCH  89  93
ENDBRANCH  63  86
ENDBRANCH  37  38
ENDBRANCH  29  32
ENDBRANCH  27  28
ENDBRANCH   1  27
TORSDOF 17
ENDMDL
MODEL 2
REMARK VINA RESULT:     -11.8      5.354     10.535
REMARK SMILES COc1ccccc1NC(=O)N[C@@](C)(C(=O)NCCCNC(=O)c1ccc(-c2c3nc(c(-c4cc(S(=O)(=O)[O-])ccc4F)c4ccc([nH]4)c(-c4cc(S(=O)(=O)[O-])ccc4F)c4nc(c(-c5cc(S(=O)(=O)[O-])ccc5F)c5ccc2[nH]5)C=C4)C=C3)cc1)C(F)(F)F
REMARK SMILES IDX 19 1 18 2 17 3 15 4 16 5 13 7 14 8 12 9 9 10 10 11 11 13
REMARK SMILES IDX 8 15 3 16 4 17 5 18 7 19 6 20 2 21 1 22 87 23 88 24 89 25
REMARK SMILES IDX 90 26 20 27 21 28 22 29 23 31 24 32 25 33 86 34 26 35 85 36
REMARK SMILES IDX 27 37 28 38 29 39 79 40 30 41 84 42 78 43 80 44 31 45 83 46
REMARK SMILES IDX 77 47 76 48 32 50 64 51 44 52 63 53 45 54 48 55 62 56 81 57
REMARK SMILES IDX 46 58 47 59 61 61 82 62 49 63 33 64 34 65 42 66 35 67 41 68
REMARK SMILES IDX 43 69 40 70 36 71 37 72 38 73 39 74 65 75 66 76 74 77 67 78
REMARK SMILES IDX 73 79 75 80 72 81 68 82 69 83 70 84 71 85 50 86 51 87 59 88
REMARK SMILES IDX 52 89 58 90 60 91 57 92 53 93 54 94 55 95 56 96
REMARK H PARENT 17 6 9 12 12 14 21 30 80 49 48 60
REMARK Flexibility Score: inf
ROOT
ATOM      1  C   UNL A   1      31.094  31.936  26.499  1.00  0.00     0.042 C 
ENDROOT
BRANCH   1   2
ATOM      2  C   UNL A   1      31.118  30.690  25.616  1.00  0.00     0.117 C 
BRANCH   2   3
ATOM      3  N   UNL A   1      32.474  30.205  25.473  1.00  0.00    -0.354 N 
ATOM      4  C   UNL A   1      32.908  28.942  25.749  1.00  0.00     0.255 C 
ATOM      5  O   UNL A   1      33.769  28.880  26.628  1.00  0.00    -0.272 OA
ATOM      6  H   UNL A   1      33.145  30.847  25.144  1.00  0.00     0.163 HD
BRANCH   4   7
ATOM      7  C   UNL A   1      32.385  27.717  24.935  1.00  0.00     0.213 C 
ATOM      8  C   UNL A   1      33.639  26.969  24.440  1.00  0.00     0.056 C 
BRANCH   7   9
ATOM      9  N   UNL A   1      31.568  28.137  23.749  1.00  0.00    -0.316 N 
ATOM     10  N   UNL A   1      30.857  26.248  22.438  1.00  0.00    -0.305 N 
ATOM     11  C   UNL A   1      30.948  27.558  22.709  1.00  0.00     0.320 C 
ATOM     12  H   UNL A   1      30.058  26.046  21.900  1.00  0.00     0.172 HD
ATOM     13  O   UNL A   1      30.274  28.317  22.001  1.00  0.00    -0.248 OA
ATOM     14  H   UNL A   1      31.454  29.116  23.727  1.00  0.00     0.166 HD
BRANCH  10  15
ATOM     15  C   UNL A   1      31.597  25.089  22.716  1.00  0.00     0.085 A 
ATOM     16  C   UNL A   1      32.749  24.790  21.961  1.00  0.00     0.142 A 
ATOM     17  C   UNL A   1      33.281  23.493  21.996  1.00  0.00     0.048 A 
ATOM     18  C   UNL A   1      32.745  22.532  22.853  1.00  0.00     0.004 A 
ATOM     19  C   UNL A   1      31.199  24.186  23.697  1.00  0.00     0.030 A 
ATOM     20  C   UNL A   1      31.740  22.896  23.744  1.00  0.00     0.002 A 
BRANCH  16  21
ATOM     21  O   UNL A   1      33.282  25.611  21.002  1.00  0.00    -0.495 OA
ATOM     22  C   UNL A   1      32.632  25.529  19.735  1.00  0.00     0.278 C 
ENDBRANCH  16  21
ENDBRANCH  10  15
ENDBRANCH   7   9
BRANCH   7  23
ATOM     23  C   UNL A   1      31.610  26.974  26.060  1.00  0.00     0.420 C 
ATOM     24  F   UNL A   1      31.385  27.761  27.140  1.00  0.00    -0.168 F 
ATOM     25  F   UNL A   1      30.406  26.522  25.685  1.00  0.00    -0.168 F 
ATOM     26  F   UNL A   1      32.277  25.864  26.471  1.00  0.00    -0.168 F 
ENDBRANCH   7  23
ENDBRANCH   4   7
ENDBRANCH   2   3
ENDBRANCH   1   2
BRANCH   1  27
ATOM     27  C   UNL A   1      32.477  32.438  26.921  1.00  0.00     0.118 C 
BRANCH  27  28
ATOM     28  N   UNL A   1      32.458  33.803  27.435  1.00  0.00    -0.352 N 
ATOM     29  C   UNL A   1      33.267  34.390  28.380  1.00  0.00     0.251 C 
ATOM     30  H   UNL A   1      31.766  34.389  27.050  1.00  0.00     0.163 HD
ATOM     31  O   UNL A   1      32.995  35.497  28.816  1.00  0.00    -0.269 OA
BRANCH  29  32
ATOM     32  C   UNL A   1      34.435  33.639  28.878  1.00  0.00     0.039 A 
ATOM     33  C   UNL A   1      35.715  34.131  28.622  1.00  0.00     0.014 A 
ATOM     34  C   UNL A   1      34.253  32.489  29.649  1.00  0.00     0.014 A 
ATOM     35  C   UNL A   1      36.816  33.505  29.207  1.00  0.00     0.010 A 
ATOM     36  C   UNL A   1      35.338  31.932  30.311  1.00  0.00     0.010 A 
ATOM     37  C   UNL A   1      36.633  32.428  30.090  1.00  0.00    -0.014 A 
BRANCH  37  38
ATOM     38  C   UNL A   1      37.782  31.786  30.776  1.00  0.00     0.031 A 
ATOM     39  C   UNL A   1      38.588  30.741  30.054  1.00  0.00     0.074 A 
ATOM     40  C   UNL A   1      38.052  32.088  32.061  1.00  0.00     0.049 A 
ATOM     41  N   UNL A   1      39.566  29.994  30.497  1.00  0.00    -0.248 NA
ATOM     42  C   UNL A   1      38.213  30.472  28.658  1.00  0.00     0.031 C 
ATOM     43  C   UNL A   1      37.307  33.050  32.879  1.00  0.00     0.029 A 
ATOM     44  N   UNL A   1      39.020  31.615  32.910  1.00  0.00    -0.354 N 
ATOM     45  C   UNL A   1      39.909  29.157  29.440  1.00  0.00     0.074 A 
ATOM     46  C   UNL A   1      38.978  29.434  28.368  1.00  0.00     0.031 C 
ATOM     47  C   UNL A   1      37.865  33.116  34.098  1.00  0.00     0.029 A 
ATOM     48  C   UNL A   1      38.972  32.167  34.169  1.00  0.00     0.049 A 
ATOM     49  H   UNL A   1      39.687  30.941  32.643  1.00  0.00     0.167 HD
ATOM     50  C   UNL A   1      40.925  28.263  29.362  1.00  0.00     0.034 A 
ATOM     51  C   UNL A   1      39.725  31.926  35.261  1.00  0.00     0.034 A 
ATOM     52  C   UNL A   1      41.846  28.013  30.442  1.00  0.00     0.049 A 
ATOM     53  C   UNL A   1      40.835  30.911  35.162  1.00  0.00     0.074 A 
ATOM     54  C   UNL A   1      42.945  27.172  30.462  1.00  0.00     0.029 A 
ATOM     55  N   UNL A   1      41.770  28.595  31.702  1.00  0.00    -0.354 N 
ATOM     56  N   UNL A   1      41.184  30.165  34.138  1.00  0.00    -0.248 NA
ATOM     57  C   UNL A   1      41.659  30.715  36.360  1.00  0.00     0.031 C 
ATOM     58  C   UNL A   1      43.485  27.188  31.753  1.00  0.00     0.029 A 
ATOM     59  C   UNL A   1      42.781  28.107  32.516  1.00  0.00     0.049 A 
ATOM     60  H   UNL A   1      41.096  29.258  31.977  1.00  0.00     0.167 HD
ATOM     61  C   UNL A   1      42.290  29.433  34.562  1.00  0.00     0.074 A 
ATOM     62  C   UNL A   1      42.555  29.839  35.928  1.00  0.00     0.031 C 
ATOM     63  C   UNL A   1      43.023  28.513  33.882  1.00  0.00     0.034 A 
BRANCH  50  64
ATOM     64  C   UNL A   1      41.062  27.483  28.073  1.00  0.00     0.023 A 
ATOM     65  C   UNL A   1      40.669  26.134  27.980  1.00  0.00     0.031 A 
ATOM     66  C   UNL A   1      41.644  28.074  26.938  1.00  0.00     0.131 A 
ATOM     67  C   UNL A   1      40.956  25.398  26.821  1.00  0.00     0.055 A 
ATOM     68  C   UNL A   1      41.837  27.360  25.753  1.00  0.00     0.041 A 
ATOM     69  F   UNL A   1      42.060  29.349  26.968  1.00  0.00    -0.206 F 
ATOM     70  C   UNL A   1      41.511  26.008  25.696  1.00  0.00     0.022 A 
BRANCH  67  71
ATOM     71  S   UNL A   1      40.759  23.595  26.876  1.00  0.00     0.124 S 
ATOM     72  O   UNL A   1      39.347  23.441  26.531  1.00  0.00    -0.237 OA
ATOM     73  O   UNL A   1      41.714  23.143  25.872  1.00  0.00    -0.237 OA
ATOM     74  O   UNL A   1      41.096  23.255  28.257  1.00  0.00    -0.744 OA
ENDBRANCH  67  71
ENDBRANCH  50  64
BRANCH  51  75
ATOM     75  C   UNL A   1      39.454  32.650  36.536  1.00  0.00     0.023 A 
ATOM     76  C   UNL A   1      38.631  32.091  37.527  1.00  0.00     0.031 A 
ATOM     77  C   UNL A   1      40.001  33.923  36.775  1.00  0.00     0.131 A 
ATOM     78  C   UNL A   1      38.347  32.819  38.693  1.00  0.00     0.055 A 
ATOM     79  C   UNL A   1      39.758  34.621  37.960  1.00  0.00     0.041 A 
ATOM     80  F   UNL A   1      40.800  34.501  35.864  1.00  0.00    -0.206 F 
ATOM     81  C   UNL A   1      38.916  34.074  38.922  1.00  0.00     0.022 A 
BRANCH  78  82
ATOM     82  S   UNL A   1      37.160  32.132  39.881  1.00  0.00     0.124 S 
ATOM     83  O   UNL A   1      36.287  31.352  39.011  1.00  0.00    -0.237 OA
ATOM     84  O   UNL A   1      38.030  31.369  40.770  1.00  0.00    -0.237 OA
ATOM     85  O   UNL A   1      36.551  33.319  40.478  1.00  0.00    -0.744 OA
ENDBRANCH  78  82
ENDBRANCH  51  75
BRANCH  63  86
ATOM     86  C   UNL A   1      44.214  27.920  34.597  1.00  0.00     0.023 A 
ATOM     87  C   UNL A   1      44.144  26.685  35.261  1.00  0.00     0.031 A 
ATOM     88  C   UNL A   1      45.441  28.610  34.611  1.00  0.00     0.131 A 
ATOM     89  C   UNL A   1      45.261  26.202  35.960  1.00  0.00     0.055 A 
ATOM     90  C   UNL A   1      46.568  28.094  35.250  1.00  0.00     0.041 A 
ATOM     91  F   UNL A   1      45.565  29.798  33.996  1.00  0.00    -0.206 F 
ATOM     92  C   UNL A   1      46.479  26.889  35.941  1.00  0.00     0.022 A 
BRANCH  89  93
ATOM     93  S   UNL A   1      45.077  24.713  36.977  1.00  0.00     0.124 S 
ATOM     94  O   UNL A   1      44.150  23.914  36.180  1.00  0.00    -0.237 OA
ATOM     95  O   UNL A   1      46.447  24.214  37.053  1.00  0.00    -0.237 OA
ATOM     96  O   UNL A   1      44.532  25.221  38.235  1.00  0.00    -0.744 OA
ENDBRANCH  89  93
ENDBRANCH  63  86
ENDBRANCH  37  38
ENDBRANCH  29  32
ENDBRANCH  27  28
ENDBRANCH   1  27
TORSDOF 17
ENDMDL
MODEL 3
REMARK VINA RESULT:     -11.7      0.657      7.487
REMARK SMILES COc1ccccc1NC(=O)N[C@@](C)(C(=O)NCCCNC(=O)c1ccc(-c2c3nc(c(-c4cc(S(=O)(=O)[O-])ccc4F)c4ccc([nH]4)c(-c4cc(S(=O)(=O)[O-])ccc4F)c4nc(c(-c5cc(S(=O)(=O)[O-])ccc5F)c5ccc2[nH]5)C=C4)C=C3)cc1)C(F)(F)F
REMARK SMILES IDX 19 1 18 2 17 3 15 4 16 5 13 7 14 8 12 9 9 10 10 11 11 13
REMARK SMILES IDX 8 15 3 16 4 17 5 18 7 19 6 20 2 21 1 22 87 23 88 24 89 25
REMARK SMILES IDX 90 26 20 27 21 28 22 29 23 31 24 32 25 33 86 34 26 35 85 36
REMARK SMILES IDX 27 37 28 38 29 39 79 40 30 41 84 42 78 43 80 44 31 45 83 46
REMARK SMILES IDX 77 47 76 48 32 50 64 51 44 52 63 53 45 54 48 55 62 56 81 57
REMARK SMILES IDX 46 58 47 59 61 61 82 62 49 63 33 64 34 65 42 66 35 67 41 68
REMARK SMILES IDX 43 69 40 70 36 71 37 72 38 73 39 74 65 75 66 76 74 77 67 78
REMARK SMILES IDX 73 79 75 80 72 81 68 82 69 83 70 84 71 85 50 86 51 87 59 88
REMARK SMILES IDX 52 89 58 90 60 91 57 92 53 93 54 94 55 95 56 96
REMARK H PARENT 17 6 9 12 12 14 21 30 80 49 48 60
REMARK Flexibility Score: inf
ROOT
ATOM      1  C   UNL A   1      35.552  21.467  25.187  1.00  0.00     0.042 C 
ENDROOT
BRANCH   1   2
ATOM      2  C   UNL A   1      34.817  21.937  23.933  1.00  0.00     0.117 C 
BRANCH   2   3
ATOM      3  N   UNL A   1      33.395  22.019  24.189  1.00  0.00    -0.354 N 
ATOM      4  C   UNL A   1      32.777  22.921  25.005  1.00  0.00     0.255 C 
ATOM      5  O   UNL A   1      32.165  22.417  25.948  1.00  0.00    -0.272 OA
ATOM      6  H   UNL A   1      32.820  21.364  23.730  1.00  0.00     0.163 HD
BRANCH   4   7
ATOM      7  C   UNL A   1      32.806  24.448  24.683  1.00  0.00     0.213 C 
ATOM      8  C   UNL A   1      31.395  24.977  25.007  1.00  0.00     0.056 C 
BRANCH   7   9
ATOM      9  N   UNL A   1      33.107  24.712  23.237  1.00  0.00    -0.316 N 
ATOM     10  N   UNL A   1      33.368  27.063  22.793  1.00  0.00    -0.305 N 
ATOM     11  C   UNL A   1      33.324  25.769  22.440  1.00  0.00     0.320 C 
ATOM     12  H   UNL A   1      33.921  27.588  22.169  1.00  0.00     0.172 HD
ATOM     13  O   UNL A   1      33.653  25.502  21.278  1.00  0.00    -0.248 OA
ATOM     14  H   UNL A   1      33.160  23.870  22.728  1.00  0.00     0.166 HD
BRANCH  10  15
ATOM     15  C   UNL A   1      32.838  27.867  23.813  1.00  0.00     0.085 A 
ATOM     16  C   UNL A   1      31.475  28.224  23.792  1.00  0.00     0.142 A 
ATOM     17  C   UNL A   1      31.027  29.285  24.591  1.00  0.00     0.048 A 
ATOM     18  C   UNL A   1      31.895  29.914  25.484  1.00  0.00     0.004 A 
ATOM     19  C   UNL A   1      33.636  28.370  24.836  1.00  0.00     0.030 A 
ATOM     20  C   UNL A   1      33.184  29.419  25.646  1.00  0.00     0.002 A 
BRANCH  16  21
ATOM     21  O   UNL A   1      30.566  27.762  22.876  1.00  0.00    -0.495 OA
ATOM     22  C   UNL A   1      29.223  28.165  23.131  1.00  0.00     0.278 C 
ENDBRANCH  16  21
ENDBRANCH  10  15
ENDBRANCH   7   9
BRANCH   7  23
ATOM     23  C   UNL A   1      33.899  24.901  25.694  1.00  0.00     0.420 C 
ATOM     24  F   UNL A   1      35.083  25.164  25.092  1.00  0.00    -0.168 F 
ATOM     25  F   UNL A   1      33.584  26.011  26.374  1.00  0.00    -0.168 F 
ATOM     26  F   UNL A   1      34.106  23.962  26.653  1.00  0.00    -0.168 F 
ENDBRANCH   7  23
ENDBRANCH   4   7
ENDBRANCH   2   3
ENDBRANCH   1   2
BRANCH   1  27
ATOM     27  C   UNL A   1      36.977  22.010  25.324  1.00  0.00     0.118 C 
BRANCH  27  28
ATOM     28  N   UNL A   1      37.958  20.971  25.616  1.00  0.00    -0.352 N 
ATOM     29  C   UNL A   1      39.232  21.093  26.120  1.00  0.00     0.251 C 
ATOM     30  H   UNL A   1      37.667  20.050  25.424  1.00  0.00     0.163 HD
ATOM     31  O   UNL A   1      39.979  20.128  26.137  1.00  0.00    -0.269 OA
BRANCH  29  32
ATOM     32  C   UNL A   1      39.683  22.415  26.596  1.00  0.00     0.039 A 
ATOM     33  C   UNL A   1      40.782  22.486  27.452  1.00  0.00     0.014 A 
ATOM     34  C   UNL A   1      39.054  23.576  26.142  1.00  0.00     0.014 A 
ATOM     35  C   UNL A   1      41.299  23.737  27.794  1.00  0.00     0.010 A 
ATOM     36  C   UNL A   1      39.632  24.811  26.400  1.00  0.00     0.010 A 
ATOM     37  C   UNL A   1      40.755  24.906  27.236  1.00  0.00    -0.014 A 
BRANCH  37  38
ATOM     38  C   UNL A   1      41.328  26.243  27.533  1.00  0.00     0.031 A 
ATOM     39  C   UNL A   1      42.721  26.573  27.071  1.00  0.00     0.074 A 
ATOM     40  C   UNL A   1      40.628  27.124  28.274  1.00  0.00     0.049 A 
ATOM     41  N   UNL A   1      43.441  27.640  27.303  1.00  0.00    -0.248 NA
ATOM     42  C   UNL A   1      43.409  25.545  26.276  1.00  0.00     0.031 C 
ATOM     43  C   UNL A   1      39.287  26.894  28.819  1.00  0.00     0.029 A 
ATOM     44  N   UNL A   1      40.946  28.387  28.705  1.00  0.00    -0.354 N 
ATOM     45  C   UNL A   1      44.671  27.402  26.698  1.00  0.00     0.074 A 
ATOM     46  C   UNL A   1      44.622  26.058  26.165  1.00  0.00     0.031 C 
ATOM     47  C   UNL A   1      38.888  27.991  29.484  1.00  0.00     0.029 A 
ATOM     48  C   UNL A   1      39.961  28.981  29.459  1.00  0.00     0.049 A 
ATOM     49  H   UNL A   1      41.802  28.827  28.494  1.00  0.00     0.167 HD
ATOM     50  C   UNL A   1      45.731  28.238  26.575  1.00  0.00     0.034 A 
ATOM     51  C   UNL A   1      39.930  30.180  30.072  1.00  0.00     0.034 A 
ATOM     52  C   UNL A   1      45.751  29.578  27.107  1.00  0.00     0.049 A 
ATOM     53  C   UNL A   1      41.127  31.088  29.943  1.00  0.00     0.074 A 
ATOM     54  C   UNL A   1      46.744  30.535  26.998  1.00  0.00     0.029 A 
ATOM     55  N   UNL A   1      44.732  30.148  27.861  1.00  0.00    -0.354 N 
ATOM     56  N   UNL A   1      42.265  30.872  29.321  1.00  0.00    -0.248 NA
ATOM     57  C   UNL A   1      41.032  32.403  30.586  1.00  0.00     0.031 C 
ATOM     58  C   UNL A   1      46.359  31.652  27.749  1.00  0.00     0.029 A 
ATOM     59  C   UNL A   1      45.087  31.430  28.252  1.00  0.00     0.049 A 
ATOM     60  H   UNL A   1      43.881  29.705  28.086  1.00  0.00     0.167 HD
ATOM     61  C   UNL A   1      43.008  32.039  29.474  1.00  0.00     0.074 A 
ATOM     62  C   UNL A   1      42.183  32.957  30.234  1.00  0.00     0.031 C 
ATOM     63  C   UNL A   1      44.257  32.328  29.022  1.00  0.00     0.034 A 
BRANCH  50  64
ATOM     64  C   UNL A   1      46.952  27.705  25.858  1.00  0.00     0.023 A 
ATOM     65  C   UNL A   1      47.242  28.060  24.528  1.00  0.00     0.031 A 
ATOM     66  C   UNL A   1      47.808  26.786  26.491  1.00  0.00     0.131 A 
ATOM     67  C   UNL A   1      48.290  27.426  23.844  1.00  0.00     0.055 A 
ATOM     68  C   UNL A   1      48.910  26.233  25.834  1.00  0.00     0.041 A 
ATOM     69  F   UNL A   1      47.575  26.390  27.751  1.00  0.00    -0.206 F 
ATOM     70  C   UNL A   1      49.144  26.536  24.496  1.00  0.00     0.022 A 
BRANCH  67  71
ATOM     71  S   UNL A   1      48.404  27.647  22.046  1.00  0.00     0.124 S 
ATOM     72  O   UNL A   1      49.524  28.579  21.934  1.00  0.00    -0.237 OA
ATOM     73  O   UNL A   1      48.654  26.290  21.577  1.00  0.00    -0.237 OA
ATOM     74  O   UNL A   1      47.101  28.204  21.687  1.00  0.00    -0.744 OA
ENDBRANCH  67  71
ENDBRANCH  50  64
BRANCH  51  75
ATOM     75  C   UNL A   1      38.735  30.591  30.863  1.00  0.00     0.023 A 
ATOM     76  C   UNL A   1      37.658  31.258  30.257  1.00  0.00     0.031 A 
ATOM     77  C   UNL A   1      38.660  30.337  32.244  1.00  0.00     0.131 A 
ATOM     78  C   UNL A   1      36.570  31.683  31.036  1.00  0.00     0.055 A 
ATOM     79  C   UNL A   1      37.552  30.716  33.006  1.00  0.00     0.041 A 
ATOM     80  F   UNL A   1      39.659  29.697  32.872  1.00  0.00    -0.206 F 
ATOM     81  C   UNL A   1      36.504  31.404  32.404  1.00  0.00     0.022 A 
BRANCH  78  82
ATOM     82  S   UNL A   1      35.270  32.674  30.250  1.00  0.00     0.124 S 
ATOM     83  O   UNL A   1      34.785  31.763  29.219  1.00  0.00    -0.237 OA
ATOM     84  O   UNL A   1      34.363  32.923  31.365  1.00  0.00    -0.237 OA
ATOM     85  O   UNL A   1      35.987  33.849  29.759  1.00  0.00    -0.744 OA
ENDBRANCH  78  82
ENDBRANCH  51  75
BRANCH  63  86
ATOM     86  C   UNL A   1      44.783  33.716  29.301  1.00  0.00     0.023 A 
ATOM     87  C   UNL A   1      44.511  34.799  28.449  1.00  0.00     0.031 A 
ATOM     88  C   UNL A   1      45.571  33.953  30.442  1.00  0.00     0.131 A 
ATOM     89  C   UNL A   1      45.070  36.058  28.719  1.00  0.00     0.055 A 
ATOM     90  C   UNL A   1      46.068  35.222  30.742  1.00  0.00     0.041 A 
ATOM     91  F   UNL A   1      45.866  32.955  31.290  1.00  0.00    -0.206 F 
ATOM     92  C   UNL A   1      45.830  36.281  29.871  1.00  0.00     0.022 A 
BRANCH  89  93
ATOM     93  S   UNL A   1      44.875  37.380  27.493  1.00  0.00     0.124 S 
ATOM     94  O   UNL A   1      44.903  38.576  28.330  1.00  0.00    -0.237 OA
ATOM     95  O   UNL A   1      46.034  37.179  26.629  1.00  0.00    -0.237 OA
ATOM     96  O   UNL A   1      43.583  37.087  26.875  1.00  0.00    -0.744 OA
ENDBRANCH  89  93
ENDBRANCH  63  86
ENDBRANCH  37  38
ENDBRANCH  29  32
ENDBRANCH  27  28
ENDBRANCH   1  27
TORSDOF 17
ENDMDL
