MODEL 1
REMARK VINA RESULT:     -12.3      0.000      0.000
REMARK SMILES O=C(CS(=O)(=O)NCc1ccc(N2CCOCC2)nc1)NCCCNC(=O)c1ccc(-c2c3nc(c(-c4cc(S(=O)(=O)[O-])ccc4F)c4ccc([nH]4)c(-c4cc(S(=O)(=O)[O-])ccc4F)c4nc(c(-c5cc(S(=O)(=O)[O-])ccc5F)c5ccc2[nH]5)C=C4)C=C3)cc1
REMARK SMILES IDX 22 1 21 2 1 3 2 4 3 6 4 7 5 8 6 9 7 10 8 12 9 13 10 14 20 15
REMARK SMILES IDX 11 16 19 17 12 18 13 19 14 20 18 21 15 22 17 23 16 24 23 25
REMARK SMILES IDX 24 26 25 27 26 28 27 30 28 31 29 32 90 33 30 34 89 35 31 36
REMARK SMILES IDX 32 37 33 38 83 39 34 40 88 41 82 42 84 43 35 44 87 45 81 46
REMARK SMILES IDX 80 47 36 49 68 50 48 51 67 52 49 53 52 54 66 55 85 56 50 57
REMARK SMILES IDX 51 58 65 60 86 61 53 62 37 63 38 64 46 65 39 66 45 67 47 68
REMARK SMILES IDX 44 69 40 70 41 71 42 72 43 73 69 74 70 75 78 76 71 77 77 78
REMARK SMILES IDX 79 79 76 80 72 81 73 82 74 83 75 84 54 85 55 86 63 87 56 88
REMARK SMILES IDX 62 89 64 90 61 91 57 92 58 93 59 94 60 95
REMARK H PARENT 21 5 7 11 25 29 84 48 52 59
REMARK Flexibility Score: inf
ROOT
ATOM      1  C   UNL A   1      35.005  22.016  24.167  1.00  0.00     0.117 C 
ENDROOT
BRANCH   1   2
ATOM      2  N   UNL A   1      33.807  22.398  24.896  1.00  0.00    -0.355 N 
ATOM      3  O   UNL A   1      32.351  21.250  23.554  1.00  0.00    -0.274 OA
ATOM      4  C   UNL A   1      32.551  21.955  24.542  1.00  0.00     0.236 C 
ATOM      5  H   UNL A   1      33.895  22.996  25.672  1.00  0.00     0.163 HD
BRANCH   4   6
ATOM      6  C   UNL A   1      31.407  22.418  25.387  1.00  0.00     0.253 C 
BRANCH   6   7
ATOM      7  S   UNL A   1      31.677  24.032  26.057  1.00  0.00     0.220 S 
ATOM      8  O   UNL A   1      30.423  24.503  26.613  1.00  0.00    -0.212 OA
ATOM      9  O   UNL A   1      32.852  23.964  26.895  1.00  0.00    -0.212 OA
BRANCH   7  10
ATOM     10  N   UNL A   1      32.134  25.011  24.791  1.00  0.00    -0.210 NA
ATOM     11  H   UNL A   1      33.092  24.742  24.569  1.00  0.00     0.141 HD
BRANCH  10  12
ATOM     12  C   UNL A   1      31.436  25.085  23.504  1.00  0.00     0.135 C 
BRANCH  12  13
ATOM     13  C   UNL A   1      30.530  26.258  23.277  1.00  0.00    -0.015 A 
ATOM     14  C   UNL A   1      29.280  26.398  23.866  1.00  0.00     0.010 A 
ATOM     15  C   UNL A   1      30.937  27.304  22.462  1.00  0.00     0.118 A 
ATOM     16  C   UNL A   1      28.489  27.512  23.569  1.00  0.00     0.047 A 
ATOM     17  N   UNL A   1      30.176  28.377  22.148  1.00  0.00    -0.239 NA
ATOM     18  C   UNL A   1      28.950  28.497  22.703  1.00  0.00     0.128 A 
BRANCH  18  19
ATOM     19  N   UNL A   1      28.198  29.599  22.387  1.00  0.00    -0.352 N 
ATOM     20  C   UNL A   1      28.346  30.414  21.187  1.00  0.00     0.146 C 
ATOM     21  C   UNL A   1      27.269  30.160  23.375  1.00  0.00     0.146 C 
ATOM     22  C   UNL A   1      28.749  31.839  21.586  1.00  0.00     0.181 C 
ATOM     23  C   UNL A   1      27.699  31.607  23.697  1.00  0.00     0.181 C 
ATOM     24  O   UNL A   1      27.802  32.411  22.502  1.00  0.00    -0.378 OA
ENDBRANCH  18  19
ENDBRANCH  12  13
ENDBRANCH  10  12
ENDBRANCH   7  10
ENDBRANCH   6   7
ENDBRANCH   4   6
ENDBRANCH   1   2
BRANCH   1  25
ATOM     25  C   UNL A   1      35.974  21.208  25.013  1.00  0.00     0.042 C 
BRANCH  25  26
ATOM     26  C   UNL A   1      37.441  21.573  24.798  1.00  0.00     0.118 C 
BRANCH  26  27
ATOM     27  N   UNL A   1      38.360  20.608  25.390  1.00  0.00    -0.352 N 
ATOM     28  C   UNL A   1      39.501  20.808  26.132  1.00  0.00     0.251 C 
ATOM     29  H   UNL A   1      38.128  19.665  25.234  1.00  0.00     0.163 HD
ATOM     30  O   UNL A   1      40.286  19.877  26.294  1.00  0.00    -0.269 OA
BRANCH  28  31
ATOM     31  C   UNL A   1      39.840  22.121  26.721  1.00  0.00     0.039 A 
ATOM     32  C   UNL A   1      40.898  22.163  27.637  1.00  0.00     0.014 A 
ATOM     33  C   UNL A   1      39.149  23.292  26.408  1.00  0.00     0.014 A 
ATOM     34  C   UNL A   1      41.349  23.385  28.124  1.00  0.00     0.010 A 
ATOM     35  C   UNL A   1      39.661  24.521  26.813  1.00  0.00     0.010 A 
ATOM     36  C   UNL A   1      40.790  24.576  27.643  1.00  0.00    -0.014 A 
BRANCH  36  37
ATOM     37  C   UNL A   1      41.441  25.875  27.924  1.00  0.00     0.031 A 
ATOM     38  C   UNL A   1      40.699  26.959  28.645  1.00  0.00     0.074 A 
ATOM     39  C   UNL A   1      42.688  26.080  27.453  1.00  0.00     0.049 A 
ATOM     40  N   UNL A   1      41.078  28.182  28.907  1.00  0.00    -0.248 NA
ATOM     41  C   UNL A   1      39.344  26.633  29.110  1.00  0.00     0.031 C 
ATOM     42  C   UNL A   1      43.477  25.096  26.702  1.00  0.00     0.029 A 
ATOM     43  N   UNL A   1      43.514  27.172  27.525  1.00  0.00    -0.354 N 
ATOM     44  C   UNL A   1      40.007  28.778  29.561  1.00  0.00     0.074 A 
ATOM     45  C   UNL A   1      38.943  27.795  29.604  1.00  0.00     0.031 C 
ATOM     46  C   UNL A   1      44.678  25.617  26.415  1.00  0.00     0.029 A 
ATOM     47  C   UNL A   1      44.727  26.989  26.902  1.00  0.00     0.049 A 
ATOM     48  H   UNL A   1      43.261  28.008  27.980  1.00  0.00     0.167 HD
ATOM     49  C   UNL A   1      39.931  30.025  30.089  1.00  0.00     0.034 A 
ATOM     50  C   UNL A   1      45.755  27.841  26.724  1.00  0.00     0.034 A 
ATOM     51  C   UNL A   1      41.010  30.981  30.023  1.00  0.00     0.049 A 
ATOM     52  C   UNL A   1      45.630  29.232  27.285  1.00  0.00     0.074 A 
ATOM     53  C   UNL A   1      41.067  32.257  30.555  1.00  0.00     0.029 A 
ATOM     54  N   UNL A   1      42.222  30.768  29.375  1.00  0.00    -0.354 N 
ATOM     55  N   UNL A   1      44.625  29.768  27.941  1.00  0.00    -0.248 NA
ATOM     56  C   UNL A   1      46.771  30.131  27.086  1.00  0.00     0.031 C 
ATOM     57  C   UNL A   1      42.279  32.838  30.168  1.00  0.00     0.029 A 
ATOM     58  C   UNL A   1      43.016  31.901  29.462  1.00  0.00     0.049 A 
ATOM     59  H   UNL A   1      42.479  29.933  28.919  1.00  0.00     0.167 HD
ATOM     60  C   UNL A   1      45.025  31.061  28.255  1.00  0.00     0.074 A 
ATOM     61  C   UNL A   1      46.368  31.217  27.731  1.00  0.00     0.031 C 
ATOM     62  C   UNL A   1      44.348  32.035  28.915  1.00  0.00     0.034 A 
BRANCH  49  63
ATOM     63  C   UNL A   1      38.629  30.424  30.741  1.00  0.00     0.023 A 
ATOM     64  C   UNL A   1      37.658  31.175  30.054  1.00  0.00     0.031 A 
ATOM     65  C   UNL A   1      38.368  30.081  32.079  1.00  0.00     0.131 A 
ATOM     66  C   UNL A   1      36.513  31.626  30.729  1.00  0.00     0.055 A 
ATOM     67  C   UNL A   1      37.187  30.464  32.721  1.00  0.00     0.041 A 
ATOM     68  F   UNL A   1      39.265  29.386  32.795  1.00  0.00    -0.206 F 
ATOM     69  C   UNL A   1      36.259  31.255  32.050  1.00  0.00     0.022 A 
BRANCH  66  70
ATOM     70  S   UNL A   1      35.438  32.830  29.901  1.00  0.00     0.124 S 
ATOM     71  O   UNL A   1      34.530  31.955  29.164  1.00  0.00    -0.237 OA
ATOM     72  O   UNL A   1      34.855  33.557  31.023  1.00  0.00    -0.237 OA
ATOM     73  O   UNL A   1      36.361  33.600  29.071  1.00  0.00    -0.744 OA
ENDBRANCH  66  70
ENDBRANCH  49  63
BRANCH  50  74
ATOM     74  C   UNL A   1      46.970  27.416  25.970  1.00  0.00     0.023 A 
ATOM     75  C   UNL A   1      47.150  27.774  24.626  1.00  0.00     0.031 A 
ATOM     76  C   UNL A   1      47.960  26.621  26.577  1.00  0.00     0.131 A 
ATOM     77  C   UNL A   1      48.268  27.303  23.919  1.00  0.00     0.055 A 
ATOM     78  C   UNL A   1      49.098  26.201  25.886  1.00  0.00     0.041 A 
ATOM     79  F   UNL A   1      47.842  26.254  27.864  1.00  0.00    -0.206 F 
ATOM     80  C   UNL A   1      49.250  26.531  24.544  1.00  0.00     0.022 A 
BRANCH  77  81
ATOM     81  S   UNL A   1      48.376  27.641  22.140  1.00  0.00     0.124 S 
ATOM     82  O   UNL A   1      47.080  28.253  21.874  1.00  0.00    -0.237 OA
ATOM     83  O   UNL A   1      49.533  28.528  22.072  1.00  0.00    -0.237 OA
ATOM     84  O   UNL A   1      48.574  26.317  21.554  1.00  0.00    -0.744 OA
ENDBRANCH  77  81
ENDBRANCH  50  74
BRANCH  62  85
ATOM     85  C   UNL A   1      45.074  33.338  29.131  1.00  0.00     0.023 A 
ATOM     86  C   UNL A   1      44.843  34.455  28.310  1.00  0.00     0.031 A 
ATOM     87  C   UNL A   1      46.012  33.460  30.171  1.00  0.00     0.131 A 
ATOM     88  C   UNL A   1      45.582  35.630  28.509  1.00  0.00     0.055 A 
ATOM     89  C   UNL A   1      46.699  34.652  30.402  1.00  0.00     0.041 A 
ATOM     90  F   UNL A   1      46.272  32.422  30.982  1.00  0.00    -0.206 F 
ATOM     91  C   UNL A   1      46.493  35.742  29.561  1.00  0.00     0.022 A 
BRANCH  88  92
ATOM     92  S   UNL A   1      45.392  36.988  27.322  1.00  0.00     0.124 S 
ATOM     93  O   UNL A   1      46.505  36.748  26.409  1.00  0.00    -0.237 OA
ATOM     94  O   UNL A   1      44.059  36.746  26.779  1.00  0.00    -0.237 OA
ATOM     95  O   UNL A   1      45.515  38.186  28.149  1.00  0.00    -0.744 OA
ENDBRANCH  88  92
ENDBRANCH  62  85
ENDBRANCH  36  37
ENDBRANCH  28  31
ENDBRANCH  26  27
ENDBRANCH  25  26
ENDBRANCH   1  25
TORSDOF 18
ENDMDL
MODEL 2
REMARK VINA RESULT:     -12.3      5.608     10.540
REMARK SMILES O=C(CS(=O)(=O)NCc1ccc(N2CCOCC2)nc1)NCCCNC(=O)c1ccc(-c2c3nc(c(-c4cc(S(=O)(=O)[O-])ccc4F)c4ccc([nH]4)c(-c4cc(S(=O)(=O)[O-])ccc4F)c4nc(c(-c5cc(S(=O)(=O)[O-])ccc5F)c5ccc2[nH]5)C=C4)C=C3)cc1
REMARK SMILES IDX 22 1 21 2 1 3 2 4 3 6 4 7 5 8 6 9 7 10 8 12 9 13 10 14 20 15
REMARK SMILES IDX 11 16 19 17 12 18 13 19 14 20 18 21 15 22 17 23 16 24 23 25
REMARK SMILES IDX 24 26 25 27 26 28 27 30 28 31 29 32 90 33 30 34 89 35 31 36
REMARK SMILES IDX 32 37 33 38 83 39 34 40 88 41 82 42 84 43 35 44 87 45 81 46
REMARK SMILES IDX 80 47 36 49 68 50 48 51 67 52 49 53 52 54 66 55 85 56 50 57
REMARK SMILES IDX 51 58 65 60 86 61 53 62 37 63 38 64 46 65 39 66 45 67 47 68
REMARK SMILES IDX 44 69 40 70 41 71 42 72 43 73 69 74 70 75 78 76 71 77 77 78
REMARK SMILES IDX 79 79 76 80 72 81 73 82 74 83 75 84 54 85 55 86 63 87 56 88
REMARK SMILES IDX 62 89 64 90 61 91 57 92 58 93 59 94 60 95
REMARK H PARENT 21 5 7 11 25 29 84 48 52 59
REMARK Flexibility Score: inf
ROOT
ATOM      1  C   UNL A   1      31.775  29.633  27.233  1.00  0.00     0.117 C 
ENDROOT
BRANCH   1   2
ATOM      2  N   UNL A   1      32.169  28.531  26.372  1.00  0.00    -0.355 N 
ATOM      3  O   UNL A   1      34.329  28.419  27.122  1.00  0.00    -0.274 OA
ATOM      4  C   UNL A   1      33.432  27.981  26.402  1.00  0.00     0.236 C 
ATOM      5  H   UNL A   1      31.509  28.162  25.742  1.00  0.00     0.163 HD
BRANCH   4   6
ATOM      6  C   UNL A   1      33.698  26.844  25.467  1.00  0.00     0.253 C 
BRANCH   6   7
ATOM      7  S   UNL A   1      32.743  25.410  25.866  1.00  0.00     0.220 S 
ATOM      8  O   UNL A   1      33.661  24.322  26.145  1.00  0.00    -0.212 OA
ATOM      9  O   UNL A   1      31.769  25.799  26.860  1.00  0.00    -0.212 OA
BRANCH   7  10
ATOM     10  N   UNL A   1      31.832  25.047  24.522  1.00  0.00    -0.210 NA
ATOM     11  H   UNL A   1      32.024  24.067  24.317  1.00  0.00     0.141 HD
BRANCH  10  12
ATOM     12  C   UNL A   1      30.375  25.188  24.442  1.00  0.00     0.135 C 
BRANCH  12  13
ATOM     13  C   UNL A   1      29.835  26.475  23.896  1.00  0.00    -0.015 A 
ATOM     14  C   UNL A   1      30.627  27.484  23.362  1.00  0.00     0.010 A 
ATOM     15  C   UNL A   1      28.467  26.703  23.875  1.00  0.00     0.118 A 
ATOM     16  C   UNL A   1      30.039  28.667  22.906  1.00  0.00     0.047 A 
ATOM     17  N   UNL A   1      27.883  27.850  23.457  1.00  0.00    -0.239 NA
ATOM     18  C   UNL A   1      28.660  28.839  22.962  1.00  0.00     0.128 A 
BRANCH  18  19
ATOM     19  N   UNL A   1      28.051  29.988  22.528  1.00  0.00    -0.352 N 
ATOM     20  C   UNL A   1      28.024  30.467  21.151  1.00  0.00     0.146 C 
ATOM     21  C   UNL A   1      27.514  30.946  23.500  1.00  0.00     0.146 C 
ATOM     22  C   UNL A   1      28.753  31.814  21.067  1.00  0.00     0.181 C 
ATOM     23  C   UNL A   1      28.252  32.292  23.333  1.00  0.00     0.181 C 
ATOM     24  O   UNL A   1      28.183  32.772  21.973  1.00  0.00    -0.378 OA
ENDBRANCH  18  19
ENDBRANCH  12  13
ENDBRANCH  10  12
ENDBRANCH   7  10
ENDBRANCH   6   7
ENDBRANCH   4   6
ENDBRANCH   1   2
BRANCH   1  25
ATOM     25  C   UNL A   1      32.041  30.991  26.605  1.00  0.00     0.042 C 
BRANCH  25  26
ATOM     26  C   UNL A   1      33.138  31.793  27.300  1.00  0.00     0.118 C 
BRANCH  26  27
ATOM     27  N   UNL A   1      32.786  33.196  27.488  1.00  0.00    -0.352 N 
ATOM     28  C   UNL A   1      33.227  34.105  28.421  1.00  0.00     0.251 C 
ATOM     29  H   UNL A   1      32.128  33.547  26.847  1.00  0.00     0.163 HD
ATOM     30  O   UNL A   1      32.600  35.148  28.589  1.00  0.00    -0.269 OA
BRANCH  28  31
ATOM     31  C   UNL A   1      34.418  33.860  29.260  1.00  0.00     0.039 A 
ATOM     32  C   UNL A   1      34.223  33.202  30.481  1.00  0.00     0.014 A 
ATOM     33  C   UNL A   1      35.702  34.262  28.890  1.00  0.00     0.014 A 
ATOM     34  C   UNL A   1      35.318  32.826  31.252  1.00  0.00     0.010 A 
ATOM     35  C   UNL A   1      36.801  33.800  29.606  1.00  0.00     0.010 A 
ATOM     36  C   UNL A   1      36.615  33.044  30.773  1.00  0.00    -0.014 A 
BRANCH  36  37
ATOM     37  C   UNL A   1      37.775  32.400  31.432  1.00  0.00     0.031 A 
ATOM     38  C   UNL A   1      38.488  31.259  30.773  1.00  0.00     0.074 A 
ATOM     39  C   UNL A   1      38.123  32.821  32.665  1.00  0.00     0.049 A 
ATOM     40  N   UNL A   1      39.467  30.525  31.233  1.00  0.00    -0.248 NA
ATOM     41  C   UNL A   1      38.024  30.877  29.432  1.00  0.00     0.031 C 
ATOM     42  C   UNL A   1      37.459  33.900  33.405  1.00  0.00     0.029 A 
ATOM     43  N   UNL A   1      39.109  32.399  33.518  1.00  0.00    -0.354 N 
ATOM     44  C   UNL A   1      39.733  29.587  30.243  1.00  0.00     0.074 A 
ATOM     45  C   UNL A   1      38.773  29.813  29.183  1.00  0.00     0.031 C 
ATOM     46  C   UNL A   1      38.078  34.075  34.582  1.00  0.00     0.029 A 
ATOM     47  C   UNL A   1      39.138  33.085  34.711  1.00  0.00     0.049 A 
ATOM     48  H   UNL A   1      39.737  31.673  33.298  1.00  0.00     0.167 HD
ATOM     49  C   UNL A   1      40.702  28.639  30.221  1.00  0.00     0.034 A 
ATOM     50  C   UNL A   1      39.918  32.918  35.796  1.00  0.00     0.034 A 
ATOM     51  C   UNL A   1      41.641  28.438  31.299  1.00  0.00     0.049 A 
ATOM     52  C   UNL A   1      40.960  31.833  35.762  1.00  0.00     0.074 A 
ATOM     53  C   UNL A   1      42.690  27.539  31.375  1.00  0.00     0.029 A 
ATOM     54  N   UNL A   1      41.636  29.143  32.499  1.00  0.00    -0.354 N 
ATOM     55  N   UNL A   1      41.229  30.980  34.798  1.00  0.00    -0.248 NA
ATOM     56  C   UNL A   1      41.802  31.685  36.953  1.00  0.00     0.031 C 
ATOM     57  C   UNL A   1      43.271  27.652  32.643  1.00  0.00     0.029 A 
ATOM     58  C   UNL A   1      42.638  28.674  33.333  1.00  0.00     0.049 A 
ATOM     59  H   UNL A   1      41.010  29.870  32.723  1.00  0.00     0.167 HD
ATOM     60  C   UNL A   1      42.291  30.211  35.260  1.00  0.00     0.074 A 
ATOM     61  C   UNL A   1      42.622  30.712  36.580  1.00  0.00     0.031 C 
ATOM     62  C   UNL A   1      42.936  29.183  34.653  1.00  0.00     0.034 A 
BRANCH  49  63
ATOM     63  C   UNL A   1      40.760  27.735  29.013  1.00  0.00     0.023 A 
ATOM     64  C   UNL A   1      41.707  27.928  27.990  1.00  0.00     0.031 A 
ATOM     65  C   UNL A   1      39.835  26.687  28.861  1.00  0.00     0.131 A 
ATOM     66  C   UNL A   1      41.656  27.141  26.829  1.00  0.00     0.055 A 
ATOM     67  C   UNL A   1      39.842  25.855  27.740  1.00  0.00     0.041 A 
ATOM     68  F   UNL A   1      38.893  26.467  29.791  1.00  0.00    -0.206 F 
ATOM     69  C   UNL A   1      40.746  26.090  26.707  1.00  0.00     0.022 A 
BRANCH  66  70
ATOM     70  S   UNL A   1      42.695  27.611  25.419  1.00  0.00     0.124 S 
ATOM     71  O   UNL A   1      41.907  28.684  24.817  1.00  0.00    -0.237 OA
ATOM     72  O   UNL A   1      43.939  28.017  26.064  1.00  0.00    -0.237 OA
ATOM     73  O   UNL A   1      42.774  26.386  24.627  1.00  0.00    -0.744 OA
ENDBRANCH  66  70
ENDBRANCH  49  63
BRANCH  50  74
ATOM     74  C   UNL A   1      39.733  33.776  37.003  1.00  0.00     0.023 A 
ATOM     75  C   UNL A   1      39.072  33.290  38.141  1.00  0.00     0.031 A 
ATOM     76  C   UNL A   1      40.191  35.106  37.026  1.00  0.00     0.131 A 
ATOM     77  C   UNL A   1      38.848  34.140  39.237  1.00  0.00     0.055 A 
ATOM     78  C   UNL A   1      40.015  35.930  38.139  1.00  0.00     0.041 A 
ATOM     79  F   UNL A   1      40.836  35.622  35.965  1.00  0.00    -0.206 F 
ATOM     80  C   UNL A   1      39.328  35.451  39.248  1.00  0.00     0.022 A 
BRANCH  77  81
ATOM     81  S   UNL A   1      37.840  33.530  40.616  1.00  0.00     0.124 S 
ATOM     82  O   UNL A   1      37.618  34.750  41.383  1.00  0.00    -0.237 OA
ATOM     83  O   UNL A   1      36.677  32.986  39.922  1.00  0.00    -0.237 OA
ATOM     84  O   UNL A   1      38.702  32.539  41.255  1.00  0.00    -0.744 OA
ENDBRANCH  77  81
ENDBRANCH  50  74
BRANCH  62  85
ATOM     85  C   UNL A   1      44.085  28.564  35.407  1.00  0.00     0.023 A 
ATOM     86  C   UNL A   1      43.884  27.531  36.340  1.00  0.00     0.031 A 
ATOM     87  C   UNL A   1      45.398  29.018  35.192  1.00  0.00     0.131 A 
ATOM     88  C   UNL A   1      44.973  27.023  37.061  1.00  0.00     0.055 A 
ATOM     89  C   UNL A   1      46.486  28.466  35.868  1.00  0.00     0.041 A 
ATOM     90  F   UNL A   1      45.645  30.005  34.314  1.00  0.00    -0.206 F 
ATOM     91  C   UNL A   1      46.274  27.470  36.818  1.00  0.00     0.022 A 
BRANCH  88  92
ATOM     92  S   UNL A   1      44.656  25.823  38.383  1.00  0.00     0.124 S 
ATOM     93  O   UNL A   1      43.414  26.329  38.959  1.00  0.00    -0.237 OA
ATOM     94  O   UNL A   1      44.553  24.567  37.648  1.00  0.00    -0.237 OA
ATOM     95  O   UNL A   1      45.832  25.943  39.243  1.00  0.00    -0.744 OA
ENDBRANCH  88  92
ENDBRANCH  62  85
ENDBRANCH  36  37
ENDBRANCH  28  31
ENDBRANCH  26  27
ENDBRANCH  25  26
ENDBRANCH   1  25
TORSDOF 18
ENDMDL
MODEL 3
REMARK VINA RESULT:     -12.3      2.354      4.670
REMARK SMILES O=C(CS(=O)(=O)NCc1ccc(N2CCOCC2)nc1)NCCCNC(=O)c1ccc(-c2c3nc(c(-c4cc(S(=O)(=O)[O-])ccc4F)c4ccc([nH]4)c(-c4cc(S(=O)(=O)[O-])ccc4F)c4nc(c(-c5cc(S(=O)(=O)[O-])ccc5F)c5ccc2[nH]5)C=C4)C=C3)cc1
REMARK SMILES IDX 22 1 21 2 1 3 2 4 3 6 4 7 5 8 6 9 7 10 8 12 9 13 10 14 20 15
REMARK SMILES IDX 11 16 19 17 12 18 13 19 14 20 18 21 15 22 17 23 16 24 23 25
REMARK SMILES IDX 24 26 25 27 26 28 27 30 28 31 29 32 90 33 30 34 89 35 31 36
REMARK SMILES IDX 32 37 33 38 83 39 34 40 88 41 82 42 84 43 35 44 87 45 81 46
REMARK SMILES IDX 80 47 36 49 68 50 48 51 67 52 49 53 52 54 66 55 85 56 50 57
REMARK SMILES IDX 51 58 65 60 86 61 53 62 37 63 38 64 46 65 39 66 45 67 47 68
REMARK SMILES IDX 44 69 40 70 41 71 42 72 43 73 69 74 70 75 78 76 71 77 77 78
REMARK SMILES IDX 79 79 76 80 72 81 73 82 74 83 75 84 54 85 55 86 63 87 56 88
REMARK SMILES IDX 62 89 64 90 61 91 57 92 58 93 59 94 60 95
REMARK H PARENT 21 5 7 11 25 29 84 48 52 59
REMARK Flexibility Score: inf
ROOT
ATOM      1  C   UNL A   1      35.143  22.882  23.125  1.00  0.00     0.117 C 
ENDROOT
BRANCH   1   2
ATOM      2  N   UNL A   1      34.608  24.174  23.521  1.00  0.00    -0.355 N 
ATOM      3  O   UNL A   1      33.281  24.443  21.676  1.00  0.00    -0.274 OA
ATOM      4  C   UNL A   1      33.680  24.855  22.764  1.00  0.00     0.236 C 
ATOM      5  H   UNL A   1      34.920  24.578  24.362  1.00  0.00     0.163 HD
BRANCH   4   6
ATOM      6  C   UNL A   1      33.208  26.171  23.296  1.00  0.00     0.253 C 
BRANCH   6   7
ATOM      7  S   UNL A   1      32.809  26.095  25.017  1.00  0.00     0.220 S 
ATOM      8  O   UNL A   1      34.037  26.262  25.771  1.00  0.00    -0.212 OA
ATOM      9  O   UNL A   1      31.700  26.993  25.246  1.00  0.00    -0.212 OA
BRANCH   7  10
ATOM     10  N   UNL A   1      32.175  24.584  25.301  1.00  0.00    -0.210 NA
ATOM     11  H   UNL A   1      32.246  24.086  24.414  1.00  0.00     0.141 HD
BRANCH  10  12
ATOM     12  C   UNL A   1      32.672  23.651  26.318  1.00  0.00     0.135 C 
BRANCH  12  13
ATOM     13  C   UNL A   1      32.706  22.195  25.961  1.00  0.00    -0.015 A 
ATOM     14  C   UNL A   1      33.596  21.283  26.513  1.00  0.00     0.010 A 
ATOM     15  C   UNL A   1      31.794  21.679  25.053  1.00  0.00     0.118 A 
ATOM     16  C   UNL A   1      33.579  19.949  26.095  1.00  0.00     0.047 A 
ATOM     17  N   UNL A   1      31.777  20.397  24.622  1.00  0.00    -0.239 NA
ATOM     18  C   UNL A   1      32.661  19.518  25.143  1.00  0.00     0.128 A 
BRANCH  18  19
ATOM     19  N   UNL A   1      32.620  18.219  24.708  1.00  0.00    -0.352 N 
ATOM     20  C   UNL A   1      32.540  17.039  25.561  1.00  0.00     0.146 C 
ATOM     21  C   UNL A   1      32.843  17.912  23.290  1.00  0.00     0.146 C 
ATOM     22  C   UNL A   1      33.800  16.185  25.368  1.00  0.00     0.181 C 
ATOM     23  C   UNL A   1      34.093  17.013  23.167  1.00  0.00     0.181 C 
ATOM     24  O   UNL A   1      33.981  15.830  23.988  1.00  0.00    -0.378 OA
ENDBRANCH  18  19
ENDBRANCH  12  13
ENDBRANCH  10  12
ENDBRANCH   7  10
ENDBRANCH   6   7
ENDBRANCH   4   6
ENDBRANCH   1   2
BRANCH   1  25
ATOM     25  C   UNL A   1      36.553  22.648  23.642  1.00  0.00     0.042 C 
BRANCH  25  26
ATOM     26  C   UNL A   1      36.617  22.233  25.110  1.00  0.00     0.118 C 
BRANCH  26  27
ATOM     27  N   UNL A   1      37.654  21.245  25.378  1.00  0.00    -0.352 N 
ATOM     28  C   UNL A   1      38.930  21.406  25.867  1.00  0.00     0.251 C 
ATOM     29  H   UNL A   1      37.403  20.316  25.175  1.00  0.00     0.163 HD
ATOM     30  O   UNL A   1      39.740  20.490  25.750  1.00  0.00    -0.269 OA
BRANCH  28  31
ATOM     31  C   UNL A   1      39.378  22.662  26.504  1.00  0.00     0.039 A 
ATOM     32  C   UNL A   1      40.430  22.578  27.425  1.00  0.00     0.014 A 
ATOM     33  C   UNL A   1      38.794  23.900  26.233  1.00  0.00     0.014 A 
ATOM     34  C   UNL A   1      40.982  23.738  27.957  1.00  0.00     0.010 A 
ATOM     35  C   UNL A   1      39.408  25.064  26.684  1.00  0.00     0.010 A 
ATOM     36  C   UNL A   1      40.532  24.990  27.519  1.00  0.00    -0.014 A 
BRANCH  36  37
ATOM     37  C   UNL A   1      41.292  26.217  27.849  1.00  0.00     0.031 A 
ATOM     38  C   UNL A   1      40.657  27.314  28.648  1.00  0.00     0.074 A 
ATOM     39  C   UNL A   1      42.540  26.348  27.354  1.00  0.00     0.049 A 
ATOM     40  N   UNL A   1      41.140  28.487  28.963  1.00  0.00    -0.248 NA
ATOM     41  C   UNL A   1      39.292  27.071  29.134  1.00  0.00     0.031 C 
ATOM     42  C   UNL A   1      43.228  25.347  26.530  1.00  0.00     0.029 A 
ATOM     43  N   UNL A   1      43.452  27.366  27.460  1.00  0.00    -0.354 N 
ATOM     44  C   UNL A   1      40.136  29.129  29.678  1.00  0.00     0.074 A 
ATOM     45  C   UNL A   1      38.998  28.232  29.699  1.00  0.00     0.031 C 
ATOM     46  C   UNL A   1      44.460  25.787  26.236  1.00  0.00     0.029 A 
ATOM     47  C   UNL A   1      44.631  27.122  26.793  1.00  0.00     0.049 A 
ATOM     48  H   UNL A   1      43.278  28.193  27.965  1.00  0.00     0.167 HD
ATOM     49  C   UNL A   1      40.174  30.346  30.273  1.00  0.00     0.034 A 
ATOM     50  C   UNL A   1      45.719  27.899  26.631  1.00  0.00     0.034 A 
ATOM     51  C   UNL A   1      41.323  31.217  30.227  1.00  0.00     0.049 A 
ATOM     52  C   UNL A   1      45.719  29.263  27.268  1.00  0.00     0.074 A 
ATOM     53  C   UNL A   1      41.496  32.453  30.824  1.00  0.00     0.029 A 
ATOM     54  N   UNL A   1      42.499  30.945  29.533  1.00  0.00    -0.354 N 
ATOM     55  N   UNL A   1      44.777  29.839  27.980  1.00  0.00    -0.248 NA
ATOM     56  C   UNL A   1      46.924  30.079  27.084  1.00  0.00     0.031 C 
ATOM     57  C   UNL A   1      42.741  32.958  30.434  1.00  0.00     0.029 A 
ATOM     58  C   UNL A   1      43.383  32.006  29.658  1.00  0.00     0.049 A 
ATOM     59  H   UNL A   1      42.677  30.119  29.028  1.00  0.00     0.167 HD
ATOM     60  C   UNL A   1      45.288  31.078  28.350  1.00  0.00     0.074 A 
ATOM     61  C   UNL A   1      46.625  31.156  27.797  1.00  0.00     0.031 C 
ATOM     62  C   UNL A   1      44.707  32.064  29.081  1.00  0.00     0.034 A 
BRANCH  49  63
ATOM     63  C   UNL A   1      38.924  30.810  30.983  1.00  0.00     0.023 A 
ATOM     64  C   UNL A   1      37.817  31.316  30.277  1.00  0.00     0.031 A 
ATOM     65  C   UNL A   1      38.849  30.782  32.386  1.00  0.00     0.131 A 
ATOM     66  C   UNL A   1      36.721  31.846  30.975  1.00  0.00     0.055 A 
ATOM     67  C   UNL A   1      37.720  31.235  33.074  1.00  0.00     0.041 A 
ATOM     68  F   UNL A   1      39.881  30.332  33.117  1.00  0.00    -0.206 F 
ATOM     69  C   UNL A   1      36.654  31.786  32.368  1.00  0.00     0.022 A 
BRANCH  66  70
ATOM     70  S   UNL A   1      35.456  32.751  30.043  1.00  0.00     0.124 S 
ATOM     71  O   UNL A   1      35.199  31.837  28.932  1.00  0.00    -0.237 OA
ATOM     72  O   UNL A   1      34.380  32.886  31.019  1.00  0.00    -0.237 OA
ATOM     73  O   UNL A   1      36.124  33.996  29.675  1.00  0.00    -0.744 OA
ENDBRANCH  66  70
ENDBRANCH  49  63
BRANCH  50  74
ATOM     74  C   UNL A   1      46.877  27.422  25.821  1.00  0.00     0.023 A 
ATOM     75  C   UNL A   1      47.074  27.869  24.506  1.00  0.00     0.031 A 
ATOM     76  C   UNL A   1      47.792  26.489  26.342  1.00  0.00     0.131 A 
ATOM     77  C   UNL A   1      48.132  27.351  23.741  1.00  0.00     0.055 A 
ATOM     78  C   UNL A   1      48.875  26.019  25.597  1.00  0.00     0.041 A 
ATOM     79  F   UNL A   1      47.656  26.031  27.598  1.00  0.00    -0.206 F 
ATOM     80  C   UNL A   1      49.041  26.440  24.282  1.00  0.00     0.022 A 
BRANCH  77  81
ATOM     81  S   UNL A   1      48.250  27.820  21.993  1.00  0.00     0.124 S 
ATOM     82  O   UNL A   1      49.493  28.581  21.972  1.00  0.00    -0.237 OA
ATOM     83  O   UNL A   1      48.281  26.519  21.333  1.00  0.00    -0.237 OA
ATOM     84  O   UNL A   1      47.036  28.602  21.767  1.00  0.00    -0.744 OA
ENDBRANCH  77  81
ENDBRANCH  50  74
BRANCH  62  85
ATOM     85  C   UNL A   1      45.540  33.292  29.344  1.00  0.00     0.023 A 
ATOM     86  C   UNL A   1      45.514  34.400  28.479  1.00  0.00     0.031 A 
ATOM     87  C   UNL A   1      46.375  33.350  30.474  1.00  0.00     0.131 A 
ATOM     88  C   UNL A   1      46.348  35.499  28.730  1.00  0.00     0.055 A 
ATOM     89  C   UNL A   1      47.156  34.472  30.751  1.00  0.00     0.041 A 
ATOM     90  F   UNL A   1      46.439  32.318  31.330  1.00  0.00    -0.206 F 
ATOM     91  C   UNL A   1      47.154  35.551  29.870  1.00  0.00     0.022 A 
BRANCH  88  92
ATOM     92  S   UNL A   1      46.425  36.830  27.501  1.00  0.00     0.124 S 
ATOM     93  O   UNL A   1      45.914  37.968  28.257  1.00  0.00    -0.237 OA
ATOM     94  O   UNL A   1      47.847  36.870  27.172  1.00  0.00    -0.237 OA
ATOM     95  O   UNL A   1      45.555  36.356  26.427  1.00  0.00    -0.744 OA
ENDBRANCH  88  92
ENDBRANCH  62  85
ENDBRANCH  36  37
ENDBRANCH  28  31
ENDBRANCH  26  27
ENDBRANCH  25  26
ENDBRANCH   1  25
TORSDOF 18
ENDMDL
