MODEL 1
REMARK VINA RESULT:     -12.9      0.000      0.000
REMARK SMILES Cc1cc(C)c2c(c1)C=C(C(=O)NCCCNC(=O)c1ccc(-c3c4nc(c(-c5cc(S(=O)(=O)[O-])ccc5F)c5ccc([nH]5)c(-c5cc(S(=O)(=O)[O-])ccc5F)c5nc(c(-c6cc(S(=O)(=O)[O-])ccc6F)c6ccc3[nH]6)C=C5)C=C4)cc1)[C@@H](C(F)(F)F)O2
REMARK SMILES IDX 16 1 15 2 14 3 13 4 11 5 12 6 10 8 1 9 2 10 3 11 8 12 4 13
REMARK SMILES IDX 7 14 5 15 6 16 9 17 88 18 83 19 84 20 85 21 86 22 87 23
REMARK SMILES IDX 17 24 18 25 19 27 20 28 21 29 82 30 22 31 81 32 23 33 24 34
REMARK SMILES IDX 25 35 75 36 26 37 80 38 74 39 76 40 27 41 79 42 73 43 72 44
REMARK SMILES IDX 28 46 60 47 40 48 59 49 41 50 44 51 58 52 77 53 42 54 43 55
REMARK SMILES IDX 57 57 78 58 45 59 29 60 30 61 38 62 31 63 37 64 39 65 36 66
REMARK SMILES IDX 32 67 33 68 34 69 35 70 61 71 62 72 70 73 63 74 69 75 71 76
REMARK SMILES IDX 68 77 64 78 65 79 66 80 67 81 46 82 47 83 55 84 48 85 54 86
REMARK SMILES IDX 56 87 53 88 49 89 50 90 51 91 52 92
REMARK H PARENT 13 7 17 26 76 45 44 56
REMARK Flexibility Score: inf
ROOT
ATOM      1  C   UNL A   1      33.087  28.995  25.222  1.00  0.00     0.118 C 
ENDROOT
BRANCH   1   2
ATOM      2  C   UNL A   1      33.204  28.882  23.708  1.00  0.00     0.042 C 
BRANCH   2   3
ATOM      3  C   UNL A   1      32.052  28.095  23.104  1.00  0.00     0.118 C 
BRANCH   3   4
ATOM      4  N   UNL A   1      32.490  27.231  22.018  1.00  0.00    -0.352 N 
ATOM      5  C   UNL A   1      32.979  25.975  21.885  1.00  0.00     0.251 C 
ATOM      6  O   UNL A   1      33.211  25.618  20.725  1.00  0.00    -0.270 OA
ATOM      7  H   UNL A   1      32.411  27.679  21.145  1.00  0.00     0.163 HD
BRANCH   5   8
ATOM      8  C   UNL A   1      33.239  25.035  23.013  1.00  0.00     0.067 C 
ATOM      9  C   UNL A   1      37.337  20.820  24.927  1.00  0.00     0.044 C 
ATOM     10  C   UNL A   1      36.123  21.699  25.009  1.00  0.00    -0.050 A 
ATOM     11  C   UNL A   1      35.314  21.692  26.153  1.00  0.00     0.010 A 
ATOM     12  C   UNL A   1      35.819  22.572  23.955  1.00  0.00     0.015 A 
ATOM     13  C   UNL A   1      34.204  22.539  26.251  1.00  0.00    -0.008 A 
ATOM     14  C   UNL A   1      34.714  23.423  24.038  1.00  0.00     0.018 A 
ATOM     15  C   UNL A   1      33.337  22.533  27.477  1.00  0.00     0.048 C 
ATOM     16  C   UNL A   1      33.916  23.398  25.184  1.00  0.00     0.130 A 
ATOM     17  C   UNL A   1      34.405  24.367  22.970  1.00  0.00     0.025 C 
ATOM     18  O   UNL A   1      32.854  24.243  25.345  1.00  0.00    -0.475 OA
ATOM     19  C   UNL A   1      32.274  24.793  24.138  1.00  0.00     0.314 C 
BRANCH  19  20
ATOM     20  C   UNL A   1      31.074  23.925  23.714  1.00  0.00     0.429 C 
ATOM     21  F   UNL A   1      31.448  23.025  22.772  1.00  0.00    -0.167 F 
ATOM     22  F   UNL A   1      30.555  23.210  24.741  1.00  0.00    -0.167 F 
ATOM     23  F   UNL A   1      30.058  24.652  23.197  1.00  0.00    -0.167 F 
ENDBRANCH  19  20
ENDBRANCH   5   8
ENDBRANCH   3   4
ENDBRANCH   2   3
ENDBRANCH   1   2
BRANCH   1  24
ATOM     24  N   UNL A   1      32.598  30.311  25.628  1.00  0.00    -0.352 N 
ATOM     25  C   UNL A   1      32.951  31.092  26.698  1.00  0.00     0.251 C 
ATOM     26  H   UNL A   1      31.908  30.697  25.041  1.00  0.00     0.163 HD
ATOM     27  O   UNL A   1      32.214  32.014  27.043  1.00  0.00    -0.269 OA
BRANCH  25  28
ATOM     28  C   UNL A   1      34.206  30.820  27.425  1.00  0.00     0.039 A 
ATOM     29  C   UNL A   1      35.132  31.848  27.611  1.00  0.00     0.014 A 
ATOM     30  C   UNL A   1      34.472  29.536  27.905  1.00  0.00     0.014 A 
ATOM     31  C   UNL A   1      36.297  31.598  28.337  1.00  0.00     0.010 A 
ATOM     32  C   UNL A   1      35.576  29.315  28.714  1.00  0.00     0.010 A 
ATOM     33  C   UNL A   1      36.509  30.339  28.925  1.00  0.00    -0.014 A 
BRANCH  33  34
ATOM     34  C   UNL A   1      37.721  30.050  29.725  1.00  0.00     0.031 A 
ATOM     35  C   UNL A   1      38.822  29.216  29.130  1.00  0.00     0.074 A 
ATOM     36  C   UNL A   1      37.806  30.496  30.993  1.00  0.00     0.049 A 
ATOM     37  N   UNL A   1      39.921  28.780  29.687  1.00  0.00    -0.248 NA
ATOM     38  C   UNL A   1      38.649  28.788  27.732  1.00  0.00     0.031 C 
ATOM     39  C   UNL A   1      36.789  31.296  31.679  1.00  0.00     0.029 A 
ATOM     40  N   UNL A   1      38.797  30.349  31.929  1.00  0.00    -0.354 N 
ATOM     41  C   UNL A   1      40.566  28.031  28.711  1.00  0.00     0.074 A 
ATOM     42  C   UNL A   1      39.698  28.003  27.555  1.00  0.00     0.031 C 
ATOM     43  C   UNL A   1      37.233  31.614  32.904  1.00  0.00     0.029 A 
ATOM     44  C   UNL A   1      38.541  31.000  33.112  1.00  0.00     0.049 A 
ATOM     45  H   UNL A   1      39.617  29.827  31.767  1.00  0.00     0.167 HD
ATOM     46  C   UNL A   1      41.790  27.452  28.759  1.00  0.00     0.034 A 
ATOM     47  C   UNL A   1      39.278  31.092  34.235  1.00  0.00     0.034 A 
ATOM     48  C   UNL A   1      42.652  27.506  29.910  1.00  0.00     0.049 A 
ATOM     49  C   UNL A   1      40.610  30.392  34.288  1.00  0.00     0.074 A 
ATOM     50  C   UNL A   1      43.918  26.974  30.063  1.00  0.00     0.029 A 
ATOM     51  N   UNL A   1      42.335  28.136  31.107  1.00  0.00    -0.354 N 
ATOM     52  N   UNL A   1      41.205  29.683  33.357  1.00  0.00    -0.248 NA
ATOM     53  C   UNL A   1      41.366  30.498  35.542  1.00  0.00     0.031 C 
ATOM     54  C   UNL A   1      44.346  27.233  31.369  1.00  0.00     0.029 A 
ATOM     55  C   UNL A   1      43.373  27.983  32.011  1.00  0.00     0.049 A 
ATOM     56  H   UNL A   1      41.496  28.618  31.287  1.00  0.00     0.167 HD
ATOM     57  C   UNL A   1      42.417  29.277  33.905  1.00  0.00     0.074 A 
ATOM     58  C   UNL A   1      42.470  29.826  35.246  1.00  0.00     0.031 C 
ATOM     59  C   UNL A   1      43.399  28.525  33.348  1.00  0.00     0.034 A 
BRANCH  46  60
ATOM     60  C   UNL A   1      42.258  26.718  27.531  1.00  0.00     0.023 A 
ATOM     61  C   UNL A   1      42.001  25.346  27.359  1.00  0.00     0.031 A 
ATOM     62  C   UNL A   1      42.977  27.386  26.525  1.00  0.00     0.131 A 
ATOM     63  C   UNL A   1      42.507  24.673  26.237  1.00  0.00     0.055 A 
ATOM     64  C   UNL A   1      43.416  26.726  25.375  1.00  0.00     0.041 A 
ATOM     65  F   UNL A   1      43.270  28.690  26.647  1.00  0.00    -0.206 F 
ATOM     66  C   UNL A   1      43.191  25.360  25.232  1.00  0.00     0.022 A 
BRANCH  63  67
ATOM     67  S   UNL A   1      42.348  22.869  26.165  1.00  0.00     0.124 S 
ATOM     68  O   UNL A   1      43.170  22.456  27.300  1.00  0.00    -0.237 OA
ATOM     69  O   UNL A   1      40.911  22.671  26.312  1.00  0.00    -0.237 OA
ATOM     70  O   UNL A   1      42.893  22.530  24.852  1.00  0.00    -0.744 OA
ENDBRANCH  63  67
ENDBRANCH  46  60
BRANCH  47  71
ATOM     71  C   UNL A   1      38.782  31.893  35.387  1.00  0.00     0.023 A 
ATOM     72  C   UNL A   1      38.191  31.263  36.493  1.00  0.00     0.031 A 
ATOM     73  C   UNL A   1      38.908  33.293  35.410  1.00  0.00     0.131 A 
ATOM     74  C   UNL A   1      37.730  32.033  37.571  1.00  0.00     0.055 A 
ATOM     75  C   UNL A   1      38.480  34.052  36.501  1.00  0.00     0.041 A 
ATOM     76  F   UNL A   1      39.478  33.940  34.381  1.00  0.00    -0.206 F 
ATOM     77  C   UNL A   1      37.882  33.422  37.589  1.00  0.00     0.022 A 
BRANCH  74  78
ATOM     78  S   UNL A   1      36.905  31.193  38.950  1.00  0.00     0.124 S 
ATOM     79  O   UNL A   1      35.673  31.965  39.075  1.00  0.00    -0.237 OA
ATOM     80  O   UNL A   1      36.763  29.833  38.439  1.00  0.00    -0.237 OA
ATOM     81  O   UNL A   1      37.851  31.343  40.054  1.00  0.00    -0.744 OA
ENDBRANCH  74  78
ENDBRANCH  47  71
BRANCH  59  82
ATOM     82  C   UNL A   1      44.625  28.264  34.180  1.00  0.00     0.023 A 
ATOM     83  C   UNL A   1      44.742  27.106  34.966  1.00  0.00     0.031 A 
ATOM     84  C   UNL A   1      45.711  29.155  34.141  1.00  0.00     0.131 A 
ATOM     85  C   UNL A   1      45.912  26.882  35.705  1.00  0.00     0.055 A 
ATOM     86  C   UNL A   1      46.891  28.904  34.840  1.00  0.00     0.041 A 
ATOM     87  F   UNL A   1      45.648  30.274  33.400  1.00  0.00    -0.206 F 
ATOM     88  C   UNL A   1      46.994  27.764  35.631  1.00  0.00     0.022 A 
BRANCH  85  89
ATOM     89  S   UNL A   1      45.989  25.436  36.796  1.00  0.00     0.124 S 
ATOM     90  O   UNL A   1      47.232  25.672  37.523  1.00  0.00    -0.237 OA
ATOM     91  O   UNL A   1      44.761  25.562  37.573  1.00  0.00    -0.237 OA
ATOM     92  O   UNL A   1      46.019  24.308  35.866  1.00  0.00    -0.744 OA
ENDBRANCH  85  89
ENDBRANCH  59  82
ENDBRANCH  33  34
ENDBRANCH  25  28
ENDBRANCH   1  24
TORSDOF 14
ENDMDL
MODEL 2
REMARK VINA RESULT:     -12.7      1.278      1.493
REMARK SMILES Cc1cc(C)c2c(c1)C=C(C(=O)NCCCNC(=O)c1ccc(-c3c4nc(c(-c5cc(S(=O)(=O)[O-])ccc5F)c5ccc([nH]5)c(-c5cc(S(=O)(=O)[O-])ccc5F)c5nc(c(-c6cc(S(=O)(=O)[O-])ccc6F)c6ccc3[nH]6)C=C5)C=C4)cc1)[C@@H](C(F)(F)F)O2
REMARK SMILES IDX 16 1 15 2 14 3 13 4 11 5 12 6 10 8 1 9 2 10 3 11 8 12 4 13
REMARK SMILES IDX 7 14 5 15 6 16 9 17 88 18 83 19 84 20 85 21 86 22 87 23
REMARK SMILES IDX 17 24 18 25 19 27 20 28 21 29 82 30 22 31 81 32 23 33 24 34
REMARK SMILES IDX 25 35 75 36 26 37 80 38 74 39 76 40 27 41 79 42 73 43 72 44
REMARK SMILES IDX 28 46 60 47 40 48 59 49 41 50 44 51 58 52 77 53 42 54 43 55
REMARK SMILES IDX 57 57 78 58 45 59 29 60 30 61 38 62 31 63 37 64 39 65 36 66
REMARK SMILES IDX 32 67 33 68 34 69 35 70 61 71 62 72 70 73 63 74 69 75 71 76
REMARK SMILES IDX 68 77 64 78 65 79 66 80 67 81 46 82 47 83 55 84 48 85 54 86
REMARK SMILES IDX 56 87 53 88 49 89 50 90 51 91 52 92
REMARK H PARENT 13 7 17 26 76 45 44 56
REMARK Flexibility Score: inf
ROOT
ATOM      1  C   UNL A   1      33.077  28.964  25.249  1.00  0.00     0.118 C 
ENDROOT
BRANCH   1   2
ATOM      2  C   UNL A   1      33.189  28.846  23.736  1.00  0.00     0.042 C 
BRANCH   2   3
ATOM      3  C   UNL A   1      32.039  28.051  23.139  1.00  0.00     0.118 C 
BRANCH   3   4
ATOM      4  N   UNL A   1      32.476  27.191  22.049  1.00  0.00    -0.352 N 
ATOM      5  C   UNL A   1      32.971  25.938  21.911  1.00  0.00     0.251 C 
ATOM      6  O   UNL A   1      33.198  25.584  20.750  1.00  0.00    -0.270 OA
ATOM      7  H   UNL A   1      32.390  27.641  21.177  1.00  0.00     0.163 HD
BRANCH   5   8
ATOM      8  C   UNL A   1      33.241  24.998  23.037  1.00  0.00     0.067 C 
ATOM      9  C   UNL A   1      37.404  20.848  24.952  1.00  0.00     0.044 C 
ATOM     10  C   UNL A   1      36.174  21.705  25.032  1.00  0.00    -0.050 A 
ATOM     11  C   UNL A   1      35.360  21.678  26.172  1.00  0.00     0.010 A 
ATOM     12  C   UNL A   1      35.860  22.577  23.981  1.00  0.00     0.015 A 
ATOM     13  C   UNL A   1      34.235  22.505  26.268  1.00  0.00    -0.008 A 
ATOM     14  C   UNL A   1      34.739  23.408  24.061  1.00  0.00     0.018 A 
ATOM     15  C   UNL A   1      33.362  22.477  27.490  1.00  0.00     0.048 C 
ATOM     16  C   UNL A   1      33.937  23.363  25.203  1.00  0.00     0.130 A 
ATOM     17  C   UNL A   1      34.419  24.351  22.996  1.00  0.00     0.025 C 
ATOM     18  O   UNL A   1      32.859  24.189  25.363  1.00  0.00    -0.475 OA
ATOM     19  C   UNL A   1      32.275  24.734  24.155  1.00  0.00     0.314 C 
BRANCH  19  20
ATOM     20  C   UNL A   1      31.093  23.846  23.722  1.00  0.00     0.429 C 
ATOM     21  F   UNL A   1      31.482  22.973  22.760  1.00  0.00    -0.167 F 
ATOM     22  F   UNL A   1      30.597  23.100  24.737  1.00  0.00    -0.167 F 
ATOM     23  F   UNL A   1      30.057  24.559  23.225  1.00  0.00    -0.167 F 
ENDBRANCH  19  20
ENDBRANCH   5   8
ENDBRANCH   3   4
ENDBRANCH   2   3
ENDBRANCH   1   2
BRANCH   1  24
ATOM     24  N   UNL A   1      32.597  30.284  25.653  1.00  0.00    -0.352 N 
ATOM     25  C   UNL A   1      32.955  31.064  26.722  1.00  0.00     0.251 C 
ATOM     26  H   UNL A   1      31.909  30.672  25.066  1.00  0.00     0.163 HD
ATOM     27  O   UNL A   1      32.223  31.992  27.065  1.00  0.00    -0.269 OA
BRANCH  25  28
ATOM     28  C   UNL A   1      34.207  30.787  27.449  1.00  0.00     0.039 A 
ATOM     29  C   UNL A   1      35.147  31.805  27.620  1.00  0.00     0.014 A 
ATOM     30  C   UNL A   1      34.460  29.505  27.943  1.00  0.00     0.014 A 
ATOM     31  C   UNL A   1      36.310  31.550  28.346  1.00  0.00     0.010 A 
ATOM     32  C   UNL A   1      35.564  29.281  28.752  1.00  0.00     0.010 A 
ATOM     33  C   UNL A   1      36.509  30.296  28.948  1.00  0.00    -0.014 A 
BRANCH  33  34
ATOM     34  C   UNL A   1      37.720  30.003  29.749  1.00  0.00     0.031 A 
ATOM     35  C   UNL A   1      38.813  29.156  29.158  1.00  0.00     0.074 A 
ATOM     36  C   UNL A   1      37.810  30.455  31.014  1.00  0.00     0.049 A 
ATOM     37  N   UNL A   1      39.910  28.715  29.716  1.00  0.00    -0.248 NA
ATOM     38  C   UNL A   1      38.635  28.722  27.762  1.00  0.00     0.031 C 
ATOM     39  C   UNL A   1      36.799  31.267  31.696  1.00  0.00     0.029 A 
ATOM     40  N   UNL A   1      38.800  30.307  31.950  1.00  0.00    -0.354 N 
ATOM     41  C   UNL A   1      40.548  27.956  28.744  1.00  0.00     0.074 A 
ATOM     42  C   UNL A   1      39.678  27.928  27.589  1.00  0.00     0.031 C 
ATOM     43  C   UNL A   1      37.247  31.589  32.920  1.00  0.00     0.029 A 
ATOM     44  C   UNL A   1      38.550  30.966  33.130  1.00  0.00     0.049 A 
ATOM     45  H   UNL A   1      39.616  29.777  31.791  1.00  0.00     0.167 HD
ATOM     46  C   UNL A   1      41.767  27.368  28.794  1.00  0.00     0.034 A 
ATOM     47  C   UNL A   1      39.289  31.059  34.252  1.00  0.00     0.034 A 
ATOM     48  C   UNL A   1      42.631  27.422  29.944  1.00  0.00     0.049 A 
ATOM     49  C   UNL A   1      40.616  30.349  34.307  1.00  0.00     0.074 A 
ATOM     50  C   UNL A   1      43.893  26.881  30.099  1.00  0.00     0.029 A 
ATOM     51  N   UNL A   1      42.320  28.061  31.138  1.00  0.00    -0.354 N 
ATOM     52  N   UNL A   1      41.204  29.630  33.379  1.00  0.00    -0.248 NA
ATOM     53  C   UNL A   1      41.374  30.457  35.559  1.00  0.00     0.031 C 
ATOM     54  C   UNL A   1      44.324  27.144  31.403  1.00  0.00     0.029 A 
ATOM     55  C   UNL A   1      43.358  27.906  32.041  1.00  0.00     0.049 A 
ATOM     56  H   UNL A   1      41.485  28.551  31.315  1.00  0.00     0.167 HD
ATOM     57  C   UNL A   1      42.414  29.219  33.929  1.00  0.00     0.074 A 
ATOM     58  C   UNL A   1      42.472  29.774  35.267  1.00  0.00     0.031 C 
ATOM     59  C   UNL A   1      43.389  28.455  33.375  1.00  0.00     0.034 A 
BRANCH  46  60
ATOM     60  C   UNL A   1      42.229  26.623  27.570  1.00  0.00     0.023 A 
ATOM     61  C   UNL A   1      41.939  25.258  27.394  1.00  0.00     0.031 A 
ATOM     62  C   UNL A   1      42.973  27.273  26.571  1.00  0.00     0.131 A 
ATOM     63  C   UNL A   1      42.438  24.574  26.277  1.00  0.00     0.055 A 
ATOM     64  C   UNL A   1      43.407  26.604  25.425  1.00  0.00     0.041 A 
ATOM     65  F   UNL A   1      43.298  28.570  26.698  1.00  0.00    -0.206 F 
ATOM     66  C   UNL A   1      43.149  25.243  25.278  1.00  0.00     0.022 A 
BRANCH  63  67
ATOM     67  S   UNL A   1      42.235  22.774  26.202  1.00  0.00     0.124 S 
ATOM     68  O   UNL A   1      43.052  22.339  27.332  1.00  0.00    -0.237 OA
ATOM     69  O   UNL A   1      40.794  22.611  26.354  1.00  0.00    -0.237 OA
ATOM     70  O   UNL A   1      42.766  22.425  24.885  1.00  0.00    -0.744 OA
ENDBRANCH  63  67
ENDBRANCH  46  60
BRANCH  47  71
ATOM     71  C   UNL A   1      38.801  31.870  35.400  1.00  0.00     0.023 A 
ATOM     72  C   UNL A   1      38.198  31.252  36.505  1.00  0.00     0.031 A 
ATOM     73  C   UNL A   1      38.946  33.269  35.419  1.00  0.00     0.131 A 
ATOM     74  C   UNL A   1      37.743  32.032  37.579  1.00  0.00     0.055 A 
ATOM     75  C   UNL A   1      38.526  34.037  36.505  1.00  0.00     0.041 A 
ATOM     76  F   UNL A   1      39.528  33.904  34.390  1.00  0.00    -0.206 F 
ATOM     77  C   UNL A   1      37.915  33.419  37.593  1.00  0.00     0.022 A 
BRANCH  74  78
ATOM     78  S   UNL A   1      36.902  31.208  38.958  1.00  0.00     0.124 S 
ATOM     79  O   UNL A   1      35.664  31.974  39.051  1.00  0.00    -0.237 OA
ATOM     80  O   UNL A   1      36.777  29.840  38.466  1.00  0.00    -0.237 OA
ATOM     81  O   UNL A   1      37.830  31.381  40.075  1.00  0.00    -0.744 OA
ENDBRANCH  74  78
ENDBRANCH  47  71
BRANCH  59  82
ATOM     82  C   UNL A   1      44.615  28.189  34.208  1.00  0.00     0.023 A 
ATOM     83  C   UNL A   1      45.700  29.080  34.214  1.00  0.00     0.031 A 
ATOM     84  C   UNL A   1      44.670  27.063  35.047  1.00  0.00     0.131 A 
ATOM     85  C   UNL A   1      46.813  28.814  35.025  1.00  0.00     0.055 A 
ATOM     86  C   UNL A   1      45.758  26.829  35.887  1.00  0.00     0.041 A 
ATOM     87  F   UNL A   1      43.654  26.185  35.078  1.00  0.00    -0.206 F 
ATOM     88  C   UNL A   1      46.839  27.705  35.875  1.00  0.00     0.022 A 
BRANCH  85  89
ATOM     89  S   UNL A   1      48.244  29.922  34.928  1.00  0.00     0.124 S 
ATOM     90  O   UNL A   1      49.231  29.211  35.736  1.00  0.00    -0.237 OA
ATOM     91  O   UNL A   1      48.509  29.971  33.494  1.00  0.00    -0.237 OA
ATOM     92  O   UNL A   1      47.750  31.170  35.508  1.00  0.00    -0.744 OA
ENDBRANCH  85  89
ENDBRANCH  59  82
ENDBRANCH  33  34
ENDBRANCH  25  28
ENDBRANCH   1  24
TORSDOF 14
ENDMDL
MODEL 3
REMARK VINA RESULT:     -12.7      2.390      3.275
REMARK SMILES Cc1cc(C)c2c(c1)C=C(C(=O)NCCCNC(=O)c1ccc(-c3c4nc(c(-c5cc(S(=O)(=O)[O-])ccc5F)c5ccc([nH]5)c(-c5cc(S(=O)(=O)[O-])ccc5F)c5nc(c(-c6cc(S(=O)(=O)[O-])ccc6F)c6ccc3[nH]6)C=C5)C=C4)cc1)[C@@H](C(F)(F)F)O2
REMARK SMILES IDX 16 1 15 2 14 3 13 4 11 5 12 6 10 8 1 9 2 10 3 11 8 12 4 13
REMARK SMILES IDX 7 14 5 15 6 16 9 17 88 18 83 19 84 20 85 21 86 22 87 23
REMARK SMILES IDX 17 24 18 25 19 27 20 28 21 29 82 30 22 31 81 32 23 33 24 34
REMARK SMILES IDX 25 35 75 36 26 37 80 38 74 39 76 40 27 41 79 42 73 43 72 44
REMARK SMILES IDX 28 46 60 47 40 48 59 49 41 50 44 51 58 52 77 53 42 54 43 55
REMARK SMILES IDX 57 57 78 58 45 59 29 60 30 61 38 62 31 63 37 64 39 65 36 66
REMARK SMILES IDX 32 67 33 68 34 69 35 70 61 71 62 72 70 73 63 74 69 75 71 76
REMARK SMILES IDX 68 77 64 78 65 79 66 80 67 81 46 82 47 83 55 84 48 85 54 86
REMARK SMILES IDX 56 87 53 88 49 89 50 90 51 91 52 92
REMARK H PARENT 13 7 17 26 76 45 44 56
REMARK Flexibility Score: inf
ROOT
ATOM      1  C   UNL A   1      32.657  32.475  27.238  1.00  0.00     0.118 C 
ENDROOT
BRANCH   1   2
ATOM      2  C   UNL A   1      31.427  31.959  26.506  1.00  0.00     0.042 C 
BRANCH   2   3
ATOM      3  C   UNL A   1      31.487  30.457  26.278  1.00  0.00     0.118 C 
BRANCH   3   4
ATOM      4  N   UNL A   1      32.163  30.119  25.034  1.00  0.00    -0.352 N 
ATOM      5  C   UNL A   1      32.511  28.992  24.369  1.00  0.00     0.251 C 
ATOM      6  O   UNL A   1      33.081  29.171  23.287  1.00  0.00    -0.270 OA
ATOM      7  H   UNL A   1      32.443  30.926  24.545  1.00  0.00     0.163 HD
BRANCH   5   8
ATOM      8  C   UNL A   1      32.251  27.604  24.845  1.00  0.00     0.067 C 
ATOM      9  C   UNL A   1      35.224  22.419  26.429  1.00  0.00     0.044 C 
ATOM     10  C   UNL A   1      34.046  23.327  26.233  1.00  0.00    -0.050 A 
ATOM     11  C   UNL A   1      32.754  22.902  26.573  1.00  0.00     0.010 A 
ATOM     12  C   UNL A   1      34.238  24.629  25.751  1.00  0.00     0.015 A 
ATOM     13  C   UNL A   1      31.657  23.759  26.430  1.00  0.00    -0.008 A 
ATOM     14  C   UNL A   1      33.152  25.496  25.602  1.00  0.00     0.018 A 
ATOM     15  C   UNL A   1      30.273  23.305  26.795  1.00  0.00     0.048 C 
ATOM     16  C   UNL A   1      31.872  25.053  25.941  1.00  0.00     0.130 A 
ATOM     17  C   UNL A   1      33.337  26.868  25.142  1.00  0.00     0.025 C 
ATOM     18  O   UNL A   1      30.779  25.871  25.868  1.00  0.00    -0.475 OA
ATOM     19  C   UNL A   1      30.880  27.008  24.976  1.00  0.00     0.314 C 
BRANCH  19  20
ATOM     20  C   UNL A   1      30.261  26.636  23.614  1.00  0.00     0.429 C 
ATOM     21  F   UNL A   1      31.223  26.556  22.662  1.00  0.00    -0.167 F 
ATOM     22  F   UNL A   1      29.640  25.433  23.631  1.00  0.00    -0.167 F 
ATOM     23  F   UNL A   1      29.347  27.538  23.191  1.00  0.00    -0.167 F 
ENDBRANCH  19  20
ENDBRANCH   5   8
ENDBRANCH   3   4
ENDBRANCH   2   3
ENDBRANCH   1   2
BRANCH   1  24
ATOM     24  N   UNL A   1      32.555  33.905  27.522  1.00  0.00    -0.352 N 
ATOM     25  C   UNL A   1      33.106  34.645  28.537  1.00  0.00     0.251 C 
ATOM     26  H   UNL A   1      32.005  34.416  26.886  1.00  0.00     0.163 HD
ATOM     27  O   UNL A   1      32.655  35.762  28.784  1.00  0.00    -0.269 OA
BRANCH  25  28
ATOM     28  C   UNL A   1      34.229  34.097  29.321  1.00  0.00     0.039 A 
ATOM     29  C   UNL A   1      33.969  33.263  30.410  1.00  0.00     0.014 A 
ATOM     30  C   UNL A   1      35.543  34.431  28.987  1.00  0.00     0.014 A 
ATOM     31  C   UNL A   1      35.035  32.712  31.121  1.00  0.00     0.010 A 
ATOM     32  C   UNL A   1      36.600  33.802  29.627  1.00  0.00     0.010 A 
ATOM     33  C   UNL A   1      36.358  32.949  30.711  1.00  0.00    -0.014 A 
BRANCH  33  34
ATOM     34  C   UNL A   1      37.511  32.355  31.428  1.00  0.00     0.031 A 
ATOM     35  C   UNL A   1      38.261  31.210  30.806  1.00  0.00     0.074 A 
ATOM     36  C   UNL A   1      37.846  32.815  32.649  1.00  0.00     0.049 A 
ATOM     37  N   UNL A   1      39.239  30.498  31.301  1.00  0.00    -0.248 NA
ATOM     38  C   UNL A   1      37.834  30.788  29.462  1.00  0.00     0.031 C 
ATOM     39  C   UNL A   1      37.174  33.907  33.356  1.00  0.00     0.029 A 
ATOM     40  N   UNL A   1      38.842  32.428  33.508  1.00  0.00    -0.354 N 
ATOM     41  C   UNL A   1      39.542  29.550  30.332  1.00  0.00     0.074 A 
ATOM     42  C   UNL A   1      38.591  29.723  29.257  1.00  0.00     0.031 C 
ATOM     43  C   UNL A   1      37.811  34.138  34.514  1.00  0.00     0.029 A 
ATOM     44  C   UNL A   1      38.902  33.179  34.658  1.00  0.00     0.049 A 
ATOM     45  H   UNL A   1      39.457  31.683  33.318  1.00  0.00     0.167 HD
ATOM     46  C   UNL A   1      40.547  28.642  30.321  1.00  0.00     0.034 A 
ATOM     47  C   UNL A   1      39.743  33.103  35.707  1.00  0.00     0.034 A 
ATOM     48  C   UNL A   1      41.499  28.495  31.390  1.00  0.00     0.049 A 
ATOM     49  C   UNL A   1      40.817  32.048  35.700  1.00  0.00     0.074 A 
ATOM     50  C   UNL A   1      42.569  27.624  31.476  1.00  0.00     0.029 A 
ATOM     51  N   UNL A   1      41.497  29.243  32.560  1.00  0.00    -0.354 N 
ATOM     52  N   UNL A   1      41.088  31.154  34.777  1.00  0.00    -0.248 NA
ATOM     53  C   UNL A   1      41.694  31.986  36.876  1.00  0.00     0.031 C 
ATOM     54  C   UNL A   1      43.182  27.806  32.720  1.00  0.00     0.029 A 
ATOM     55  C   UNL A   1      42.534  28.837  33.384  1.00  0.00     0.049 A 
ATOM     56  H   UNL A   1      40.854  29.958  32.773  1.00  0.00     0.167 HD
ATOM     57  C   UNL A   1      42.182  30.438  35.251  1.00  0.00     0.074 A 
ATOM     58  C   UNL A   1      42.524  31.008  36.540  1.00  0.00     0.031 C 
ATOM     59  C   UNL A   1      42.847  29.407  34.672  1.00  0.00     0.034 A 
BRANCH  46  60
ATOM     60  C   UNL A   1      40.661  27.748  29.115  1.00  0.00     0.023 A 
ATOM     61  C   UNL A   1      41.589  28.016  28.093  1.00  0.00     0.031 A 
ATOM     62  C   UNL A   1      39.832  26.623  28.974  1.00  0.00     0.131 A 
ATOM     63  C   UNL A   1      41.626  27.206  26.950  1.00  0.00     0.055 A 
ATOM     64  C   UNL A   1      39.923  25.777  27.867  1.00  0.00     0.041 A 
ATOM     65  F   UNL A   1      38.913  26.331  29.908  1.00  0.00    -0.206 F 
ATOM     66  C   UNL A   1      40.817  26.073  26.841  1.00  0.00     0.022 A 
BRANCH  63  67
ATOM     67  S   UNL A   1      42.674  27.715  25.561  1.00  0.00     0.124 S 
ATOM     68  O   UNL A   1      42.646  26.522  24.719  1.00  0.00    -0.237 OA
ATOM     69  O   UNL A   1      41.969  28.881  25.042  1.00  0.00    -0.237 OA
ATOM     70  O   UNL A   1      43.964  27.995  26.191  1.00  0.00    -0.744 OA
ENDBRANCH  63  67
ENDBRANCH  46  60
BRANCH  47  71
ATOM     71  C   UNL A   1      39.615  34.065  36.834  1.00  0.00     0.023 A 
ATOM     72  C   UNL A   1      39.092  33.653  38.069  1.00  0.00     0.031 A 
ATOM     73  C   UNL A   1      40.030  35.402  36.703  1.00  0.00     0.131 A 
ATOM     74  C   UNL A   1      38.979  34.573  39.122  1.00  0.00     0.055 A 
ATOM     75  C   UNL A   1      39.949  36.305  37.764  1.00  0.00     0.041 A 
ATOM     76  F   UNL A   1      40.549  35.841  35.545  1.00  0.00    -0.206 F 
ATOM     77  C   UNL A   1      39.416  35.893  38.982  1.00  0.00     0.022 A 
BRANCH  74  78
ATOM     78  S   UNL A   1      38.231  34.025  40.680  1.00  0.00     0.124 S 
ATOM     79  O   UNL A   1      39.282  33.177  41.232  1.00  0.00    -0.237 OA
ATOM     80  O   UNL A   1      37.997  35.290  41.369  1.00  0.00    -0.237 OA
ATOM     81  O   UNL A   1      37.024  33.323  40.248  1.00  0.00    -0.744 OA
ENDBRANCH  74  78
ENDBRANCH  47  71
BRANCH  59  82
ATOM     82  C   UNL A   1      44.024  28.838  35.417  1.00  0.00     0.023 A 
ATOM     83  C   UNL A   1      43.867  27.795  36.343  1.00  0.00     0.031 A 
ATOM     84  C   UNL A   1      45.323  29.306  35.152  1.00  0.00     0.131 A 
ATOM     85  C   UNL A   1      44.991  27.270  36.996  1.00  0.00     0.055 A 
ATOM     86  C   UNL A   1      46.442  28.748  35.769  1.00  0.00     0.041 A 
ATOM     87  F   UNL A   1      45.524  30.300  34.271  1.00  0.00    -0.206 F 
ATOM     88  C   UNL A   1      46.278  27.727  36.700  1.00  0.00     0.022 A 
BRANCH  85  89
ATOM     89  S   UNL A   1      44.745  26.001  38.268  1.00  0.00     0.124 S 
ATOM     90  O   UNL A   1      43.828  25.081  37.602  1.00  0.00    -0.237 OA
ATOM     91  O   UNL A   1      46.100  25.506  38.487  1.00  0.00    -0.237 OA
ATOM     92  O   UNL A   1      44.171  26.747  39.387  1.00  0.00    -0.744 OA
ENDBRANCH  85  89
ENDBRANCH  59  82
ENDBRANCH  33  34
ENDBRANCH  25  28
ENDBRANCH   1  24
TORSDOF 14
ENDMDL
