MODEL 1
REMARK VINA RESULT:     -13.7      0.000      0.000
REMARK SMILES O=C(NCCCNC(=O)c1ccccc1Nc1cccc(S(F)(F)(F)(F)F)c1)c1ccc(-c2c3nc(c(-c4cc(S(=O)(=O)[O-])ccc4F)c4ccc([nH]4)c(-c4cc(S(=O)(=O)[O-])ccc4F)c4nc(c(-c5cc(S(=O)(=O)[O-])ccc5F)c5ccc2[nH]5)C=C4)C=C3)cc1
REMARK SMILES IDX 5 1 4 2 3 3 1 4 2 5 29 7 30 8 91 9 31 10 90 11 32 12 33 13
REMARK SMILES IDX 34 14 84 15 35 16 89 17 83 18 85 19 36 20 88 21 82 22 81 23
REMARK SMILES IDX 37 25 69 26 49 27 68 28 50 29 53 30 67 31 86 32 51 33 52 34
REMARK SMILES IDX 66 36 87 37 54 38 38 39 39 40 47 41 40 42 46 43 48 44 45 45
REMARK SMILES IDX 41 46 42 47 43 48 44 49 70 50 71 51 79 52 72 53 78 54 80 55
REMARK SMILES IDX 77 56 73 57 74 58 75 59 76 60 55 61 56 62 64 63 57 64 63 65
REMARK SMILES IDX 65 66 62 67 58 68 59 69 60 70 61 71 6 72 7 73 8 74 9 76
REMARK SMILES IDX 10 77 11 78 15 79 12 80 14 81 13 82 16 83 17 85 18 86 28 87
REMARK SMILES IDX 19 88 21 89 20 90 22 91 23 92 24 93 25 94 26 95 27 96
REMARK H PARENT 3 6 85 24 53 35 7 75 16 84
REMARK Flexibility Score: inf
ROOT
ATOM      1  C   UNL A   1      31.766  30.597  26.197  1.00  0.00     0.042 C 
ENDROOT
BRANCH   1   2
ATOM      2  C   UNL A   1      32.823  31.359  26.979  1.00  0.00     0.118 C 
BRANCH   2   3
ATOM      3  N   UNL A   1      32.372  32.741  27.195  1.00  0.00    -0.352 N 
ATOM      4  O   UNL A   1      32.784  34.850  28.208  1.00  0.00    -0.269 OA
ATOM      5  C   UNL A   1      33.174  33.655  28.021  1.00  0.00     0.251 C 
ATOM      6  H   UNL A   1      31.532  33.055  26.787  1.00  0.00     0.163 HD
BRANCH   5   7
ATOM      7  C   UNL A   1      34.470  33.173  28.650  1.00  0.00     0.039 A 
ATOM      8  C   UNL A   1      35.694  33.407  28.044  1.00  0.00     0.014 A 
ATOM      9  C   UNL A   1      34.373  32.415  29.736  1.00  0.00     0.014 A 
ATOM     10  C   UNL A   1      36.730  32.555  28.497  1.00  0.00     0.010 A 
ATOM     11  C   UNL A   1      35.461  31.717  30.202  1.00  0.00     0.010 A 
ATOM     12  C   UNL A   1      36.688  31.855  29.616  1.00  0.00    -0.014 A 
BRANCH  12  13
ATOM     13  C   UNL A   1      37.938  31.235  30.219  1.00  0.00     0.031 A 
ATOM     14  C   UNL A   1      38.245  31.612  31.528  1.00  0.00     0.074 A 
ATOM     15  C   UNL A   1      38.642  30.282  29.503  1.00  0.00     0.049 A 
ATOM     16  N   UNL A   1      39.207  31.123  32.310  1.00  0.00    -0.248 NA
ATOM     17  C   UNL A   1      37.520  32.649  32.277  1.00  0.00     0.031 C 
ATOM     18  C   UNL A   1      38.335  29.891  28.185  1.00  0.00     0.029 A 
ATOM     19  N   UNL A   1      39.738  29.555  29.914  1.00  0.00    -0.354 N 
ATOM     20  C   UNL A   1      39.177  31.720  33.504  1.00  0.00     0.074 A 
ATOM     21  C   UNL A   1      38.097  32.714  33.498  1.00  0.00     0.031 C 
ATOM     22  C   UNL A   1      39.239  28.950  27.803  1.00  0.00     0.029 A 
ATOM     23  C   UNL A   1      40.125  28.737  28.876  1.00  0.00     0.049 A 
ATOM     24  H   UNL A   1      40.170  29.611  30.796  1.00  0.00     0.167 HD
ATOM     25  C   UNL A   1      40.008  31.472  34.599  1.00  0.00     0.034 A 
ATOM     26  C   UNL A   1      41.190  27.851  28.845  1.00  0.00     0.034 A 
ATOM     27  C   UNL A   1      41.046  30.554  34.583  1.00  0.00     0.049 A 
ATOM     28  C   UNL A   1      42.059  27.645  29.920  1.00  0.00     0.074 A 
ATOM     29  C   UNL A   1      41.889  30.287  35.679  1.00  0.00     0.029 A 
ATOM     30  N   UNL A   1      41.449  29.754  33.536  1.00  0.00    -0.354 N 
ATOM     31  N   UNL A   1      42.005  28.213  31.126  1.00  0.00    -0.248 NA
ATOM     32  C   UNL A   1      43.209  26.732  29.889  1.00  0.00     0.031 C 
ATOM     33  C   UNL A   1      42.793  29.346  35.296  1.00  0.00     0.029 A 
ATOM     34  C   UNL A   1      42.530  29.010  33.954  1.00  0.00     0.049 A 
ATOM     35  H   UNL A   1      41.036  29.720  32.643  1.00  0.00     0.167 HD
ATOM     36  C   UNL A   1      42.993  27.753  31.895  1.00  0.00     0.074 A 
ATOM     37  C   UNL A   1      43.786  26.800  31.109  1.00  0.00     0.031 C 
ATOM     38  C   UNL A   1      43.262  28.087  33.224  1.00  0.00     0.034 A 
BRANCH  25  39
ATOM     39  C   UNL A   1      39.761  32.253  35.878  1.00  0.00     0.023 A 
ATOM     40  C   UNL A   1      38.943  31.757  36.879  1.00  0.00     0.031 A 
ATOM     41  C   UNL A   1      40.328  33.450  35.982  1.00  0.00     0.131 A 
ATOM     42  C   UNL A   1      38.547  32.727  37.831  1.00  0.00     0.055 A 
ATOM     43  C   UNL A   1      39.996  34.294  37.014  1.00  0.00     0.041 A 
ATOM     44  F   UNL A   1      41.225  33.835  35.078  1.00  0.00    -0.206 F 
ATOM     45  C   UNL A   1      39.147  33.890  38.008  1.00  0.00     0.022 A 
BRANCH  42  46
ATOM     46  S   UNL A   1      37.122  32.346  38.879  1.00  0.00     0.124 S 
ATOM     47  O   UNL A   1      35.871  33.012  38.301  1.00  0.00    -0.237 OA
ATOM     48  O   UNL A   1      36.917  30.830  38.930  1.00  0.00    -0.237 OA
ATOM     49  O   UNL A   1      37.403  32.936  40.459  1.00  0.00    -0.744 OA
ENDBRANCH  42  46
ENDBRANCH  25  39
BRANCH  26  50
ATOM     50  C   UNL A   1      41.426  27.057  27.571  1.00  0.00     0.023 A 
ATOM     51  C   UNL A   1      40.965  25.751  27.544  1.00  0.00     0.031 A 
ATOM     52  C   UNL A   1      42.032  27.595  26.519  1.00  0.00     0.131 A 
ATOM     53  C   UNL A   1      41.450  24.994  26.452  1.00  0.00     0.055 A 
ATOM     54  C   UNL A   1      42.355  26.826  25.428  1.00  0.00     0.041 A 
ATOM     55  F   UNL A   1      42.328  28.893  26.521  1.00  0.00    -0.206 F 
ATOM     56  C   UNL A   1      41.982  25.511  25.359  1.00  0.00     0.022 A 
BRANCH  53  57
ATOM     57  S   UNL A   1      41.333  23.191  26.558  1.00  0.00     0.124 S 
ATOM     58  O   UNL A   1      41.896  22.722  27.902  1.00  0.00    -0.237 OA
ATOM     59  O   UNL A   1      39.867  22.768  26.444  1.00  0.00    -0.237 OA
ATOM     60  O   UNL A   1      42.232  22.485  25.286  1.00  0.00    -0.744 OA
ENDBRANCH  53  57
ENDBRANCH  26  50
BRANCH  38  61
ATOM     61  C   UNL A   1      44.430  27.397  33.910  1.00  0.00     0.023 A 
ATOM     62  C   UNL A   1      44.271  26.145  34.479  1.00  0.00     0.031 A 
ATOM     63  C   UNL A   1      45.579  28.057  34.006  1.00  0.00     0.131 A 
ATOM     64  C   UNL A   1      45.300  25.793  35.387  1.00  0.00     0.055 A 
ATOM     65  C   UNL A   1      46.592  27.585  34.805  1.00  0.00     0.041 A 
ATOM     66  F   UNL A   1      45.749  29.186  33.322  1.00  0.00    -0.206 F 
ATOM     67  C   UNL A   1      46.479  26.383  35.445  1.00  0.00     0.022 A 
BRANCH  64  68
ATOM     68  S   UNL A   1      44.974  24.442  36.546  1.00  0.00     0.124 S 
ATOM     69  O   UNL A   1      44.247  24.990  37.776  1.00  0.00    -0.237 OA
ATOM     70  O   UNL A   1      44.101  23.385  35.865  1.00  0.00    -0.237 OA
ATOM     71  O   UNL A   1      46.454  23.735  37.026  1.00  0.00    -0.744 OA
ENDBRANCH  64  68
ENDBRANCH  38  61
ENDBRANCH  12  13
ENDBRANCH   5   7
ENDBRANCH   2   3
ENDBRANCH   1   2
BRANCH   1  72
ATOM     72  C   UNL A   1      32.367  29.311  25.653  1.00  0.00     0.118 C 
BRANCH  72  73
ATOM     73  N   UNL A   1      33.255  29.624  24.524  1.00  0.00    -0.352 N 
ATOM     74  C   UNL A   1      33.609  28.577  23.556  1.00  0.00     0.253 C 
ATOM     75  H   UNL A   1      33.614  30.535  24.418  1.00  0.00     0.163 HD
ATOM     76  O   UNL A   1      34.377  28.848  22.580  1.00  0.00    -0.269 OA
BRANCH  74  77
ATOM     77  C   UNL A   1      33.056  27.171  23.720  1.00  0.00     0.063 A 
ATOM     78  C   UNL A   1      33.673  26.322  24.625  1.00  0.00     0.016 A 
ATOM     79  C   UNL A   1      32.042  26.758  22.969  1.00  0.00     0.051 A 
ATOM     80  C   UNL A   1      33.331  24.959  24.457  1.00  0.00     0.001 A 
ATOM     81  C   UNL A   1      31.674  25.435  22.957  1.00  0.00     0.027 A 
ATOM     82  C   UNL A   1      32.280  24.528  23.782  1.00  0.00     0.002 A 
BRANCH  79  83
ATOM     83  N   UNL A   1      31.305  27.726  22.143  1.00  0.00    -0.355 N 
ATOM     84  H   UNL A   1      31.634  27.956  21.244  1.00  0.00     0.167 HD
BRANCH  83  85
ATOM     85  C   UNL A   1      30.079  28.351  22.660  1.00  0.00     0.040 A 
ATOM     86  C   UNL A   1      29.024  27.579  23.118  1.00  0.00     0.026 A 
ATOM     87  C   UNL A   1      30.007  29.676  22.644  1.00  0.00     0.050 A 
ATOM     88  C   UNL A   1      27.813  28.297  23.269  1.00  0.00     0.004 A 
ATOM     89  C   UNL A   1      28.827  30.316  22.935  1.00  0.00     0.109 A 
ATOM     90  C   UNL A   1      27.726  29.612  23.337  1.00  0.00     0.024 A 
BRANCH  89  91
ATOM     91  S   UNL A   1      28.728  32.118  22.784  1.00  0.00     0.310 S 
ATOM     92  F   UNL A   1      27.311  31.990  23.486  1.00  0.00    -0.094 F 
ATOM     93  F   UNL A   1      27.981  31.975  21.404  1.00  0.00    -0.094 F 
ATOM     94  F   UNL A   1      28.514  33.658  22.772  1.00  0.00    -0.094 F 
ATOM     95  F   UNL A   1      29.353  32.223  24.231  1.00  0.00    -0.094 F 
ATOM     96  F   UNL A   1      28.850  30.543  22.862  1.00  0.00    -0.094 F 
ENDBRANCH  89  91
ENDBRANCH  83  85
ENDBRANCH  79  83
ENDBRANCH  74  77
ENDBRANCH  72  73
ENDBRANCH   1  72
TORSDOF 16
ENDMDL
MODEL 2
REMARK VINA RESULT:     -13.4      0.689      7.388
REMARK SMILES O=C(NCCCNC(=O)c1ccccc1Nc1cccc(S(F)(F)(F)(F)F)c1)c1ccc(-c2c3nc(c(-c4cc(S(=O)(=O)[O-])ccc4F)c4ccc([nH]4)c(-c4cc(S(=O)(=O)[O-])ccc4F)c4nc(c(-c5cc(S(=O)(=O)[O-])ccc5F)c5ccc2[nH]5)C=C4)C=C3)cc1
REMARK SMILES IDX 5 1 4 2 3 3 1 4 2 5 29 7 30 8 91 9 31 10 90 11 32 12 33 13
REMARK SMILES IDX 34 14 84 15 35 16 89 17 83 18 85 19 36 20 88 21 82 22 81 23
REMARK SMILES IDX 37 25 69 26 49 27 68 28 50 29 53 30 67 31 86 32 51 33 52 34
REMARK SMILES IDX 66 36 87 37 54 38 38 39 39 40 47 41 40 42 46 43 48 44 45 45
REMARK SMILES IDX 41 46 42 47 43 48 44 49 70 50 71 51 79 52 72 53 78 54 80 55
REMARK SMILES IDX 77 56 73 57 74 58 75 59 76 60 55 61 56 62 64 63 57 64 63 65
REMARK SMILES IDX 65 66 62 67 58 68 59 69 60 70 61 71 6 72 7 73 8 74 9 76
REMARK SMILES IDX 10 77 11 78 15 79 12 80 14 81 13 82 16 83 17 85 18 86 28 87
REMARK SMILES IDX 19 88 21 89 20 90 22 91 23 92 24 93 25 94 26 95 27 96
REMARK H PARENT 3 6 85 24 53 35 7 75 16 84
REMARK Flexibility Score: inf
ROOT
ATOM      1  C   UNL A   1      31.659  31.262  26.480  1.00  0.00     0.042 C 
ENDROOT
BRANCH   1   2
ATOM      2  C   UNL A   1      32.819  32.013  27.112  1.00  0.00     0.118 C 
BRANCH   2   3
ATOM      3  N   UNL A   1      32.419  33.401  27.376  1.00  0.00    -0.352 N 
ATOM      4  O   UNL A   1      32.851  35.427  28.541  1.00  0.00    -0.269 OA
ATOM      5  C   UNL A   1      33.197  34.226  28.312  1.00  0.00     0.251 C 
ATOM      6  H   UNL A   1      31.629  33.781  26.927  1.00  0.00     0.163 HD
BRANCH   5   7
ATOM      7  C   UNL A   1      34.417  33.642  29.006  1.00  0.00     0.039 A 
ATOM      8  C   UNL A   1      35.698  33.901  28.546  1.00  0.00     0.014 A 
ATOM      9  C   UNL A   1      34.201  32.779  29.991  1.00  0.00     0.014 A 
ATOM     10  C   UNL A   1      36.669  32.977  29.001  1.00  0.00     0.010 A 
ATOM     11  C   UNL A   1      35.225  32.005  30.481  1.00  0.00     0.010 A 
ATOM     12  C   UNL A   1      36.505  32.166  30.031  1.00  0.00    -0.014 A 
BRANCH  12  13
ATOM     13  C   UNL A   1      37.679  31.451  30.679  1.00  0.00     0.031 A 
ATOM     14  C   UNL A   1      38.308  30.472  29.908  1.00  0.00     0.074 A 
ATOM     15  C   UNL A   1      38.119  31.853  31.929  1.00  0.00     0.049 A 
ATOM     16  N   UNL A   1      39.420  29.797  30.201  1.00  0.00    -0.248 NA
ATOM     17  C   UNL A   1      37.823  30.018  28.597  1.00  0.00     0.031 C 
ATOM     18  C   UNL A   1      37.494  32.846  32.710  1.00  0.00     0.029 A 
ATOM     19  N   UNL A   1      39.208  31.388  32.632  1.00  0.00    -0.354 N 
ATOM     20  C   UNL A   1      39.725  28.958  29.208  1.00  0.00     0.074 A 
ATOM     21  C   UNL A   1      38.698  29.084  28.165  1.00  0.00     0.031 C 
ATOM     22  C   UNL A   1      38.189  32.967  33.871  1.00  0.00     0.029 A 
ATOM     23  C   UNL A   1      39.261  32.055  33.835  1.00  0.00     0.049 A 
ATOM     24  H   UNL A   1      39.839  30.696  32.327  1.00  0.00     0.167 HD
ATOM     25  C   UNL A   1      40.819  28.095  29.130  1.00  0.00     0.034 A 
ATOM     26  C   UNL A   1      40.181  31.890  34.858  1.00  0.00     0.034 A 
ATOM     27  C   UNL A   1      41.765  27.961  30.135  1.00  0.00     0.049 A 
ATOM     28  C   UNL A   1      41.244  30.983  34.806  1.00  0.00     0.074 A 
ATOM     29  C   UNL A   1      42.878  27.101  30.071  1.00  0.00     0.029 A 
ATOM     30  N   UNL A   1      41.803  28.610  31.349  1.00  0.00    -0.354 N 
ATOM     31  N   UNL A   1      41.570  30.174  33.798  1.00  0.00    -0.248 NA
ATOM     32  C   UNL A   1      42.206  30.776  35.897  1.00  0.00     0.031 C 
ATOM     33  C   UNL A   1      43.573  27.224  31.233  1.00  0.00     0.029 A 
ATOM     34  C   UNL A   1      42.905  28.161  32.043  1.00  0.00     0.049 A 
ATOM     35  H   UNL A   1      41.155  29.280  31.667  1.00  0.00     0.167 HD
ATOM     36  C   UNL A   1      42.659  29.469  34.108  1.00  0.00     0.074 A 
ATOM     37  C   UNL A   1      43.080  29.840  35.465  1.00  0.00     0.031 C 
ATOM     38  C   UNL A   1      43.322  28.533  33.311  1.00  0.00     0.034 A 
BRANCH  25  39
ATOM     39  C   UNL A   1      40.983  27.256  27.875  1.00  0.00     0.023 A 
ATOM     40  C   UNL A   1      40.551  25.941  27.825  1.00  0.00     0.031 A 
ATOM     41  C   UNL A   1      41.596  27.819  26.839  1.00  0.00     0.131 A 
ATOM     42  C   UNL A   1      41.071  25.207  26.732  1.00  0.00     0.055 A 
ATOM     43  C   UNL A   1      41.955  27.069  25.746  1.00  0.00     0.041 A 
ATOM     44  F   UNL A   1      41.864  29.122  26.862  1.00  0.00    -0.206 F 
ATOM     45  C   UNL A   1      41.611  25.748  25.656  1.00  0.00     0.022 A 
BRANCH  42  46
ATOM     46  S   UNL A   1      40.991  23.400  26.817  1.00  0.00     0.124 S 
ATOM     47  O   UNL A   1      41.422  22.935  28.210  1.00  0.00    -0.237 OA
ATOM     48  O   UNL A   1      39.556  22.941  26.547  1.00  0.00    -0.237 OA
ATOM     49  O   UNL A   1      42.035  22.728  25.642  1.00  0.00    -0.744 OA
ENDBRANCH  42  46
ENDBRANCH  25  39
BRANCH  26  50
ATOM     50  C   UNL A   1      40.027  32.742  36.107  1.00  0.00     0.023 A 
ATOM     51  C   UNL A   1      39.281  32.211  37.147  1.00  0.00     0.031 A 
ATOM     52  C   UNL A   1      40.597  33.936  36.208  1.00  0.00     0.131 A 
ATOM     53  C   UNL A   1      38.952  33.149  38.153  1.00  0.00     0.055 A 
ATOM     54  C   UNL A   1      40.338  34.746  37.287  1.00  0.00     0.041 A 
ATOM     55  F   UNL A   1      41.429  34.353  35.257  1.00  0.00    -0.206 F 
ATOM     56  C   UNL A   1      39.561  34.309  38.324  1.00  0.00     0.022 A 
BRANCH  53  57
ATOM     57  S   UNL A   1      37.605  32.731  39.287  1.00  0.00     0.124 S 
ATOM     58  O   UNL A   1      36.274  32.765  38.532  1.00  0.00    -0.237 OA
ATOM     59  O   UNL A   1      37.833  31.328  39.856  1.00  0.00    -0.237 OA
ATOM     60  O   UNL A   1      37.563  33.865  40.567  1.00  0.00    -0.744 OA
ENDBRANCH  53  57
ENDBRANCH  26  50
BRANCH  38  61
ATOM     61  C   UNL A   1      44.576  27.882  33.871  1.00  0.00     0.023 A 
ATOM     62  C   UNL A   1      44.494  26.702  34.591  1.00  0.00     0.031 A 
ATOM     63  C   UNL A   1      45.735  28.511  33.708  1.00  0.00     0.131 A 
ATOM     64  C   UNL A   1      45.652  26.415  35.354  1.00  0.00     0.055 A 
ATOM     65  C   UNL A   1      46.858  28.093  34.380  1.00  0.00     0.041 A 
ATOM     66  F   UNL A   1      45.808  29.555  32.887  1.00  0.00    -0.206 F 
ATOM     67  C   UNL A   1      46.834  26.969  35.157  1.00  0.00     0.022 A 
BRANCH  64  68
ATOM     68  S   UNL A   1      45.501  25.204  36.690  1.00  0.00     0.124 S 
ATOM     69  O   UNL A   1      46.181  25.746  37.949  1.00  0.00    -0.237 OA
ATOM     70  O   UNL A   1      44.020  24.946  36.980  1.00  0.00    -0.237 OA
ATOM     71  O   UNL A   1      46.252  23.741  36.221  1.00  0.00    -0.744 OA
ENDBRANCH  64  68
ENDBRANCH  38  61
ENDBRANCH  12  13
ENDBRANCH   5   7
ENDBRANCH   2   3
ENDBRANCH   1   2
BRANCH   1  72
ATOM     72  C   UNL A   1      32.114  29.866  26.086  1.00  0.00     0.118 C 
BRANCH  72  73
ATOM     73  N   UNL A   1      32.998  29.950  24.915  1.00  0.00    -0.352 N 
ATOM     74  C   UNL A   1      33.378  28.728  24.191  1.00  0.00     0.253 C 
ATOM     75  H   UNL A   1      33.337  30.825  24.616  1.00  0.00     0.163 HD
ATOM     76  O   UNL A   1      34.142  28.802  23.179  1.00  0.00    -0.269 OA
BRANCH  74  77
ATOM     77  C   UNL A   1      32.855  27.378  24.652  1.00  0.00     0.063 A 
ATOM     78  C   UNL A   1      33.420  26.803  25.779  1.00  0.00     0.016 A 
ATOM     79  C   UNL A   1      31.919  26.748  23.953  1.00  0.00     0.051 A 
ATOM     80  C   UNL A   1      33.134  25.425  25.924  1.00  0.00     0.001 A 
ATOM     81  C   UNL A   1      31.593  25.444  24.237  1.00  0.00     0.027 A 
ATOM     82  C   UNL A   1      32.155  24.794  25.300  1.00  0.00     0.002 A 
BRANCH  79  83
ATOM     83  N   UNL A   1      31.224  27.451  22.865  1.00  0.00    -0.355 N 
ATOM     84  H   UNL A   1      31.620  27.475  21.963  1.00  0.00     0.167 HD
BRANCH  83  85
ATOM     85  C   UNL A   1      29.941  28.120  23.123  1.00  0.00     0.040 A 
ATOM     86  C   UNL A   1      28.801  27.388  23.414  1.00  0.00     0.026 A 
ATOM     87  C   UNL A   1      29.906  29.444  23.036  1.00  0.00     0.050 A 
ATOM     88  C   UNL A   1      27.602  28.132  23.312  1.00  0.00     0.004 A 
ATOM     89  C   UNL A   1      28.708  30.116  23.080  1.00  0.00     0.109 A 
ATOM     90  C   UNL A   1      27.536  29.450  23.305  1.00  0.00     0.024 A 
BRANCH  89  91
ATOM     91  S   UNL A   1      28.683  31.910  22.834  1.00  0.00     0.310 S 
ATOM     92  F   UNL A   1      27.236  31.868  23.483  1.00  0.00    -0.094 F 
ATOM     93  F   UNL A   1      27.985  31.723  21.435  1.00  0.00    -0.094 F 
ATOM     94  F   UNL A   1      28.528  33.454  22.737  1.00  0.00    -0.094 F 
ATOM     95  F   UNL A   1      29.255  32.068  24.299  1.00  0.00    -0.094 F 
ATOM     96  F   UNL A   1      28.743  30.338  22.997  1.00  0.00    -0.094 F 
ENDBRANCH  89  91
ENDBRANCH  83  85
ENDBRANCH  79  83
ENDBRANCH  74  77
ENDBRANCH  72  73
ENDBRANCH   1  72
TORSDOF 16
ENDMDL
MODEL 3
REMARK VINA RESULT:     -13.3      6.649     11.531
REMARK SMILES O=C(NCCCNC(=O)c1ccccc1Nc1cccc(S(F)(F)(F)(F)F)c1)c1ccc(-c2c3nc(c(-c4cc(S(=O)(=O)[O-])ccc4F)c4ccc([nH]4)c(-c4cc(S(=O)(=O)[O-])ccc4F)c4nc(c(-c5cc(S(=O)(=O)[O-])ccc5F)c5ccc2[nH]5)C=C4)C=C3)cc1
REMARK SMILES IDX 5 1 4 2 3 3 1 4 2 5 29 7 30 8 91 9 31 10 90 11 32 12 33 13
REMARK SMILES IDX 34 14 84 15 35 16 89 17 83 18 85 19 36 20 88 21 82 22 81 23
REMARK SMILES IDX 37 25 69 26 49 27 68 28 50 29 53 30 67 31 86 32 51 33 52 34
REMARK SMILES IDX 66 36 87 37 54 38 38 39 39 40 47 41 40 42 46 43 48 44 45 45
REMARK SMILES IDX 41 46 42 47 43 48 44 49 70 50 71 51 79 52 72 53 78 54 80 55
REMARK SMILES IDX 77 56 73 57 74 58 75 59 76 60 55 61 56 62 64 63 57 64 63 65
REMARK SMILES IDX 65 66 62 67 58 68 59 69 60 70 61 71 6 72 7 73 8 74 9 76
REMARK SMILES IDX 10 77 11 78 15 79 12 80 14 81 13 82 16 83 17 85 18 86 28 87
REMARK SMILES IDX 19 88 21 89 20 90 22 91 23 92 24 93 25 94 26 95 27 96
REMARK H PARENT 3 6 85 24 53 35 7 75 16 84
REMARK Flexibility Score: inf
ROOT
ATOM      1  C   UNL A   1      37.284  20.587  24.775  1.00  0.00     0.042 C 
ENDROOT
BRANCH   1   2
ATOM      2  C   UNL A   1      38.515  20.850  25.627  1.00  0.00     0.118 C 
BRANCH   2   3
ATOM      3  N   UNL A   1      39.387  19.668  25.607  1.00  0.00    -0.352 N 
ATOM      4  O   UNL A   1      41.537  18.753  26.039  1.00  0.00    -0.269 OA
ATOM      5  C   UNL A   1      40.782  19.776  26.056  1.00  0.00     0.251 C 
ATOM      6  H   UNL A   1      39.036  18.802  25.294  1.00  0.00     0.163 HD
BRANCH   5   7
ATOM      7  C   UNL A   1      41.324  21.111  26.541  1.00  0.00     0.039 A 
ATOM      8  C   UNL A   1      41.214  21.491  27.868  1.00  0.00     0.014 A 
ATOM      9  C   UNL A   1      41.795  21.945  25.622  1.00  0.00     0.014 A 
ATOM     10  C   UNL A   1      41.359  22.884  28.079  1.00  0.00     0.010 A 
ATOM     11  C   UNL A   1      42.044  23.261  25.932  1.00  0.00     0.010 A 
ATOM     12  C   UNL A   1      41.900  23.720  27.212  1.00  0.00    -0.014 A 
BRANCH  12  13
ATOM     13  C   UNL A   1      42.337  25.118  27.615  1.00  0.00     0.031 A 
ATOM     14  C   UNL A   1      43.642  25.480  27.273  1.00  0.00     0.074 A 
ATOM     15  C   UNL A   1      41.424  25.979  28.198  1.00  0.00     0.049 A 
ATOM     16  N   UNL A   1      44.215  26.676  27.406  1.00  0.00    -0.248 NA
ATOM     17  C   UNL A   1      44.625  24.558  26.687  1.00  0.00     0.031 C 
ATOM     18  C   UNL A   1      40.103  25.625  28.538  1.00  0.00     0.029 A 
ATOM     19  N   UNL A   1      41.609  27.298  28.549  1.00  0.00    -0.354 N 
ATOM     20  C   UNL A   1      45.470  26.639  26.951  1.00  0.00     0.074 A 
ATOM     21  C   UNL A   1      45.753  25.274  26.487  1.00  0.00     0.031 C 
ATOM     22  C   UNL A   1      39.506  26.710  29.097  1.00  0.00     0.029 A 
ATOM     23  C   UNL A   1      40.442  27.761  29.114  1.00  0.00     0.049 A 
ATOM     24  H   UNL A   1      42.434  27.819  28.419  1.00  0.00     0.167 HD
ATOM     25  C   UNL A   1      46.387  27.690  26.902  1.00  0.00     0.034 A 
ATOM     26  C   UNL A   1      40.188  29.025  29.623  1.00  0.00     0.034 A 
ATOM     27  C   UNL A   1      46.120  28.966  27.372  1.00  0.00     0.049 A 
ATOM     28  C   UNL A   1      41.126  30.061  29.629  1.00  0.00     0.074 A 
ATOM     29  C   UNL A   1      47.030  30.039  27.325  1.00  0.00     0.029 A 
ATOM     30  N   UNL A   1      44.961  29.423  27.960  1.00  0.00    -0.354 N 
ATOM     31  N   UNL A   1      42.366  30.035  29.138  1.00  0.00    -0.248 NA
ATOM     32  C   UNL A   1      40.880  31.394  30.195  1.00  0.00     0.031 C 
ATOM     33  C   UNL A   1      46.432  31.125  27.883  1.00  0.00     0.029 A 
ATOM     34  C   UNL A   1      45.138  30.748  28.291  1.00  0.00     0.049 A 
ATOM     35  H   UNL A   1      44.146  28.893  28.117  1.00  0.00     0.167 HD
ATOM     36  C   UNL A   1      42.953  31.221  29.309  1.00  0.00     0.074 A 
ATOM     37  C   UNL A   1      42.009  32.110  29.998  1.00  0.00     0.031 C 
ATOM     38  C   UNL A   1      44.238  31.598  28.913  1.00  0.00     0.034 A 
BRANCH  25  39
ATOM     39  C   UNL A   1      47.756  27.420  26.300  1.00  0.00     0.023 A 
ATOM     40  C   UNL A   1      48.053  27.778  24.995  1.00  0.00     0.031 A 
ATOM     41  C   UNL A   1      48.644  26.790  27.060  1.00  0.00     0.131 A 
ATOM     42  C   UNL A   1      49.222  27.166  24.484  1.00  0.00     0.055 A 
ATOM     43  C   UNL A   1      49.826  26.338  26.526  1.00  0.00     0.041 A 
ATOM     44  F   UNL A   1      48.386  26.594  28.350  1.00  0.00    -0.206 F 
ATOM     45  C   UNL A   1      50.159  26.605  25.227  1.00  0.00     0.022 A 
BRANCH  42  46
ATOM     46  S   UNL A   1      49.450  27.152  22.689  1.00  0.00     0.124 S 
ATOM     47  O   UNL A   1      48.875  28.440  22.092  1.00  0.00    -0.237 OA
ATOM     48  O   UNL A   1      50.943  27.061  22.365  1.00  0.00    -0.237 OA
ATOM     49  O   UNL A   1      48.638  25.803  22.022  1.00  0.00    -0.744 OA
ENDBRANCH  42  46
ENDBRANCH  25  39
BRANCH  26  50
ATOM     50  C   UNL A   1      38.814  29.299  30.210  1.00  0.00     0.023 A 
ATOM     51  C   UNL A   1      37.872  29.875  29.373  1.00  0.00     0.031 A 
ATOM     52  C   UNL A   1      38.518  28.984  31.466  1.00  0.00     0.131 A 
ATOM     53  C   UNL A   1      36.721  30.348  30.045  1.00  0.00     0.055 A 
ATOM     54  C   UNL A   1      37.317  29.360  32.017  1.00  0.00     0.041 A 
ATOM     55  F   UNL A   1      39.392  28.297  32.196  1.00  0.00    -0.206 F 
ATOM     56  C   UNL A   1      36.363  29.986  31.264  1.00  0.00     0.022 A 
BRANCH  53  57
ATOM     57  S   UNL A   1      35.664  31.532  29.175  1.00  0.00     0.124 S 
ATOM     58  O   UNL A   1      34.839  30.796  28.116  1.00  0.00    -0.237 OA
ATOM     59  O   UNL A   1      34.721  32.206  30.176  1.00  0.00    -0.237 OA
ATOM     60  O   UNL A   1      36.636  32.718  28.420  1.00  0.00    -0.744 OA
ENDBRANCH  53  57
ENDBRANCH  26  50
BRANCH  38  61
ATOM     61  C   UNL A   1      44.675  33.028  29.183  1.00  0.00     0.023 A 
ATOM     62  C   UNL A   1      44.323  34.048  28.316  1.00  0.00     0.031 A 
ATOM     63  C   UNL A   1      45.459  33.256  30.231  1.00  0.00     0.131 A 
ATOM     64  C   UNL A   1      45.089  35.228  28.475  1.00  0.00     0.055 A 
ATOM     65  C   UNL A   1      46.068  34.476  30.397  1.00  0.00     0.041 A 
ATOM     66  F   UNL A   1      45.656  32.293  31.128  1.00  0.00    -0.206 F 
ATOM     67  C   UNL A   1      45.811  35.512  29.543  1.00  0.00     0.022 A 
BRANCH  64  68
ATOM     68  S   UNL A   1      45.076  36.429  27.122  1.00  0.00     0.124 S 
ATOM     69  O   UNL A   1      43.675  36.494  26.511  1.00  0.00    -0.237 OA
ATOM     70  O   UNL A   1      45.463  37.809  27.660  1.00  0.00    -0.237 OA
ATOM     71  O   UNL A   1      46.198  35.949  25.924  1.00  0.00    -0.744 OA
ENDBRANCH  64  68
ENDBRANCH  38  61
ENDBRANCH  12  13
ENDBRANCH   5   7
ENDBRANCH   2   3
ENDBRANCH   1   2
BRANCH   1  72
ATOM     72  C   UNL A   1      36.225  21.634  25.078  1.00  0.00     0.118 C 
BRANCH  72  73
ATOM     73  N   UNL A   1      35.716  21.436  26.443  1.00  0.00    -0.352 N 
ATOM     74  C   UNL A   1      34.479  22.106  26.871  1.00  0.00     0.253 C 
ATOM     75  H   UNL A   1      36.204  20.856  27.071  1.00  0.00     0.163 HD
ATOM     76  O   UNL A   1      34.039  21.934  28.051  1.00  0.00    -0.269 OA
BRANCH  74  77
ATOM     77  C   UNL A   1      33.726  23.002  25.902  1.00  0.00     0.063 A 
ATOM     78  C   UNL A   1      34.249  24.253  25.620  1.00  0.00     0.016 A 
ATOM     79  C   UNL A   1      32.567  22.608  25.388  1.00  0.00     0.051 A 
ATOM     80  C   UNL A   1      33.326  25.135  25.009  1.00  0.00     0.001 A 
ATOM     81  C   UNL A   1      31.778  23.486  24.685  1.00  0.00     0.027 A 
ATOM     82  C   UNL A   1      32.206  24.757  24.419  1.00  0.00     0.002 A 
BRANCH  79  83
ATOM     83  N   UNL A   1      32.123  21.218  25.572  1.00  0.00    -0.355 N 
ATOM     84  H   UNL A   1      31.565  20.979  26.349  1.00  0.00     0.167 HD
BRANCH  83  85
ATOM     85  C   UNL A   1      32.511  20.187  24.600  1.00  0.00     0.040 A 
ATOM     86  C   UNL A   1      32.188  20.314  23.259  1.00  0.00     0.026 A 
ATOM     87  C   UNL A   1      33.152  19.118  25.056  1.00  0.00     0.050 A 
ATOM     88  C   UNL A   1      32.331  19.115  22.519  1.00  0.00     0.004 A 
ATOM     89  C   UNL A   1      33.378  18.036  24.239  1.00  0.00     0.109 A 
ATOM     90  C   UNL A   1      33.031  18.069  22.917  1.00  0.00     0.024 A 
BRANCH  89  91
ATOM     91  S   UNL A   1      34.145  16.546  24.924  1.00  0.00     0.310 S 
ATOM     92  F   UNL A   1      34.247  16.041  23.423  1.00  0.00    -0.094 F 
ATOM     93  F   UNL A   1      32.740  15.838  24.994  1.00  0.00    -0.094 F 
ATOM     94  F   UNL A   1      34.860  15.232  25.349  1.00  0.00    -0.094 F 
ATOM     95  F   UNL A   1      35.552  17.233  24.711  1.00  0.00    -0.094 F 
ATOM     96  F   UNL A   1      33.441  17.854  24.380  1.00  0.00    -0.094 F 
ENDBRANCH  89  91
ENDBRANCH  83  85
ENDBRANCH  79  83
ENDBRANCH  74  77
ENDBRANCH  72  73
ENDBRANCH   1  72
TORSDOF 16
ENDMDL
