MODEL 1
REMARK VINA RESULT:     -12.6      0.000      0.000
REMARK SMILES CCCc1c(C(=O)NCCCNC(=O)c2ccc(-c3c4nc(c(-c5cc(S(=O)(=O)[O-])ccc5F)c5ccc([nH]5)c(-c5cc(S(=O)(=O)[O-])ccc5F)c5nc(c(-c6cc(S(=O)(=O)[O-])ccc6F)c6ccc3[nH]6)C=C5)C=C4)cc2)nnn1-c1ccccc1[N+](=O)[O-]
REMARK SMILES IDX 10 1 9 2 8 3 6 4 7 5 5 7 4 8 80 9 78 10 79 11 3 12 2 13 1 14
REMARK SMILES IDX 81 15 82 16 86 17 83 18 85 19 84 20 87 21 88 22 89 23 11 24
REMARK SMILES IDX 12 25 13 26 14 28 15 29 16 30 77 31 17 32 76 33 18 34 19 35
REMARK SMILES IDX 20 36 70 37 21 38 75 39 69 40 71 41 22 42 74 43 68 44 67 45
REMARK SMILES IDX 23 47 55 48 35 49 54 50 36 51 39 52 53 53 72 54 37 55 38 56
REMARK SMILES IDX 52 58 73 59 40 60 24 61 25 62 33 63 26 64 32 65 34 66 31 67
REMARK SMILES IDX 27 68 28 69 29 70 30 71 56 72 57 73 65 74 58 75 64 76 66 77
REMARK SMILES IDX 63 78 59 79 60 80 61 81 62 82 41 83 42 84 50 85 43 86 49 87
REMARK SMILES IDX 51 88 48 89 44 90 45 91 46 92 47 93
REMARK H PARENT 8 6 12 27 71 46 39 57
REMARK Flexibility Score: inf
ROOT
ATOM      1  C   UNL A   1      33.521  31.009  27.319  1.00  0.00     0.042 C 
ENDROOT
BRANCH   1   2
ATOM      2  C   UNL A   1      32.473  30.021  26.845  1.00  0.00     0.118 C 
BRANCH   2   3
ATOM      3  N   UNL A   1      31.477  30.472  25.921  1.00  0.00    -0.351 N 
ATOM      4  C   UNL A   1      31.117  29.871  24.732  1.00  0.00     0.273 C 
ATOM      5  O   UNL A   1      30.176  30.379  24.122  1.00  0.00    -0.267 OA
ATOM      6  H   UNL A   1      30.998  31.298  26.159  1.00  0.00     0.163 HD
BRANCH   4   7
ATOM      7  C   UNL A   1      31.866  28.737  24.156  1.00  0.00     0.174 A 
ATOM      8  C   UNL A   1      31.664  27.350  24.015  1.00  0.00     0.078 A 
ATOM      9  N   UNL A   1      32.847  26.933  23.382  1.00  0.00    -0.210 N 
ATOM     10  N   UNL A   1      33.104  29.053  23.633  1.00  0.00    -0.124 NA
ATOM     11  N   UNL A   1      33.719  27.947  23.277  1.00  0.00    -0.061 NA
BRANCH   8  12
ATOM     12  C   UNL A   1      30.653  26.344  24.503  1.00  0.00     0.059 C 
BRANCH  12  13
ATOM     13  C   UNL A   1      30.754  25.727  25.902  1.00  0.00     0.003 C 
ATOM     14  C   UNL A   1      31.806  26.236  26.864  1.00  0.00     0.004 C 
ENDBRANCH  12  13
ENDBRANCH   8  12
BRANCH   9  15
ATOM     15  C   UNL A   1      33.303  25.620  23.112  1.00  0.00     0.144 A 
ATOM     16  C   UNL A   1      34.040  24.971  24.117  1.00  0.00     0.036 A 
ATOM     17  C   UNL A   1      33.006  24.930  21.931  1.00  0.00     0.294 A 
ATOM     18  C   UNL A   1      34.396  23.628  23.970  1.00  0.00     0.003 A 
ATOM     19  C   UNL A   1      33.360  23.579  21.786  1.00  0.00     0.088 A 
ATOM     20  C   UNL A   1      34.042  22.930  22.816  1.00  0.00     0.007 A 
BRANCH  17  21
ATOM     21  N   UNL A   1      32.410  25.595  20.780  1.00  0.00     0.065 N 
ATOM     22  O   UNL A   1      31.267  26.049  20.923  1.00  0.00    -0.258 OA
ATOM     23  O   UNL A   1      33.078  25.648  19.741  1.00  0.00    -0.258 OA
ENDBRANCH  17  21
ENDBRANCH   9  15
ENDBRANCH   4   7
ENDBRANCH   2   3
ENDBRANCH   1   2
BRANCH   1  24
ATOM     24  C   UNL A   1      34.753  30.333  27.899  1.00  0.00     0.118 C 
BRANCH  24  25
ATOM     25  N   UNL A   1      35.378  31.023  29.036  1.00  0.00    -0.352 N 
ATOM     26  C   UNL A   1      36.579  30.672  29.654  1.00  0.00     0.251 C 
ATOM     27  H   UNL A   1      34.905  31.808  29.396  1.00  0.00     0.163 HD
ATOM     28  O   UNL A   1      36.972  31.223  30.666  1.00  0.00    -0.269 OA
BRANCH  26  29
ATOM     29  C   UNL A   1      37.333  29.567  29.020  1.00  0.00     0.039 A 
ATOM     30  C   UNL A   1      37.997  29.791  27.814  1.00  0.00     0.014 A 
ATOM     31  C   UNL A   1      37.701  28.533  29.864  1.00  0.00     0.014 A 
ATOM     32  C   UNL A   1      39.178  29.088  27.555  1.00  0.00     0.010 A 
ATOM     33  C   UNL A   1      38.948  27.970  29.675  1.00  0.00     0.010 A 
ATOM     34  C   UNL A   1      39.723  28.242  28.536  1.00  0.00    -0.014 A 
BRANCH  34  35
ATOM     35  C   UNL A   1      41.137  27.801  28.454  1.00  0.00     0.031 A 
ATOM     36  C   UNL A   1      41.482  26.593  27.623  1.00  0.00     0.074 A 
ATOM     37  C   UNL A   1      42.199  28.540  28.852  1.00  0.00     0.049 A 
ATOM     38  N   UNL A   1      42.036  25.493  28.028  1.00  0.00    -0.248 NA
ATOM     39  C   UNL A   1      41.192  26.593  26.182  1.00  0.00     0.031 C 
ATOM     40  C   UNL A   1      42.228  29.872  29.464  1.00  0.00     0.029 A 
ATOM     41  N   UNL A   1      43.524  28.289  28.635  1.00  0.00    -0.354 N 
ATOM     42  C   UNL A   1      42.333  24.730  26.896  1.00  0.00     0.074 A 
ATOM     43  C   UNL A   1      41.693  25.413  25.798  1.00  0.00     0.031 C 
ATOM     44  C   UNL A   1      43.439  30.433  29.275  1.00  0.00     0.029 A 
ATOM     45  C   UNL A   1      44.328  29.411  28.760  1.00  0.00     0.049 A 
ATOM     46  H   UNL A   1      43.874  27.397  28.411  1.00  0.00     0.167 HD
ATOM     47  C   UNL A   1      43.204  23.674  26.936  1.00  0.00     0.034 A 
ATOM     48  C   UNL A   1      45.651  29.521  28.511  1.00  0.00     0.034 A 
ATOM     49  C   UNL A   1      43.516  23.298  28.295  1.00  0.00     0.049 A 
ATOM     50  C   UNL A   1      46.235  28.179  28.721  1.00  0.00     0.074 A 
ATOM     51  C   UNL A   1      42.777  22.926  29.402  1.00  0.00     0.029 A 
ATOM     52  N   UNL A   1      44.761  23.608  28.794  1.00  0.00    -0.354 N 
ATOM     53  N   UNL A   1      46.208  27.568  29.875  1.00  0.00    -0.248 NA
ATOM     54  C   UNL A   1      46.459  27.316  27.573  1.00  0.00     0.031 C 
ATOM     55  C   UNL A   1      43.414  23.587  30.494  1.00  0.00     0.029 A 
ATOM     56  C   UNL A   1      44.531  24.255  29.983  1.00  0.00     0.049 A 
ATOM     57  H   UNL A   1      45.634  23.409  28.384  1.00  0.00     0.167 HD
ATOM     58  C   UNL A   1      45.955  26.241  29.571  1.00  0.00     0.074 A 
ATOM     59  C   UNL A   1      46.261  26.124  28.146  1.00  0.00     0.031 C 
ATOM     60  C   UNL A   1      45.255  25.431  30.423  1.00  0.00     0.034 A 
BRANCH  47  61
ATOM     61  C   UNL A   1      44.005  23.095  25.785  1.00  0.00     0.023 A 
ATOM     62  C   UNL A   1      43.841  21.722  25.482  1.00  0.00     0.031 A 
ATOM     63  C   UNL A   1      45.097  23.729  25.160  1.00  0.00     0.131 A 
ATOM     64  C   UNL A   1      44.760  21.034  24.669  1.00  0.00     0.055 A 
ATOM     65  C   UNL A   1      45.971  23.057  24.294  1.00  0.00     0.041 A 
ATOM     66  F   UNL A   1      45.431  24.998  25.429  1.00  0.00    -0.206 F 
ATOM     67  C   UNL A   1      45.823  21.697  24.065  1.00  0.00     0.022 A 
BRANCH  64  68
ATOM     68  S   UNL A   1      44.659  19.223  24.572  1.00  0.00     0.124 S 
ATOM     69  O   UNL A   1      43.240  18.987  24.810  1.00  0.00    -0.237 OA
ATOM     70  O   UNL A   1      45.136  18.967  23.217  1.00  0.00    -0.237 OA
ATOM     71  O   UNL A   1      45.550  18.776  25.641  1.00  0.00    -0.744 OA
ENDBRANCH  64  68
ENDBRANCH  47  61
BRANCH  48  72
ATOM     72  C   UNL A   1      46.320  30.693  27.906  1.00  0.00     0.023 A 
ATOM     73  C   UNL A   1      45.667  31.573  27.031  1.00  0.00     0.031 A 
ATOM     74  C   UNL A   1      47.610  31.071  28.356  1.00  0.00     0.131 A 
ATOM     75  C   UNL A   1      46.306  32.765  26.623  1.00  0.00     0.055 A 
ATOM     76  C   UNL A   1      48.243  32.242  27.938  1.00  0.00     0.041 A 
ATOM     77  F   UNL A   1      48.264  30.344  29.277  1.00  0.00    -0.206 F 
ATOM     78  C   UNL A   1      47.588  33.100  27.070  1.00  0.00     0.022 A 
BRANCH  75  79
ATOM     79  S   UNL A   1      45.414  33.959  25.583  1.00  0.00     0.124 S 
ATOM     80  O   UNL A   1      44.713  34.766  26.574  1.00  0.00    -0.237 OA
ATOM     81  O   UNL A   1      46.497  34.618  24.860  1.00  0.00    -0.237 OA
ATOM     82  O   UNL A   1      44.555  33.112  24.754  1.00  0.00    -0.744 OA
ENDBRANCH  75  79
ENDBRANCH  48  72
BRANCH  60  83
ATOM     83  C   UNL A   1      44.953  25.916  31.829  1.00  0.00     0.023 A 
ATOM     84  C   UNL A   1      43.772  26.599  32.193  1.00  0.00     0.031 A 
ATOM     85  C   UNL A   1      45.813  25.512  32.866  1.00  0.00     0.131 A 
ATOM     86  C   UNL A   1      43.486  26.856  33.547  1.00  0.00     0.055 A 
ATOM     87  C   UNL A   1      45.520  25.753  34.210  1.00  0.00     0.041 A 
ATOM     88  F   UNL A   1      46.934  24.823  32.593  1.00  0.00    -0.206 F 
ATOM     89  C   UNL A   1      44.356  26.430  34.556  1.00  0.00     0.022 A 
BRANCH  86  90
ATOM     90  S   UNL A   1      41.966  27.743  34.016  1.00  0.00     0.124 S 
ATOM     91  O   UNL A   1      41.201  26.747  34.758  1.00  0.00    -0.237 OA
ATOM     92  O   UNL A   1      42.478  28.865  34.798  1.00  0.00    -0.237 OA
ATOM     93  O   UNL A   1      41.382  28.120  32.727  1.00  0.00    -0.744 OA
ENDBRANCH  86  90
ENDBRANCH  60  83
ENDBRANCH  34  35
ENDBRANCH  26  29
ENDBRANCH  24  25
ENDBRANCH   1  24
TORSDOF 17
ENDMDL
MODEL 2
REMARK VINA RESULT:     -12.5      4.382     10.337
REMARK SMILES CCCc1c(C(=O)NCCCNC(=O)c2ccc(-c3c4nc(c(-c5cc(S(=O)(=O)[O-])ccc5F)c5ccc([nH]5)c(-c5cc(S(=O)(=O)[O-])ccc5F)c5nc(c(-c6cc(S(=O)(=O)[O-])ccc6F)c6ccc3[nH]6)C=C5)C=C4)cc2)nnn1-c1ccccc1[N+](=O)[O-]
REMARK SMILES IDX 10 1 9 2 8 3 6 4 7 5 5 7 4 8 80 9 78 10 79 11 3 12 2 13 1 14
REMARK SMILES IDX 81 15 82 16 86 17 83 18 85 19 84 20 87 21 88 22 89 23 11 24
REMARK SMILES IDX 12 25 13 26 14 28 15 29 16 30 77 31 17 32 76 33 18 34 19 35
REMARK SMILES IDX 20 36 70 37 21 38 75 39 69 40 71 41 22 42 74 43 68 44 67 45
REMARK SMILES IDX 23 47 55 48 35 49 54 50 36 51 39 52 53 53 72 54 37 55 38 56
REMARK SMILES IDX 52 58 73 59 40 60 24 61 25 62 33 63 26 64 32 65 34 66 31 67
REMARK SMILES IDX 27 68 28 69 29 70 30 71 56 72 57 73 65 74 58 75 64 76 66 77
REMARK SMILES IDX 63 78 59 79 60 80 61 81 62 82 41 83 42 84 50 85 43 86 49 87
REMARK SMILES IDX 51 88 48 89 44 90 45 91 46 92 47 93
REMARK H PARENT 8 6 12 27 71 46 39 57
REMARK Flexibility Score: inf
ROOT
ATOM      1  C   UNL A   1      37.882  22.353  25.528  1.00  0.00     0.042 C 
ENDROOT
BRANCH   1   2
ATOM      2  C   UNL A   1      36.412  22.412  25.162  1.00  0.00     0.118 C 
BRANCH   2   3
ATOM      3  N   UNL A   1      35.625  21.224  25.297  1.00  0.00    -0.351 N 
ATOM      4  C   UNL A   1      34.364  21.003  24.784  1.00  0.00     0.273 C 
ATOM      5  O   UNL A   1      33.892  19.877  24.947  1.00  0.00    -0.267 OA
ATOM      6  H   UNL A   1      36.026  20.487  25.811  1.00  0.00     0.163 HD
BRANCH   4   7
ATOM      7  C   UNL A   1      33.564  22.071  24.151  1.00  0.00     0.174 A 
ATOM      8  C   UNL A   1      33.151  23.373  24.493  1.00  0.00     0.078 A 
ATOM      9  N   UNL A   1      32.380  23.751  23.382  1.00  0.00    -0.210 N 
ATOM     10  N   UNL A   1      33.033  21.756  22.916  1.00  0.00    -0.124 NA
ATOM     11  N   UNL A   1      32.240  22.728  22.525  1.00  0.00    -0.061 NA
BRANCH   8  12
ATOM     12  C   UNL A   1      33.215  24.245  25.721  1.00  0.00     0.059 C 
BRANCH  12  13
ATOM     13  C   UNL A   1      32.475  23.866  27.009  1.00  0.00     0.003 C 
ATOM     14  C   UNL A   1      32.792  22.550  27.687  1.00  0.00     0.004 C 
ENDBRANCH  12  13
ENDBRANCH   8  12
BRANCH   9  15
ATOM     15  C   UNL A   1      31.571  24.898  23.201  1.00  0.00     0.144 A 
ATOM     16  C   UNL A   1      30.346  24.942  23.889  1.00  0.00     0.036 A 
ATOM     17  C   UNL A   1      31.958  25.999  22.428  1.00  0.00     0.294 A 
ATOM     18  C   UNL A   1      29.569  26.103  23.867  1.00  0.00     0.003 A 
ATOM     19  C   UNL A   1      31.178  27.166  22.409  1.00  0.00     0.088 A 
ATOM     20  C   UNL A   1      29.993  27.217  23.143  1.00  0.00     0.007 A 
BRANCH  17  21
ATOM     21  N   UNL A   1      33.117  25.952  21.546  1.00  0.00     0.065 N 
ATOM     22  O   UNL A   1      34.126  26.570  21.912  1.00  0.00    -0.258 OA
ATOM     23  O   UNL A   1      33.009  25.313  20.494  1.00  0.00    -0.258 OA
ENDBRANCH  17  21
ENDBRANCH   9  15
ENDBRANCH   4   7
ENDBRANCH   2   3
ENDBRANCH   1   2
BRANCH   1  24
ATOM     24  C   UNL A   1      38.383  23.632  26.178  1.00  0.00     0.118 C 
BRANCH  24  25
ATOM     25  N   UNL A   1      39.835  23.707  26.394  1.00  0.00    -0.352 N 
ATOM     26  C   UNL A   1      40.525  24.762  26.990  1.00  0.00     0.251 C 
ATOM     27  H   UNL A   1      40.371  22.940  26.088  1.00  0.00     0.163 HD
ATOM     28  O   UNL A   1      41.742  24.801  27.027  1.00  0.00    -0.269 OA
BRANCH  26  29
ATOM     29  C   UNL A   1      39.690  25.847  27.551  1.00  0.00     0.039 A 
ATOM     30  C   UNL A   1      39.180  25.724  28.845  1.00  0.00     0.014 A 
ATOM     31  C   UNL A   1      39.833  27.085  26.948  1.00  0.00     0.014 A 
ATOM     32  C   UNL A   1      39.005  26.880  29.612  1.00  0.00     0.010 A 
ATOM     33  C   UNL A   1      39.813  28.197  27.767  1.00  0.00     0.010 A 
ATOM     34  C   UNL A   1      39.421  28.126  29.113  1.00  0.00    -0.014 A 
BRANCH  34  35
ATOM     35  C   UNL A   1      39.612  29.281  30.024  1.00  0.00     0.031 A 
ATOM     36  C   UNL A   1      38.422  30.129  30.392  1.00  0.00     0.074 A 
ATOM     37  C   UNL A   1      40.719  29.498  30.772  1.00  0.00     0.049 A 
ATOM     38  N   UNL A   1      38.264  31.397  30.174  1.00  0.00    -0.248 NA
ATOM     39  C   UNL A   1      37.279  29.518  31.085  1.00  0.00     0.031 C 
ATOM     40  C   UNL A   1      41.958  28.719  30.846  1.00  0.00     0.029 A 
ATOM     41  N   UNL A   1      40.892  30.418  31.766  1.00  0.00    -0.354 N 
ATOM     42  C   UNL A   1      37.103  31.797  30.841  1.00  0.00     0.074 A 
ATOM     43  C   UNL A   1      36.484  30.575  31.294  1.00  0.00     0.031 C 
ATOM     44  C   UNL A   1      42.590  28.980  32.008  1.00  0.00     0.029 A 
ATOM     45  C   UNL A   1      41.936  30.115  32.626  1.00  0.00     0.049 A 
ATOM     46  H   UNL A   1      40.330  31.220  31.863  1.00  0.00     0.167 HD
ATOM     47  C   UNL A   1      36.822  33.114  31.089  1.00  0.00     0.034 A 
ATOM     48  C   UNL A   1      42.298  30.759  33.757  1.00  0.00     0.034 A 
ATOM     49  C   UNL A   1      37.692  33.990  30.341  1.00  0.00     0.049 A 
ATOM     50  C   UNL A   1      41.867  32.164  33.602  1.00  0.00     0.074 A 
ATOM     51  C   UNL A   1      38.004  34.152  29.004  1.00  0.00     0.029 A 
ATOM     52  N   UNL A   1      38.685  34.665  31.015  1.00  0.00    -0.354 N 
ATOM     53  N   UNL A   1      42.328  32.947  32.663  1.00  0.00    -0.248 NA
ATOM     54  C   UNL A   1      40.609  32.589  34.194  1.00  0.00     0.031 C 
ATOM     55  C   UNL A   1      39.413  34.380  28.992  1.00  0.00     0.029 A 
ATOM     56  C   UNL A   1      39.842  34.408  30.322  1.00  0.00     0.049 A 
ATOM     57  H   UNL A   1      38.586  35.215  31.825  1.00  0.00     0.167 HD
ATOM     58  C   UNL A   1      41.233  33.680  32.239  1.00  0.00     0.074 A 
ATOM     59  C   UNL A   1      40.247  33.521  33.307  1.00  0.00     0.031 C 
ATOM     60  C   UNL A   1      41.116  34.112  30.946  1.00  0.00     0.034 A 
BRANCH  47  61
ATOM     61  C   UNL A   1      35.939  33.677  32.187  1.00  0.00     0.023 A 
ATOM     62  C   UNL A   1      35.002  34.680  31.840  1.00  0.00     0.031 A 
ATOM     63  C   UNL A   1      36.146  33.490  33.568  1.00  0.00     0.131 A 
ATOM     64  C   UNL A   1      34.385  35.479  32.820  1.00  0.00     0.055 A 
ATOM     65  C   UNL A   1      35.476  34.240  34.544  1.00  0.00     0.041 A 
ATOM     66  F   UNL A   1      37.072  32.646  34.039  1.00  0.00    -0.206 F 
ATOM     67  C   UNL A   1      34.611  35.259  34.175  1.00  0.00     0.022 A 
BRANCH  64  68
ATOM     68  S   UNL A   1      33.436  36.936  32.292  1.00  0.00     0.124 S 
ATOM     69  O   UNL A   1      32.192  36.771  33.036  1.00  0.00    -0.237 OA
ATOM     70  O   UNL A   1      34.301  38.030  32.719  1.00  0.00    -0.237 OA
ATOM     71  O   UNL A   1      33.321  36.760  30.845  1.00  0.00    -0.744 OA
ENDBRANCH  64  68
ENDBRANCH  47  61
BRANCH  48  72
ATOM     72  C   UNL A   1      42.797  30.117  34.992  1.00  0.00     0.023 A 
ATOM     73  C   UNL A   1      42.291  28.900  35.474  1.00  0.00     0.031 A 
ATOM     74  C   UNL A   1      43.954  30.630  35.629  1.00  0.00     0.131 A 
ATOM     75  C   UNL A   1      42.922  28.255  36.560  1.00  0.00     0.055 A 
ATOM     76  C   UNL A   1      44.565  29.996  36.712  1.00  0.00     0.041 A 
ATOM     77  F   UNL A   1      44.570  31.731  35.167  1.00  0.00    -0.206 F 
ATOM     78  C   UNL A   1      44.052  28.798  37.180  1.00  0.00     0.022 A 
BRANCH  75  79
ATOM     79  S   UNL A   1      42.336  26.623  37.108  1.00  0.00     0.124 S 
ATOM     80  O   UNL A   1      42.669  25.779  35.967  1.00  0.00    -0.237 OA
ATOM     81  O   UNL A   1      43.110  26.403  38.324  1.00  0.00    -0.237 OA
ATOM     82  O   UNL A   1      40.904  26.833  37.326  1.00  0.00    -0.744 OA
ENDBRANCH  75  79
ENDBRANCH  48  72
BRANCH  60  83
ATOM     83  C   UNL A   1      42.307  33.996  30.015  1.00  0.00     0.023 A 
ATOM     84  C   UNL A   1      42.731  32.788  29.418  1.00  0.00     0.031 A 
ATOM     85  C   UNL A   1      42.923  35.184  29.577  1.00  0.00     0.131 A 
ATOM     86  C   UNL A   1      43.730  32.794  28.427  1.00  0.00     0.055 A 
ATOM     87  C   UNL A   1      43.902  35.190  28.583  1.00  0.00     0.041 A 
ATOM     88  F   UNL A   1      42.539  36.372  30.074  1.00  0.00    -0.206 F 
ATOM     89  C   UNL A   1      44.314  33.994  28.006  1.00  0.00     0.022 A 
BRANCH  86  90
ATOM     90  S   UNL A   1      44.282  31.235  27.663  1.00  0.00     0.124 S 
ATOM     91  O   UNL A   1      44.571  31.612  26.284  1.00  0.00    -0.237 OA
ATOM     92  O   UNL A   1      45.436  30.870  28.479  1.00  0.00    -0.237 OA
ATOM     93  O   UNL A   1      43.123  30.353  27.821  1.00  0.00    -0.744 OA
ENDBRANCH  86  90
ENDBRANCH  60  83
ENDBRANCH  34  35
ENDBRANCH  26  29
ENDBRANCH  24  25
ENDBRANCH   1  24
TORSDOF 17
ENDMDL
MODEL 3
REMARK VINA RESULT:     -12.3      4.221      6.426
REMARK SMILES CCCc1c(C(=O)NCCCNC(=O)c2ccc(-c3c4nc(c(-c5cc(S(=O)(=O)[O-])ccc5F)c5ccc([nH]5)c(-c5cc(S(=O)(=O)[O-])ccc5F)c5nc(c(-c6cc(S(=O)(=O)[O-])ccc6F)c6ccc3[nH]6)C=C5)C=C4)cc2)nnn1-c1ccccc1[N+](=O)[O-]
REMARK SMILES IDX 10 1 9 2 8 3 6 4 7 5 5 7 4 8 80 9 78 10 79 11 3 12 2 13 1 14
REMARK SMILES IDX 81 15 82 16 86 17 83 18 85 19 84 20 87 21 88 22 89 23 11 24
REMARK SMILES IDX 12 25 13 26 14 28 15 29 16 30 77 31 17 32 76 33 18 34 19 35
REMARK SMILES IDX 20 36 70 37 21 38 75 39 69 40 71 41 22 42 74 43 68 44 67 45
REMARK SMILES IDX 23 47 55 48 35 49 54 50 36 51 39 52 53 53 72 54 37 55 38 56
REMARK SMILES IDX 52 58 73 59 40 60 24 61 25 62 33 63 26 64 32 65 34 66 31 67
REMARK SMILES IDX 27 68 28 69 29 70 30 71 56 72 57 73 65 74 58 75 64 76 66 77
REMARK SMILES IDX 63 78 59 79 60 80 61 81 62 82 41 83 42 84 50 85 43 86 49 87
REMARK SMILES IDX 51 88 48 89 44 90 45 91 46 92 47 93
REMARK H PARENT 8 6 12 27 71 46 39 57
REMARK Flexibility Score: inf
ROOT
ATOM      1  C   UNL A   1      38.812  30.598  32.852  1.00  0.00     0.042 C 
ENDROOT
BRANCH   1   2
ATOM      2  C   UNL A   1      37.563  30.813  33.684  1.00  0.00     0.118 C 
BRANCH   2   3
ATOM      3  N   UNL A   1      37.594  31.797  34.722  1.00  0.00    -0.351 N 
ATOM      4  C   UNL A   1      36.804  32.924  34.819  1.00  0.00     0.273 C 
ATOM      5  O   UNL A   1      36.935  33.603  35.839  1.00  0.00    -0.267 OA
ATOM      6  H   UNL A   1      38.249  31.657  35.443  1.00  0.00     0.163 HD
BRANCH   4   7
ATOM      7  C   UNL A   1      35.909  33.364  33.731  1.00  0.00     0.174 A 
ATOM      8  C   UNL A   1      36.036  34.124  32.552  1.00  0.00     0.078 A 
ATOM      9  N   UNL A   1      34.723  34.134  32.052  1.00  0.00    -0.210 N 
ATOM     10  N   UNL A   1      34.586  32.989  33.867  1.00  0.00    -0.124 NA
ATOM     11  N   UNL A   1      33.877  33.551  32.914  1.00  0.00    -0.061 NA
BRANCH   8  12
ATOM     12  C   UNL A   1      37.113  34.961  31.910  1.00  0.00     0.059 C 
BRANCH  12  13
ATOM     13  C   UNL A   1      38.406  34.329  31.382  1.00  0.00     0.003 C 
ATOM     14  C   UNL A   1      38.809  34.559  29.940  1.00  0.00     0.004 C 
ENDBRANCH  12  13
ENDBRANCH   8  12
BRANCH   9  15
ATOM     15  C   UNL A   1      34.184  34.865  30.967  1.00  0.00     0.144 A 
ATOM     16  C   UNL A   1      34.370  34.341  29.676  1.00  0.00     0.036 A 
ATOM     17  C   UNL A   1      33.433  36.036  31.125  1.00  0.00     0.294 A 
ATOM     18  C   UNL A   1      33.743  34.937  28.579  1.00  0.00     0.003 A 
ATOM     19  C   UNL A   1      32.801  36.631  30.022  1.00  0.00     0.088 A 
ATOM     20  C   UNL A   1      32.947  36.068  28.754  1.00  0.00     0.007 A 
BRANCH  17  21
ATOM     21  N   UNL A   1      33.354  36.734  32.401  1.00  0.00     0.065 N 
ATOM     22  O   UNL A   1      32.234  36.829  32.921  1.00  0.00    -0.258 OA
ATOM     23  O   UNL A   1      34.402  37.192  32.869  1.00  0.00    -0.258 OA
ENDBRANCH  17  21
ENDBRANCH   9  15
ENDBRANCH   4   7
ENDBRANCH   2   3
ENDBRANCH   1   2
BRANCH   1  24
ATOM     24  C   UNL A   1      38.613  30.941  31.385  1.00  0.00     0.118 C 
BRANCH  24  25
ATOM     25  N   UNL A   1      37.222  31.184  30.974  1.00  0.00    -0.352 N 
ATOM     26  C   UNL A   1      36.546  30.541  29.938  1.00  0.00     0.251 C 
ATOM     27  H   UNL A   1      36.721  31.866  31.477  1.00  0.00     0.163 HD
ATOM     28  O   UNL A   1      35.432  30.881  29.582  1.00  0.00    -0.269 OA
BRANCH  26  29
ATOM     29  C   UNL A   1      37.275  29.436  29.276  1.00  0.00     0.039 A 
ATOM     30  C   UNL A   1      37.884  29.658  28.040  1.00  0.00     0.014 A 
ATOM     31  C   UNL A   1      37.685  28.408  30.106  1.00  0.00     0.014 A 
ATOM     32  C   UNL A   1      39.055  28.958  27.731  1.00  0.00     0.010 A 
ATOM     33  C   UNL A   1      38.925  27.849  29.863  1.00  0.00     0.010 A 
ATOM     34  C   UNL A   1      39.647  28.119  28.690  1.00  0.00    -0.014 A 
BRANCH  34  35
ATOM     35  C   UNL A   1      41.057  27.683  28.547  1.00  0.00     0.031 A 
ATOM     36  C   UNL A   1      41.367  26.458  27.727  1.00  0.00     0.074 A 
ATOM     37  C   UNL A   1      42.134  28.436  28.875  1.00  0.00     0.049 A 
ATOM     38  N   UNL A   1      41.948  25.370  28.127  1.00  0.00    -0.248 NA
ATOM     39  C   UNL A   1      41.006  26.425  26.302  1.00  0.00     0.031 C 
ATOM     40  C   UNL A   1      42.185  29.781  29.455  1.00  0.00     0.029 A 
ATOM     41  N   UNL A   1      43.448  28.187  28.597  1.00  0.00    -0.354 N 
ATOM     42  C   UNL A   1      42.192  24.583  26.999  1.00  0.00     0.074 A 
ATOM     43  C   UNL A   1      41.494  25.239  25.919  1.00  0.00     0.031 C 
ATOM     44  C   UNL A   1      43.382  30.343  29.192  1.00  0.00     0.029 A 
ATOM     45  C   UNL A   1      44.250  29.315  28.656  1.00  0.00     0.049 A 
ATOM     46  H   UNL A   1      43.792  27.292  28.376  1.00  0.00     0.167 HD
ATOM     47  C   UNL A   1      43.070  23.533  27.018  1.00  0.00     0.034 A 
ATOM     48  C   UNL A   1      45.558  29.425  28.339  1.00  0.00     0.034 A 
ATOM     49  C   UNL A   1      43.453  23.189  28.368  1.00  0.00     0.049 A 
ATOM     50  C   UNL A   1      46.160  28.092  28.548  1.00  0.00     0.074 A 
ATOM     51  C   UNL A   1      42.772  22.838  29.518  1.00  0.00     0.029 A 
ATOM     52  N   UNL A   1      44.719  23.517  28.797  1.00  0.00    -0.354 N 
ATOM     53  N   UNL A   1      46.195  27.506  29.716  1.00  0.00    -0.248 NA
ATOM     54  C   UNL A   1      46.331  27.204  27.410  1.00  0.00     0.031 C 
ATOM     55  C   UNL A   1      43.460  23.527  30.562  1.00  0.00     0.029 A 
ATOM     56  C   UNL A   1      44.545  24.188  29.981  1.00  0.00     0.049 A 
ATOM     57  H   UNL A   1      45.571  23.312  28.348  1.00  0.00     0.167 HD
ATOM     58  C   UNL A   1      45.935  26.172  29.454  1.00  0.00     0.074 A 
ATOM     59  C   UNL A   1      46.170  26.025  28.019  1.00  0.00     0.031 C 
ATOM     60  C   UNL A   1      45.283  25.377  30.358  1.00  0.00     0.034 A 
BRANCH  47  61
ATOM     61  C   UNL A   1      43.816  22.933  25.841  1.00  0.00     0.023 A 
ATOM     62  C   UNL A   1      43.795  21.526  25.686  1.00  0.00     0.031 A 
ATOM     63  C   UNL A   1      44.751  23.619  25.040  1.00  0.00     0.131 A 
ATOM     64  C   UNL A   1      44.707  20.867  24.840  1.00  0.00     0.055 A 
ATOM     65  C   UNL A   1      45.609  22.965  24.146  1.00  0.00     0.041 A 
ATOM     66  F   UNL A   1      44.948  24.938  25.151  1.00  0.00    -0.206 F 
ATOM     67  C   UNL A   1      45.611  21.580  24.061  1.00  0.00     0.022 A 
BRANCH  64  68
ATOM     68  S   UNL A   1      44.825  19.055  24.922  1.00  0.00     0.124 S 
ATOM     69  O   UNL A   1      46.011  18.868  25.750  1.00  0.00    -0.237 OA
ATOM     70  O   UNL A   1      43.549  18.698  25.534  1.00  0.00    -0.237 OA
ATOM     71  O   UNL A   1      44.977  18.661  23.522  1.00  0.00    -0.744 OA
ENDBRANCH  64  68
ENDBRANCH  47  61
BRANCH  48  72
ATOM     72  C   UNL A   1      46.189  30.587  27.675  1.00  0.00     0.023 A 
ATOM     73  C   UNL A   1      45.473  31.483  26.868  1.00  0.00     0.031 A 
ATOM     74  C   UNL A   1      47.522  30.939  28.001  1.00  0.00     0.131 A 
ATOM     75  C   UNL A   1      46.093  32.663  26.402  1.00  0.00     0.055 A 
ATOM     76  C   UNL A   1      48.136  32.099  27.527  1.00  0.00     0.041 A 
ATOM     77  F   UNL A   1      48.247  30.197  28.855  1.00  0.00    -0.206 F 
ATOM     78  C   UNL A   1      47.418  32.973  26.727  1.00  0.00     0.022 A 
BRANCH  75  79
ATOM     79  S   UNL A   1      45.129  33.878  25.454  1.00  0.00     0.124 S 
ATOM     80  O   UNL A   1      44.194  34.378  26.454  1.00  0.00    -0.237 OA
ATOM     81  O   UNL A   1      46.156  34.811  25.003  1.00  0.00    -0.237 OA
ATOM     82  O   UNL A   1      44.526  33.075  24.389  1.00  0.00    -0.744 OA
ENDBRANCH  75  79
ENDBRANCH  48  72
BRANCH  60  83
ATOM     83  C   UNL A   1      45.050  25.892  31.766  1.00  0.00     0.023 A 
ATOM     84  C   UNL A   1      43.910  26.628  32.160  1.00  0.00     0.031 A 
ATOM     85  C   UNL A   1      45.927  25.466  32.780  1.00  0.00     0.131 A 
ATOM     86  C   UNL A   1      43.681  26.914  33.519  1.00  0.00     0.055 A 
ATOM     87  C   UNL A   1      45.690  25.736  34.129  1.00  0.00     0.041 A 
ATOM     88  F   UNL A   1      47.008  24.728  32.478  1.00  0.00    -0.206 F 
ATOM     89  C   UNL A   1      44.567  26.465  34.504  1.00  0.00     0.022 A 
BRANCH  86  90
ATOM     90  S   UNL A   1      42.216  27.870  34.026  1.00  0.00     0.124 S 
ATOM     91  O   UNL A   1      42.781  29.026  34.713  1.00  0.00    -0.237 OA
ATOM     92  O   UNL A   1      41.557  28.145  32.753  1.00  0.00    -0.237 OA
ATOM     93  O   UNL A   1      41.491  26.941  34.896  1.00  0.00    -0.744 OA
ENDBRANCH  86  90
ENDBRANCH  60  83
ENDBRANCH  34  35
ENDBRANCH  26  29
ENDBRANCH  24  25
ENDBRANCH   1  24
TORSDOF 17
ENDMDL
