MODEL 1
REMARK VINA RESULT:     -12.3      0.000      0.000
REMARK SMILES C[C@H]1[NH2+]CC[C@H]1C(=O)N1CCC(C(=O)NCCCNC(=O)c2ccc(-c3c4nc(c(-c5cc(S(=O)(=O)[O-])ccc5F)c5ccc([nH]5)c(-c5cc(S(=O)(=O)[O-])ccc5F)c5nc(c(-c6cc(S(=O)(=O)[O-])ccc6F)c6ccc3[nH]6)C=C5)C=C4)cc2)CC1
REMARK SMILES IDX 18 1 17 2 16 3 15 4 13 5 14 6 12 8 7 9 8 10 9 11 10 12 86 13
REMARK SMILES IDX 11 14 85 15 6 16 1 17 2 18 3 19 4 20 5 23 19 24 20 25 21 27
REMARK SMILES IDX 22 28 23 29 84 30 24 31 83 32 25 33 26 34 27 35 77 36 28 37
REMARK SMILES IDX 82 38 76 39 78 40 29 41 81 42 75 43 74 44 30 46 62 47 42 48
REMARK SMILES IDX 61 49 43 50 46 51 60 52 79 53 44 54 45 55 59 57 80 58 47 59
REMARK SMILES IDX 31 60 32 61 40 62 33 63 39 64 41 65 38 66 34 67 35 68 36 69
REMARK SMILES IDX 37 70 63 71 64 72 72 73 65 74 71 75 73 76 70 77 66 78 67 79
REMARK SMILES IDX 68 80 69 81 48 82 49 83 57 84 50 85 56 86 58 87 55 88 51 89
REMARK SMILES IDX 52 90 53 91 54 92
REMARK H PARENT 15 7 3 21 3 22 19 26 78 45 46 56
REMARK Flexibility Score: inf
ROOT
ATOM      1  C   UNL A   1      36.723  21.690  25.496  1.00  0.00     0.118 C 
ENDROOT
BRANCH   1   2
ATOM      2  C   UNL A   1      35.554  21.239  24.633  1.00  0.00     0.042 C 
BRANCH   2   3
ATOM      3  C   UNL A   1      34.555  20.363  25.377  1.00  0.00     0.117 C 
BRANCH   3   4
ATOM      4  N   UNL A   1      34.146  20.962  26.641  1.00  0.00    -0.356 N 
ATOM      5  C   UNL A   1      33.410  22.073  26.909  1.00  0.00     0.223 C 
ATOM      6  O   UNL A   1      33.241  22.383  28.091  1.00  0.00    -0.275 OA
ATOM      7  H   UNL A   1      34.457  20.478  27.441  1.00  0.00     0.163 HD
BRANCH   5   8
ATOM      8  C   UNL A   1      32.747  22.881  25.804  1.00  0.00     0.082 C 
ATOM      9  C   UNL A   1      31.245  26.497  25.744  1.00  0.00     0.231 C 
ATOM     10  O   UNL A   1      31.150  26.428  26.970  1.00  0.00    -0.274 OA
ATOM     11  N   UNL A   1      31.525  25.372  24.981  1.00  0.00    -0.342 N 
ATOM     12  C   UNL A   1      30.672  24.198  25.117  1.00  0.00     0.120 C 
ATOM     13  C   UNL A   1      32.880  25.079  24.561  1.00  0.00     0.120 C 
ATOM     14  C   UNL A   1      31.256  23.141  26.050  1.00  0.00     0.035 C 
ATOM     15  C   UNL A   1      33.582  24.129  25.513  1.00  0.00     0.035 C 
BRANCH   9  16
ATOM     16  C   UNL A   1      30.895  27.790  24.993  1.00  0.00     0.142 C 
ATOM     17  C   UNL A   1      33.358  28.680  24.704  1.00  0.00     0.076 C 
ATOM     18  C   UNL A   1      31.875  28.961  24.895  1.00  0.00     0.192 C 
ATOM     19  N   UNL A   1      31.407  29.762  23.741  1.00  0.00    -0.343 N 
ATOM     20  C   UNL A   1      30.479  28.958  22.947  1.00  0.00     0.261 C 
ATOM     21  H   UNL A   1      32.204  30.032  23.166  1.00  0.00     0.346 HD
ATOM     22  H   UNL A   1      30.934  30.603  24.075  1.00  0.00     0.346 HD
ATOM     23  C   UNL A   1      30.425  27.576  23.564  1.00  0.00     0.081 C 
ENDBRANCH   9  16
ENDBRANCH   5   8
ENDBRANCH   3   4
ENDBRANCH   2   3
ENDBRANCH   1   2
BRANCH   1  24
ATOM     24  N   UNL A   1      37.733  20.654  25.654  1.00  0.00    -0.352 N 
ATOM     25  C   UNL A   1      39.060  20.767  25.984  1.00  0.00     0.251 C 
ATOM     26  H   UNL A   1      37.417  19.735  25.501  1.00  0.00     0.163 HD
ATOM     27  O   UNL A   1      39.800  19.791  25.858  1.00  0.00    -0.269 OA
BRANCH  25  28
ATOM     28  C   UNL A   1      39.600  22.058  26.461  1.00  0.00     0.039 A 
ATOM     29  C   UNL A   1      40.664  22.055  27.364  1.00  0.00     0.014 A 
ATOM     30  C   UNL A   1      39.066  23.268  26.012  1.00  0.00     0.014 A 
ATOM     31  C   UNL A   1      41.240  23.265  27.757  1.00  0.00     0.010 A 
ATOM     32  C   UNL A   1      39.701  24.466  26.326  1.00  0.00     0.010 A 
ATOM     33  C   UNL A   1      40.795  24.478  27.205  1.00  0.00    -0.014 A 
BRANCH  33  34
ATOM     34  C   UNL A   1      41.464  25.766  27.528  1.00  0.00     0.031 A 
ATOM     35  C   UNL A   1      40.737  26.819  28.320  1.00  0.00     0.074 A 
ATOM     36  C   UNL A   1      42.703  26.007  27.055  1.00  0.00     0.049 A 
ATOM     37  N   UNL A   1      41.125  28.026  28.643  1.00  0.00    -0.248 NA
ATOM     38  C   UNL A   1      39.383  26.479  28.785  1.00  0.00     0.031 C 
ATOM     39  C   UNL A   1      43.492  25.080  26.238  1.00  0.00     0.029 A 
ATOM     40  N   UNL A   1      43.518  27.104  27.184  1.00  0.00    -0.354 N 
ATOM     41  C   UNL A   1      40.062  28.593  29.338  1.00  0.00     0.074 A 
ATOM     42  C   UNL A   1      38.990  27.621  29.328  1.00  0.00     0.031 C 
ATOM     43  C   UNL A   1      44.684  25.632  25.970  1.00  0.00     0.029 A 
ATOM     44  C   UNL A   1      44.729  26.974  26.542  1.00  0.00     0.049 A 
ATOM     45  H   UNL A   1      43.260  27.908  27.690  1.00  0.00     0.167 HD
ATOM     46  C   UNL A   1      39.996  29.802  29.948  1.00  0.00     0.034 A 
ATOM     47  C   UNL A   1      45.753  27.841  26.415  1.00  0.00     0.034 A 
ATOM     48  C   UNL A   1      41.079  30.756  29.951  1.00  0.00     0.049 A 
ATOM     49  C   UNL A   1      45.640  29.196  27.068  1.00  0.00     0.074 A 
ATOM     50  C   UNL A   1      41.141  31.985  30.584  1.00  0.00     0.029 A 
ATOM     51  N   UNL A   1      42.286  30.595  29.279  1.00  0.00    -0.354 N 
ATOM     52  N   UNL A   1      44.648  29.695  27.771  1.00  0.00    -0.248 NA
ATOM     53  C   UNL A   1      46.787  30.100  26.919  1.00  0.00     0.031 C 
ATOM     54  C   UNL A   1      42.345  32.601  30.227  1.00  0.00     0.029 A 
ATOM     55  C   UNL A   1      43.079  31.721  29.449  1.00  0.00     0.049 A 
ATOM     56  H   UNL A   1      42.540  29.799  28.759  1.00  0.00     0.167 HD
ATOM     57  C   UNL A   1      45.068  30.961  28.171  1.00  0.00     0.074 A 
ATOM     58  C   UNL A   1      46.407  31.138  27.649  1.00  0.00     0.031 C 
ATOM     59  C   UNL A   1      44.408  31.892  28.908  1.00  0.00     0.034 A 
BRANCH  46  60
ATOM     60  C   UNL A   1      38.699  30.168  30.633  1.00  0.00     0.023 A 
ATOM     61  C   UNL A   1      37.667  30.842  29.956  1.00  0.00     0.031 A 
ATOM     62  C   UNL A   1      38.498  29.856  31.990  1.00  0.00     0.131 A 
ATOM     63  C   UNL A   1      36.519  31.248  30.652  1.00  0.00     0.055 A 
ATOM     64  C   UNL A   1      37.315  30.185  32.654  1.00  0.00     0.041 A 
ATOM     65  F   UNL A   1      39.455  29.234  32.698  1.00  0.00    -0.206 F 
ATOM     66  C   UNL A   1      36.323  30.900  31.990  1.00  0.00     0.022 A 
BRANCH  63  67
ATOM     67  S   UNL A   1      35.356  32.367  29.825  1.00  0.00     0.124 S 
ATOM     68  O   UNL A   1      34.409  32.657  30.900  1.00  0.00    -0.237 OA
ATOM     69  O   UNL A   1      36.215  33.472  29.416  1.00  0.00    -0.237 OA
ATOM     70  O   UNL A   1      34.818  31.556  28.734  1.00  0.00    -0.744 OA
ENDBRANCH  63  67
ENDBRANCH  46  60
BRANCH  47  71
ATOM     71  C   UNL A   1      46.964  27.472  25.625  1.00  0.00     0.023 A 
ATOM     72  C   UNL A   1      47.103  27.863  24.284  1.00  0.00     0.031 A 
ATOM     73  C   UNL A   1      47.985  26.685  26.190  1.00  0.00     0.131 A 
ATOM     74  C   UNL A   1      48.207  27.423  23.537  1.00  0.00     0.055 A 
ATOM     75  C   UNL A   1      49.112  26.303  25.462  1.00  0.00     0.041 A 
ATOM     76  F   UNL A   1      47.905  26.284  27.469  1.00  0.00    -0.206 F 
ATOM     77  C   UNL A   1      49.221  26.661  24.122  1.00  0.00     0.022 A 
BRANCH  74  78
ATOM     78  S   UNL A   1      48.251  27.781  21.759  1.00  0.00     0.124 S 
ATOM     79  O   UNL A   1      46.942  28.387  21.547  1.00  0.00    -0.237 OA
ATOM     80  O   UNL A   1      49.399  28.676  21.659  1.00  0.00    -0.237 OA
ATOM     81  O   UNL A   1      48.436  26.464  21.153  1.00  0.00    -0.744 OA
ENDBRANCH  74  78
ENDBRANCH  47  71
BRANCH  59  82
ATOM     82  C   UNL A   1      45.148  33.170  29.223  1.00  0.00     0.023 A 
ATOM     83  C   UNL A   1      45.056  34.304  28.398  1.00  0.00     0.031 A 
ATOM     84  C   UNL A   1      45.969  33.248  30.363  1.00  0.00     0.131 A 
ATOM     85  C   UNL A   1      45.819  35.445  28.690  1.00  0.00     0.055 A 
ATOM     86  C   UNL A   1      46.670  34.410  30.687  1.00  0.00     0.041 A 
ATOM     87  F   UNL A   1      46.100  32.195  31.185  1.00  0.00    -0.206 F 
ATOM     88  C   UNL A   1      46.609  35.513  29.840  1.00  0.00     0.022 A 
BRANCH  85  89
ATOM     89  S   UNL A   1      45.847  36.803  27.488  1.00  0.00     0.124 S 
ATOM     90  O   UNL A   1      44.424  37.058  27.286  1.00  0.00    -0.237 OA
ATOM     91  O   UNL A   1      46.584  37.839  28.204  1.00  0.00    -0.237 OA
ATOM     92  O   UNL A   1      46.543  36.230  26.338  1.00  0.00    -0.744 OA
ENDBRANCH  85  89
ENDBRANCH  59  82
ENDBRANCH  33  34
ENDBRANCH  25  28
ENDBRANCH   1  24
TORSDOF 14
ENDMDL
MODEL 2
REMARK VINA RESULT:     -12.3      0.530      7.632
REMARK SMILES C[C@H]1[NH2+]CC[C@H]1C(=O)N1CCC(C(=O)NCCCNC(=O)c2ccc(-c3c4nc(c(-c5cc(S(=O)(=O)[O-])ccc5F)c5ccc([nH]5)c(-c5cc(S(=O)(=O)[O-])ccc5F)c5nc(c(-c6cc(S(=O)(=O)[O-])ccc6F)c6ccc3[nH]6)C=C5)C=C4)cc2)CC1
REMARK SMILES IDX 18 1 17 2 16 3 15 4 13 5 14 6 12 8 7 9 8 10 9 11 10 12 86 13
REMARK SMILES IDX 11 14 85 15 6 16 1 17 2 18 3 19 4 20 5 23 19 24 20 25 21 27
REMARK SMILES IDX 22 28 23 29 84 30 24 31 83 32 25 33 26 34 27 35 77 36 28 37
REMARK SMILES IDX 82 38 76 39 78 40 29 41 81 42 75 43 74 44 30 46 62 47 42 48
REMARK SMILES IDX 61 49 43 50 46 51 60 52 79 53 44 54 45 55 59 57 80 58 47 59
REMARK SMILES IDX 31 60 32 61 40 62 33 63 39 64 41 65 38 66 34 67 35 68 36 69
REMARK SMILES IDX 37 70 63 71 64 72 72 73 65 74 71 75 73 76 70 77 66 78 67 79
REMARK SMILES IDX 68 80 69 81 48 82 49 83 57 84 50 85 56 86 58 87 55 88 51 89
REMARK SMILES IDX 52 90 53 91 54 92
REMARK H PARENT 15 7 3 21 3 22 19 26 78 45 46 56
REMARK Flexibility Score: inf
ROOT
ATOM      1  C   UNL A   1      36.864  21.787  25.612  1.00  0.00     0.118 C 
ENDROOT
BRANCH   1   2
ATOM      2  C   UNL A   1      35.831  21.316  24.600  1.00  0.00     0.042 C 
BRANCH   2   3
ATOM      3  C   UNL A   1      34.693  20.517  25.223  1.00  0.00     0.117 C 
BRANCH   3   4
ATOM      4  N   UNL A   1      34.320  21.037  26.531  1.00  0.00    -0.356 N 
ATOM      5  C   UNL A   1      33.527  22.083  26.887  1.00  0.00     0.223 C 
ATOM      6  O   UNL A   1      33.408  22.336  28.088  1.00  0.00    -0.275 OA
ATOM      7  H   UNL A   1      34.710  20.547  27.291  1.00  0.00     0.163 HD
BRANCH   5   8
ATOM      8  C   UNL A   1      32.746  22.882  25.856  1.00  0.00     0.082 C 
ATOM      9  C   UNL A   1      31.414  26.566  25.859  1.00  0.00     0.231 C 
ATOM     10  O   UNL A   1      31.498  26.546  27.087  1.00  0.00    -0.274 OA
ATOM     11  N   UNL A   1      31.529  25.401  25.112  1.00  0.00    -0.342 N 
ATOM     12  C   UNL A   1      30.654  24.278  25.421  1.00  0.00     0.120 C 
ATOM     13  C   UNL A   1      32.793  25.025  24.513  1.00  0.00     0.120 C 
ATOM     14  C   UNL A   1      31.320  23.227  26.304  1.00  0.00     0.035 C 
ATOM     15  C   UNL A   1      33.584  24.075  25.393  1.00  0.00     0.035 C 
BRANCH   9  16
ATOM     16  C   UNL A   1      31.016  27.847  25.111  1.00  0.00     0.142 C 
ATOM     17  C   UNL A   1      33.451  28.634  24.487  1.00  0.00     0.076 C 
ATOM     18  C   UNL A   1      32.015  28.977  24.850  1.00  0.00     0.192 C 
ATOM     19  N   UNL A   1      31.432  29.758  23.736  1.00  0.00    -0.343 N 
ATOM     20  C   UNL A   1      30.386  28.965  23.093  1.00  0.00     0.261 C 
ATOM     21  H   UNL A   1      32.160  29.980  23.056  1.00  0.00     0.346 HD
ATOM     22  H   UNL A   1      31.034  30.626  24.096  1.00  0.00     0.346 HD
ATOM     23  C   UNL A   1      30.364  27.606  23.760  1.00  0.00     0.081 C 
ENDBRANCH   9  16
ENDBRANCH   5   8
ENDBRANCH   3   4
ENDBRANCH   2   3
ENDBRANCH   1   2
BRANCH   1  24
ATOM     24  N   UNL A   1      37.924  20.811  25.824  1.00  0.00    -0.352 N 
ATOM     25  C   UNL A   1      39.239  21.006  26.163  1.00  0.00     0.251 C 
ATOM     26  H   UNL A   1      37.657  19.871  25.705  1.00  0.00     0.163 HD
ATOM     27  O   UNL A   1      40.028  20.064  26.086  1.00  0.00    -0.269 OA
BRANCH  25  28
ATOM     28  C   UNL A   1      39.705  22.341  26.592  1.00  0.00     0.039 A 
ATOM     29  C   UNL A   1      40.745  22.430  27.520  1.00  0.00     0.014 A 
ATOM     30  C   UNL A   1      39.128  23.503  26.075  1.00  0.00     0.014 A 
ATOM     31  C   UNL A   1      41.253  23.682  27.869  1.00  0.00     0.010 A 
ATOM     32  C   UNL A   1      39.699  24.742  26.348  1.00  0.00     0.010 A 
ATOM     33  C   UNL A   1      40.767  24.846  27.251  1.00  0.00    -0.014 A 
BRANCH  33  34
ATOM     34  C   UNL A   1      41.368  26.177  27.529  1.00  0.00     0.031 A 
ATOM     35  C   UNL A   1      42.737  26.514  27.002  1.00  0.00     0.074 A 
ATOM     36  C   UNL A   1      40.705  27.056  28.307  1.00  0.00     0.049 A 
ATOM     37  N   UNL A   1      43.454  27.592  27.193  1.00  0.00    -0.248 NA
ATOM     38  C   UNL A   1      43.397  25.493  26.174  1.00  0.00     0.031 C 
ATOM     39  C   UNL A   1      39.390  26.825  28.912  1.00  0.00     0.029 A 
ATOM     40  N   UNL A   1      41.042  28.318  28.729  1.00  0.00    -0.354 N 
ATOM     41  C   UNL A   1      44.653  27.374  26.520  1.00  0.00     0.074 A 
ATOM     42  C   UNL A   1      44.589  26.034  25.975  1.00  0.00     0.031 C 
ATOM     43  C   UNL A   1      39.021  27.918  29.596  1.00  0.00     0.029 A 
ATOM     44  C   UNL A   1      40.092  28.907  29.531  1.00  0.00     0.049 A 
ATOM     45  H   UNL A   1      41.887  28.760  28.481  1.00  0.00     0.167 HD
ATOM     46  C   UNL A   1      45.698  28.221  26.353  1.00  0.00     0.034 A 
ATOM     47  C   UNL A   1      40.088  30.101  30.156  1.00  0.00     0.034 A 
ATOM     48  C   UNL A   1      45.740  29.556  26.900  1.00  0.00     0.049 A 
ATOM     49  C   UNL A   1      41.280  31.011  29.988  1.00  0.00     0.074 A 
ATOM     50  C   UNL A   1      46.722  30.518  26.745  1.00  0.00     0.029 A 
ATOM     51  N   UNL A   1      44.764  30.114  27.718  1.00  0.00    -0.354 N 
ATOM     52  N   UNL A   1      42.381  30.812  29.300  1.00  0.00    -0.248 NA
ATOM     53  C   UNL A   1      41.223  32.308  30.671  1.00  0.00     0.031 C 
ATOM     54  C   UNL A   1      46.382  31.622  27.534  1.00  0.00     0.029 A 
ATOM     55  C   UNL A   1      45.143  31.390  28.108  1.00  0.00     0.049 A 
ATOM     56  H   UNL A   1      43.927  29.668  27.982  1.00  0.00     0.167 HD
ATOM     57  C   UNL A   1      43.135  31.973  29.447  1.00  0.00     0.074 A 
ATOM     58  C   UNL A   1      42.352  32.873  30.270  1.00  0.00     0.031 C 
ATOM     59  C   UNL A   1      44.360  32.272  28.944  1.00  0.00     0.034 A 
BRANCH  46  60
ATOM     60  C   UNL A   1      46.889  27.714  25.572  1.00  0.00     0.023 A 
ATOM     61  C   UNL A   1      47.106  28.081  24.231  1.00  0.00     0.031 A 
ATOM     62  C   UNL A   1      47.813  26.838  26.170  1.00  0.00     0.131 A 
ATOM     63  C   UNL A   1      48.170  27.514  23.513  1.00  0.00     0.055 A 
ATOM     64  C   UNL A   1      48.920  26.348  25.475  1.00  0.00     0.041 A 
ATOM     65  F   UNL A   1      47.648  26.434  27.439  1.00  0.00    -0.206 F 
ATOM     66  C   UNL A   1      49.095  26.673  24.133  1.00  0.00     0.022 A 
BRANCH  63  67
ATOM     67  S   UNL A   1      48.239  27.776  21.720  1.00  0.00     0.124 S 
ATOM     68  O   UNL A   1      49.297  28.777  21.608  1.00  0.00    -0.237 OA
ATOM     69  O   UNL A   1      48.563  26.446  21.218  1.00  0.00    -0.237 OA
ATOM     70  O   UNL A   1      46.898  28.258  21.392  1.00  0.00    -0.744 OA
ENDBRANCH  63  67
ENDBRANCH  46  60
BRANCH  47  71
ATOM     71  C   UNL A   1      38.935  30.504  31.014  1.00  0.00     0.023 A 
ATOM     72  C   UNL A   1      37.861  31.238  30.486  1.00  0.00     0.031 A 
ATOM     73  C   UNL A   1      38.911  30.198  32.386  1.00  0.00     0.131 A 
ATOM     74  C   UNL A   1      36.835  31.685  31.334  1.00  0.00     0.055 A 
ATOM     75  C   UNL A   1      37.858  30.591  33.213  1.00  0.00     0.041 A 
ATOM     76  F   UNL A   1      39.912  29.498  32.945  1.00  0.00    -0.206 F 
ATOM     77  C   UNL A   1      36.818  31.351  32.691  1.00  0.00     0.022 A 
BRANCH  74  78
ATOM     78  S   UNL A   1      35.570  32.795  30.657  1.00  0.00     0.124 S 
ATOM     79  O   UNL A   1      36.131  34.105  30.966  1.00  0.00    -0.237 OA
ATOM     80  O   UNL A   1      35.559  32.417  29.248  1.00  0.00    -0.237 OA
ATOM     81  O   UNL A   1      34.368  32.438  31.406  1.00  0.00    -0.744 OA
ENDBRANCH  74  78
ENDBRANCH  47  71
BRANCH  59  82
ATOM     82  C   UNL A   1      44.908  33.648  29.240  1.00  0.00     0.023 A 
ATOM     83  C   UNL A   1      44.640  34.748  28.408  1.00  0.00     0.031 A 
ATOM     84  C   UNL A   1      45.721  33.857  30.369  1.00  0.00     0.131 A 
ATOM     85  C   UNL A   1      45.229  35.992  28.681  1.00  0.00     0.055 A 
ATOM     86  C   UNL A   1      46.247  35.113  30.675  1.00  0.00     0.041 A 
ATOM     87  F   UNL A   1      46.016  32.843  31.197  1.00  0.00    -0.206 F 
ATOM     88  C   UNL A   1      46.015  36.186  29.820  1.00  0.00     0.022 A 
BRANCH  85  89
ATOM     89  S   UNL A   1      45.043  37.328  27.469  1.00  0.00     0.124 S 
ATOM     90  O   UNL A   1      45.219  38.516  28.298  1.00  0.00    -0.237 OA
ATOM     91  O   UNL A   1      46.118  37.045  26.523  1.00  0.00    -0.237 OA
ATOM     92  O   UNL A   1      43.692  37.132  26.946  1.00  0.00    -0.744 OA
ENDBRANCH  85  89
ENDBRANCH  59  82
ENDBRANCH  33  34
ENDBRANCH  25  28
ENDBRANCH   1  24
TORSDOF 14
ENDMDL
MODEL 3
REMARK VINA RESULT:     -12.2      5.783     11.126
REMARK SMILES C[C@H]1[NH2+]CC[C@H]1C(=O)N1CCC(C(=O)NCCCNC(=O)c2ccc(-c3c4nc(c(-c5cc(S(=O)(=O)[O-])ccc5F)c5ccc([nH]5)c(-c5cc(S(=O)(=O)[O-])ccc5F)c5nc(c(-c6cc(S(=O)(=O)[O-])ccc6F)c6ccc3[nH]6)C=C5)C=C4)cc2)CC1
REMARK SMILES IDX 18 1 17 2 16 3 15 4 13 5 14 6 12 8 7 9 8 10 9 11 10 12 86 13
REMARK SMILES IDX 11 14 85 15 6 16 1 17 2 18 3 19 4 20 5 23 19 24 20 25 21 27
REMARK SMILES IDX 22 28 23 29 84 30 24 31 83 32 25 33 26 34 27 35 77 36 28 37
REMARK SMILES IDX 82 38 76 39 78 40 29 41 81 42 75 43 74 44 30 46 62 47 42 48
REMARK SMILES IDX 61 49 43 50 46 51 60 52 79 53 44 54 45 55 59 57 80 58 47 59
REMARK SMILES IDX 31 60 32 61 40 62 33 63 39 64 41 65 38 66 34 67 35 68 36 69
REMARK SMILES IDX 37 70 63 71 64 72 72 73 65 74 71 75 73 76 70 77 66 78 67 79
REMARK SMILES IDX 68 80 69 81 48 82 49 83 57 84 50 85 56 86 58 87 55 88 51 89
REMARK SMILES IDX 52 90 53 91 54 92
REMARK H PARENT 15 7 3 21 3 22 19 26 78 45 46 56
REMARK Flexibility Score: inf
ROOT
ATOM      1  C   UNL A   1      32.834  32.512  27.368  1.00  0.00     0.118 C 
ENDROOT
BRANCH   1   2
ATOM      2  C   UNL A   1      31.733  31.875  26.534  1.00  0.00     0.042 C 
BRANCH   2   3
ATOM      3  C   UNL A   1      32.043  30.445  26.113  1.00  0.00     0.117 C 
BRANCH   3   4
ATOM      4  N   UNL A   1      31.904  29.512  27.222  1.00  0.00    -0.356 N 
ATOM      5  C   UNL A   1      31.646  28.177  27.244  1.00  0.00     0.223 C 
ATOM      6  O   UNL A   1      31.539  27.626  28.342  1.00  0.00    -0.275 OA
ATOM      7  H   UNL A   1      32.017  29.918  28.113  1.00  0.00     0.163 HD
BRANCH   5   8
ATOM      8  C   UNL A   1      31.559  27.358  25.965  1.00  0.00     0.082 C 
ATOM      9  C   UNL A   1      32.137  23.550  25.251  1.00  0.00     0.231 C 
ATOM     10  O   UNL A   1      32.793  23.502  26.292  1.00  0.00    -0.274 OA
ATOM     11  N   UNL A   1      31.762  24.765  24.694  1.00  0.00    -0.342 N 
ATOM     12  C   UNL A   1      32.791  25.756  24.407  1.00  0.00     0.120 C 
ATOM     13  C   UNL A   1      30.450  25.325  24.949  1.00  0.00     0.120 C 
ATOM     14  C   UNL A   1      32.915  26.820  25.493  1.00  0.00     0.035 C 
ATOM     15  C   UNL A   1      30.460  26.304  26.108  1.00  0.00     0.035 C 
BRANCH   9  16
ATOM     16  C   UNL A   1      31.847  22.281  24.437  1.00  0.00     0.142 C 
ATOM     17  C   UNL A   1      33.292  22.909  22.325  1.00  0.00     0.076 C 
ATOM     18  C   UNL A   1      32.077  22.218  22.925  1.00  0.00     0.192 C 
ATOM     19  N   UNL A   1      32.164  20.775  22.606  1.00  0.00    -0.343 N 
ATOM     20  C   UNL A   1      32.380  20.026  23.843  1.00  0.00     0.261 C 
ATOM     21  H   UNL A   1      32.942  20.612  21.967  1.00  0.00     0.346 HD
ATOM     22  H   UNL A   1      31.297  20.468  22.164  1.00  0.00     0.346 HD
ATOM     23  C   UNL A   1      32.523  21.029  24.969  1.00  0.00     0.081 C 
ENDBRANCH   9  16
ENDBRANCH   5   8
ENDBRANCH   3   4
ENDBRANCH   2   3
ENDBRANCH   1   2
BRANCH   1  24
ATOM     24  N   UNL A   1      32.590  33.923  27.632  1.00  0.00    -0.352 N 
ATOM     25  C   UNL A   1      33.129  34.741  28.592  1.00  0.00     0.251 C 
ATOM     26  H   UNL A   1      31.940  34.355  27.032  1.00  0.00     0.163 HD
ATOM     27  O   UNL A   1      32.635  35.852  28.788  1.00  0.00    -0.269 OA
BRANCH  25  28
ATOM     28  C   UNL A   1      34.277  34.281  29.401  1.00  0.00     0.039 A 
ATOM     29  C   UNL A   1      34.038  33.508  30.540  1.00  0.00     0.014 A 
ATOM     30  C   UNL A   1      35.587  34.599  29.034  1.00  0.00     0.014 A 
ATOM     31  C   UNL A   1      35.115  32.995  31.264  1.00  0.00     0.010 A 
ATOM     32  C   UNL A   1      36.657  34.008  29.699  1.00  0.00     0.010 A 
ATOM     33  C   UNL A   1      36.433  33.200  30.824  1.00  0.00    -0.014 A 
BRANCH  33  34
ATOM     34  C   UNL A   1      37.587  32.572  31.520  1.00  0.00     0.031 A 
ATOM     35  C   UNL A   1      38.325  31.427  30.879  1.00  0.00     0.074 A 
ATOM     36  C   UNL A   1      37.930  32.995  32.753  1.00  0.00     0.049 A 
ATOM     37  N   UNL A   1      39.309  30.708  31.355  1.00  0.00    -0.248 NA
ATOM     38  C   UNL A   1      37.877  31.019  29.539  1.00  0.00     0.031 C 
ATOM     39  C   UNL A   1      37.261  34.069  33.494  1.00  0.00     0.029 A 
ATOM     40  N   UNL A   1      38.919  32.576  33.606  1.00  0.00    -0.354 N 
ATOM     41  C   UNL A   1      39.590  29.757  30.380  1.00  0.00     0.074 A 
ATOM     42  C   UNL A   1      38.627  29.950  29.317  1.00  0.00     0.031 C 
ATOM     43  C   UNL A   1      37.879  34.243  34.671  1.00  0.00     0.029 A 
ATOM     44  C   UNL A   1      38.950  33.259  34.799  1.00  0.00     0.049 A 
ATOM     45  H   UNL A   1      39.549  31.851  33.384  1.00  0.00     0.167 HD
ATOM     46  C   UNL A   1      40.575  28.826  30.362  1.00  0.00     0.034 A 
ATOM     47  C   UNL A   1      39.739  33.105  35.881  1.00  0.00     0.034 A 
ATOM     48  C   UNL A   1      41.531  28.652  31.429  1.00  0.00     0.049 A 
ATOM     49  C   UNL A   1      40.803  32.035  35.854  1.00  0.00     0.074 A 
ATOM     50  C   UNL A   1      42.603  27.780  31.491  1.00  0.00     0.029 A 
ATOM     51  N   UNL A   1      41.523  29.355  32.629  1.00  0.00    -0.354 N 
ATOM     52  N   UNL A   1      41.092  31.181  34.898  1.00  0.00    -0.248 NA
ATOM     53  C   UNL A   1      41.651  31.915  37.046  1.00  0.00     0.031 C 
ATOM     54  C   UNL A   1      43.190  27.896  32.756  1.00  0.00     0.029 A 
ATOM     55  C   UNL A   1      42.546  28.906  33.452  1.00  0.00     0.049 A 
ATOM     56  H   UNL A   1      40.884  30.068  32.861  1.00  0.00     0.167 HD
ATOM     57  C   UNL A   1      42.176  30.442  35.367  1.00  0.00     0.074 A 
ATOM     58  C   UNL A   1      42.499  30.967  36.678  1.00  0.00     0.031 C 
ATOM     59  C   UNL A   1      42.847  29.426  34.765  1.00  0.00     0.034 A 
BRANCH  46  60
ATOM     60  C   UNL A   1      40.646  27.907  29.163  1.00  0.00     0.023 A 
ATOM     61  C   UNL A   1      41.591  28.097  28.139  1.00  0.00     0.031 A 
ATOM     62  C   UNL A   1      39.745  26.834  29.033  1.00  0.00     0.131 A 
ATOM     63  C   UNL A   1      41.562  27.281  26.998  1.00  0.00     0.055 A 
ATOM     64  C   UNL A   1      39.780  25.972  27.937  1.00  0.00     0.041 A 
ATOM     65  F   UNL A   1      38.805  26.614  29.966  1.00  0.00    -0.206 F 
ATOM     66  C   UNL A   1      40.682  26.201  26.902  1.00  0.00     0.022 A 
BRANCH  63  67
ATOM     67  S   UNL A   1      42.590  27.744  25.577  1.00  0.00     0.124 S 
ATOM     68  O   UNL A   1      41.878  28.912  25.065  1.00  0.00    -0.237 OA
ATOM     69  O   UNL A   1      43.885  28.005  26.195  1.00  0.00    -0.237 OA
ATOM     70  O   UNL A   1      42.536  26.564  24.716  1.00  0.00    -0.744 OA
ENDBRANCH  63  67
ENDBRANCH  46  60
BRANCH  47  71
ATOM     71  C   UNL A   1      39.549  33.962  37.087  1.00  0.00     0.023 A 
ATOM     72  C   UNL A   1      38.946  33.456  38.249  1.00  0.00     0.031 A 
ATOM     73  C   UNL A   1      39.930  35.316  37.080  1.00  0.00     0.131 A 
ATOM     74  C   UNL A   1      38.694  34.308  39.336  1.00  0.00     0.055 A 
ATOM     75  C   UNL A   1      39.735  36.145  38.186  1.00  0.00     0.041 A 
ATOM     76  F   UNL A   1      40.512  35.854  35.996  1.00  0.00    -0.206 F 
ATOM     77  C   UNL A   1      39.100  35.645  39.319  1.00  0.00     0.022 A 
BRANCH  74  78
ATOM     78  S   UNL A   1      37.737  33.669  40.738  1.00  0.00     0.124 S 
ATOM     79  O   UNL A   1      38.685  32.742  41.345  1.00  0.00    -0.237 OA
ATOM     80  O   UNL A   1      37.456  34.886  41.492  1.00  0.00    -0.237 OA
ATOM     81  O   UNL A   1      36.576  33.049  40.103  1.00  0.00    -0.744 OA
ENDBRANCH  74  78
ENDBRANCH  47  71
BRANCH  59  82
ATOM     82  C   UNL A   1      44.025  28.845  35.511  1.00  0.00     0.023 A 
ATOM     83  C   UNL A   1      43.890  27.731  36.358  1.00  0.00     0.031 A 
ATOM     84  C   UNL A   1      45.300  29.423  35.379  1.00  0.00     0.131 A 
ATOM     85  C   UNL A   1      44.996  27.269  37.088  1.00  0.00     0.055 A 
ATOM     86  C   UNL A   1      46.412  28.915  36.053  1.00  0.00     0.041 A 
ATOM     87  F   UNL A   1      45.488  30.491  34.588  1.00  0.00    -0.206 F 
ATOM     88  C   UNL A   1      46.260  27.842  36.926  1.00  0.00     0.022 A 
BRANCH  85  89
ATOM     89  S   UNL A   1      44.738  25.978  38.335  1.00  0.00     0.124 S 
ATOM     90  O   UNL A   1      43.925  25.011  37.605  1.00  0.00    -0.237 OA
ATOM     91  O   UNL A   1      46.103  25.561  38.640  1.00  0.00    -0.237 OA
ATOM     92  O   UNL A   1      44.048  26.677  39.417  1.00  0.00    -0.744 OA
ENDBRANCH  85  89
ENDBRANCH  59  82
ENDBRANCH  33  34
ENDBRANCH  25  28
ENDBRANCH   1  24
TORSDOF 14
ENDMDL
