MODEL 1
REMARK VINA RESULT:     -11.3      0.000      0.000
REMARK SMILES CC(C)C[C@@H](C[C@H](O)c1ccccc1)C(=O)NCCCNC(=O)c1ccc(-c2c3nc(c(-c4cc(S(=O)(=O)[O-])ccc4F)c4ccc([nH]4)c(-c4cc(S(=O)(=O)[O-])ccc4F)c4nc(c(-c5cc(S(=O)(=O)[O-])ccc5F)c5ccc2[nH]5)C=C4)C=C3)cc1
REMARK SMILES IDX 19 1 18 2 17 3 15 4 16 5 5 7 4 8 2 9 1 10 3 11 6 12 7 13
REMARK SMILES IDX 9 14 10 15 14 16 11 17 13 18 12 19 8 20 20 22 21 23 22 24
REMARK SMILES IDX 23 26 24 27 25 28 86 29 26 30 85 31 27 32 28 33 29 34 79 35
REMARK SMILES IDX 30 36 84 37 78 38 80 39 31 40 83 41 77 42 76 43 32 45 64 46
REMARK SMILES IDX 44 47 63 48 45 49 48 50 62 51 81 52 46 53 47 54 61 56 82 57
REMARK SMILES IDX 49 58 33 59 34 60 42 61 35 62 41 63 43 64 40 65 36 66 37 67
REMARK SMILES IDX 38 68 39 69 65 70 66 71 74 72 67 73 73 74 75 75 72 76 68 77
REMARK SMILES IDX 69 78 70 79 71 80 50 81 51 82 59 83 52 84 58 85 60 86 57 87
REMARK SMILES IDX 53 88 54 89 55 90 56 91
REMARK H PARENT 17 6 8 21 21 25 80 44 48 55
REMARK Flexibility Score: inf
ROOT
ATOM      1  C   UNL A   1      31.400  30.350  25.501  1.00  0.00     0.042 C 
ENDROOT
BRANCH   1   2
ATOM      2  C   UNL A   1      31.890  29.033  24.934  1.00  0.00     0.117 C 
BRANCH   2   3
ATOM      3  N   UNL A   1      31.309  28.698  23.639  1.00  0.00    -0.356 N 
ATOM      4  C   UNL A   1      31.032  27.518  23.028  1.00  0.00     0.223 C 
ATOM      5  O   UNL A   1      30.342  27.577  22.003  1.00  0.00    -0.275 OA
ATOM      6  H   UNL A   1      31.071  29.485  23.099  1.00  0.00     0.163 HD
BRANCH   4   7
ATOM      7  C   UNL A   1      31.489  26.147  23.546  1.00  0.00     0.081 C 
BRANCH   7   8
ATOM      8  C   UNL A   1      30.851  25.792  24.901  1.00  0.00     0.016 C 
BRANCH   8   9
ATOM      9  C   UNL A   1      31.803  25.407  26.046  1.00  0.00    -0.017 C 
ATOM     10  C   UNL A   1      31.728  23.924  26.402  1.00  0.00     0.007 C 
ATOM     11  C   UNL A   1      33.239  25.769  25.644  1.00  0.00     0.007 C 
ENDBRANCH   8   9
ENDBRANCH   7   8
BRANCH   7  12
ATOM     12  C   UNL A   1      31.552  25.089  22.412  1.00  0.00     0.050 C 
BRANCH  12  13
ATOM     13  C   UNL A   1      32.927  24.481  22.132  1.00  0.00     0.145 C 
BRANCH  13  14
ATOM     14  C   UNL A   1      33.293  23.228  22.901  1.00  0.00    -0.020 A 
ATOM     15  C   UNL A   1      34.537  23.052  23.519  1.00  0.00     0.006 A 
ATOM     16  C   UNL A   1      32.289  22.267  23.130  1.00  0.00     0.006 A 
ATOM     17  C   UNL A   1      34.756  21.968  24.373  1.00  0.00     0.000 A 
ATOM     18  C   UNL A   1      32.508  21.189  23.989  1.00  0.00     0.000 A 
ATOM     19  C   UNL A   1      33.741  21.044  24.616  1.00  0.00     0.000 A 
ENDBRANCH  13  14
BRANCH  13  20
ATOM     20  O   UNL A   1      33.121  24.322  20.733  1.00  0.00    -0.388 OA
ATOM     21  H   UNL A   1      32.317  24.591  20.261  1.00  0.00     0.211 HD
ENDBRANCH  13  20
ENDBRANCH  12  13
ENDBRANCH   7  12
ENDBRANCH   4   7
ENDBRANCH   2   3
ENDBRANCH   1   2
BRANCH   1  22
ATOM     22  C   UNL A   1      32.165  30.770  26.747  1.00  0.00     0.118 C 
BRANCH  22  23
ATOM     23  N   UNL A   1      32.168  32.217  26.955  1.00  0.00    -0.352 N 
ATOM     24  C   UNL A   1      33.045  33.036  27.630  1.00  0.00     0.251 C 
ATOM     25  H   UNL A   1      31.411  32.688  26.538  1.00  0.00     0.163 HD
ATOM     26  O   UNL A   1      32.737  34.201  27.849  1.00  0.00    -0.269 OA
BRANCH  24  27
ATOM     27  C   UNL A   1      34.335  32.501  28.117  1.00  0.00     0.039 A 
ATOM     28  C   UNL A   1      35.458  33.333  28.152  1.00  0.00     0.014 A 
ATOM     29  C   UNL A   1      34.436  31.181  28.551  1.00  0.00     0.014 A 
ATOM     30  C   UNL A   1      36.644  32.869  28.727  1.00  0.00     0.010 A 
ATOM     31  C   UNL A   1      35.570  30.764  29.232  1.00  0.00     0.010 A 
ATOM     32  C   UNL A   1      36.689  31.603  29.331  1.00  0.00    -0.014 A 
BRANCH  32  33
ATOM     33  C   UNL A   1      37.882  31.117  30.074  1.00  0.00     0.031 A 
ATOM     34  C   UNL A   1      38.815  30.130  29.423  1.00  0.00     0.074 A 
ATOM     35  C   UNL A   1      38.060  31.475  31.362  1.00  0.00     0.049 A 
ATOM     36  N   UNL A   1      39.803  29.452  29.947  1.00  0.00    -0.248 NA
ATOM     37  C   UNL A   1      38.569  29.830  28.003  1.00  0.00     0.031 C 
ATOM     38  C   UNL A   1      37.194  32.383  32.118  1.00  0.00     0.029 A 
ATOM     39  N   UNL A   1      39.018  31.103  32.270  1.00  0.00    -0.354 N 
ATOM     40  C   UNL A   1      40.273  28.624  28.932  1.00  0.00     0.074 A 
ATOM     41  C   UNL A   1      39.416  28.837  27.787  1.00  0.00     0.031 C 
ATOM     42  C   UNL A   1      37.675  32.517  33.364  1.00  0.00     0.029 A 
ATOM     43  C   UNL A   1      38.847  31.663  33.516  1.00  0.00     0.049 A 
ATOM     44  H   UNL A   1      39.759  30.492  32.053  1.00  0.00     0.167 HD
ATOM     45  C   UNL A   1      41.337  27.783  28.947  1.00  0.00     0.034 A 
ATOM     46  C   UNL A   1      39.545  31.493  34.657  1.00  0.00     0.034 A 
ATOM     47  C   UNL A   1      42.200  27.612  30.090  1.00  0.00     0.049 A 
ATOM     48  C   UNL A   1      40.721  30.551  34.651  1.00  0.00     0.074 A 
ATOM     49  C   UNL A   1      43.348  26.848  30.196  1.00  0.00     0.029 A 
ATOM     50  N   UNL A   1      42.008  28.213  31.328  1.00  0.00    -0.354 N 
ATOM     51  N   UNL A   1      41.183  29.812  33.669  1.00  0.00    -0.248 NA
ATOM     52  C   UNL A   1      41.472  30.425  35.906  1.00  0.00     0.031 C 
ATOM     53  C   UNL A   1      43.814  26.938  31.513  1.00  0.00     0.029 A 
ATOM     54  C   UNL A   1      42.999  27.815  32.211  1.00  0.00     0.049 A 
ATOM     55  H   UNL A   1      41.274  28.833  31.545  1.00  0.00     0.167 HD
ATOM     56  C   UNL A   1      42.294  29.150  34.184  1.00  0.00     0.074 A 
ATOM     57  C   UNL A   1      42.443  29.594  35.555  1.00  0.00     0.031 C 
ATOM     58  C   UNL A   1      43.119  28.257  33.580  1.00  0.00     0.034 A 
BRANCH  45  59
ATOM     59  C   UNL A   1      41.607  26.981  27.696  1.00  0.00     0.023 A 
ATOM     60  C   UNL A   1      41.294  25.611  27.614  1.00  0.00     0.031 A 
ATOM     61  C   UNL A   1      42.219  27.581  26.582  1.00  0.00     0.131 A 
ATOM     62  C   UNL A   1      41.675  24.872  26.485  1.00  0.00     0.055 A 
ATOM     63  C   UNL A   1      42.515  26.857  25.424  1.00  0.00     0.041 A 
ATOM     64  F   UNL A   1      42.560  28.880  26.605  1.00  0.00    -0.206 F 
ATOM     65  C   UNL A   1      42.259  25.489  25.378  1.00  0.00     0.022 A 
BRANCH  62  66
ATOM     66  S   UNL A   1      41.533  23.064  26.549  1.00  0.00     0.124 S 
ATOM     67  O   UNL A   1      42.293  22.668  25.365  1.00  0.00    -0.237 OA
ATOM     68  O   UNL A   1      42.141  22.745  27.834  1.00  0.00    -0.237 OA
ATOM     69  O   UNL A   1      40.093  22.831  26.463  1.00  0.00    -0.744 OA
ENDBRANCH  62  66
ENDBRANCH  45  59
BRANCH  46  70
ATOM     70  C   UNL A   1      39.150  32.213  35.902  1.00  0.00     0.023 A 
ATOM     71  C   UNL A   1      38.377  31.578  36.886  1.00  0.00     0.031 A 
ATOM     72  C   UNL A   1      39.508  33.557  36.110  1.00  0.00     0.131 A 
ATOM     73  C   UNL A   1      37.945  32.298  38.011  1.00  0.00     0.055 A 
ATOM     74  C   UNL A   1      39.121  34.254  37.256  1.00  0.00     0.041 A 
ATOM     75  F   UNL A   1      40.253  34.210  35.204  1.00  0.00    -0.206 F 
ATOM     76  C   UNL A   1      38.324  33.628  38.209  1.00  0.00     0.022 A 
BRANCH  73  77
ATOM     77  S   UNL A   1      36.812  31.492  39.176  1.00  0.00     0.124 S 
ATOM     78  O   UNL A   1      36.655  30.174  38.573  1.00  0.00    -0.237 OA
ATOM     79  O   UNL A   1      37.572  31.542  40.420  1.00  0.00    -0.237 OA
ATOM     80  O   UNL A   1      35.625  32.342  39.138  1.00  0.00    -0.744 OA
ENDBRANCH  73  77
ENDBRANCH  46  70
BRANCH  58  81
ATOM     81  C   UNL A   1      44.274  27.735  34.398  1.00  0.00     0.023 A 
ATOM     82  C   UNL A   1      44.164  26.558  35.160  1.00  0.00     0.031 A 
ATOM     83  C   UNL A   1      45.494  28.431  34.424  1.00  0.00     0.131 A 
ATOM     84  C   UNL A   1      45.239  26.143  35.958  1.00  0.00     0.055 A 
ATOM     85  C   UNL A   1      46.581  27.980  35.174  1.00  0.00     0.041 A 
ATOM     86  F   UNL A   1      45.652  29.562  33.716  1.00  0.00    -0.206 F 
ATOM     87  C   UNL A   1      46.452  26.836  35.958  1.00  0.00     0.022 A 
BRANCH  84  88
ATOM     88  S   UNL A   1      45.001  24.730  37.070  1.00  0.00     0.124 S 
ATOM     89  O   UNL A   1      44.516  23.702  36.153  1.00  0.00    -0.237 OA
ATOM     90  O   UNL A   1      46.343  24.524  37.605  1.00  0.00    -0.237 OA
ATOM     91  O   UNL A   1      44.018  25.213  38.036  1.00  0.00    -0.744 OA
ENDBRANCH  84  88
ENDBRANCH  58  81
ENDBRANCH  32  33
ENDBRANCH  24  27
ENDBRANCH  22  23
ENDBRANCH   1  22
TORSDOF 19
ENDMDL
MODEL 2
REMARK VINA RESULT:     -11.2      1.325      2.216
REMARK SMILES CC(C)C[C@@H](C[C@H](O)c1ccccc1)C(=O)NCCCNC(=O)c1ccc(-c2c3nc(c(-c4cc(S(=O)(=O)[O-])ccc4F)c4ccc([nH]4)c(-c4cc(S(=O)(=O)[O-])ccc4F)c4nc(c(-c5cc(S(=O)(=O)[O-])ccc5F)c5ccc2[nH]5)C=C4)C=C3)cc1
REMARK SMILES IDX 19 1 18 2 17 3 15 4 16 5 5 7 4 8 2 9 1 10 3 11 6 12 7 13
REMARK SMILES IDX 9 14 10 15 14 16 11 17 13 18 12 19 8 20 20 22 21 23 22 24
REMARK SMILES IDX 23 26 24 27 25 28 86 29 26 30 85 31 27 32 28 33 29 34 79 35
REMARK SMILES IDX 30 36 84 37 78 38 80 39 31 40 83 41 77 42 76 43 32 45 64 46
REMARK SMILES IDX 44 47 63 48 45 49 48 50 62 51 81 52 46 53 47 54 61 56 82 57
REMARK SMILES IDX 49 58 33 59 34 60 42 61 35 62 41 63 43 64 40 65 36 66 37 67
REMARK SMILES IDX 38 68 39 69 65 70 66 71 74 72 67 73 73 74 75 75 72 76 68 77
REMARK SMILES IDX 69 78 70 79 71 80 50 81 51 82 59 83 52 84 58 85 60 86 57 87
REMARK SMILES IDX 53 88 54 89 55 90 56 91
REMARK H PARENT 17 6 8 21 21 25 80 44 48 55
REMARK Flexibility Score: inf
ROOT
ATOM      1  C   UNL A   1      31.778  28.102  26.297  1.00  0.00     0.042 C 
ENDROOT
BRANCH   1   2
ATOM      2  C   UNL A   1      32.354  26.701  26.258  1.00  0.00     0.117 C 
BRANCH   2   3
ATOM      3  N   UNL A   1      31.413  25.667  26.672  1.00  0.00    -0.356 N 
ATOM      4  C   UNL A   1      31.448  24.311  26.618  1.00  0.00     0.223 C 
ATOM      5  O   UNL A   1      30.568  23.712  27.250  1.00  0.00    -0.275 OA
ATOM      6  H   UNL A   1      30.587  26.023  27.071  1.00  0.00     0.163 HD
BRANCH   4   7
ATOM      7  C   UNL A   1      32.510  23.502  25.863  1.00  0.00     0.081 C 
BRANCH   7   8
ATOM      8  C   UNL A   1      33.531  22.847  26.812  1.00  0.00     0.016 C 
BRANCH   8   9
ATOM      9  C   UNL A   1      34.985  22.752  26.320  1.00  0.00    -0.017 C 
ATOM     10  C   UNL A   1      35.230  21.530  25.438  1.00  0.00     0.007 C 
ATOM     11  C   UNL A   1      35.335  24.027  25.543  1.00  0.00     0.007 C 
ENDBRANCH   8   9
ENDBRANCH   7   8
BRANCH   7  12
ATOM     12  C   UNL A   1      31.898  22.686  24.693  1.00  0.00     0.050 C 
BRANCH  12  13
ATOM     13  C   UNL A   1      32.195  23.198  23.283  1.00  0.00     0.145 C 
BRANCH  13  14
ATOM     14  C   UNL A   1      32.223  24.700  23.090  1.00  0.00    -0.020 A 
ATOM     15  C   UNL A   1      33.390  25.403  22.768  1.00  0.00     0.006 A 
ATOM     16  C   UNL A   1      30.998  25.395  23.083  1.00  0.00     0.006 A 
ATOM     17  C   UNL A   1      33.328  26.753  22.412  1.00  0.00     0.000 A 
ATOM     18  C   UNL A   1      30.938  26.742  22.721  1.00  0.00     0.000 A 
ATOM     19  C   UNL A   1      32.103  27.418  22.378  1.00  0.00     0.000 A 
ENDBRANCH  13  14
BRANCH  13  20
ATOM     20  O   UNL A   1      33.364  22.574  22.767  1.00  0.00    -0.388 OA
ATOM     21  H   UNL A   1      33.492  21.715  23.201  1.00  0.00     0.211 HD
ENDBRANCH  13  20
ENDBRANCH  12  13
ENDBRANCH   7  12
ENDBRANCH   4   7
ENDBRANCH   2   3
ENDBRANCH   1   2
BRANCH   1  22
ATOM     22  C   UNL A   1      32.739  29.144  25.744  1.00  0.00     0.118 C 
BRANCH  22  23
ATOM     23  N   UNL A   1      32.391  30.508  26.137  1.00  0.00    -0.352 N 
ATOM     24  C   UNL A   1      32.999  31.386  27.006  1.00  0.00     0.251 C 
ATOM     25  H   UNL A   1      31.581  30.860  25.704  1.00  0.00     0.163 HD
ATOM     26  O   UNL A   1      32.414  32.409  27.339  1.00  0.00    -0.269 OA
BRANCH  24  27
ATOM     27  C   UNL A   1      34.336  31.077  27.559  1.00  0.00     0.039 A 
ATOM     28  C   UNL A   1      35.237  32.117  27.805  1.00  0.00     0.014 A 
ATOM     29  C   UNL A   1      34.696  29.763  27.847  1.00  0.00     0.014 A 
ATOM     30  C   UNL A   1      36.450  31.843  28.442  1.00  0.00     0.010 A 
ATOM     31  C   UNL A   1      35.840  29.509  28.590  1.00  0.00     0.010 A 
ATOM     32  C   UNL A   1      36.732  30.546  28.899  1.00  0.00    -0.014 A 
BRANCH  32  33
ATOM     33  C   UNL A   1      37.944  30.230  29.700  1.00  0.00     0.031 A 
ATOM     34  C   UNL A   1      38.981  29.289  29.146  1.00  0.00     0.074 A 
ATOM     35  C   UNL A   1      38.053  30.696  30.961  1.00  0.00     0.049 A 
ATOM     36  N   UNL A   1      40.013  28.747  29.739  1.00  0.00    -0.248 NA
ATOM     37  C   UNL A   1      38.802  28.863  27.748  1.00  0.00     0.031 C 
ATOM     38  C   UNL A   1      37.088  31.573  31.628  1.00  0.00     0.029 A 
ATOM     39  N   UNL A   1      39.017  30.484  31.914  1.00  0.00    -0.354 N 
ATOM     40  C   UNL A   1      40.584  27.893  28.800  1.00  0.00     0.074 A 
ATOM     41  C   UNL A   1      39.742  27.940  27.625  1.00  0.00     0.031 C 
ATOM     42  C   UNL A   1      37.521  31.843  32.870  1.00  0.00     0.029 A 
ATOM     43  C   UNL A   1      38.761  31.117  33.110  1.00  0.00     0.049 A 
ATOM     44  H   UNL A   1      39.816  29.930  31.759  1.00  0.00     0.167 HD
ATOM     45  C   UNL A   1      41.719  27.159  28.901  1.00  0.00     0.034 A 
ATOM     46  C   UNL A   1      39.440  31.097  34.274  1.00  0.00     0.034 A 
ATOM     47  C   UNL A   1      42.563  27.154  30.071  1.00  0.00     0.049 A 
ATOM     48  C   UNL A   1      40.698  30.271  34.364  1.00  0.00     0.074 A 
ATOM     49  C   UNL A   1      43.773  26.511  30.258  1.00  0.00     0.029 A 
ATOM     50  N   UNL A   1      42.283  27.825  31.255  1.00  0.00    -0.354 N 
ATOM     51  N   UNL A   1      41.252  29.508  33.450  1.00  0.00    -0.248 NA
ATOM     52  C   UNL A   1      41.423  30.309  35.640  1.00  0.00     0.031 C 
ATOM     53  C   UNL A   1      44.193  26.741  31.574  1.00  0.00     0.029 A 
ATOM     54  C   UNL A   1      43.282  27.587  32.185  1.00  0.00     0.049 A 
ATOM     55  H   UNL A   1      41.490  28.387  31.409  1.00  0.00     0.167 HD
ATOM     56  C   UNL A   1      42.405  28.993  34.037  1.00  0.00     0.074 A 
ATOM     57  C   UNL A   1      42.474  29.549  35.373  1.00  0.00     0.031 C 
ATOM     58  C   UNL A   1      43.324  28.138  33.520  1.00  0.00     0.034 A 
BRANCH  45  59
ATOM     59  C   UNL A   1      42.095  26.295  27.720  1.00  0.00     0.023 A 
ATOM     60  C   UNL A   1      41.620  24.977  27.587  1.00  0.00     0.031 A 
ATOM     61  C   UNL A   1      42.971  26.779  26.732  1.00  0.00     0.131 A 
ATOM     62  C   UNL A   1      42.091  24.164  26.546  1.00  0.00     0.055 A 
ATOM     63  C   UNL A   1      43.366  25.991  25.648  1.00  0.00     0.041 A 
ATOM     64  F   UNL A   1      43.474  28.021  26.813  1.00  0.00    -0.206 F 
ATOM     65  C   UNL A   1      42.940  24.669  25.560  1.00  0.00     0.022 A 
BRANCH  62  66
ATOM     66  S   UNL A   1      41.697  22.394  26.588  1.00  0.00     0.124 S 
ATOM     67  O   UNL A   1      42.375  21.913  25.385  1.00  0.00    -0.237 OA
ATOM     68  O   UNL A   1      42.273  21.972  27.858  1.00  0.00    -0.237 OA
ATOM     69  O   UNL A   1      40.237  22.367  26.524  1.00  0.00    -0.744 OA
ENDBRANCH  62  66
ENDBRANCH  45  59
BRANCH  46  70
ATOM     70  C   UNL A   1      38.947  31.867  35.453  1.00  0.00     0.023 A 
ATOM     71  C   UNL A   1      38.336  31.215  36.534  1.00  0.00     0.031 A 
ATOM     72  C   UNL A   1      39.046  33.269  35.499  1.00  0.00     0.131 A 
ATOM     73  C   UNL A   1      37.804  31.964  37.595  1.00  0.00     0.055 A 
ATOM     74  C   UNL A   1      38.563  34.007  36.581  1.00  0.00     0.041 A 
ATOM     75  F   UNL A   1      39.628  33.943  34.494  1.00  0.00    -0.206 F 
ATOM     76  C   UNL A   1      37.925  33.355  37.632  1.00  0.00     0.022 A 
BRANCH  73  77
ATOM     77  S   UNL A   1      36.877  31.098  38.891  1.00  0.00     0.124 S 
ATOM     78  O   UNL A   1      35.650  31.883  38.954  1.00  0.00    -0.237 OA
ATOM     79  O   UNL A   1      36.753  29.757  38.329  1.00  0.00    -0.237 OA
ATOM     80  O   UNL A   1      37.747  31.204  40.060  1.00  0.00    -0.744 OA
ENDBRANCH  73  77
ENDBRANCH  46  70
BRANCH  58  81
ATOM     81  C   UNL A   1      44.499  27.788  34.398  1.00  0.00     0.023 A 
ATOM     82  C   UNL A   1      44.461  26.689  35.274  1.00  0.00     0.031 A 
ATOM     83  C   UNL A   1      45.665  28.573  34.365  1.00  0.00     0.131 A 
ATOM     84  C   UNL A   1      45.550  26.438  36.122  1.00  0.00     0.055 A 
ATOM     85  C   UNL A   1      46.768  28.281  35.169  1.00  0.00     0.041 A 
ATOM     86  F   UNL A   1      45.753  29.635  33.548  1.00  0.00    -0.206 F 
ATOM     87  C   UNL A   1      46.709  27.215  36.063  1.00  0.00     0.022 A 
BRANCH  84  88
ATOM     88  S   UNL A   1      45.396  25.129  37.368  1.00  0.00     0.124 S 
ATOM     89  O   UNL A   1      46.639  25.278  38.119  1.00  0.00    -0.237 OA
ATOM     90  O   UNL A   1      44.176  25.509  38.073  1.00  0.00    -0.237 OA
ATOM     91  O   UNL A   1      45.295  23.907  36.573  1.00  0.00    -0.744 OA
ENDBRANCH  84  88
ENDBRANCH  58  81
ENDBRANCH  32  33
ENDBRANCH  24  27
ENDBRANCH  22  23
ENDBRANCH   1  22
TORSDOF 19
ENDMDL
MODEL 3
REMARK VINA RESULT:     -11.2      1.190      2.774
REMARK SMILES CC(C)C[C@@H](C[C@H](O)c1ccccc1)C(=O)NCCCNC(=O)c1ccc(-c2c3nc(c(-c4cc(S(=O)(=O)[O-])ccc4F)c4ccc([nH]4)c(-c4cc(S(=O)(=O)[O-])ccc4F)c4nc(c(-c5cc(S(=O)(=O)[O-])ccc5F)c5ccc2[nH]5)C=C4)C=C3)cc1
REMARK SMILES IDX 19 1 18 2 17 3 15 4 16 5 5 7 4 8 2 9 1 10 3 11 6 12 7 13
REMARK SMILES IDX 9 14 10 15 14 16 11 17 13 18 12 19 8 20 20 22 21 23 22 24
REMARK SMILES IDX 23 26 24 27 25 28 86 29 26 30 85 31 27 32 28 33 29 34 79 35
REMARK SMILES IDX 30 36 84 37 78 38 80 39 31 40 83 41 77 42 76 43 32 45 64 46
REMARK SMILES IDX 44 47 63 48 45 49 48 50 62 51 81 52 46 53 47 54 61 56 82 57
REMARK SMILES IDX 49 58 33 59 34 60 42 61 35 62 41 63 43 64 40 65 36 66 37 67
REMARK SMILES IDX 38 68 39 69 65 70 66 71 74 72 67 73 73 74 75 75 72 76 68 77
REMARK SMILES IDX 69 78 70 79 71 80 50 81 51 82 59 83 52 84 58 85 60 86 57 87
REMARK SMILES IDX 53 88 54 89 55 90 56 91
REMARK H PARENT 17 6 8 21 21 25 80 44 48 55
REMARK Flexibility Score: inf
ROOT
ATOM      1  C   UNL A   1      32.291  29.773  25.467  1.00  0.00     0.042 C 
ENDROOT
BRANCH   1   2
ATOM      2  C   UNL A   1      32.685  28.311  25.482  1.00  0.00     0.117 C 
BRANCH   2   3
ATOM      3  N   UNL A   1      31.700  27.442  26.114  1.00  0.00    -0.356 N 
ATOM      4  C   UNL A   1      31.146  26.256  25.753  1.00  0.00     0.223 C 
ATOM      5  O   UNL A   1      30.485  25.671  26.620  1.00  0.00    -0.275 OA
ATOM      6  H   UNL A   1      31.368  27.784  26.975  1.00  0.00     0.163 HD
BRANCH   4   7
ATOM      7  C   UNL A   1      31.320  25.603  24.376  1.00  0.00     0.081 C 
BRANCH   7   8
ATOM      8  C   UNL A   1      32.215  24.352  24.430  1.00  0.00     0.016 C 
BRANCH   8   9
ATOM      9  C   UNL A   1      33.053  24.034  23.180  1.00  0.00    -0.017 C 
ATOM     10  C   UNL A   1      34.556  24.076  23.451  1.00  0.00     0.007 C 
ATOM     11  C   UNL A   1      32.662  22.646  22.656  1.00  0.00     0.007 C 
ENDBRANCH   8   9
ENDBRANCH   7   8
BRANCH   7  12
ATOM     12  C   UNL A   1      29.992  25.579  23.572  1.00  0.00     0.050 C 
BRANCH  12  13
ATOM     13  C   UNL A   1      28.944  26.619  23.967  1.00  0.00     0.145 C 
BRANCH  13  14
ATOM     14  C   UNL A   1      29.021  27.967  23.280  1.00  0.00    -0.020 A 
ATOM     15  C   UNL A   1      30.207  28.479  22.742  1.00  0.00     0.006 A 
ATOM     16  C   UNL A   1      27.820  28.663  23.039  1.00  0.00     0.006 A 
ATOM     17  C   UNL A   1      30.187  29.633  21.954  1.00  0.00     0.000 A 
ATOM     18  C   UNL A   1      27.801  29.811  22.245  1.00  0.00     0.000 A 
ATOM     19  C   UNL A   1      28.986  30.291  21.697  1.00  0.00     0.000 A 
ENDBRANCH  13  14
BRANCH  13  20
ATOM     20  O   UNL A   1      27.640  26.059  23.893  1.00  0.00    -0.388 OA
ATOM     21  H   UNL A   1      27.705  25.094  23.818  1.00  0.00     0.211 HD
ENDBRANCH  13  20
ENDBRANCH  12  13
ENDBRANCH   7  12
ENDBRANCH   4   7
ENDBRANCH   2   3
ENDBRANCH   1   2
BRANCH   1  22
ATOM     22  C   UNL A   1      32.006  30.315  26.860  1.00  0.00     0.118 C 
BRANCH  22  23
ATOM     23  N   UNL A   1      32.011  31.775  26.917  1.00  0.00    -0.352 N 
ATOM     24  C   UNL A   1      32.911  32.660  27.469  1.00  0.00     0.251 C 
ATOM     25  H   UNL A   1      31.236  32.201  26.484  1.00  0.00     0.163 HD
ATOM     26  O   UNL A   1      32.607  33.841  27.579  1.00  0.00    -0.269 OA
BRANCH  24  27
ATOM     27  C   UNL A   1      34.221  32.178  27.958  1.00  0.00     0.039 A 
ATOM     28  C   UNL A   1      35.302  33.062  28.019  1.00  0.00     0.014 A 
ATOM     29  C   UNL A   1      34.381  30.856  28.368  1.00  0.00     0.014 A 
ATOM     30  C   UNL A   1      36.504  32.644  28.596  1.00  0.00     0.010 A 
ATOM     31  C   UNL A   1      35.528  30.481  29.051  1.00  0.00     0.010 A 
ATOM     32  C   UNL A   1      36.604  31.370  29.177  1.00  0.00    -0.014 A 
BRANCH  32  33
ATOM     33  C   UNL A   1      37.814  30.928  29.920  1.00  0.00     0.031 A 
ATOM     34  C   UNL A   1      38.765  29.947  29.285  1.00  0.00     0.074 A 
ATOM     35  C   UNL A   1      37.992  31.317  31.199  1.00  0.00     0.049 A 
ATOM     36  N   UNL A   1      39.771  29.304  29.816  1.00  0.00    -0.248 NA
ATOM     37  C   UNL A   1      38.515  29.610  27.874  1.00  0.00     0.031 C 
ATOM     38  C   UNL A   1      37.112  32.223  31.942  1.00  0.00     0.029 A 
ATOM     39  N   UNL A   1      38.965  30.987  32.108  1.00  0.00    -0.354 N 
ATOM     40  C   UNL A   1      40.253  28.464  28.816  1.00  0.00     0.074 A 
ATOM     41  C   UNL A   1      39.383  28.632  27.673  1.00  0.00     0.031 C 
ATOM     42  C   UNL A   1      37.599  32.395  33.181  1.00  0.00     0.029 A 
ATOM     43  C   UNL A   1      38.791  31.572  33.342  1.00  0.00     0.049 A 
ATOM     44  H   UNL A   1      39.718  30.388  31.898  1.00  0.00     0.167 HD
ATOM     45  C   UNL A   1      41.335  27.648  28.842  1.00  0.00     0.034 A 
ATOM     46  C   UNL A   1      39.500  31.442  34.482  1.00  0.00     0.034 A 
ATOM     47  C   UNL A   1      42.210  27.521  29.982  1.00  0.00     0.049 A 
ATOM     48  C   UNL A   1      40.697  30.526  34.488  1.00  0.00     0.074 A 
ATOM     49  C   UNL A   1      43.376  26.786  30.096  1.00  0.00     0.029 A 
ATOM     50  N   UNL A   1      42.013  28.145  31.207  1.00  0.00    -0.354 N 
ATOM     51  N   UNL A   1      41.168  29.776  33.519  1.00  0.00    -0.248 NA
ATOM     52  C   UNL A   1      41.459  30.446  35.740  1.00  0.00     0.031 C 
ATOM     53  C   UNL A   1      43.849  26.915  31.407  1.00  0.00     0.029 A 
ATOM     54  C   UNL A   1      43.018  27.789  32.091  1.00  0.00     0.049 A 
ATOM     55  H   UNL A   1      41.267  28.753  31.416  1.00  0.00     0.167 HD
ATOM     56  C   UNL A   1      42.298  29.152  34.040  1.00  0.00     0.074 A 
ATOM     57  C   UNL A   1      42.446  29.629  35.400  1.00  0.00     0.031 C 
ATOM     58  C   UNL A   1      43.139  28.264  33.450  1.00  0.00     0.034 A 
BRANCH  45  59
ATOM     59  C   UNL A   1      41.614  26.824  27.606  1.00  0.00     0.023 A 
ATOM     60  C   UNL A   1      41.285  25.458  27.539  1.00  0.00     0.031 A 
ATOM     61  C   UNL A   1      42.252  27.400  26.494  1.00  0.00     0.131 A 
ATOM     62  C   UNL A   1      41.674  24.697  26.427  1.00  0.00     0.055 A 
ATOM     63  C   UNL A   1      42.557  26.655  25.351  1.00  0.00     0.041 A 
ATOM     64  F   UNL A   1      42.609  28.695  26.504  1.00  0.00    -0.206 F 
ATOM     65  C   UNL A   1      42.284  25.291  25.321  1.00  0.00     0.022 A 
BRANCH  62  66
ATOM     66  S   UNL A   1      41.508  22.893  26.514  1.00  0.00     0.124 S 
ATOM     67  O   UNL A   1      42.253  22.471  25.330  1.00  0.00    -0.237 OA
ATOM     68  O   UNL A   1      42.121  22.580  27.799  1.00  0.00    -0.237 OA
ATOM     69  O   UNL A   1      40.064  22.678  26.442  1.00  0.00    -0.744 OA
ENDBRANCH  62  66
ENDBRANCH  45  59
BRANCH  46  70
ATOM     70  C   UNL A   1      39.097  32.180  35.713  1.00  0.00     0.023 A 
ATOM     71  C   UNL A   1      38.386  31.538  36.738  1.00  0.00     0.031 A 
ATOM     72  C   UNL A   1      39.385  33.549  35.869  1.00  0.00     0.131 A 
ATOM     73  C   UNL A   1      37.944  32.270  37.851  1.00  0.00     0.055 A 
ATOM     74  C   UNL A   1      38.990  34.261  37.002  1.00  0.00     0.041 A 
ATOM     75  F   UNL A   1      40.070  34.210  34.922  1.00  0.00    -0.206 F 
ATOM     76  C   UNL A   1      38.253  33.625  37.996  1.00  0.00     0.022 A 
BRANCH  73  77
ATOM     77  S   UNL A   1      36.887  31.443  39.071  1.00  0.00     0.124 S 
ATOM     78  O   UNL A   1      35.686  32.268  39.032  1.00  0.00    -0.237 OA
ATOM     79  O   UNL A   1      36.764  30.103  38.505  1.00  0.00    -0.237 OA
ATOM     80  O   UNL A   1      37.663  31.527  40.306  1.00  0.00    -0.744 OA
ENDBRANCH  73  77
ENDBRANCH  46  70
BRANCH  58  81
ATOM     81  C   UNL A   1      44.310  27.786  34.270  1.00  0.00     0.023 A 
ATOM     82  C   UNL A   1      44.237  26.616  35.046  1.00  0.00     0.031 A 
ATOM     83  C   UNL A   1      45.510  28.519  34.284  1.00  0.00     0.131 A 
ATOM     84  C   UNL A   1      45.326  26.243  35.847  1.00  0.00     0.055 A 
ATOM     85  C   UNL A   1      46.611  28.108  35.036  1.00  0.00     0.041 A 
ATOM     86  F   UNL A   1      45.633  29.645  33.562  1.00  0.00    -0.206 F 
ATOM     87  C   UNL A   1      46.519  26.971  35.834  1.00  0.00     0.022 A 
BRANCH  84  88
ATOM     88  S   UNL A   1      45.134  24.836  36.975  1.00  0.00     0.124 S 
ATOM     89  O   UNL A   1      46.414  24.833  37.678  1.00  0.00    -0.237 OA
ATOM     90  O   UNL A   1      43.973  25.228  37.768  1.00  0.00    -0.237 OA
ATOM     91  O   UNL A   1      44.916  23.703  36.079  1.00  0.00    -0.744 OA
ENDBRANCH  84  88
ENDBRANCH  58  81
ENDBRANCH  32  33
ENDBRANCH  24  27
ENDBRANCH  22  23
ENDBRANCH   1  22
TORSDOF 19
ENDMDL
