MODEL 1
REMARK VINA RESULT:     -13.1      0.000      0.000
REMARK SMILES O=C(NCCCNC(=O)C1(Cc2ccccc2Cl)CCN(c2ncnc3[nH]ccc23)CC1)c1ccc(-c2c3nc(c(-c4cc(S(=O)(=O)[O-])ccc4F)c4ccc([nH]4)c(-c4cc(S(=O)(=O)[O-])ccc4F)c4nc(c(-c5cc(S(=O)(=O)[O-])ccc5F)c5ccc2[nH]5)C=C4)C=C3)cc1
REMARK SMILES IDX 4 1 3 2 1 3 2 4 33 6 34 7 95 8 35 9 94 10 36 11 37 12 38 13
REMARK SMILES IDX 88 14 39 15 93 16 87 17 89 18 40 19 92 20 86 21 85 22 41 24
REMARK SMILES IDX 73 25 53 26 72 27 54 28 57 29 71 30 90 31 55 32 56 33 70 35
REMARK SMILES IDX 91 36 58 37 42 38 43 39 51 40 44 41 50 42 52 43 49 44 45 45
REMARK SMILES IDX 46 46 47 47 48 48 74 49 75 50 83 51 76 52 82 53 84 54 81 55
REMARK SMILES IDX 77 56 78 57 79 58 80 59 59 60 60 61 68 62 61 63 67 64 69 65
REMARK SMILES IDX 66 66 62 67 63 68 64 69 65 70 5 71 6 72 7 73 8 74 9 76 10 77
REMARK SMILES IDX 19 78 32 79 20 80 31 81 21 82 11 83 12 84 13 85 17 86 14 87
REMARK SMILES IDX 16 88 18 89 15 90 22 91 23 92 30 93 24 94 26 95 29 96 25 97
REMARK SMILES IDX 27 98 28 99
REMARK H PARENT 3 5 89 23 57 34 7 75 27 100
REMARK Flexibility Score: inf
ROOT
ATOM      1  C   UNL A   1      32.862  29.790  25.781  1.00  0.00     0.118 C 
ENDROOT
BRANCH   1   2
ATOM      2  N   UNL A   1      32.604  31.134  26.261  1.00  0.00    -0.352 N 
ATOM      3  O   UNL A   1      32.717  32.893  27.642  1.00  0.00    -0.269 OA
ATOM      4  C   UNL A   1      33.252  31.870  27.222  1.00  0.00     0.251 C 
ATOM      5  H   UNL A   1      31.846  31.592  25.829  1.00  0.00     0.163 HD
BRANCH   4   6
ATOM      6  C   UNL A   1      34.574  31.460  27.756  1.00  0.00     0.039 A 
ATOM      7  C   UNL A   1      35.625  32.369  27.906  1.00  0.00     0.014 A 
ATOM      8  C   UNL A   1      34.722  30.152  28.233  1.00  0.00     0.014 A 
ATOM      9  C   UNL A   1      36.836  31.959  28.469  1.00  0.00     0.010 A 
ATOM     10  C   UNL A   1      35.914  29.757  28.852  1.00  0.00     0.010 A 
ATOM     11  C   UNL A   1      36.982  30.659  28.978  1.00  0.00    -0.014 A 
BRANCH  11  12
ATOM     12  C   UNL A   1      38.198  30.284  29.749  1.00  0.00     0.031 A 
ATOM     13  C   UNL A   1      39.176  29.273  29.220  1.00  0.00     0.074 A 
ATOM     14  C   UNL A   1      38.386  30.833  30.967  1.00  0.00     0.049 A 
ATOM     15  N   UNL A   1      40.250  28.788  29.790  1.00  0.00    -0.248 NA
ATOM     16  C   UNL A   1      38.910  28.729  27.881  1.00  0.00     0.031 C 
ATOM     17  C   UNL A   1      37.490  31.810  31.595  1.00  0.00     0.029 A 
ATOM     18  N   UNL A   1      39.374  30.646  31.902  1.00  0.00    -0.354 N 
ATOM     19  C   UNL A   1      40.781  27.870  28.892  1.00  0.00     0.074 A 
ATOM     20  C   UNL A   1      39.898  27.853  27.744  1.00  0.00     0.031 C 
ATOM     21  C   UNL A   1      37.972  32.137  32.804  1.00  0.00     0.029 A 
ATOM     22  C   UNL A   1      39.173  31.353  33.066  1.00  0.00     0.049 A 
ATOM     23  H   UNL A   1      40.152  30.061  31.754  1.00  0.00     0.167 HD
ATOM     24  C   UNL A   1      41.901  27.115  29.018  1.00  0.00     0.034 A 
ATOM     25  C   UNL A   1      39.852  31.343  34.231  1.00  0.00     0.034 A 
ATOM     26  C   UNL A   1      42.775  27.155  30.167  1.00  0.00     0.049 A 
ATOM     27  C   UNL A   1      41.061  30.456  34.359  1.00  0.00     0.074 A 
ATOM     28  C   UNL A   1      43.986  26.507  30.348  1.00  0.00     0.029 A 
ATOM     29  N   UNL A   1      42.523  27.854  31.339  1.00  0.00    -0.354 N 
ATOM     30  N   UNL A   1      41.591  29.651  33.467  1.00  0.00    -0.248 NA
ATOM     31  C   UNL A   1      41.763  30.471  35.649  1.00  0.00     0.031 C 
ATOM     32  C   UNL A   1      44.426  26.754  31.654  1.00  0.00     0.029 A 
ATOM     33  C   UNL A   1      43.525  27.612  32.266  1.00  0.00     0.049 A 
ATOM     34  H   UNL A   1      41.744  28.438  31.490  1.00  0.00     0.167 HD
ATOM     35  C   UNL A   1      42.696  29.075  34.086  1.00  0.00     0.074 A 
ATOM     36  C   UNL A   1      42.769  29.641  35.418  1.00  0.00     0.031 C 
ATOM     37  C   UNL A   1      43.571  28.162  33.598  1.00  0.00     0.034 A 
BRANCH  24  38
ATOM     38  C   UNL A   1      42.232  26.150  27.908  1.00  0.00     0.023 A 
ATOM     39  C   UNL A   1      41.765  24.825  27.907  1.00  0.00     0.031 A 
ATOM     40  C   UNL A   1      43.006  26.577  26.814  1.00  0.00     0.131 A 
ATOM     41  C   UNL A   1      42.114  23.961  26.857  1.00  0.00     0.055 A 
ATOM     42  C   UNL A   1      43.299  25.732  25.742  1.00  0.00     0.041 A 
ATOM     43  F   UNL A   1      43.492  27.829  26.770  1.00  0.00    -0.206 F 
ATOM     44  C   UNL A   1      42.859  24.413  25.764  1.00  0.00     0.022 A 
BRANCH  41  45
ATOM     45  S   UNL A   1      41.658  22.209  26.982  1.00  0.00     0.124 S 
ATOM     46  O   UNL A   1      41.440  21.858  25.581  1.00  0.00    -0.237 OA
ATOM     47  O   UNL A   1      42.836  21.620  27.611  1.00  0.00    -0.237 OA
ATOM     48  O   UNL A   1      40.453  22.225  27.808  1.00  0.00    -0.744 OA
ENDBRANCH  41  45
ENDBRANCH  24  38
BRANCH  25  49
ATOM     49  C   UNL A   1      39.370  32.148  35.390  1.00  0.00     0.023 A 
ATOM     50  C   UNL A   1      38.685  31.550  36.457  1.00  0.00     0.031 A 
ATOM     51  C   UNL A   1      39.549  33.544  35.420  1.00  0.00     0.131 A 
ATOM     52  C   UNL A   1      38.163  32.348  37.488  1.00  0.00     0.055 A 
ATOM     53  C   UNL A   1      39.078  34.326  36.475  1.00  0.00     0.041 A 
ATOM     54  F   UNL A   1      40.197  34.167  34.423  1.00  0.00    -0.206 F 
ATOM     55  C   UNL A   1      38.367  33.729  37.511  1.00  0.00     0.022 A 
BRANCH  52  56
ATOM     56  S   UNL A   1      37.123  31.564  38.750  1.00  0.00     0.124 S 
ATOM     57  O   UNL A   1      35.941  32.418  38.736  1.00  0.00    -0.237 OA
ATOM     58  O   UNL A   1      36.950  30.220  38.207  1.00  0.00    -0.237 OA
ATOM     59  O   UNL A   1      37.938  31.646  39.961  1.00  0.00    -0.744 OA
ENDBRANCH  52  56
ENDBRANCH  25  49
BRANCH  37  60
ATOM     60  C   UNL A   1      44.692  27.738  34.512  1.00  0.00     0.023 A 
ATOM     61  C   UNL A   1      44.603  26.567  35.286  1.00  0.00     0.031 A 
ATOM     62  C   UNL A   1      45.855  28.519  34.621  1.00  0.00     0.131 A 
ATOM     63  C   UNL A   1      45.640  26.234  36.169  1.00  0.00     0.055 A 
ATOM     64  C   UNL A   1      46.907  28.156  35.462  1.00  0.00     0.041 A 
ATOM     65  F   UNL A   1      45.988  29.648  33.908  1.00  0.00    -0.206 F 
ATOM     66  C   UNL A   1      46.799  27.012  36.251  1.00  0.00     0.022 A 
BRANCH  63  67
ATOM     67  S   UNL A   1      45.431  24.803  37.263  1.00  0.00     0.124 S 
ATOM     68  O   UNL A   1      46.813  24.467  37.590  1.00  0.00    -0.237 OA
ATOM     69  O   UNL A   1      44.634  25.356  38.354  1.00  0.00    -0.237 OA
ATOM     70  O   UNL A   1      44.736  23.828  36.424  1.00  0.00    -0.744 OA
ENDBRANCH  63  67
ENDBRANCH  37  60
ENDBRANCH  11  12
ENDBRANCH   4   6
ENDBRANCH   1   2
BRANCH   1  71
ATOM     71  C   UNL A   1      31.722  28.833  26.117  1.00  0.00     0.042 C 
BRANCH  71  72
ATOM     72  C   UNL A   1      32.137  27.546  26.833  1.00  0.00     0.117 C 
BRANCH  72  73
ATOM     73  N   UNL A   1      31.105  26.524  26.873  1.00  0.00    -0.356 N 
ATOM     74  C   UNL A   1      30.826  25.399  26.170  1.00  0.00     0.226 C 
ATOM     75  H   UNL A   1      30.447  26.688  27.588  1.00  0.00     0.163 HD
ATOM     76  O   UNL A   1      29.855  24.761  26.598  1.00  0.00    -0.274 OA
BRANCH  74  77
ATOM     77  C   UNL A   1      31.669  24.845  25.004  1.00  0.00     0.057 C 
ATOM     78  C   UNL A   1      31.555  23.287  24.945  1.00  0.00     0.039 C 
ATOM     79  C   UNL A   1      33.158  25.261  25.297  1.00  0.00     0.039 C 
ATOM     80  C   UNL A   1      32.329  22.545  26.030  1.00  0.00     0.119 C 
ATOM     81  C   UNL A   1      33.857  24.425  26.378  1.00  0.00     0.119 C 
ATOM     82  N   UNL A   1      33.696  23.025  26.031  1.00  0.00    -0.356 N 
BRANCH  77  83
ATOM     83  C   UNL A   1      31.324  25.392  23.587  1.00  0.00     0.054 C 
BRANCH  83  84
ATOM     84  C   UNL A   1      30.783  26.758  23.183  1.00  0.00    -0.028 A 
ATOM     85  C   UNL A   1      31.783  27.624  22.665  1.00  0.00     0.005 A 
ATOM     86  C   UNL A   1      29.506  27.314  23.354  1.00  0.00     0.044 A 
ATOM     87  C   UNL A   1      31.534  28.960  22.346  1.00  0.00     0.000 A 
ATOM     88  C   UNL A   1      29.259  28.661  23.027  1.00  0.00     0.021 A 
ATOM     89  Cl  UNL A   1      28.147  26.486  24.002  1.00  0.00    -0.084 Cl
ATOM     90  C   UNL A   1      30.267  29.483  22.532  1.00  0.00     0.002 A 
ENDBRANCH  83  84
ENDBRANCH  77  83
BRANCH  82  91
ATOM     91  C   UNL A   1      34.779  22.247  25.693  1.00  0.00     0.141 A 
ATOM     92  N   UNL A   1      34.555  20.949  25.342  1.00  0.00    -0.219 NA
ATOM     93  C   UNL A   1      36.130  22.679  25.694  1.00  0.00     0.061 A 
ATOM     94  C   UNL A   1      35.588  20.172  24.966  1.00  0.00     0.226 A 
ATOM     95  C   UNL A   1      37.090  21.752  25.306  1.00  0.00     0.142 A 
ATOM     96  C   UNL A   1      36.856  23.861  26.040  1.00  0.00     0.033 A 
ATOM     97  N   UNL A   1      36.890  20.487  24.915  1.00  0.00    -0.218 NA
ATOM     98  N   UNL A   1      38.325  22.337  25.395  1.00  0.00    -0.346 N 
ATOM     99  C   UNL A   1      38.201  23.619  25.851  1.00  0.00     0.085 A 
ATOM    100  H   UNL A   1      39.176  21.897  25.165  1.00  0.00     0.167 HD
ENDBRANCH  82  91
ENDBRANCH  74  77
ENDBRANCH  72  73
ENDBRANCH  71  72
ENDBRANCH   1  71
TORSDOF 16
ENDMDL
MODEL 2
REMARK VINA RESULT:     -13.1      1.443      2.041
REMARK SMILES O=C(NCCCNC(=O)C1(Cc2ccccc2Cl)CCN(c2ncnc3[nH]ccc23)CC1)c1ccc(-c2c3nc(c(-c4cc(S(=O)(=O)[O-])ccc4F)c4ccc([nH]4)c(-c4cc(S(=O)(=O)[O-])ccc4F)c4nc(c(-c5cc(S(=O)(=O)[O-])ccc5F)c5ccc2[nH]5)C=C4)C=C3)cc1
REMARK SMILES IDX 4 1 3 2 1 3 2 4 33 6 34 7 95 8 35 9 94 10 36 11 37 12 38 13
REMARK SMILES IDX 88 14 39 15 93 16 87 17 89 18 40 19 92 20 86 21 85 22 41 24
REMARK SMILES IDX 73 25 53 26 72 27 54 28 57 29 71 30 90 31 55 32 56 33 70 35
REMARK SMILES IDX 91 36 58 37 42 38 43 39 51 40 44 41 50 42 52 43 49 44 45 45
REMARK SMILES IDX 46 46 47 47 48 48 74 49 75 50 83 51 76 52 82 53 84 54 81 55
REMARK SMILES IDX 77 56 78 57 79 58 80 59 59 60 60 61 68 62 61 63 67 64 69 65
REMARK SMILES IDX 66 66 62 67 63 68 64 69 65 70 5 71 6 72 7 73 8 74 9 76 10 77
REMARK SMILES IDX 19 78 32 79 20 80 31 81 21 82 11 83 12 84 13 85 17 86 14 87
REMARK SMILES IDX 16 88 18 89 15 90 22 91 23 92 30 93 24 94 26 95 29 96 25 97
REMARK SMILES IDX 27 98 28 99
REMARK H PARENT 3 5 89 23 57 34 7 75 27 100
REMARK Flexibility Score: inf
ROOT
ATOM      1  C   UNL A   1      32.151  31.712  26.956  1.00  0.00     0.118 C 
ENDROOT
BRANCH   1   2
ATOM      2  N   UNL A   1      32.259  33.126  27.261  1.00  0.00    -0.352 N 
ATOM      3  O   UNL A   1      32.934  34.958  28.356  1.00  0.00    -0.269 OA
ATOM      4  C   UNL A   1      33.173  33.797  28.035  1.00  0.00     0.251 C 
ATOM      5  H   UNL A   1      31.568  33.694  26.849  1.00  0.00     0.163 HD
BRANCH   4   6
ATOM      6  C   UNL A   1      34.432  33.154  28.484  1.00  0.00     0.039 A 
ATOM      7  C   UNL A   1      35.671  33.792  28.366  1.00  0.00     0.014 A 
ATOM      8  C   UNL A   1      34.351  31.927  29.153  1.00  0.00     0.014 A 
ATOM      9  C   UNL A   1      36.827  33.180  28.856  1.00  0.00     0.010 A 
ATOM     10  C   UNL A   1      35.501  31.342  29.697  1.00  0.00     0.010 A 
ATOM     11  C   UNL A   1      36.751  31.965  29.555  1.00  0.00    -0.014 A 
BRANCH  11  12
ATOM     12  C   UNL A   1      37.950  31.415  30.242  1.00  0.00     0.031 A 
ATOM     13  C   UNL A   1      38.822  30.385  29.581  1.00  0.00     0.074 A 
ATOM     14  C   UNL A   1      38.218  31.822  31.500  1.00  0.00     0.049 A 
ATOM     15  N   UNL A   1      39.866  29.757  30.063  1.00  0.00    -0.248 NA
ATOM     16  C   UNL A   1      38.474  30.002  28.206  1.00  0.00     0.031 C 
ATOM     17  C   UNL A   1      37.427  32.801  32.252  1.00  0.00     0.029 A 
ATOM     18  N   UNL A   1      39.211  31.460  32.376  1.00  0.00    -0.354 N 
ATOM     19  C   UNL A   1      40.291  28.893  29.061  1.00  0.00     0.074 A 
ATOM     20  C   UNL A   1      39.378  29.065  27.949  1.00  0.00     0.031 C 
ATOM     21  C   UNL A   1      37.969  32.964  33.469  1.00  0.00     0.029 A 
ATOM     22  C   UNL A   1      39.104  32.061  33.610  1.00  0.00     0.049 A 
ATOM     23  H   UNL A   1      39.931  30.830  32.144  1.00  0.00     0.167 HD
ATOM     24  C   UNL A   1      41.345  28.039  29.073  1.00  0.00     0.034 A 
ATOM     25  C   UNL A   1      39.811  31.877  34.744  1.00  0.00     0.034 A 
ATOM     26  C   UNL A   1      42.250  27.890  30.188  1.00  0.00     0.049 A 
ATOM     27  C   UNL A   1      40.942  30.884  34.742  1.00  0.00     0.074 A 
ATOM     28  C   UNL A   1      43.404  27.129  30.261  1.00  0.00     0.029 A 
ATOM     29  N   UNL A   1      42.091  28.487  31.431  1.00  0.00    -0.354 N 
ATOM     30  N   UNL A   1      41.376  30.131  33.756  1.00  0.00    -0.248 NA
ATOM     31  C   UNL A   1      41.678  30.711  36.001  1.00  0.00     0.031 C 
ATOM     32  C   UNL A   1      43.900  27.206  31.568  1.00  0.00     0.029 A 
ATOM     33  C   UNL A   1      43.093  28.070  32.293  1.00  0.00     0.049 A 
ATOM     34  H   UNL A   1      41.370  29.115  31.666  1.00  0.00     0.167 HD
ATOM     35  C   UNL A   1      42.443  29.406  34.277  1.00  0.00     0.074 A 
ATOM     36  C   UNL A   1      42.601  29.827  35.654  1.00  0.00     0.031 C 
ATOM     37  C   UNL A   1      43.223  28.477  33.671  1.00  0.00     0.034 A 
BRANCH  24  38
ATOM     38  C   UNL A   1      41.561  27.166  27.862  1.00  0.00     0.023 A 
ATOM     39  C   UNL A   1      41.171  25.817  27.836  1.00  0.00     0.031 A 
ATOM     40  C   UNL A   1      42.142  27.707  26.701  1.00  0.00     0.131 A 
ATOM     41  C   UNL A   1      41.407  25.043  26.689  1.00  0.00     0.055 A 
ATOM     42  C   UNL A   1      42.320  26.949  25.542  1.00  0.00     0.041 A 
ATOM     43  F   UNL A   1      42.549  28.987  26.675  1.00  0.00    -0.206 F 
ATOM     44  C   UNL A   1      41.959  25.606  25.535  1.00  0.00     0.022 A 
BRANCH  41  45
ATOM     45  S   UNL A   1      41.069  23.261  26.756  1.00  0.00     0.124 S 
ATOM     46  O   UNL A   1      39.637  23.219  26.469  1.00  0.00    -0.237 OA
ATOM     47  O   UNL A   1      41.944  22.734  25.714  1.00  0.00    -0.237 OA
ATOM     48  O   UNL A   1      41.435  22.892  28.122  1.00  0.00    -0.744 OA
ENDBRANCH  41  45
ENDBRANCH  24  38
BRANCH  25  49
ATOM     49  C   UNL A   1      39.432  32.598  35.993  1.00  0.00     0.023 A 
ATOM     50  C   UNL A   1      38.583  32.013  36.943  1.00  0.00     0.031 A 
ATOM     51  C   UNL A   1      39.880  33.912  36.229  1.00  0.00     0.131 A 
ATOM     52  C   UNL A   1      38.171  32.753  38.063  1.00  0.00     0.055 A 
ATOM     53  C   UNL A   1      39.514  34.624  37.372  1.00  0.00     0.041 A 
ATOM     54  F   UNL A   1      40.694  34.520  35.351  1.00  0.00    -0.206 F 
ATOM     55  C   UNL A   1      38.641  34.049  38.290  1.00  0.00     0.022 A 
BRANCH  52  56
ATOM     56  S   UNL A   1      36.928  32.034  39.169  1.00  0.00     0.124 S 
ATOM     57  O   UNL A   1      37.498  32.313  40.482  1.00  0.00    -0.237 OA
ATOM     58  O   UNL A   1      35.733  32.793  38.814  1.00  0.00    -0.237 OA
ATOM     59  O   UNL A   1      36.906  30.624  38.785  1.00  0.00    -0.744 OA
ENDBRANCH  52  56
ENDBRANCH  25  49
BRANCH  37  60
ATOM     60  C   UNL A   1      44.327  27.872  34.498  1.00  0.00     0.023 A 
ATOM     61  C   UNL A   1      44.111  26.722  35.279  1.00  0.00     0.031 A 
ATOM     62  C   UNL A   1      45.605  28.457  34.517  1.00  0.00     0.131 A 
ATOM     63  C   UNL A   1      45.146  26.221  36.082  1.00  0.00     0.055 A 
ATOM     64  C   UNL A   1      46.645  27.923  35.277  1.00  0.00     0.041 A 
ATOM     65  F   UNL A   1      45.862  29.557  33.792  1.00  0.00    -0.206 F 
ATOM     66  C   UNL A   1      46.416  26.803  36.074  1.00  0.00     0.022 A 
BRANCH  63  67
ATOM     67  S   UNL A   1      44.794  24.830  37.193  1.00  0.00     0.124 S 
ATOM     68  O   UNL A   1      45.670  25.117  38.324  1.00  0.00    -0.237 OA
ATOM     69  O   UNL A   1      43.363  24.980  37.440  1.00  0.00    -0.237 OA
ATOM     70  O   UNL A   1      45.164  23.657  36.403  1.00  0.00    -0.744 OA
ENDBRANCH  63  67
ENDBRANCH  37  60
ENDBRANCH  11  12
ENDBRANCH   4   6
ENDBRANCH   1   2
BRANCH   1  71
ATOM     71  C   UNL A   1      31.114  31.437  25.871  1.00  0.00     0.042 C 
BRANCH  71  72
ATOM     72  C   UNL A   1      31.166  30.037  25.255  1.00  0.00     0.117 C 
BRANCH  72  73
ATOM     73  N   UNL A   1      32.427  29.714  24.609  1.00  0.00    -0.356 N 
ATOM     74  C   UNL A   1      32.915  28.662  23.908  1.00  0.00     0.226 C 
ATOM     75  H   UNL A   1      33.089  30.438  24.702  1.00  0.00     0.163 HD
ATOM     76  O   UNL A   1      34.058  28.837  23.462  1.00  0.00    -0.274 OA
BRANCH  74  77
ATOM     77  C   UNL A   1      32.132  27.380  23.562  1.00  0.00     0.057 C 
ATOM     78  C   UNL A   1      31.464  26.790  24.847  1.00  0.00     0.039 C 
ATOM     79  C   UNL A   1      33.184  26.359  22.989  1.00  0.00     0.039 C 
ATOM     80  C   UNL A   1      32.426  26.099  25.811  1.00  0.00     0.119 C 
ATOM     81  C   UNL A   1      34.074  25.692  24.047  1.00  0.00     0.119 C 
ATOM     82  N   UNL A   1      33.207  25.132  25.069  1.00  0.00    -0.356 N 
BRANCH  77  83
ATOM     83  C   UNL A   1      31.018  27.526  22.483  1.00  0.00     0.054 C 
BRANCH  83  84
ATOM     84  C   UNL A   1      29.757  28.381  22.505  1.00  0.00    -0.028 A 
ATOM     85  C   UNL A   1      29.947  29.671  21.941  1.00  0.00     0.005 A 
ATOM     86  C   UNL A   1      28.506  28.136  23.091  1.00  0.00     0.044 A 
ATOM     87  C   UNL A   1      28.960  30.659  21.966  1.00  0.00     0.000 A 
ATOM     88  C   UNL A   1      27.513  29.134  23.110  1.00  0.00     0.021 A 
ATOM     89  Cl  UNL A   1      28.051  26.675  23.874  1.00  0.00    -0.084 Cl
ATOM     90  C   UNL A   1      27.740  30.391  22.558  1.00  0.00     0.002 A 
ENDBRANCH  83  84
ENDBRANCH  77  83
BRANCH  82  91
ATOM     91  C   UNL A   1      33.126  23.772  25.264  1.00  0.00     0.141 A 
ATOM     92  N   UNL A   1      31.892  23.195  25.262  1.00  0.00    -0.219 NA
ATOM     93  C   UNL A   1      34.230  22.910  25.489  1.00  0.00     0.061 A 
ATOM     94  C   UNL A   1      31.779  21.861  25.410  1.00  0.00     0.226 A 
ATOM     95  C   UNL A   1      33.952  21.558  25.651  1.00  0.00     0.142 A 
ATOM     96  C   UNL A   1      35.645  23.032  25.651  1.00  0.00     0.033 A 
ATOM     97  N   UNL A   1      32.753  20.961  25.608  1.00  0.00    -0.218 NA
ATOM     98  N   UNL A   1      35.126  20.893  25.882  1.00  0.00    -0.346 N 
ATOM     99  C   UNL A   1      36.167  21.779  25.894  1.00  0.00     0.085 A 
ATOM    100  H   UNL A   1      35.208  19.921  26.018  1.00  0.00     0.167 HD
ENDBRANCH  82  91
ENDBRANCH  74  77
ENDBRANCH  72  73
ENDBRANCH  71  72
ENDBRANCH   1  71
TORSDOF 16
ENDMDL
MODEL 3
REMARK VINA RESULT:     -13.0      5.618     10.702
REMARK SMILES O=C(NCCCNC(=O)C1(Cc2ccccc2Cl)CCN(c2ncnc3[nH]ccc23)CC1)c1ccc(-c2c3nc(c(-c4cc(S(=O)(=O)[O-])ccc4F)c4ccc([nH]4)c(-c4cc(S(=O)(=O)[O-])ccc4F)c4nc(c(-c5cc(S(=O)(=O)[O-])ccc5F)c5ccc2[nH]5)C=C4)C=C3)cc1
REMARK SMILES IDX 4 1 3 2 1 3 2 4 33 6 34 7 95 8 35 9 94 10 36 11 37 12 38 13
REMARK SMILES IDX 88 14 39 15 93 16 87 17 89 18 40 19 92 20 86 21 85 22 41 24
REMARK SMILES IDX 73 25 53 26 72 27 54 28 57 29 71 30 90 31 55 32 56 33 70 35
REMARK SMILES IDX 91 36 58 37 42 38 43 39 51 40 44 41 50 42 52 43 49 44 45 45
REMARK SMILES IDX 46 46 47 47 48 48 74 49 75 50 83 51 76 52 82 53 84 54 81 55
REMARK SMILES IDX 77 56 78 57 79 58 80 59 59 60 60 61 68 62 61 63 67 64 69 65
REMARK SMILES IDX 66 66 62 67 63 68 64 69 65 70 5 71 6 72 7 73 8 74 9 76 10 77
REMARK SMILES IDX 19 78 32 79 20 80 31 81 21 82 11 83 12 84 13 85 17 86 14 87
REMARK SMILES IDX 16 88 18 89 15 90 22 91 23 92 30 93 24 94 26 95 29 96 25 97
REMARK SMILES IDX 27 98 28 99
REMARK H PARENT 3 5 89 23 57 34 7 75 27 100
REMARK Flexibility Score: inf
ROOT
ATOM      1  C   UNL A   1      38.944  20.588  25.707  1.00  0.00     0.118 C 
ENDROOT
BRANCH   1   2
ATOM      2  N   UNL A   1      39.888  19.507  25.918  1.00  0.00    -0.352 N 
ATOM      3  O   UNL A   1      41.882  18.493  26.007  1.00  0.00    -0.269 OA
ATOM      4  C   UNL A   1      41.249  19.542  26.090  1.00  0.00     0.251 C 
ATOM      5  H   UNL A   1      39.490  18.606  25.940  1.00  0.00     0.163 HD
BRANCH   4   6
ATOM      6  C   UNL A   1      41.964  20.811  26.375  1.00  0.00     0.039 A 
ATOM      7  C   UNL A   1      42.256  21.736  25.369  1.00  0.00     0.014 A 
ATOM      8  C   UNL A   1      42.237  21.136  27.709  1.00  0.00     0.014 A 
ATOM      9  C   UNL A   1      42.876  22.948  25.685  1.00  0.00     0.010 A 
ATOM     10  C   UNL A   1      42.803  22.375  28.032  1.00  0.00     0.010 A 
ATOM     11  C   UNL A   1      43.126  23.294  27.022  1.00  0.00    -0.014 A 
BRANCH  11  12
ATOM     12  C   UNL A   1      43.603  24.660  27.369  1.00  0.00     0.031 A 
ATOM     13  C   UNL A   1      42.656  25.712  27.872  1.00  0.00     0.074 A 
ATOM     14  C   UNL A   1      44.905  24.958  27.178  1.00  0.00     0.049 A 
ATOM     15  N   UNL A   1      42.895  26.967  28.161  1.00  0.00    -0.248 NA
ATOM     16  C   UNL A   1      41.256  25.308  28.068  1.00  0.00     0.031 C 
ATOM     17  C   UNL A   1      45.915  24.023  26.672  1.00  0.00     0.029 A 
ATOM     18  N   UNL A   1      45.604  26.125  27.366  1.00  0.00    -0.354 N 
ATOM     19  C   UNL A   1      41.678  27.510  28.555  1.00  0.00     0.074 A 
ATOM     20  C   UNL A   1      40.696  26.449  28.451  1.00  0.00     0.031 C 
ATOM     21  C   UNL A   1      47.099  24.650  26.597  1.00  0.00     0.029 A 
ATOM     22  C   UNL A   1      46.925  26.044  26.988  1.00  0.00     0.049 A 
ATOM     23  H   UNL A   1      45.199  26.942  27.736  1.00  0.00     0.167 HD
ATOM     24  C   UNL A   1      41.410  28.774  28.966  1.00  0.00     0.034 A 
ATOM     25  C   UNL A   1      47.881  26.992  26.920  1.00  0.00     0.034 A 
ATOM     26  C   UNL A   1      42.405  29.815  29.074  1.00  0.00     0.049 A 
ATOM     27  C   UNL A   1      47.541  28.399  27.333  1.00  0.00     0.074 A 
ATOM     28  C   UNL A   1      42.256  31.097  29.574  1.00  0.00     0.029 A 
ATOM     29  N   UNL A   1      43.722  29.708  28.649  1.00  0.00    -0.354 N 
ATOM     30  N   UNL A   1      46.399  28.873  27.777  1.00  0.00    -0.248 NA
ATOM     31  C   UNL A   1      48.612  29.399  27.234  1.00  0.00     0.031 C 
ATOM     32  C   UNL A   1      43.459  31.787  29.383  1.00  0.00     0.029 A 
ATOM     33  C   UNL A   1      44.381  30.915  28.826  1.00  0.00     0.049 A 
ATOM     34  H   UNL A   1      44.129  28.892  28.276  1.00  0.00     0.167 HD
ATOM     35  C   UNL A   1      46.622  30.224  28.021  1.00  0.00     0.074 A 
ATOM     36  C   UNL A   1      48.010  30.484  27.697  1.00  0.00     0.031 C 
ATOM     37  C   UNL A   1      45.758  31.166  28.474  1.00  0.00     0.034 A 
BRANCH  24  38
ATOM     38  C   UNL A   1      39.980  29.123  29.293  1.00  0.00     0.023 A 
ATOM     39  C   UNL A   1      39.524  29.238  30.617  1.00  0.00     0.031 A 
ATOM     40  C   UNL A   1      39.063  29.375  28.256  1.00  0.00     0.131 A 
ATOM     41  C   UNL A   1      38.179  29.550  30.869  1.00  0.00     0.055 A 
ATOM     42  C   UNL A   1      37.742  29.745  28.512  1.00  0.00     0.041 A 
ATOM     43  F   UNL A   1      39.441  29.264  26.971  1.00  0.00    -0.206 F 
ATOM     44  C   UNL A   1      37.291  29.827  29.825  1.00  0.00     0.022 A 
BRANCH  41  45
ATOM     45  S   UNL A   1      37.579  29.501  32.580  1.00  0.00     0.124 S 
ATOM     46  O   UNL A   1      38.615  30.256  33.281  1.00  0.00    -0.237 OA
ATOM     47  O   UNL A   1      36.276  30.150  32.478  1.00  0.00    -0.237 OA
ATOM     48  O   UNL A   1      37.541  28.073  32.891  1.00  0.00    -0.744 OA
ENDBRANCH  41  45
ENDBRANCH  24  38
BRANCH  25  49
ATOM     49  C   UNL A   1      49.233  26.661  26.382  1.00  0.00     0.023 A 
ATOM     50  C   UNL A   1      49.655  27.137  25.132  1.00  0.00     0.031 A 
ATOM     51  C   UNL A   1      50.105  25.818  27.097  1.00  0.00     0.131 A 
ATOM     52  C   UNL A   1      50.896  26.732  24.613  1.00  0.00     0.055 A 
ATOM     53  C   UNL A   1      51.361  25.464  26.602  1.00  0.00     0.041 A 
ATOM     54  F   UNL A   1      49.749  25.334  28.297  1.00  0.00    -0.206 F 
ATOM     55  C   UNL A   1      51.756  25.911  25.345  1.00  0.00     0.022 A 
BRANCH  52  56
ATOM     56  S   UNL A   1      51.326  27.214  22.919  1.00  0.00     0.124 S 
ATOM     57  O   UNL A   1      50.115  26.855  22.189  1.00  0.00    -0.237 OA
ATOM     58  O   UNL A   1      51.584  28.643  23.068  1.00  0.00    -0.237 OA
ATOM     59  O   UNL A   1      52.501  26.397  22.621  1.00  0.00    -0.744 OA
ENDBRANCH  52  56
ENDBRANCH  25  49
BRANCH  37  60
ATOM     60  C   UNL A   1      46.304  32.558  28.659  1.00  0.00     0.023 A 
ATOM     61  C   UNL A   1      46.230  33.517  27.633  1.00  0.00     0.031 A 
ATOM     62  C   UNL A   1      46.917  32.927  29.869  1.00  0.00     0.131 A 
ATOM     63  C   UNL A   1      46.801  34.784  27.820  1.00  0.00     0.055 A 
ATOM     64  C   UNL A   1      47.436  34.206  30.069  1.00  0.00     0.041 A 
ATOM     65  F   UNL A   1      47.016  32.048  30.879  1.00  0.00    -0.206 F 
ATOM     66  C   UNL A   1      47.389  35.140  29.037  1.00  0.00     0.022 A 
BRANCH  63  67
ATOM     67  S   UNL A   1      46.825  35.946  26.427  1.00  0.00     0.124 S 
ATOM     68  O   UNL A   1      46.227  35.150  25.359  1.00  0.00    -0.237 OA
ATOM     69  O   UNL A   1      46.015  37.052  26.928  1.00  0.00    -0.237 OA
ATOM     70  O   UNL A   1      48.245  36.248  26.256  1.00  0.00    -0.744 OA
ENDBRANCH  63  67
ENDBRANCH  37  60
ENDBRANCH  11  12
ENDBRANCH   4   6
ENDBRANCH   1   2
BRANCH   1  71
ATOM     71  C   UNL A   1      37.683  20.116  24.990  1.00  0.00     0.042 C 
BRANCH  71  72
ATOM     72  C   UNL A   1      36.545  21.137  24.925  1.00  0.00     0.117 C 
BRANCH  72  73
ATOM     73  N   UNL A   1      35.840  21.329  26.180  1.00  0.00    -0.356 N 
ATOM     74  C   UNL A   1      34.587  21.699  26.542  1.00  0.00     0.226 C 
ATOM     75  H   UNL A   1      36.412  21.144  26.960  1.00  0.00     0.163 HD
ATOM     76  O   UNL A   1      34.381  21.663  27.763  1.00  0.00    -0.274 OA
BRANCH  74  77
ATOM     77  C   UNL A   1      33.440  22.033  25.567  1.00  0.00     0.057 C 
ATOM     78  C   UNL A   1      34.017  22.518  24.197  1.00  0.00     0.039 C 
ATOM     79  C   UNL A   1      32.613  23.192  26.238  1.00  0.00     0.039 C 
ATOM     80  C   UNL A   1      34.597  23.930  24.208  1.00  0.00     0.119 C 
ATOM     81  C   UNL A   1      33.268  24.578  26.158  1.00  0.00     0.119 C 
ATOM     82  N   UNL A   1      33.611  24.829  24.770  1.00  0.00    -0.356 N 
BRANCH  77  83
ATOM     83  C   UNL A   1      32.434  20.882  25.269  1.00  0.00     0.054 C 
BRANCH  83  84
ATOM     84  C   UNL A   1      32.624  19.627  24.426  1.00  0.00    -0.028 A 
ATOM     85  C   UNL A   1      33.197  18.548  25.151  1.00  0.00     0.005 A 
ATOM     86  C   UNL A   1      32.435  19.422  23.051  1.00  0.00     0.044 A 
ATOM     87  C   UNL A   1      33.568  17.345  24.548  1.00  0.00     0.000 A 
ATOM     88  C   UNL A   1      32.807  18.206  22.448  1.00  0.00     0.021 A 
ATOM     89  Cl  UNL A   1      31.803  20.586  21.956  1.00  0.00    -0.084 Cl
ATOM     90  C   UNL A   1      33.377  17.175  23.189  1.00  0.00     0.002 A 
ENDBRANCH  83  84
ENDBRANCH  77  83
BRANCH  82  91
ATOM     91  C   UNL A   1      32.994  25.831  24.055  1.00  0.00     0.141 A 
ATOM     92  N   UNL A   1      32.316  25.489  22.923  1.00  0.00    -0.219 NA
ATOM     93  C   UNL A   1      33.017  27.209  24.389  1.00  0.00     0.061 A 
ATOM     94  C   UNL A   1      31.668  26.438  22.222  1.00  0.00     0.226 A 
ATOM     95  C   UNL A   1      32.321  28.073  23.553  1.00  0.00     0.142 A 
ATOM     96  C   UNL A   1      33.622  28.041  25.382  1.00  0.00     0.033 A 
ATOM     97  N   UNL A   1      31.612  27.756  22.462  1.00  0.00    -0.218 NA
ATOM     98  N   UNL A   1      32.478  29.352  24.015  1.00  0.00    -0.346 N 
ATOM     99  C   UNL A   1      33.277  29.351  25.124  1.00  0.00     0.085 A 
ATOM    100  H   UNL A   1      32.076  30.154  23.608  1.00  0.00     0.167 HD
ENDBRANCH  82  91
ENDBRANCH  74  77
ENDBRANCH  72  73
ENDBRANCH  71  72
ENDBRANCH   1  71
TORSDOF 16
ENDMDL
