MODEL 1
REMARK VINA RESULT:     -13.5      0.000      0.000
REMARK SMILES Cc1cccc(O[C@H](C)C(=O)NNC(=O)[C@H]2[C@@H]3CC[C@@H](C3)[C@@H]2C(=O)NCCCNC(=O)c2ccc(-c3c4nc(c(-c5cc(S(=O)(=O)[O-])ccc5F)c5ccc([nH]5)c(-c5cc(S(=O)(=O)[O-])ccc5F)c5nc(c(-c6cc(S(=O)(=O)[O-])ccc6F)c6ccc3[nH]6)C=C5)C=C4)cc2)c1
REMARK SMILES IDX 26 1 25 2 23 3 24 4 22 6 16 7 17 8 18 9 21 10 20 11 19 12
REMARK SMILES IDX 14 13 13 14 15 16 12 17 10 18 11 19 8 21 9 22 7 23 6 24 1 25
REMARK SMILES IDX 2 26 3 27 95 28 4 29 5 30 27 31 28 32 29 33 30 34 31 36
REMARK SMILES IDX 32 37 33 38 94 39 34 40 93 41 35 42 36 43 37 44 87 45 38 46
REMARK SMILES IDX 92 47 86 48 88 49 39 50 91 51 85 52 84 53 40 55 72 56 52 57
REMARK SMILES IDX 71 58 53 59 56 60 70 61 89 62 54 63 55 64 69 66 90 67 57 68
REMARK SMILES IDX 41 69 42 70 50 71 43 72 49 73 51 74 48 75 44 76 45 77 46 78
REMARK SMILES IDX 47 79 73 80 74 81 82 82 75 83 81 84 83 85 80 86 76 87 77 88
REMARK SMILES IDX 78 89 79 90 58 91 59 92 67 93 60 94 66 95 68 96 65 97 61 98
REMARK SMILES IDX 62 99 63 100 64 101
REMARK H PARENT 25 5 13 15 12 20 29 35 88 54 56 65
REMARK Flexibility Score: inf
ROOT
ATOM      1  C   UNL A   1      32.495  28.795  27.066  1.00  0.00     0.117 C 
ENDROOT
BRANCH   1   2
ATOM      2  N   UNL A   1      33.325  28.052  26.123  1.00  0.00    -0.356 N 
ATOM      3  C   UNL A   1      33.209  26.758  25.695  1.00  0.00     0.224 C 
ATOM      4  O   UNL A   1      34.042  26.293  24.921  1.00  0.00    -0.275 OA
ATOM      5  H   UNL A   1      34.079  28.556  25.740  1.00  0.00     0.163 HD
BRANCH   3   6
ATOM      6  C   UNL A   1      32.044  25.932  26.228  1.00  0.00     0.094 C 
ATOM      7  C   UNL A   1      32.084  24.436  25.854  1.00  0.00     0.096 C 
ATOM      8  C   UNL A   1      30.662  24.164  25.296  1.00  0.00     0.002 C 
ATOM      9  C   UNL A   1      30.599  24.748  23.870  1.00  0.00     0.005 C 
ATOM     10  C   UNL A   1      29.785  25.166  26.039  1.00  0.00     0.009 C 
ATOM     11  C   UNL A   1      30.664  26.361  25.663  1.00  0.00     0.002 C 
ATOM     12  C   UNL A   1      30.639  26.263  24.124  1.00  0.00     0.005 C 
BRANCH   7  13
ATOM     13  C   UNL A   1      32.529  23.404  26.884  1.00  0.00     0.242 C 
ATOM     14  N   UNL A   1      33.818  23.045  27.151  1.00  0.00    -0.267 N 
ATOM     15  H   UNL A   1      33.926  22.226  27.687  1.00  0.00     0.191 HD
ATOM     16  O   UNL A   1      31.664  22.864  27.589  1.00  0.00    -0.273 OA
BRANCH  14  17
ATOM     17  N   UNL A   1      34.982  23.664  26.778  1.00  0.00    -0.264 N 
ATOM     18  C   UNL A   1      35.919  23.242  25.890  1.00  0.00     0.279 C 
ATOM     19  O   UNL A   1      36.824  24.058  25.652  1.00  0.00    -0.269 OA
ATOM     20  H   UNL A   1      35.162  24.529  27.212  1.00  0.00     0.191 HD
BRANCH  18  21
ATOM     21  C   UNL A   1      35.996  21.829  25.240  1.00  0.00     0.260 C 
ATOM     22  C   UNL A   1      37.409  21.572  24.694  1.00  0.00     0.064 C 
BRANCH  21  23
ATOM     23  O   UNL A   1      35.274  20.675  25.606  1.00  0.00    -0.481 OA
BRANCH  23  24
ATOM     24  C   UNL A   1      34.276  20.096  24.896  1.00  0.00     0.120 A 
ATOM     25  C   UNL A   1      33.931  16.572  23.469  1.00  0.00     0.044 C 
ATOM     26  C   UNL A   1      33.640  18.004  23.807  1.00  0.00    -0.047 A 
ATOM     27  C   UNL A   1      32.528  18.643  23.257  1.00  0.00     0.003 A 
ATOM     28  C   UNL A   1      34.497  18.737  24.636  1.00  0.00     0.049 A 
ATOM     29  C   UNL A   1      32.276  19.984  23.544  1.00  0.00     0.004 A 
ATOM     30  C   UNL A   1      33.143  20.708  24.368  1.00  0.00     0.046 A 
ENDBRANCH  23  24
ENDBRANCH  21  23
ENDBRANCH  18  21
ENDBRANCH  14  17
ENDBRANCH   7  13
ENDBRANCH   3   6
ENDBRANCH   1   2
BRANCH   1  31
ATOM     31  C   UNL A   1      32.971  30.233  27.253  1.00  0.00     0.042 C 
BRANCH  31  32
ATOM     32  C   UNL A   1      34.440  30.409  26.898  1.00  0.00     0.118 C 
BRANCH  32  33
ATOM     33  N   UNL A   1      35.114  31.463  27.652  1.00  0.00    -0.352 N 
ATOM     34  C   UNL A   1      36.241  31.377  28.464  1.00  0.00     0.251 C 
ATOM     35  H   UNL A   1      34.716  32.360  27.576  1.00  0.00     0.163 HD
ATOM     36  O   UNL A   1      36.637  32.329  29.097  1.00  0.00    -0.269 OA
BRANCH  34  37
ATOM     37  C   UNL A   1      37.004  30.105  28.463  1.00  0.00     0.039 A 
ATOM     38  C   UNL A   1      37.055  29.372  29.656  1.00  0.00     0.014 A 
ATOM     39  C   UNL A   1      37.832  29.784  27.393  1.00  0.00     0.014 A 
ATOM     40  C   UNL A   1      38.104  28.479  29.858  1.00  0.00     0.010 A 
ATOM     41  C   UNL A   1      38.930  28.987  27.634  1.00  0.00     0.010 A 
ATOM     42  C   UNL A   1      39.097  28.386  28.888  1.00  0.00    -0.014 A 
BRANCH  42  43
ATOM     43  C   UNL A   1      40.413  27.803  29.120  1.00  0.00     0.031 A 
ATOM     44  C   UNL A   1      40.689  26.406  28.738  1.00  0.00     0.074 A 
ATOM     45  C   UNL A   1      41.423  28.597  29.538  1.00  0.00     0.049 A 
ATOM     46  N   UNL A   1      41.744  25.756  29.090  1.00  0.00    -0.248 NA
ATOM     47  C   UNL A   1      39.744  25.589  27.985  1.00  0.00     0.031 C 
ATOM     48  C   UNL A   1      42.857  28.332  29.458  1.00  0.00     0.029 A 
ATOM     49  N   UNL A   1      41.322  29.712  30.370  1.00  0.00    -0.354 N 
ATOM     50  C   UNL A   1      41.779  24.585  28.373  1.00  0.00     0.074 A 
ATOM     51  C   UNL A   1      40.455  24.470  27.815  1.00  0.00     0.031 C 
ATOM     52  C   UNL A   1      43.487  29.067  30.387  1.00  0.00     0.029 A 
ATOM     53  C   UNL A   1      42.463  29.696  31.197  1.00  0.00     0.049 A 
ATOM     54  H   UNL A   1      40.597  30.378  30.378  1.00  0.00     0.167 HD
ATOM     55  C   UNL A   1      42.975  23.945  28.239  1.00  0.00     0.034 A 
ATOM     56  C   UNL A   1      42.344  29.564  32.551  1.00  0.00     0.034 A 
ATOM     57  C   UNL A   1      43.974  24.497  29.170  1.00  0.00     0.049 A 
ATOM     58  C   UNL A   1      43.039  28.342  33.120  1.00  0.00     0.074 A 
ATOM     59  C   UNL A   1      45.122  25.260  29.035  1.00  0.00     0.029 A 
ATOM     60  N   UNL A   1      43.698  24.468  30.534  1.00  0.00    -0.354 N 
ATOM     61  N   UNL A   1      43.540  27.370  32.406  1.00  0.00    -0.248 NA
ATOM     62  C   UNL A   1      43.170  28.092  34.551  1.00  0.00     0.031 C 
ATOM     63  C   UNL A   1      45.523  25.694  30.334  1.00  0.00     0.029 A 
ATOM     64  C   UNL A   1      44.639  25.171  31.260  1.00  0.00     0.049 A 
ATOM     65  H   UNL A   1      42.928  24.003  30.932  1.00  0.00     0.167 HD
ATOM     66  C   UNL A   1      44.008  26.370  33.228  1.00  0.00     0.074 A 
ATOM     67  C   UNL A   1      43.744  26.876  34.565  1.00  0.00     0.031 C 
ATOM     68  C   UNL A   1      44.535  25.209  32.719  1.00  0.00     0.034 A 
BRANCH  55  69
ATOM     69  C   UNL A   1      43.337  22.957  27.137  1.00  0.00     0.023 A 
ATOM     70  C   UNL A   1      42.695  21.697  27.120  1.00  0.00     0.031 A 
ATOM     71  C   UNL A   1      44.340  23.114  26.155  1.00  0.00     0.131 A 
ATOM     72  C   UNL A   1      43.083  20.674  26.229  1.00  0.00     0.055 A 
ATOM     73  C   UNL A   1      44.715  22.104  25.259  1.00  0.00     0.041 A 
ATOM     74  F   UNL A   1      45.032  24.242  25.992  1.00  0.00    -0.206 F 
ATOM     75  C   UNL A   1      44.097  20.870  25.299  1.00  0.00     0.022 A 
BRANCH  72  76
ATOM     76  S   UNL A   1      42.282  19.051  26.331  1.00  0.00     0.124 S 
ATOM     77  O   UNL A   1      43.167  18.219  25.524  1.00  0.00    -0.237 OA
ATOM     78  O   UNL A   1      42.280  18.796  27.767  1.00  0.00    -0.237 OA
ATOM     79  O   UNL A   1      40.961  19.288  25.748  1.00  0.00    -0.744 OA
ENDBRANCH  72  76
ENDBRANCH  55  69
BRANCH  56  80
ATOM     80  C   UNL A   1      41.096  30.196  33.077  1.00  0.00     0.023 A 
ATOM     81  C   UNL A   1      41.064  31.608  33.118  1.00  0.00     0.031 A 
ATOM     82  C   UNL A   1      39.873  29.513  33.106  1.00  0.00     0.131 A 
ATOM     83  C   UNL A   1      39.846  32.291  32.997  1.00  0.00     0.055 A 
ATOM     84  C   UNL A   1      38.654  30.204  33.071  1.00  0.00     0.041 A 
ATOM     85  F   UNL A   1      39.835  28.174  33.032  1.00  0.00    -0.206 F 
ATOM     86  C   UNL A   1      38.637  31.597  32.968  1.00  0.00     0.022 A 
BRANCH  83  87
ATOM     87  S   UNL A   1      39.899  34.062  32.582  1.00  0.00     0.124 S 
ATOM     88  O   UNL A   1      39.361  34.074  31.227  1.00  0.00    -0.237 OA
ATOM     89  O   UNL A   1      39.048  34.655  33.614  1.00  0.00    -0.237 OA
ATOM     90  O   UNL A   1      41.313  34.405  32.700  1.00  0.00    -0.744 OA
ENDBRANCH  83  87
ENDBRANCH  56  80
BRANCH  68  91
ATOM     91  C   UNL A   1      44.987  23.980  33.506  1.00  0.00     0.023 A 
ATOM     92  C   UNL A   1      46.311  23.740  33.905  1.00  0.00     0.031 A 
ATOM     93  C   UNL A   1      44.064  22.960  33.869  1.00  0.00     0.131 A 
ATOM     94  C   UNL A   1      46.656  22.610  34.678  1.00  0.00     0.055 A 
ATOM     95  C   UNL A   1      44.413  21.824  34.607  1.00  0.00     0.041 A 
ATOM     96  F   UNL A   1      42.767  23.017  33.540  1.00  0.00    -0.206 F 
ATOM     97  C   UNL A   1      45.715  21.648  35.032  1.00  0.00     0.022 A 
BRANCH  94  98
ATOM     98  S   UNL A   1      48.375  22.428  35.225  1.00  0.00     0.124 S 
ATOM     99  O   UNL A   1      49.122  22.923  34.073  1.00  0.00    -0.237 OA
ATOM    100  O   UNL A   1      48.406  23.279  36.411  1.00  0.00    -0.237 OA
ATOM    101  O   UNL A   1      48.509  20.996  35.486  1.00  0.00    -0.744 OA
ENDBRANCH  94  98
ENDBRANCH  68  91
ENDBRANCH  42  43
ENDBRANCH  34  37
ENDBRANCH  32  33
ENDBRANCH  31  32
ENDBRANCH   1  31
TORSDOF 18
ENDMDL
MODEL 2
REMARK VINA RESULT:     -13.4      4.310     10.822
REMARK SMILES Cc1cccc(O[C@H](C)C(=O)NNC(=O)[C@H]2[C@@H]3CC[C@@H](C3)[C@@H]2C(=O)NCCCNC(=O)c2ccc(-c3c4nc(c(-c5cc(S(=O)(=O)[O-])ccc5F)c5ccc([nH]5)c(-c5cc(S(=O)(=O)[O-])ccc5F)c5nc(c(-c6cc(S(=O)(=O)[O-])ccc6F)c6ccc3[nH]6)C=C5)C=C4)cc2)c1
REMARK SMILES IDX 26 1 25 2 23 3 24 4 22 6 16 7 17 8 18 9 21 10 20 11 19 12
REMARK SMILES IDX 14 13 13 14 15 16 12 17 10 18 11 19 8 21 9 22 7 23 6 24 1 25
REMARK SMILES IDX 2 26 3 27 95 28 4 29 5 30 27 31 28 32 29 33 30 34 31 36
REMARK SMILES IDX 32 37 33 38 94 39 34 40 93 41 35 42 36 43 37 44 87 45 38 46
REMARK SMILES IDX 92 47 86 48 88 49 39 50 91 51 85 52 84 53 40 55 72 56 52 57
REMARK SMILES IDX 71 58 53 59 56 60 70 61 89 62 54 63 55 64 69 66 90 67 57 68
REMARK SMILES IDX 41 69 42 70 50 71 43 72 49 73 51 74 48 75 44 76 45 77 46 78
REMARK SMILES IDX 47 79 73 80 74 81 82 82 75 83 81 84 83 85 80 86 76 87 77 88
REMARK SMILES IDX 78 89 79 90 58 91 59 92 67 93 60 94 66 95 68 96 65 97 61 98
REMARK SMILES IDX 62 99 63 100 64 101
REMARK H PARENT 25 5 13 15 12 20 29 35 88 54 56 65
REMARK Flexibility Score: inf
ROOT
ATOM      1  C   UNL A   1      36.733  22.648  24.051  1.00  0.00     0.117 C 
ENDROOT
BRANCH   1   2
ATOM      2  N   UNL A   1      36.106  23.803  24.684  1.00  0.00    -0.356 N 
ATOM      3  C   UNL A   1      34.892  24.381  24.433  1.00  0.00     0.224 C 
ATOM      4  O   UNL A   1      34.554  25.388  25.050  1.00  0.00    -0.275 OA
ATOM      5  H   UNL A   1      36.636  24.231  25.396  1.00  0.00     0.163 HD
BRANCH   3   6
ATOM      6  C   UNL A   1      34.010  23.749  23.363  1.00  0.00     0.094 C 
ATOM      7  C   UNL A   1      32.852  24.640  22.866  1.00  0.00     0.096 C 
ATOM      8  C   UNL A   1      31.615  23.708  22.956  1.00  0.00     0.002 C 
ATOM      9  C   UNL A   1      31.203  23.616  24.440  1.00  0.00     0.005 C 
ATOM     10  C   UNL A   1      32.196  22.313  22.749  1.00  0.00     0.009 C 
ATOM     11  C   UNL A   1      33.250  22.485  23.845  1.00  0.00     0.002 C 
ATOM     12  C   UNL A   1      32.353  22.805  25.059  1.00  0.00     0.005 C 
BRANCH   7  13
ATOM     13  C   UNL A   1      32.964  25.358  21.526  1.00  0.00     0.242 C 
ATOM     14  N   UNL A   1      32.822  26.699  21.323  1.00  0.00    -0.267 N 
ATOM     15  H   UNL A   1      32.716  26.976  20.385  1.00  0.00     0.191 HD
ATOM     16  O   UNL A   1      33.256  24.690  20.522  1.00  0.00    -0.273 OA
BRANCH  14  17
ATOM     17  N   UNL A   1      32.808  27.715  22.242  1.00  0.00    -0.264 N 
ATOM     18  C   UNL A   1      31.762  28.182  22.972  1.00  0.00     0.279 C 
ATOM     19  O   UNL A   1      32.055  29.039  23.822  1.00  0.00    -0.269 OA
ATOM     20  H   UNL A   1      33.671  28.164  22.394  1.00  0.00     0.191 HD
BRANCH  18  21
ATOM     21  C   UNL A   1      30.264  27.811  22.770  1.00  0.00     0.260 C 
ATOM     22  C   UNL A   1      29.777  26.921  23.923  1.00  0.00     0.064 C 
BRANCH  21  23
ATOM     23  O   UNL A   1      29.265  28.583  22.143  1.00  0.00    -0.481 OA
BRANCH  23  24
ATOM     24  C   UNL A   1      28.962  29.876  22.414  1.00  0.00     0.120 A 
ATOM     25  C   UNL A   1      27.772  32.702  20.140  1.00  0.00     0.044 C 
ATOM     26  C   UNL A   1      28.223  31.950  21.357  1.00  0.00    -0.047 A 
ATOM     27  C   UNL A   1      28.454  32.628  22.555  1.00  0.00     0.003 A 
ATOM     28  C   UNL A   1      28.467  30.573  21.304  1.00  0.00     0.049 A 
ATOM     29  C   UNL A   1      28.906  31.935  23.677  1.00  0.00     0.004 A 
ATOM     30  C   UNL A   1      29.153  30.560  23.611  1.00  0.00     0.046 A 
ENDBRANCH  23  24
ENDBRANCH  21  23
ENDBRANCH  18  21
ENDBRANCH  14  17
ENDBRANCH   7  13
ENDBRANCH   3   6
ENDBRANCH   1   2
BRANCH   1  31
ATOM     31  C   UNL A   1      37.751  21.966  24.961  1.00  0.00     0.042 C 
BRANCH  31  32
ATOM     32  C   UNL A   1      38.079  22.798  26.192  1.00  0.00     0.118 C 
BRANCH  32  33
ATOM     33  N   UNL A   1      39.446  22.629  26.679  1.00  0.00    -0.352 N 
ATOM     34  C   UNL A   1      40.347  23.594  27.115  1.00  0.00     0.251 C 
ATOM     35  H   UNL A   1      39.775  21.702  26.704  1.00  0.00     0.163 HD
ATOM     36  O   UNL A   1      41.484  23.307  27.414  1.00  0.00    -0.269 OA
BRANCH  34  37
ATOM     37  C   UNL A   1      39.851  24.981  27.294  1.00  0.00     0.039 A 
ATOM     38  C   UNL A   1      40.392  25.979  26.474  1.00  0.00     0.014 A 
ATOM     39  C   UNL A   1      39.065  25.309  28.392  1.00  0.00     0.014 A 
ATOM     40  C   UNL A   1      40.345  27.305  26.899  1.00  0.00     0.010 A 
ATOM     41  C   UNL A   1      39.114  26.601  28.868  1.00  0.00     0.010 A 
ATOM     42  C   UNL A   1      39.809  27.585  28.152  1.00  0.00    -0.014 A 
BRANCH  42  43
ATOM     43  C   UNL A   1      40.032  28.830  28.876  1.00  0.00     0.031 A 
ATOM     44  C   UNL A   1      39.022  29.904  28.842  1.00  0.00     0.074 A 
ATOM     45  C   UNL A   1      41.093  28.930  29.707  1.00  0.00     0.049 A 
ATOM     46  N   UNL A   1      39.226  31.100  29.275  1.00  0.00    -0.248 NA
ATOM     47  C   UNL A   1      37.709  29.738  28.231  1.00  0.00     0.031 C 
ATOM     48  C   UNL A   1      41.288  29.890  30.791  1.00  0.00     0.029 A 
ATOM     49  N   UNL A   1      42.339  28.325  29.550  1.00  0.00    -0.354 N 
ATOM     50  C   UNL A   1      38.018  31.752  29.303  1.00  0.00     0.074 A 
ATOM     51  C   UNL A   1      37.145  30.915  28.518  1.00  0.00     0.031 C 
ATOM     52  C   UNL A   1      42.602  30.008  31.035  1.00  0.00     0.029 A 
ATOM     53  C   UNL A   1      43.294  29.256  30.007  1.00  0.00     0.049 A 
ATOM     54  H   UNL A   1      42.517  27.426  29.191  1.00  0.00     0.167 HD
ATOM     55  C   UNL A   1      37.892  32.846  30.106  1.00  0.00     0.034 A 
ATOM     56  C   UNL A   1      44.232  29.770  29.157  1.00  0.00     0.034 A 
ATOM     57  C   UNL A   1      39.208  33.305  30.579  1.00  0.00     0.049 A 
ATOM     58  C   UNL A   1      44.176  31.279  29.008  1.00  0.00     0.074 A 
ATOM     59  C   UNL A   1      39.862  33.309  31.800  1.00  0.00     0.029 A 
ATOM     60  N   UNL A   1      40.167  33.659  29.635  1.00  0.00    -0.354 N 
ATOM     61  N   UNL A   1      43.216  32.036  29.464  1.00  0.00    -0.248 NA
ATOM     62  C   UNL A   1      45.178  32.046  28.278  1.00  0.00     0.031 C 
ATOM     63  C   UNL A   1      41.227  33.661  31.572  1.00  0.00     0.029 A 
ATOM     64  C   UNL A   1      41.395  33.900  30.220  1.00  0.00     0.049 A 
ATOM     65  H   UNL A   1      39.992  33.729  28.669  1.00  0.00     0.167 HD
ATOM     66  C   UNL A   1      43.416  33.342  29.076  1.00  0.00     0.074 A 
ATOM     67  C   UNL A   1      44.662  33.287  28.328  1.00  0.00     0.031 C 
ATOM     68  C   UNL A   1      42.514  34.330  29.383  1.00  0.00     0.034 A 
BRANCH  55  69
ATOM     69  C   UNL A   1      36.582  33.402  30.651  1.00  0.00     0.023 A 
ATOM     70  C   UNL A   1      35.650  33.954  29.741  1.00  0.00     0.031 A 
ATOM     71  C   UNL A   1      36.215  33.528  32.010  1.00  0.00     0.131 A 
ATOM     72  C   UNL A   1      34.488  34.625  30.179  1.00  0.00     0.055 A 
ATOM     73  C   UNL A   1      35.053  34.181  32.444  1.00  0.00     0.041 A 
ATOM     74  F   UNL A   1      36.948  33.041  33.011  1.00  0.00    -0.206 F 
ATOM     75  C   UNL A   1      34.187  34.747  31.530  1.00  0.00     0.022 A 
BRANCH  72  76
ATOM     76  S   UNL A   1      33.389  35.394  28.958  1.00  0.00     0.124 S 
ATOM     77  O   UNL A   1      32.827  34.233  28.276  1.00  0.00    -0.237 OA
ATOM     78  O   UNL A   1      32.477  36.158  29.801  1.00  0.00    -0.237 OA
ATOM     79  O   UNL A   1      34.299  36.202  28.145  1.00  0.00    -0.744 OA
ENDBRANCH  72  76
ENDBRANCH  55  69
BRANCH  56  80
ATOM     80  C   UNL A   1      44.642  28.793  28.104  1.00  0.00     0.023 A 
ATOM     81  C   UNL A   1      45.509  27.751  28.502  1.00  0.00     0.031 A 
ATOM     82  C   UNL A   1      43.900  28.613  26.929  1.00  0.00     0.131 A 
ATOM     83  C   UNL A   1      45.476  26.513  27.846  1.00  0.00     0.055 A 
ATOM     84  C   UNL A   1      43.936  27.400  26.226  1.00  0.00     0.041 A 
ATOM     85  F   UNL A   1      43.031  29.549  26.517  1.00  0.00    -0.206 F 
ATOM     86  C   UNL A   1      44.689  26.327  26.710  1.00  0.00     0.022 A 
BRANCH  83  87
ATOM     87  S   UNL A   1      46.244  25.087  28.675  1.00  0.00     0.124 S 
ATOM     88  O   UNL A   1      45.556  23.964  28.048  1.00  0.00    -0.237 OA
ATOM     89  O   UNL A   1      47.657  25.243  28.332  1.00  0.00    -0.237 OA
ATOM     90  O   UNL A   1      45.941  25.301  30.086  1.00  0.00    -0.744 OA
ENDBRANCH  83  87
ENDBRANCH  56  80
BRANCH  68  91
ATOM     91  C   UNL A   1      42.554  35.788  28.926  1.00  0.00     0.023 A 
ATOM     92  C   UNL A   1      43.130  36.832  29.665  1.00  0.00     0.031 A 
ATOM     93  C   UNL A   1      41.966  36.188  27.694  1.00  0.00     0.131 A 
ATOM     94  C   UNL A   1      43.182  38.151  29.164  1.00  0.00     0.055 A 
ATOM     95  C   UNL A   1      41.989  37.501  27.212  1.00  0.00     0.041 A 
ATOM     96  F   UNL A   1      41.347  35.322  26.881  1.00  0.00    -0.206 F 
ATOM     97  C   UNL A   1      42.615  38.493  27.940  1.00  0.00     0.022 A 
BRANCH  94  98
ATOM     98  S   UNL A   1      44.027  39.418  30.148  1.00  0.00     0.124 S 
ATOM     99  O   UNL A   1      43.104  40.545  30.062  1.00  0.00    -0.237 OA
ATOM    100  O   UNL A   1      44.119  38.773  31.455  1.00  0.00    -0.237 OA
ATOM    101  O   UNL A   1      45.302  39.603  29.457  1.00  0.00    -0.744 OA
ENDBRANCH  94  98
ENDBRANCH  68  91
ENDBRANCH  42  43
ENDBRANCH  34  37
ENDBRANCH  32  33
ENDBRANCH  31  32
ENDBRANCH   1  31
TORSDOF 18
ENDMDL
MODEL 3
REMARK VINA RESULT:     -13.2      4.079     10.656
REMARK SMILES Cc1cccc(O[C@H](C)C(=O)NNC(=O)[C@H]2[C@@H]3CC[C@@H](C3)[C@@H]2C(=O)NCCCNC(=O)c2ccc(-c3c4nc(c(-c5cc(S(=O)(=O)[O-])ccc5F)c5ccc([nH]5)c(-c5cc(S(=O)(=O)[O-])ccc5F)c5nc(c(-c6cc(S(=O)(=O)[O-])ccc6F)c6ccc3[nH]6)C=C5)C=C4)cc2)c1
REMARK SMILES IDX 26 1 25 2 23 3 24 4 22 6 16 7 17 8 18 9 21 10 20 11 19 12
REMARK SMILES IDX 14 13 13 14 15 16 12 17 10 18 11 19 8 21 9 22 7 23 6 24 1 25
REMARK SMILES IDX 2 26 3 27 95 28 4 29 5 30 27 31 28 32 29 33 30 34 31 36
REMARK SMILES IDX 32 37 33 38 94 39 34 40 93 41 35 42 36 43 37 44 87 45 38 46
REMARK SMILES IDX 92 47 86 48 88 49 39 50 91 51 85 52 84 53 40 55 72 56 52 57
REMARK SMILES IDX 71 58 53 59 56 60 70 61 89 62 54 63 55 64 69 66 90 67 57 68
REMARK SMILES IDX 41 69 42 70 50 71 43 72 49 73 51 74 48 75 44 76 45 77 46 78
REMARK SMILES IDX 47 79 73 80 74 81 82 82 75 83 81 84 83 85 80 86 76 87 77 88
REMARK SMILES IDX 78 89 79 90 58 91 59 92 67 93 60 94 66 95 68 96 65 97 61 98
REMARK SMILES IDX 62 99 63 100 64 101
REMARK H PARENT 25 5 13 15 12 20 29 35 88 54 56 65
REMARK Flexibility Score: inf
ROOT
ATOM      1  C   UNL A   1      36.854  22.664  24.301  1.00  0.00     0.117 C 
ENDROOT
BRANCH   1   2
ATOM      2  N   UNL A   1      36.108  23.596  25.139  1.00  0.00    -0.356 N 
ATOM      3  C   UNL A   1      34.863  24.131  24.950  1.00  0.00     0.224 C 
ATOM      4  O   UNL A   1      34.416  24.943  25.756  1.00  0.00    -0.275 OA
ATOM      5  H   UNL A   1      36.568  23.884  25.960  1.00  0.00     0.163 HD
BRANCH   3   6
ATOM      6  C   UNL A   1      34.084  23.702  23.712  1.00  0.00     0.094 C 
ATOM      7  C   UNL A   1      32.783  24.493  23.457  1.00  0.00     0.096 C 
ATOM      8  C   UNL A   1      31.724  23.383  23.228  1.00  0.00     0.002 C 
ATOM      9  C   UNL A   1      31.358  22.793  24.606  1.00  0.00     0.005 C 
ATOM     10  C   UNL A   1      32.530  22.228  22.643  1.00  0.00     0.009 C 
ATOM     11  C   UNL A   1      33.557  22.244  23.778  1.00  0.00     0.002 C 
ATOM     12  C   UNL A   1      32.639  22.040  25.000  1.00  0.00     0.005 C 
BRANCH   7  13
ATOM     13  C   UNL A   1      32.750  25.581  22.389  1.00  0.00     0.242 C 
ATOM     14  N   UNL A   1      31.659  26.318  22.033  1.00  0.00    -0.267 N 
ATOM     15  H   UNL A   1      31.748  26.826  21.195  1.00  0.00     0.191 HD
ATOM     16  O   UNL A   1      33.808  25.873  21.812  1.00  0.00    -0.273 OA
BRANCH  14  17
ATOM     17  N   UNL A   1      30.459  26.452  22.679  1.00  0.00    -0.264 N 
ATOM     18  C   UNL A   1      29.847  27.588  23.105  1.00  0.00     0.279 C 
ATOM     19  O   UNL A   1      28.702  27.431  23.559  1.00  0.00    -0.269 OA
ATOM     20  H   UNL A   1      29.974  25.613  22.857  1.00  0.00     0.191 HD
BRANCH  18  21
ATOM     21  C   UNL A   1      30.483  29.008  23.153  1.00  0.00     0.260 C 
ATOM     22  C   UNL A   1      29.922  29.881  22.020  1.00  0.00     0.064 C 
BRANCH  21  23
ATOM     23  O   UNL A   1      30.925  29.712  24.291  1.00  0.00    -0.481 OA
BRANCH  23  24
ATOM     24  C   UNL A   1      32.006  29.411  25.051  1.00  0.00     0.120 A 
ATOM     25  C   UNL A   1      33.713  31.349  27.862  1.00  0.00     0.044 C 
ATOM     26  C   UNL A   1      33.408  30.286  26.850  1.00  0.00    -0.047 A 
ATOM     27  C   UNL A   1      34.296  29.226  26.656  1.00  0.00     0.003 A 
ATOM     28  C   UNL A   1      32.260  30.358  26.052  1.00  0.00     0.049 A 
ATOM     29  C   UNL A   1      34.030  28.256  25.691  1.00  0.00     0.004 A 
ATOM     30  C   UNL A   1      32.883  28.342  24.895  1.00  0.00     0.046 A 
ENDBRANCH  23  24
ENDBRANCH  21  23
ENDBRANCH  18  21
ENDBRANCH  14  17
ENDBRANCH   7  13
ENDBRANCH   3   6
ENDBRANCH   1   2
BRANCH   1  31
ATOM     31  C   UNL A   1      37.939  21.923  25.078  1.00  0.00     0.042 C 
BRANCH  31  32
ATOM     32  C   UNL A   1      38.333  22.645  26.357  1.00  0.00     0.118 C 
BRANCH  32  33
ATOM     33  N   UNL A   1      39.759  22.573  26.668  1.00  0.00    -0.352 N 
ATOM     34  C   UNL A   1      40.642  23.602  26.978  1.00  0.00     0.251 C 
ATOM     35  H   UNL A   1      40.149  21.669  26.658  1.00  0.00     0.163 HD
ATOM     36  O   UNL A   1      41.824  23.394  27.132  1.00  0.00    -0.269 OA
BRANCH  34  37
ATOM     37  C   UNL A   1      40.081  24.956  27.208  1.00  0.00     0.039 A 
ATOM     38  C   UNL A   1      40.519  25.994  26.375  1.00  0.00     0.014 A 
ATOM     39  C   UNL A   1      39.342  25.225  28.354  1.00  0.00     0.014 A 
ATOM     40  C   UNL A   1      40.423  27.309  26.824  1.00  0.00     0.010 A 
ATOM     41  C   UNL A   1      39.348  26.511  28.848  1.00  0.00     0.010 A 
ATOM     42  C   UNL A   1      39.946  27.541  28.110  1.00  0.00    -0.014 A 
BRANCH  42  43
ATOM     43  C   UNL A   1      40.140  28.787  28.841  1.00  0.00     0.031 A 
ATOM     44  C   UNL A   1      39.112  29.843  28.804  1.00  0.00     0.074 A 
ATOM     45  C   UNL A   1      41.193  28.902  29.681  1.00  0.00     0.049 A 
ATOM     46  N   UNL A   1      39.292  31.041  29.244  1.00  0.00    -0.248 NA
ATOM     47  C   UNL A   1      37.807  29.657  28.181  1.00  0.00     0.031 C 
ATOM     48  C   UNL A   1      41.362  29.861  30.770  1.00  0.00     0.029 A 
ATOM     49  N   UNL A   1      42.451  28.320  29.531  1.00  0.00    -0.354 N 
ATOM     50  C   UNL A   1      38.072  31.671  29.264  1.00  0.00     0.074 A 
ATOM     51  C   UNL A   1      37.220  30.823  28.469  1.00  0.00     0.031 C 
ATOM     52  C   UNL A   1      42.672  30.001  31.025  1.00  0.00     0.029 A 
ATOM     53  C   UNL A   1      43.386  29.266  29.999  1.00  0.00     0.049 A 
ATOM     54  H   UNL A   1      42.647  27.426  29.170  1.00  0.00     0.167 HD
ATOM     55  C   UNL A   1      37.920  32.760  30.071  1.00  0.00     0.034 A 
ATOM     56  C   UNL A   1      44.321  29.799  29.160  1.00  0.00     0.034 A 
ATOM     57  C   UNL A   1      39.225  33.240  30.557  1.00  0.00     0.049 A 
ATOM     58  C   UNL A   1      44.240  31.308  29.017  1.00  0.00     0.074 A 
ATOM     59  C   UNL A   1      39.869  33.250  31.783  1.00  0.00     0.029 A 
ATOM     60  N   UNL A   1      40.184  33.614  29.622  1.00  0.00    -0.354 N 
ATOM     61  N   UNL A   1      43.262  32.047  29.468  1.00  0.00    -0.248 NA
ATOM     62  C   UNL A   1      45.233  32.096  28.297  1.00  0.00     0.031 C 
ATOM     63  C   UNL A   1      41.229  33.627  31.567  1.00  0.00     0.029 A 
ATOM     64  C   UNL A   1      41.403  33.874  30.218  1.00  0.00     0.049 A 
ATOM     65  H   UNL A   1      40.016  33.686  28.655  1.00  0.00     0.167 HD
ATOM     66  C   UNL A   1      43.443  33.357  29.087  1.00  0.00     0.074 A 
ATOM     67  C   UNL A   1      44.695  33.327  28.348  1.00  0.00     0.031 C 
ATOM     68  C   UNL A   1      42.521  34.328  29.391  1.00  0.00     0.034 A 
BRANCH  55  69
ATOM     69  C   UNL A   1      36.596  33.290  30.608  1.00  0.00     0.023 A 
ATOM     70  C   UNL A   1      35.722  33.955  29.717  1.00  0.00     0.031 A 
ATOM     71  C   UNL A   1      36.166  33.286  31.954  1.00  0.00     0.131 A 
ATOM     72  C   UNL A   1      34.554  34.607  30.166  1.00  0.00     0.055 A 
ATOM     73  C   UNL A   1      34.997  33.920  32.398  1.00  0.00     0.041 A 
ATOM     74  F   UNL A   1      36.838  32.682  32.933  1.00  0.00    -0.206 F 
ATOM     75  C   UNL A   1      34.189  34.598  31.507  1.00  0.00     0.022 A 
BRANCH  72  76
ATOM     76  S   UNL A   1      33.532  35.523  28.980  1.00  0.00     0.124 S 
ATOM     77  O   UNL A   1      32.614  34.494  28.505  1.00  0.00    -0.237 OA
ATOM     78  O   UNL A   1      32.958  36.573  29.813  1.00  0.00    -0.237 OA
ATOM     79  O   UNL A   1      34.501  35.988  27.987  1.00  0.00    -0.744 OA
ENDBRANCH  72  76
ENDBRANCH  55  69
BRANCH  56  80
ATOM     80  C   UNL A   1      44.757  28.835  28.105  1.00  0.00     0.023 A 
ATOM     81  C   UNL A   1      45.662  27.825  28.499  1.00  0.00     0.031 A 
ATOM     82  C   UNL A   1      44.012  28.626  26.936  1.00  0.00     0.131 A 
ATOM     83  C   UNL A   1      45.667  26.585  27.846  1.00  0.00     0.055 A 
ATOM     84  C   UNL A   1      44.085  27.414  26.236  1.00  0.00     0.041 A 
ATOM     85  F   UNL A   1      43.109  29.531  26.529  1.00  0.00    -0.206 F 
ATOM     86  C   UNL A   1      44.878  26.369  26.716  1.00  0.00     0.022 A 
BRANCH  83  87
ATOM     87  S   UNL A   1      46.489  25.188  28.672  1.00  0.00     0.124 S 
ATOM     88  O   UNL A   1      47.873  25.351  28.241  1.00  0.00    -0.237 OA
ATOM     89  O   UNL A   1      46.223  25.454  30.086  1.00  0.00    -0.237 OA
ATOM     90  O   UNL A   1      45.800  24.015  28.142  1.00  0.00    -0.744 OA
ENDBRANCH  83  87
ENDBRANCH  56  80
BRANCH  68  91
ATOM     91  C   UNL A   1      42.539  35.788  28.941  1.00  0.00     0.023 A 
ATOM     92  C   UNL A   1      43.073  36.842  29.697  1.00  0.00     0.031 A 
ATOM     93  C   UNL A   1      41.971  36.180  27.696  1.00  0.00     0.131 A 
ATOM     94  C   UNL A   1      43.107  38.164  29.202  1.00  0.00     0.055 A 
ATOM     95  C   UNL A   1      41.976  37.496  27.220  1.00  0.00     0.041 A 
ATOM     96  F   UNL A   1      41.391  35.304  26.866  1.00  0.00    -0.206 F 
ATOM     97  C   UNL A   1      42.561  38.498  27.966  1.00  0.00     0.022 A 
BRANCH  94  98
ATOM     98  S   UNL A   1      43.899  39.445  30.211  1.00  0.00     0.124 S 
ATOM     99  O   UNL A   1      44.367  38.686  31.366  1.00  0.00    -0.237 OA
ATOM    100  O   UNL A   1      44.941  39.936  29.313  1.00  0.00    -0.237 OA
ATOM    101  O   UNL A   1      42.819  40.392  30.483  1.00  0.00    -0.744 OA
ENDBRANCH  94  98
ENDBRANCH  68  91
ENDBRANCH  42  43
ENDBRANCH  34  37
ENDBRANCH  32  33
ENDBRANCH  31  32
ENDBRANCH   1  31
TORSDOF 18
ENDMDL
