MODEL 1
REMARK VINA RESULT:     -12.9      0.000      0.000
REMARK SMILES CC(C)CCc1cc2c(cc1Cl)C=C(C(=O)NCCCNC(=O)c1ccc(-c3c4nc(c(-c5cc(S(=O)(=O)[O-])ccc5F)c5ccc([nH]5)c(-c5cc(S(=O)(=O)[O-])ccc5F)c5nc(c(-c6cc(S(=O)(=O)[O-])ccc6F)c6ccc3[nH]6)C=C5)C=C4)cc1)[C@@H](C(F)(F)F)O2
REMARK SMILES IDX 19 1 18 2 17 3 15 4 16 5 14 7 6 8 7 9 11 10 8 11 10 12 12 13
REMARK SMILES IDX 9 14 92 15 13 16 87 17 5 18 4 19 2 20 1 21 3 22 88 23 89 24
REMARK SMILES IDX 90 25 91 26 20 27 21 28 22 29 23 31 24 32 25 33 86 34 26 35
REMARK SMILES IDX 85 36 27 37 28 38 29 39 79 40 30 41 84 42 78 43 80 44 31 45
REMARK SMILES IDX 83 46 77 47 76 48 32 50 64 51 44 52 63 53 45 54 48 55 62 56
REMARK SMILES IDX 81 57 46 58 47 59 61 61 82 62 49 63 33 64 34 65 42 66 35 67
REMARK SMILES IDX 41 68 43 69 40 70 36 71 37 72 38 73 39 74 65 75 66 76 74 77
REMARK SMILES IDX 67 78 73 79 75 80 72 81 68 82 69 83 70 84 71 85 50 86 51 87
REMARK SMILES IDX 59 88 52 89 58 90 60 91 57 92 53 93 54 94 55 95 56 96
REMARK H PARENT 17 6 21 30 80 49 48 60
REMARK Flexibility Score: inf
ROOT
ATOM      1  C   UNL A   1      31.420  29.878  25.368  1.00  0.00     0.042 C 
ENDROOT
BRANCH   1   2
ATOM      2  C   UNL A   1      32.379  29.216  24.395  1.00  0.00     0.118 C 
BRANCH   2   3
ATOM      3  N   UNL A   1      31.679  28.605  23.276  1.00  0.00    -0.352 N 
ATOM      4  C   UNL A   1      31.455  27.355  22.812  1.00  0.00     0.251 C 
ATOM      5  O   UNL A   1      30.783  27.292  21.777  1.00  0.00    -0.270 OA
ATOM      6  H   UNL A   1      31.256  29.284  22.702  1.00  0.00     0.163 HD
BRANCH   4   7
ATOM      7  C   UNL A   1      31.934  26.103  23.458  1.00  0.00     0.067 C 
ATOM      8  C   UNL A   1      33.222  21.324  24.454  1.00  0.00    -0.026 A 
ATOM      9  C   UNL A   1      33.463  22.567  25.078  1.00  0.00     0.052 A 
ATOM     10  C   UNL A   1      32.541  21.339  23.222  1.00  0.00     0.045 A 
ATOM     11  C   UNL A   1      33.046  23.760  24.492  1.00  0.00     0.128 A 
ATOM     12  C   UNL A   1      32.198  22.551  22.601  1.00  0.00     0.032 A 
ATOM     13  Cl  UNL A   1      32.005  19.916  22.405  1.00  0.00    -0.084 Cl
ATOM     14  C   UNL A   1      32.442  23.763  23.239  1.00  0.00     0.019 A 
ATOM     15  O   UNL A   1      33.235  24.914  25.202  1.00  0.00    -0.475 OA
ATOM     16  C   UNL A   1      32.049  25.035  22.646  1.00  0.00     0.025 C 
ATOM     17  C   UNL A   1      32.248  25.952  24.921  1.00  0.00     0.314 C 
BRANCH   8  18
ATOM     18  C   UNL A   1      33.636  20.097  25.243  1.00  0.00     0.037 C 
BRANCH  18  19
ATOM     19  C   UNL A   1      34.520  19.018  24.604  1.00  0.00     0.008 C 
BRANCH  19  20
ATOM     20  C   UNL A   1      33.973  17.580  24.676  1.00  0.00    -0.017 C 
ATOM     21  C   UNL A   1      32.534  17.545  25.188  1.00  0.00     0.007 C 
ATOM     22  C   UNL A   1      34.054  16.932  23.292  1.00  0.00     0.007 C 
ENDBRANCH  19  20
ENDBRANCH  18  19
ENDBRANCH   8  18
BRANCH  17  23
ATOM     23  C   UNL A   1      30.979  25.718  25.774  1.00  0.00     0.429 C 
ATOM     24  F   UNL A   1      31.181  24.714  26.662  1.00  0.00    -0.167 F 
ATOM     25  F   UNL A   1      30.631  26.810  26.498  1.00  0.00    -0.167 F 
ATOM     26  F   UNL A   1      29.895  25.390  25.034  1.00  0.00    -0.167 F 
ENDBRANCH  17  23
ENDBRANCH   4   7
ENDBRANCH   2   3
ENDBRANCH   1   2
BRANCH   1  27
ATOM     27  C   UNL A   1      32.118  30.371  26.627  1.00  0.00     0.118 C 
BRANCH  27  28
ATOM     28  N   UNL A   1      32.048  31.824  26.764  1.00  0.00    -0.352 N 
ATOM     29  C   UNL A   1      32.895  32.695  27.410  1.00  0.00     0.251 C 
ATOM     30  H   UNL A   1      31.274  32.246  26.326  1.00  0.00     0.163 HD
ATOM     31  O   UNL A   1      32.543  33.855  27.602  1.00  0.00    -0.269 OA
BRANCH  29  32
ATOM     32  C   UNL A   1      34.208  32.217  27.889  1.00  0.00     0.039 A 
ATOM     33  C   UNL A   1      34.376  30.877  28.238  1.00  0.00     0.014 A 
ATOM     34  C   UNL A   1      35.270  33.116  28.020  1.00  0.00     0.014 A 
ATOM     35  C   UNL A   1      35.520  30.487  28.915  1.00  0.00     0.010 A 
ATOM     36  C   UNL A   1      36.473  32.685  28.589  1.00  0.00     0.010 A 
ATOM     37  C   UNL A   1      36.587  31.382  29.096  1.00  0.00    -0.014 A 
BRANCH  37  38
ATOM     38  C   UNL A   1      37.806  30.906  29.800  1.00  0.00     0.031 A 
ATOM     39  C   UNL A   1      38.065  31.256  31.238  1.00  0.00     0.074 A 
ATOM     40  C   UNL A   1      38.648  30.085  29.140  1.00  0.00     0.049 A 
ATOM     41  N   UNL A   1      39.036  30.854  32.017  1.00  0.00    -0.248 NA
ATOM     42  C   UNL A   1      37.124  32.182  31.888  1.00  0.00     0.031 C 
ATOM     43  C   UNL A   1      38.496  29.692  27.739  1.00  0.00     0.029 A 
ATOM     44  N   UNL A   1      39.761  29.402  29.558  1.00  0.00    -0.354 N 
ATOM     45  C   UNL A   1      38.846  31.501  33.232  1.00  0.00     0.074 A 
ATOM     46  C   UNL A   1      37.680  32.343  33.080  1.00  0.00     0.031 C 
ATOM     47  C   UNL A   1      39.421  28.776  27.437  1.00  0.00     0.029 A 
ATOM     48  C   UNL A   1      40.293  28.578  28.592  1.00  0.00     0.049 A 
ATOM     49  H   UNL A   1      40.144  29.491  30.461  1.00  0.00     0.167 HD
ATOM     50  C   UNL A   1      39.574  31.392  34.370  1.00  0.00     0.034 A 
ATOM     51  C   UNL A   1      41.365  27.761  28.620  1.00  0.00     0.034 A 
ATOM     52  C   UNL A   1      40.713  30.520  34.509  1.00  0.00     0.049 A 
ATOM     53  C   UNL A   1      42.147  27.643  29.899  1.00  0.00     0.074 A 
ATOM     54  C   UNL A   1      41.483  30.297  35.635  1.00  0.00     0.029 A 
ATOM     55  N   UNL A   1      41.244  29.728  33.499  1.00  0.00    -0.354 N 
ATOM     56  N   UNL A   1      41.923  28.223  31.054  1.00  0.00    -0.248 NA
ATOM     57  C   UNL A   1      43.327  26.769  29.884  1.00  0.00     0.031 C 
ATOM     58  C   UNL A   1      42.516  29.424  35.292  1.00  0.00     0.029 A 
ATOM     59  C   UNL A   1      42.351  29.041  33.970  1.00  0.00     0.049 A 
ATOM     60  H   UNL A   1      40.887  29.664  32.584  1.00  0.00     0.167 HD
ATOM     61  C   UNL A   1      42.930  27.785  31.906  1.00  0.00     0.074 A 
ATOM     62  C   UNL A   1      43.744  26.862  31.141  1.00  0.00     0.031 C 
ATOM     63  C   UNL A   1      43.161  28.124  33.199  1.00  0.00     0.034 A 
BRANCH  50  64
ATOM     64  C   UNL A   1      39.182  32.231  35.562  1.00  0.00     0.023 A 
ATOM     65  C   UNL A   1      39.671  33.545  35.684  1.00  0.00     0.031 A 
ATOM     66  C   UNL A   1      38.420  31.706  36.622  1.00  0.00     0.131 A 
ATOM     67  C   UNL A   1      39.413  34.282  36.848  1.00  0.00     0.055 A 
ATOM     68  C   UNL A   1      38.133  32.457  37.762  1.00  0.00     0.041 A 
ATOM     69  F   UNL A   1      37.930  30.457  36.555  1.00  0.00    -0.206 F 
ATOM     70  C   UNL A   1      38.640  33.748  37.883  1.00  0.00     0.022 A 
BRANCH  67  71
ATOM     71  S   UNL A   1      40.120  35.934  37.090  1.00  0.00     0.124 S 
ATOM     72  O   UNL A   1      39.749  36.601  35.843  1.00  0.00    -0.237 OA
ATOM     73  O   UNL A   1      39.412  36.399  38.280  1.00  0.00    -0.237 OA
ATOM     74  O   UNL A   1      41.547  35.685  37.262  1.00  0.00    -0.744 OA
ENDBRANCH  67  71
ENDBRANCH  50  64
BRANCH  51  75
ATOM     75  C   UNL A   1      41.692  26.973  27.396  1.00  0.00     0.023 A 
ATOM     76  C   UNL A   1      41.394  25.599  27.329  1.00  0.00     0.031 A 
ATOM     77  C   UNL A   1      42.458  27.535  26.362  1.00  0.00     0.131 A 
ATOM     78  C   UNL A   1      41.951  24.814  26.312  1.00  0.00     0.055 A 
ATOM     79  C   UNL A   1      42.941  26.762  25.303  1.00  0.00     0.041 A 
ATOM     80  F   UNL A   1      42.779  28.837  26.389  1.00  0.00    -0.206 F 
ATOM     81  C   UNL A   1      42.709  25.390  25.289  1.00  0.00     0.022 A 
BRANCH  78  82
ATOM     82  S   UNL A   1      41.861  23.003  26.388  1.00  0.00     0.124 S 
ATOM     83  O   UNL A   1      42.515  22.612  25.143  1.00  0.00    -0.237 OA
ATOM     84  O   UNL A   1      42.610  22.720  27.610  1.00  0.00    -0.237 OA
ATOM     85  O   UNL A   1      40.429  22.731  26.461  1.00  0.00    -0.744 OA
ENDBRANCH  78  82
ENDBRANCH  51  75
BRANCH  63  86
ATOM     86  C   UNL A   1      44.355  27.520  33.898  1.00  0.00     0.023 A 
ATOM     87  C   UNL A   1      44.224  26.305  34.594  1.00  0.00     0.031 A 
ATOM     88  C   UNL A   1      45.570  28.221  34.002  1.00  0.00     0.131 A 
ATOM     89  C   UNL A   1      45.272  25.849  35.403  1.00  0.00     0.055 A 
ATOM     90  C   UNL A   1      46.629  27.738  34.772  1.00  0.00     0.041 A 
ATOM     91  F   UNL A   1      45.739  29.389  33.362  1.00  0.00    -0.206 F 
ATOM     92  C   UNL A   1      46.476  26.555  35.490  1.00  0.00     0.022 A 
BRANCH  89  93
ATOM     93  S   UNL A   1      45.077  24.377  36.445  1.00  0.00     0.124 S 
ATOM     94  O   UNL A   1      43.994  23.669  35.767  1.00  0.00    -0.237 OA
ATOM     95  O   UNL A   1      46.393  23.751  36.344  1.00  0.00    -0.237 OA
ATOM     96  O   UNL A   1      44.741  24.917  37.759  1.00  0.00    -0.744 OA
ENDBRANCH  89  93
ENDBRANCH  63  86
ENDBRANCH  37  38
ENDBRANCH  29  32
ENDBRANCH  27  28
ENDBRANCH   1  27
TORSDOF 17
ENDMDL
MODEL 2
REMARK VINA RESULT:     -12.7      5.074     10.278
REMARK SMILES CC(C)CCc1cc2c(cc1Cl)C=C(C(=O)NCCCNC(=O)c1ccc(-c3c4nc(c(-c5cc(S(=O)(=O)[O-])ccc5F)c5ccc([nH]5)c(-c5cc(S(=O)(=O)[O-])ccc5F)c5nc(c(-c6cc(S(=O)(=O)[O-])ccc6F)c6ccc3[nH]6)C=C5)C=C4)cc1)[C@@H](C(F)(F)F)O2
REMARK SMILES IDX 19 1 18 2 17 3 15 4 16 5 14 7 6 8 7 9 11 10 8 11 10 12 12 13
REMARK SMILES IDX 9 14 92 15 13 16 87 17 5 18 4 19 2 20 1 21 3 22 88 23 89 24
REMARK SMILES IDX 90 25 91 26 20 27 21 28 22 29 23 31 24 32 25 33 86 34 26 35
REMARK SMILES IDX 85 36 27 37 28 38 29 39 79 40 30 41 84 42 78 43 80 44 31 45
REMARK SMILES IDX 83 46 77 47 76 48 32 50 64 51 44 52 63 53 45 54 48 55 62 56
REMARK SMILES IDX 81 57 46 58 47 59 61 61 82 62 49 63 33 64 34 65 42 66 35 67
REMARK SMILES IDX 41 68 43 69 40 70 36 71 37 72 38 73 39 74 65 75 66 76 74 77
REMARK SMILES IDX 67 78 73 79 75 80 72 81 68 82 69 83 70 84 71 85 50 86 51 87
REMARK SMILES IDX 59 88 52 89 58 90 60 91 57 92 53 93 54 94 55 95 56 96
REMARK H PARENT 17 6 21 30 80 49 48 60
REMARK Flexibility Score: inf
ROOT
ATOM      1  C   UNL A   1      35.710  22.710  25.582  1.00  0.00     0.042 C 
ENDROOT
BRANCH   1   2
ATOM      2  C   UNL A   1      35.042  21.458  26.123  1.00  0.00     0.118 C 
BRANCH   2   3
ATOM      3  N   UNL A   1      34.222  20.803  25.115  1.00  0.00    -0.352 N 
ATOM      4  C   UNL A   1      33.193  21.140  24.306  1.00  0.00     0.251 C 
ATOM      5  O   UNL A   1      32.778  20.231  23.579  1.00  0.00    -0.270 OA
ATOM      6  H   UNL A   1      34.488  19.864  24.990  1.00  0.00     0.163 HD
BRANCH   4   7
ATOM      7  C   UNL A   1      32.568  22.489  24.229  1.00  0.00     0.067 C 
ATOM      8  C   UNL A   1      31.513  27.311  23.172  1.00  0.00    -0.026 A 
ATOM      9  C   UNL A   1      30.794  26.241  23.748  1.00  0.00     0.052 A 
ATOM     10  C   UNL A   1      32.801  27.034  22.678  1.00  0.00     0.045 A 
ATOM     11  C   UNL A   1      31.341  24.962  23.819  1.00  0.00     0.128 A 
ATOM     12  C   UNL A   1      33.309  25.725  22.680  1.00  0.00     0.032 A 
ATOM     13  Cl  UNL A   1      33.890  28.245  22.104  1.00  0.00    -0.084 Cl
ATOM     14  C   UNL A   1      32.583  24.688  23.258  1.00  0.00     0.019 A 
ATOM     15  O   UNL A   1      30.619  24.002  24.473  1.00  0.00    -0.475 OA
ATOM     16  C   UNL A   1      33.106  23.330  23.325  1.00  0.00     0.025 C 
ATOM     17  C   UNL A   1      31.439  22.968  25.099  1.00  0.00     0.314 C 
BRANCH   8  18
ATOM     18  C   UNL A   1      30.848  28.672  23.249  1.00  0.00     0.037 C 
BRANCH  18  19
ATOM     19  C   UNL A   1      29.999  29.195  22.082  1.00  0.00     0.008 C 
BRANCH  19  20
ATOM     20  C   UNL A   1      28.692  29.907  22.476  1.00  0.00    -0.017 C 
ATOM     21  C   UNL A   1      28.117  30.722  21.319  1.00  0.00     0.007 C 
ATOM     22  C   UNL A   1      27.669  28.872  22.949  1.00  0.00     0.007 C 
ENDBRANCH  19  20
ENDBRANCH  18  19
ENDBRANCH   8  18
BRANCH  17  23
ATOM     23  C   UNL A   1      31.927  23.447  26.486  1.00  0.00     0.429 C 
ATOM     24  F   UNL A   1      30.969  24.188  27.097  1.00  0.00    -0.167 F 
ATOM     25  F   UNL A   1      32.210  22.418  27.321  1.00  0.00    -0.167 F 
ATOM     26  F   UNL A   1      33.044  24.206  26.422  1.00  0.00    -0.167 F 
ENDBRANCH  17  23
ENDBRANCH   4   7
ENDBRANCH   2   3
ENDBRANCH   1   2
BRANCH   1  27
ATOM     27  C   UNL A   1      36.888  22.392  24.672  1.00  0.00     0.118 C 
BRANCH  27  28
ATOM     28  N   UNL A   1      37.645  21.231  25.135  1.00  0.00    -0.352 N 
ATOM     29  C   UNL A   1      38.827  21.166  25.836  1.00  0.00     0.251 C 
ATOM     30  H   UNL A   1      37.248  20.359  24.910  1.00  0.00     0.163 HD
ATOM     31  O   UNL A   1      39.417  20.094  25.935  1.00  0.00    -0.269 OA
BRANCH  29  32
ATOM     32  C   UNL A   1      39.387  22.392  26.439  1.00  0.00     0.039 A 
ATOM     33  C   UNL A   1      38.880  23.640  26.078  1.00  0.00     0.014 A 
ATOM     34  C   UNL A   1      40.444  22.300  27.350  1.00  0.00     0.014 A 
ATOM     35  C   UNL A   1      39.563  24.787  26.449  1.00  0.00     0.010 A 
ATOM     36  C   UNL A   1      41.051  23.467  27.823  1.00  0.00     0.010 A 
ATOM     37  C   UNL A   1      40.654  24.719  27.331  1.00  0.00    -0.014 A 
BRANCH  37  38
ATOM     38  C   UNL A   1      41.333  25.981  27.725  1.00  0.00     0.031 A 
ATOM     39  C   UNL A   1      42.698  26.329  27.203  1.00  0.00     0.074 A 
ATOM     40  C   UNL A   1      40.665  26.851  28.508  1.00  0.00     0.049 A 
ATOM     41  N   UNL A   1      43.390  27.425  27.385  1.00  0.00    -0.248 NA
ATOM     42  C   UNL A   1      43.384  25.321  26.379  1.00  0.00     0.031 C 
ATOM     43  C   UNL A   1      39.340  26.605  29.079  1.00  0.00     0.029 A 
ATOM     44  N   UNL A   1      40.976  28.120  28.925  1.00  0.00    -0.354 N 
ATOM     45  C   UNL A   1      44.600  27.227  26.733  1.00  0.00     0.074 A 
ATOM     46  C   UNL A   1      44.560  25.896  26.170  1.00  0.00     0.031 C 
ATOM     47  C   UNL A   1      38.914  27.713  29.695  1.00  0.00     0.029 A 
ATOM     48  C   UNL A   1      39.969  28.722  29.645  1.00  0.00     0.049 A 
ATOM     49  H   UNL A   1      41.834  28.559  28.728  1.00  0.00     0.167 HD
ATOM     50  C   UNL A   1      45.643  28.084  26.609  1.00  0.00     0.034 A 
ATOM     51  C   UNL A   1      39.897  29.942  30.213  1.00  0.00     0.034 A 
ATOM     52  C   UNL A   1      45.647  29.420  27.149  1.00  0.00     0.049 A 
ATOM     53  C   UNL A   1      41.060  30.882  30.048  1.00  0.00     0.074 A 
ATOM     54  C   UNL A   1      46.631  30.385  27.030  1.00  0.00     0.029 A 
ATOM     55  N   UNL A   1      44.625  29.983  27.903  1.00  0.00    -0.354 N 
ATOM     56  N   UNL A   1      42.176  30.698  29.383  1.00  0.00    -0.248 NA
ATOM     57  C   UNL A   1      40.961  32.191  30.707  1.00  0.00     0.031 C 
ATOM     58  C   UNL A   1      46.236  31.504  27.765  1.00  0.00     0.029 A 
ATOM     59  C   UNL A   1      44.971  31.270  28.283  1.00  0.00     0.049 A 
ATOM     60  H   UNL A   1      43.781  29.534  28.134  1.00  0.00     0.167 HD
ATOM     61  C   UNL A   1      42.914  31.865  29.542  1.00  0.00     0.074 A 
ATOM     62  C   UNL A   1      42.100  32.764  30.335  1.00  0.00     0.031 C 
ATOM     63  C   UNL A   1      44.155  32.160  29.078  1.00  0.00     0.034 A 
BRANCH  50  64
ATOM     64  C   UNL A   1      46.875  27.621  25.870  1.00  0.00     0.023 A 
ATOM     65  C   UNL A   1      47.034  27.937  24.508  1.00  0.00     0.031 A 
ATOM     66  C   UNL A   1      47.834  26.787  26.474  1.00  0.00     0.131 A 
ATOM     67  C   UNL A   1      48.112  27.404  23.788  1.00  0.00     0.055 A 
ATOM     68  C   UNL A   1      48.927  26.291  25.763  1.00  0.00     0.041 A 
ATOM     69  F   UNL A   1      47.729  26.456  27.772  1.00  0.00    -0.206 F 
ATOM     70  C   UNL A   1      49.063  26.590  24.410  1.00  0.00     0.022 A 
BRANCH  67  71
ATOM     71  S   UNL A   1      48.288  27.695  22.007  1.00  0.00     0.124 S 
ATOM     72  O   UNL A   1      49.455  28.574  21.963  1.00  0.00    -0.237 OA
ATOM     73  O   UNL A   1      48.504  26.345  21.496  1.00  0.00    -0.237 OA
ATOM     74  O   UNL A   1      47.025  28.318  21.625  1.00  0.00    -0.744 OA
ENDBRANCH  67  71
ENDBRANCH  50  64
BRANCH  51  75
ATOM     75  C   UNL A   1      38.647  30.320  30.935  1.00  0.00     0.023 A 
ATOM     76  C   UNL A   1      37.573  30.911  30.243  1.00  0.00     0.031 A 
ATOM     77  C   UNL A   1      38.580  30.261  32.336  1.00  0.00     0.131 A 
ATOM     78  C   UNL A   1      36.533  31.517  30.959  1.00  0.00     0.055 A 
ATOM     79  C   UNL A   1      37.497  30.792  33.042  1.00  0.00     0.041 A 
ATOM     80  F   UNL A   1      39.585  29.720  33.039  1.00  0.00    -0.206 F 
ATOM     81  C   UNL A   1      36.480  31.446  32.353  1.00  0.00     0.022 A 
BRANCH  78  82
ATOM     82  S   UNL A   1      35.318  32.567  30.113  1.00  0.00     0.124 S 
ATOM     83  O   UNL A   1      36.137  33.697  29.686  1.00  0.00    -0.237 OA
ATOM     84  O   UNL A   1      34.856  31.683  29.045  1.00  0.00    -0.237 OA
ATOM     85  O   UNL A   1      34.332  32.857  31.148  1.00  0.00    -0.744 OA
ENDBRANCH  78  82
ENDBRANCH  51  75
BRANCH  63  86
ATOM     86  C   UNL A   1      44.749  33.504  29.419  1.00  0.00     0.023 A 
ATOM     87  C   UNL A   1      44.512  34.612  28.583  1.00  0.00     0.031 A 
ATOM     88  C   UNL A   1      45.667  33.649  30.474  1.00  0.00     0.131 A 
ATOM     89  C   UNL A   1      45.219  35.802  28.787  1.00  0.00     0.055 A 
ATOM     90  C   UNL A   1      46.334  34.854  30.702  1.00  0.00     0.041 A 
ATOM     91  F   UNL A   1      45.932  32.619  31.292  1.00  0.00    -0.206 F 
ATOM     92  C   UNL A   1      46.124  35.931  29.847  1.00  0.00     0.022 A 
BRANCH  89  93
ATOM     93  S   UNL A   1      45.065  37.192  27.632  1.00  0.00     0.124 S 
ATOM     94  O   UNL A   1      46.300  37.080  26.859  1.00  0.00    -0.237 OA
ATOM     95  O   UNL A   1      43.842  36.856  26.907  1.00  0.00    -0.237 OA
ATOM     96  O   UNL A   1      44.977  38.363  28.497  1.00  0.00    -0.744 OA
ENDBRANCH  89  93
ENDBRANCH  63  86
ENDBRANCH  37  38
ENDBRANCH  29  32
ENDBRANCH  27  28
ENDBRANCH   1  27
TORSDOF 17
ENDMDL
MODEL 3
REMARK VINA RESULT:     -12.7      1.919      2.400
REMARK SMILES CC(C)CCc1cc2c(cc1Cl)C=C(C(=O)NCCCNC(=O)c1ccc(-c3c4nc(c(-c5cc(S(=O)(=O)[O-])ccc5F)c5ccc([nH]5)c(-c5cc(S(=O)(=O)[O-])ccc5F)c5nc(c(-c6cc(S(=O)(=O)[O-])ccc6F)c6ccc3[nH]6)C=C5)C=C4)cc1)[C@@H](C(F)(F)F)O2
REMARK SMILES IDX 19 1 18 2 17 3 15 4 16 5 14 7 6 8 7 9 11 10 8 11 10 12 12 13
REMARK SMILES IDX 9 14 92 15 13 16 87 17 5 18 4 19 2 20 1 21 3 22 88 23 89 24
REMARK SMILES IDX 90 25 91 26 20 27 21 28 22 29 23 31 24 32 25 33 86 34 26 35
REMARK SMILES IDX 85 36 27 37 28 38 29 39 79 40 30 41 84 42 78 43 80 44 31 45
REMARK SMILES IDX 83 46 77 47 76 48 32 50 64 51 44 52 63 53 45 54 48 55 62 56
REMARK SMILES IDX 81 57 46 58 47 59 61 61 82 62 49 63 33 64 34 65 42 66 35 67
REMARK SMILES IDX 41 68 43 69 40 70 36 71 37 72 38 73 39 74 65 75 66 76 74 77
REMARK SMILES IDX 67 78 73 79 75 80 72 81 68 82 69 83 70 84 71 85 50 86 51 87
REMARK SMILES IDX 59 88 52 89 58 90 60 91 57 92 53 93 54 94 55 95 56 96
REMARK H PARENT 17 6 21 30 80 49 48 60
REMARK Flexibility Score: inf
ROOT
ATOM      1  C   UNL A   1      31.124  31.226  25.771  1.00  0.00     0.042 C 
ENDROOT
BRANCH   1   2
ATOM      2  C   UNL A   1      31.413  29.916  25.060  1.00  0.00     0.118 C 
BRANCH   2   3
ATOM      3  N   UNL A   1      30.738  29.838  23.774  1.00  0.00    -0.352 N 
ATOM      4  C   UNL A   1      30.483  28.888  22.847  1.00  0.00     0.251 C 
ATOM      5  O   UNL A   1      29.855  29.277  21.856  1.00  0.00    -0.270 OA
ATOM      6  H   UNL A   1      30.368  30.711  23.508  1.00  0.00     0.163 HD
BRANCH   4   7
ATOM      7  C   UNL A   1      30.881  27.458  22.953  1.00  0.00     0.067 C 
ATOM      8  C   UNL A   1      31.548  22.691  24.474  1.00  0.00    -0.026 A 
ATOM      9  C   UNL A   1      31.739  23.380  23.257  1.00  0.00     0.052 A 
ATOM     10  C   UNL A   1      30.966  23.405  25.538  1.00  0.00     0.045 A 
ATOM     11  C   UNL A   1      31.360  24.712  23.117  1.00  0.00     0.128 A 
ATOM     12  C   UNL A   1      30.513  24.722  25.361  1.00  0.00     0.032 A 
ATOM     13  Cl  UNL A   1      30.819  22.785  27.143  1.00  0.00    -0.084 Cl
ATOM     14  C   UNL A   1      30.717  25.381  24.153  1.00  0.00     0.019 A 
ATOM     15  O   UNL A   1      31.661  25.335  21.937  1.00  0.00    -0.475 OA
ATOM     16  C   UNL A   1      30.308  26.766  23.956  1.00  0.00     0.025 C 
ATOM     17  C   UNL A   1      31.882  26.772  22.064  1.00  0.00     0.314 C 
BRANCH   8  18
ATOM     18  C   UNL A   1      32.096  21.277  24.527  1.00  0.00     0.037 C 
BRANCH  18  19
ATOM     19  C   UNL A   1      33.600  21.016  24.368  1.00  0.00     0.008 C 
BRANCH  19  20
ATOM     20  C   UNL A   1      34.518  21.819  25.308  1.00  0.00    -0.017 C 
ATOM     21  C   UNL A   1      34.232  21.514  26.778  1.00  0.00     0.007 C 
ATOM     22  C   UNL A   1      35.981  21.510  24.982  1.00  0.00     0.007 C 
ENDBRANCH  19  20
ENDBRANCH  18  19
ENDBRANCH   8  18
BRANCH  17  23
ATOM     23  C   UNL A   1      33.340  27.046  22.500  1.00  0.00     0.429 C 
ATOM     24  F   UNL A   1      33.379  27.485  23.783  1.00  0.00    -0.167 F 
ATOM     25  F   UNL A   1      34.116  25.936  22.448  1.00  0.00    -0.167 F 
ATOM     26  F   UNL A   1      33.956  27.978  21.737  1.00  0.00    -0.167 F 
ENDBRANCH  17  23
ENDBRANCH   4   7
ENDBRANCH   2   3
ENDBRANCH   1   2
BRANCH   1  27
ATOM     27  C   UNL A   1      32.163  31.550  26.834  1.00  0.00     0.118 C 
BRANCH  27  28
ATOM     28  N   UNL A   1      32.166  32.968  27.190  1.00  0.00    -0.352 N 
ATOM     29  C   UNL A   1      33.039  33.682  27.978  1.00  0.00     0.251 C 
ATOM     30  H   UNL A   1      31.427  33.494  26.807  1.00  0.00     0.163 HD
ATOM     31  O   UNL A   1      32.743  34.818  28.337  1.00  0.00    -0.269 OA
BRANCH  29  32
ATOM     32  C   UNL A   1      34.311  33.065  28.404  1.00  0.00     0.039 A 
ATOM     33  C   UNL A   1      34.320  31.763  28.903  1.00  0.00     0.014 A 
ATOM     34  C   UNL A   1      35.499  33.798  28.331  1.00  0.00     0.014 A 
ATOM     35  C   UNL A   1      35.458  31.281  29.528  1.00  0.00     0.010 A 
ATOM     36  C   UNL A   1      36.678  33.255  28.849  1.00  0.00     0.010 A 
ATOM     37  C   UNL A   1      36.655  32.015  29.505  1.00  0.00    -0.014 A 
BRANCH  37  38
ATOM     38  C   UNL A   1      37.859  31.439  30.161  1.00  0.00     0.031 A 
ATOM     39  C   UNL A   1      38.205  31.768  31.585  1.00  0.00     0.074 A 
ATOM     40  C   UNL A   1      38.600  30.550  29.472  1.00  0.00     0.049 A 
ATOM     41  N   UNL A   1      39.170  31.287  32.326  1.00  0.00    -0.248 NA
ATOM     42  C   UNL A   1      37.373  32.771  32.269  1.00  0.00     0.031 C 
ATOM     43  C   UNL A   1      38.359  30.170  28.080  1.00  0.00     0.029 A 
ATOM     44  N   UNL A   1      39.669  29.777  29.847  1.00  0.00    -0.354 N 
ATOM     45  C   UNL A   1      39.085  31.950  33.545  1.00  0.00     0.074 A 
ATOM     46  C   UNL A   1      37.989  32.885  33.437  1.00  0.00     0.031 C 
ATOM     47  C   UNL A   1      39.191  29.178  27.744  1.00  0.00     0.029 A 
ATOM     48  C   UNL A   1      40.090  28.910  28.863  1.00  0.00     0.049 A 
ATOM     49  H   UNL A   1      40.095  29.834  30.732  1.00  0.00     0.167 HD
ATOM     50  C   UNL A   1      39.848  31.781  34.652  1.00  0.00     0.034 A 
ATOM     51  C   UNL A   1      41.089  28.006  28.851  1.00  0.00     0.034 A 
ATOM     52  C   UNL A   1      40.915  30.817  34.748  1.00  0.00     0.049 A 
ATOM     53  C   UNL A   1      41.912  27.825  30.097  1.00  0.00     0.074 A 
ATOM     54  C   UNL A   1      41.709  30.531  35.844  1.00  0.00     0.029 A 
ATOM     55  N   UNL A   1      41.336  29.982  33.722  1.00  0.00    -0.354 N 
ATOM     56  N   UNL A   1      41.784  28.422  31.258  1.00  0.00    -0.248 NA
ATOM     57  C   UNL A   1      43.013  26.855  30.037  1.00  0.00     0.031 C 
ATOM     58  C   UNL A   1      42.651  29.574  35.462  1.00  0.00     0.029 A 
ATOM     59  C   UNL A   1      42.400  29.205  34.149  1.00  0.00     0.049 A 
ATOM     60  H   UNL A   1      40.937  29.947  32.822  1.00  0.00     0.167 HD
ATOM     61  C   UNL A   1      42.786  27.902  32.069  1.00  0.00     0.074 A 
ATOM     62  C   UNL A   1      43.488  26.914  31.276  1.00  0.00     0.031 C 
ATOM     63  C   UNL A   1      43.098  28.222  33.350  1.00  0.00     0.034 A 
BRANCH  50  64
ATOM     64  C   UNL A   1      39.577  32.651  35.856  1.00  0.00     0.023 A 
ATOM     65  C   UNL A   1      38.717  32.193  36.871  1.00  0.00     0.031 A 
ATOM     66  C   UNL A   1      40.076  33.963  35.952  1.00  0.00     0.131 A 
ATOM     67  C   UNL A   1      38.364  33.044  37.926  1.00  0.00     0.055 A 
ATOM     68  C   UNL A   1      39.752  34.795  37.024  1.00  0.00     0.041 A 
ATOM     69  F   UNL A   1      40.900  34.450  35.009  1.00  0.00    -0.206 F 
ATOM     70  C   UNL A   1      38.884  34.340  38.012  1.00  0.00     0.022 A 
BRANCH  67  71
ATOM     71  S   UNL A   1      37.172  32.529  39.191  1.00  0.00     0.124 S 
ATOM     72  O   UNL A   1      37.469  33.460  40.277  1.00  0.00    -0.237 OA
ATOM     73  O   UNL A   1      35.895  32.747  38.516  1.00  0.00    -0.237 OA
ATOM     74  O   UNL A   1      37.516  31.136  39.453  1.00  0.00    -0.744 OA
ENDBRANCH  67  71
ENDBRANCH  50  64
BRANCH  51  75
ATOM     75  C   UNL A   1      41.299  27.191  27.618  1.00  0.00     0.023 A 
ATOM     76  C   UNL A   1      40.964  25.824  27.599  1.00  0.00     0.031 A 
ATOM     77  C   UNL A   1      41.992  27.719  26.517  1.00  0.00     0.131 A 
ATOM     78  C   UNL A   1      41.420  25.011  26.554  1.00  0.00     0.055 A 
ATOM     79  C   UNL A   1      42.370  26.920  25.435  1.00  0.00     0.041 A 
ATOM     80  F   UNL A   1      42.344  29.013  26.496  1.00  0.00    -0.206 F 
ATOM     81  C   UNL A   1      42.107  25.553  25.464  1.00  0.00     0.022 A 
BRANCH  78  82
ATOM     82  S   UNL A   1      41.294  23.204  26.667  1.00  0.00     0.124 S 
ATOM     83  O   UNL A   1      39.898  22.973  26.310  1.00  0.00    -0.237 OA
ATOM     84  O   UNL A   1      42.279  22.776  25.676  1.00  0.00    -0.237 OA
ATOM     85  O   UNL A   1      41.647  22.919  28.054  1.00  0.00    -0.744 OA
ENDBRANCH  78  82
ENDBRANCH  51  75
BRANCH  63  86
ATOM     86  C   UNL A   1      44.265  27.522  34.002  1.00  0.00     0.023 A 
ATOM     87  C   UNL A   1      44.043  26.413  34.840  1.00  0.00     0.031 A 
ATOM     88  C   UNL A   1      45.568  28.043  33.917  1.00  0.00     0.131 A 
ATOM     89  C   UNL A   1      45.098  25.890  35.597  1.00  0.00     0.055 A 
ATOM     90  C   UNL A   1      46.626  27.488  34.638  1.00  0.00     0.041 A 
ATOM     91  F   UNL A   1      45.827  29.105  33.138  1.00  0.00    -0.206 F 
ATOM     92  C   UNL A   1      46.390  26.417  35.495  1.00  0.00     0.022 A 
BRANCH  89  93
ATOM     93  S   UNL A   1      44.815  24.573  36.812  1.00  0.00     0.124 S 
ATOM     94  O   UNL A   1      44.672  23.398  35.955  1.00  0.00    -0.237 OA
ATOM     95  O   UNL A   1      46.038  24.620  37.609  1.00  0.00    -0.237 OA
ATOM     96  O   UNL A   1      43.600  24.988  37.506  1.00  0.00    -0.744 OA
ENDBRANCH  89  93
ENDBRANCH  63  86
ENDBRANCH  37  38
ENDBRANCH  29  32
ENDBRANCH  27  28
ENDBRANCH   1  27
TORSDOF 17
ENDMDL
