MODEL 1
REMARK VINA RESULT:     -12.2      0.000      0.000
REMARK SMILES O=C(NCCCNC(=O)[C@H]1CCc2[nH]nc(C(F)(F)F)c2C1)c1ccc(-c2c3nc(c(-c4cc(S(=O)(=O)[O-])ccc4F)c4ccc([nH]4)c(-c4cc(S(=O)(=O)[O-])ccc4F)c4nc(c(-c5cc(S(=O)(=O)[O-])ccc5F)c5ccc2[nH]5)C=C4)C=C3)cc1
REMARK SMILES IDX 4 1 3 2 1 3 2 4 23 6 24 7 85 8 25 9 84 10 26 11 27 12 28 13
REMARK SMILES IDX 78 14 29 15 83 16 77 17 79 18 30 19 82 20 76 21 75 22 31 24
REMARK SMILES IDX 63 25 43 26 62 27 44 28 47 29 61 30 80 31 45 32 46 33 60 35
REMARK SMILES IDX 81 36 48 37 32 38 33 39 41 40 34 41 40 42 42 43 39 44 35 45
REMARK SMILES IDX 36 46 37 47 38 48 64 49 65 50 73 51 66 52 72 53 74 54 71 55
REMARK SMILES IDX 67 56 68 57 69 58 70 59 49 60 50 61 58 62 51 63 57 64 59 65
REMARK SMILES IDX 56 66 52 67 53 68 54 69 55 70 5 71 6 72 7 73 8 74 9 76 10 77
REMARK SMILES IDX 11 78 22 79 12 80 21 81 13 82 16 83 14 84 15 85 17 87 18 88
REMARK SMILES IDX 19 89 20 90
REMARK H PARENT 3 5 79 23 47 34 7 75 14 86
REMARK Flexibility Score: inf
ROOT
ATOM      1  C   UNL A   1      32.699  32.750  27.221  1.00  0.00     0.118 C 
ENDROOT
BRANCH   1   2
ATOM      2  N   UNL A   1      32.533  34.128  27.667  1.00  0.00    -0.352 N 
ATOM      3  O   UNL A   1      32.755  35.926  29.000  1.00  0.00    -0.269 OA
ATOM      4  C   UNL A   1      33.155  34.808  28.684  1.00  0.00     0.251 C 
ATOM      5  H   UNL A   1      31.872  34.653  27.159  1.00  0.00     0.163 HD
BRANCH   4   6
ATOM      6  C   UNL A   1      34.286  34.191  29.409  1.00  0.00     0.039 A 
ATOM      7  C   UNL A   1      35.600  34.396  28.987  1.00  0.00     0.014 A 
ATOM      8  C   UNL A   1      34.027  33.410  30.540  1.00  0.00     0.014 A 
ATOM      9  C   UNL A   1      36.638  33.704  29.598  1.00  0.00     0.010 A 
ATOM     10  C   UNL A   1      35.084  32.786  31.210  1.00  0.00     0.010 A 
ATOM     11  C   UNL A   1      36.396  32.903  30.726  1.00  0.00    -0.014 A 
BRANCH  11  12
ATOM     12  C   UNL A   1      37.540  32.251  31.412  1.00  0.00     0.031 A 
ATOM     13  C   UNL A   1      38.310  31.139  30.755  1.00  0.00     0.074 A 
ATOM     14  C   UNL A   1      37.895  32.694  32.634  1.00  0.00     0.049 A 
ATOM     15  N   UNL A   1      39.336  30.466  31.209  1.00  0.00    -0.248 NA
ATOM     16  C   UNL A   1      37.863  30.721  29.418  1.00  0.00     0.031 C 
ATOM     17  C   UNL A   1      37.211  33.762  33.370  1.00  0.00     0.029 A 
ATOM     18  N   UNL A   1      38.918  32.323  33.467  1.00  0.00    -0.354 N 
ATOM     19  C   UNL A   1      39.649  29.534  30.226  1.00  0.00     0.074 A 
ATOM     20  C   UNL A   1      38.681  29.709  29.163  1.00  0.00     0.031 C 
ATOM     21  C   UNL A   1      37.859  33.988  34.521  1.00  0.00     0.029 A 
ATOM     22  C   UNL A   1      38.958  33.038  34.641  1.00  0.00     0.049 A 
ATOM     23  H   UNL A   1      39.563  31.612  33.244  1.00  0.00     0.167 HD
ATOM     24  C   UNL A   1      40.655  28.622  30.214  1.00  0.00     0.034 A 
ATOM     25  C   UNL A   1      39.772  32.928  35.708  1.00  0.00     0.034 A 
ATOM     26  C   UNL A   1      41.613  28.469  31.284  1.00  0.00     0.049 A 
ATOM     27  C   UNL A   1      40.861  31.891  35.680  1.00  0.00     0.074 A 
ATOM     28  C   UNL A   1      42.694  27.606  31.358  1.00  0.00     0.029 A 
ATOM     29  N   UNL A   1      41.601  29.186  32.476  1.00  0.00    -0.354 N 
ATOM     30  N   UNL A   1      41.154  31.031  34.733  1.00  0.00    -0.248 NA
ATOM     31  C   UNL A   1      41.727  31.814  36.860  1.00  0.00     0.031 C 
ATOM     32  C   UNL A   1      43.292  27.753  32.616  1.00  0.00     0.029 A 
ATOM     33  C   UNL A   1      42.632  28.760  33.301  1.00  0.00     0.049 A 
ATOM     34  H   UNL A   1      40.954  29.893  32.701  1.00  0.00     0.167 HD
ATOM     35  C   UNL A   1      42.253  30.316  35.200  1.00  0.00     0.074 A 
ATOM     36  C   UNL A   1      42.581  30.866  36.501  1.00  0.00     0.031 C 
ATOM     37  C   UNL A   1      42.930  29.301  34.608  1.00  0.00     0.034 A 
BRANCH  24  38
ATOM     38  C   UNL A   1      40.740  27.690  29.027  1.00  0.00     0.023 A 
ATOM     39  C   UNL A   1      41.671  27.883  27.992  1.00  0.00     0.031 A 
ATOM     40  C   UNL A   1      39.861  26.596  28.925  1.00  0.00     0.131 A 
ATOM     41  C   UNL A   1      41.661  27.036  26.872  1.00  0.00     0.055 A 
ATOM     42  C   UNL A   1      39.906  25.711  27.845  1.00  0.00     0.041 A 
ATOM     43  F   UNL A   1      38.936  26.371  29.871  1.00  0.00    -0.206 F 
ATOM     44  C   UNL A   1      40.800  25.936  26.803  1.00  0.00     0.022 A 
BRANCH  41  45
ATOM     45  S   UNL A   1      42.695  27.466  25.445  1.00  0.00     0.124 S 
ATOM     46  O   UNL A   1      43.976  27.759  26.086  1.00  0.00    -0.237 OA
ATOM     47  O   UNL A   1      42.646  26.250  24.642  1.00  0.00    -0.237 OA
ATOM     48  O   UNL A   1      42.019  28.625  24.867  1.00  0.00    -0.744 OA
ENDBRANCH  41  45
ENDBRANCH  24  38
BRANCH  25  49
ATOM     49  C   UNL A   1      39.560  33.797  36.899  1.00  0.00     0.023 A 
ATOM     50  C   UNL A   1      38.952  33.303  38.062  1.00  0.00     0.031 A 
ATOM     51  C   UNL A   1      39.959  35.146  36.882  1.00  0.00     0.131 A 
ATOM     52  C   UNL A   1      38.730  34.162  39.151  1.00  0.00     0.055 A 
ATOM     53  C   UNL A   1      39.784  35.982  37.985  1.00  0.00     0.041 A 
ATOM     54  F   UNL A   1      40.551  35.666  35.795  1.00  0.00    -0.206 F 
ATOM     55  C   UNL A   1      39.155  35.493  39.126  1.00  0.00     0.022 A 
BRANCH  52  56
ATOM     56  S   UNL A   1      37.812  33.530  40.581  1.00  0.00     0.124 S 
ATOM     57  O   UNL A   1      38.757  32.572  41.144  1.00  0.00    -0.237 OA
ATOM     58  O   UNL A   1      37.589  34.745  41.357  1.00  0.00    -0.237 OA
ATOM     59  O   UNL A   1      36.612  32.946  39.983  1.00  0.00    -0.744 OA
ENDBRANCH  52  56
ENDBRANCH  25  49
BRANCH  37  60
ATOM     60  C   UNL A   1      44.111  28.744  35.363  1.00  0.00     0.023 A 
ATOM     61  C   UNL A   1      43.969  27.686  36.278  1.00  0.00     0.031 A 
ATOM     62  C   UNL A   1      45.391  29.299  35.186  1.00  0.00     0.131 A 
ATOM     63  C   UNL A   1      45.074  27.255  37.025  1.00  0.00     0.055 A 
ATOM     64  C   UNL A   1      46.499  28.827  35.889  1.00  0.00     0.041 A 
ATOM     65  F   UNL A   1      45.582  30.313  34.328  1.00  0.00    -0.206 F 
ATOM     66  C   UNL A   1      46.343  27.809  36.824  1.00  0.00     0.022 A 
BRANCH  63  67
ATOM     67  S   UNL A   1      44.817  26.026  38.333  1.00  0.00     0.124 S 
ATOM     68  O   UNL A   1      44.087  26.797  39.335  1.00  0.00    -0.237 OA
ATOM     69  O   UNL A   1      44.053  24.991  37.644  1.00  0.00    -0.237 OA
ATOM     70  O   UNL A   1      46.175  25.642  38.716  1.00  0.00    -0.744 OA
ENDBRANCH  63  67
ENDBRANCH  37  60
ENDBRANCH  11  12
ENDBRANCH   4   6
ENDBRANCH   1   2
BRANCH   1  71
ATOM     71  C   UNL A   1      31.464  32.193  26.518  1.00  0.00     0.042 C 
BRANCH  71  72
ATOM     72  C   UNL A   1      31.446  30.676  26.391  1.00  0.00     0.117 C 
BRANCH  72  73
ATOM     73  N   UNL A   1      32.445  30.195  25.457  1.00  0.00    -0.356 N 
ATOM     74  C   UNL A   1      32.550  29.037  24.758  1.00  0.00     0.223 C 
ATOM     75  H   UNL A   1      33.184  30.826  25.299  1.00  0.00     0.163 HD
ATOM     76  O   UNL A   1      33.536  28.921  24.030  1.00  0.00    -0.275 OA
BRANCH  74  77
ATOM     77  C   UNL A   1      31.485  27.950  24.884  1.00  0.00     0.083 C 
ATOM     78  C   UNL A   1      30.355  28.190  23.850  1.00  0.00     0.020 C 
ATOM     79  C   UNL A   1      32.118  26.542  24.755  1.00  0.00     0.053 C 
ATOM     80  C   UNL A   1      30.765  27.964  22.380  1.00  0.00     0.057 C 
ATOM     81  C   UNL A   1      32.321  26.165  23.327  1.00  0.00     0.006 A 
ATOM     82  C   UNL A   1      31.697  26.818  22.289  1.00  0.00     0.039 A 
ATOM     83  C   UNL A   1      33.112  25.156  22.707  1.00  0.00     0.169 A 
ATOM     84  N   UNL A   1      32.185  26.278  21.144  1.00  0.00    -0.282 N 
ATOM     85  N   UNL A   1      33.003  25.235  21.360  1.00  0.00    -0.171 NA
ATOM     86  H   UNL A   1      31.963  26.616  20.246  1.00  0.00     0.190 HD
BRANCH  83  87
ATOM     87  C   UNL A   1      33.972  24.119  23.385  1.00  0.00     0.435 C 
ATOM     88  F   UNL A   1      34.547  23.257  22.502  1.00  0.00    -0.164 F 
ATOM     89  F   UNL A   1      34.979  24.676  24.108  1.00  0.00    -0.164 F 
ATOM     90  F   UNL A   1      33.255  23.350  24.251  1.00  0.00    -0.164 F 
ENDBRANCH  83  87
ENDBRANCH  74  77
ENDBRANCH  72  73
ENDBRANCH  71  72
ENDBRANCH   1  71
TORSDOF 14
ENDMDL
MODEL 2
REMARK VINA RESULT:     -12.1      4.546     10.442
REMARK SMILES O=C(NCCCNC(=O)[C@H]1CCc2[nH]nc(C(F)(F)F)c2C1)c1ccc(-c2c3nc(c(-c4cc(S(=O)(=O)[O-])ccc4F)c4ccc([nH]4)c(-c4cc(S(=O)(=O)[O-])ccc4F)c4nc(c(-c5cc(S(=O)(=O)[O-])ccc5F)c5ccc2[nH]5)C=C4)C=C3)cc1
REMARK SMILES IDX 4 1 3 2 1 3 2 4 23 6 24 7 85 8 25 9 84 10 26 11 27 12 28 13
REMARK SMILES IDX 78 14 29 15 83 16 77 17 79 18 30 19 82 20 76 21 75 22 31 24
REMARK SMILES IDX 63 25 43 26 62 27 44 28 47 29 61 30 80 31 45 32 46 33 60 35
REMARK SMILES IDX 81 36 48 37 32 38 33 39 41 40 34 41 40 42 42 43 39 44 35 45
REMARK SMILES IDX 36 46 37 47 38 48 64 49 65 50 73 51 66 52 72 53 74 54 71 55
REMARK SMILES IDX 67 56 68 57 69 58 70 59 49 60 50 61 58 62 51 63 57 64 59 65
REMARK SMILES IDX 56 66 52 67 53 68 54 69 55 70 5 71 6 72 7 73 8 74 9 76 10 77
REMARK SMILES IDX 11 78 22 79 12 80 21 81 13 82 16 83 14 84 15 85 17 87 18 88
REMARK SMILES IDX 19 89 20 90
REMARK H PARENT 3 5 79 23 47 34 7 75 14 86
REMARK Flexibility Score: inf
ROOT
ATOM      1  C   UNL A   1      35.027  33.825  28.018  1.00  0.00     0.118 C 
ENDROOT
BRANCH   1   2
ATOM      2  N   UNL A   1      34.128  32.707  27.756  1.00  0.00    -0.352 N 
ATOM      3  O   UNL A   1      33.505  30.573  27.419  1.00  0.00    -0.269 OA
ATOM      4  C   UNL A   1      34.355  31.355  27.837  1.00  0.00     0.251 C 
ATOM      5  H   UNL A   1      33.218  32.961  27.479  1.00  0.00     0.163 HD
BRANCH   4   6
ATOM      6  C   UNL A   1      35.621  30.845  28.404  1.00  0.00     0.039 A 
ATOM      7  C   UNL A   1      36.851  31.296  27.922  1.00  0.00     0.014 A 
ATOM      8  C   UNL A   1      35.576  29.915  29.447  1.00  0.00     0.014 A 
ATOM      9  C   UNL A   1      38.027  30.710  28.374  1.00  0.00     0.010 A 
ATOM     10  C   UNL A   1      36.765  29.392  29.964  1.00  0.00     0.010 A 
ATOM     11  C   UNL A   1      38.000  29.763  29.410  1.00  0.00    -0.014 A 
BRANCH  11  12
ATOM     12  C   UNL A   1      39.281  29.225  29.934  1.00  0.00     0.031 A 
ATOM     13  C   UNL A   1      39.917  29.796  31.172  1.00  0.00     0.074 A 
ATOM     14  C   UNL A   1      39.857  28.191  29.289  1.00  0.00     0.049 A 
ATOM     15  N   UNL A   1      41.026  29.441  31.767  1.00  0.00    -0.248 NA
ATOM     16  C   UNL A   1      39.221  30.916  31.820  1.00  0.00     0.031 C 
ATOM     17  C   UNL A   1      39.331  27.565  28.072  1.00  0.00     0.029 A 
ATOM     18  N   UNL A   1      40.990  27.473  29.566  1.00  0.00    -0.354 N 
ATOM     19  C   UNL A   1      41.175  30.303  32.848  1.00  0.00     0.074 A 
ATOM     20  C   UNL A   1      40.053  31.219  32.806  1.00  0.00     0.031 C 
ATOM     21  C   UNL A   1      40.116  26.533  27.734  1.00  0.00     0.029 A 
ATOM     22  C   UNL A   1      41.237  26.465  28.663  1.00  0.00     0.049 A 
ATOM     23  H   UNL A   1      41.573  27.661  30.338  1.00  0.00     0.167 HD
ATOM     24  C   UNL A   1      42.154  30.321  33.788  1.00  0.00     0.034 A 
ATOM     25  C   UNL A   1      42.261  25.596  28.576  1.00  0.00     0.034 A 
ATOM     26  C   UNL A   1      43.261  29.394  33.812  1.00  0.00     0.049 A 
ATOM     27  C   UNL A   1      43.347  25.656  29.615  1.00  0.00     0.074 A 
ATOM     28  C   UNL A   1      44.286  29.297  34.740  1.00  0.00     0.029 A 
ATOM     29  N   UNL A   1      43.498  28.408  32.861  1.00  0.00    -0.354 N 
ATOM     30  N   UNL A   1      43.460  26.465  30.642  1.00  0.00    -0.248 NA
ATOM     31  C   UNL A   1      44.438  24.684  29.484  1.00  0.00     0.031 C 
ATOM     32  C   UNL A   1      45.175  28.303  34.314  1.00  0.00     0.029 A 
ATOM     33  C   UNL A   1      44.669  27.724  33.160  1.00  0.00     0.049 A 
ATOM     34  H   UNL A   1      42.920  28.221  32.087  1.00  0.00     0.167 HD
ATOM     35  C   UNL A   1      44.633  26.090  31.291  1.00  0.00     0.074 A 
ATOM     36  C   UNL A   1      45.173  24.966  30.550  1.00  0.00     0.031 C 
ATOM     37  C   UNL A   1      45.209  26.623  32.397  1.00  0.00     0.034 A 
BRANCH  24  38
ATOM     38  C   UNL A   1      42.095  31.407  34.838  1.00  0.00     0.023 A 
ATOM     39  C   UNL A   1      42.587  32.702  34.600  1.00  0.00     0.031 A 
ATOM     40  C   UNL A   1      41.549  31.134  36.106  1.00  0.00     0.131 A 
ATOM     41  C   UNL A   1      42.581  33.655  35.631  1.00  0.00     0.055 A 
ATOM     42  C   UNL A   1      41.476  32.109  37.103  1.00  0.00     0.041 A 
ATOM     43  F   UNL A   1      41.083  29.911  36.400  1.00  0.00    -0.206 F 
ATOM     44  C   UNL A   1      42.007  33.375  36.874  1.00  0.00     0.022 A 
BRANCH  41  45
ATOM     45  S   UNL A   1      43.453  35.225  35.371  1.00  0.00     0.124 S 
ATOM     46  O   UNL A   1      42.434  36.020  34.688  1.00  0.00    -0.237 OA
ATOM     47  O   UNL A   1      43.777  35.635  36.732  1.00  0.00    -0.237 OA
ATOM     48  O   UNL A   1      44.596  34.850  34.541  1.00  0.00    -0.744 OA
ENDBRANCH  41  45
ENDBRANCH  24  38
BRANCH  25  49
ATOM     49  C   UNL A   1      42.323  24.627  27.447  1.00  0.00     0.023 A 
ATOM     50  C   UNL A   1      41.579  23.438  27.464  1.00  0.00     0.031 A 
ATOM     51  C   UNL A   1      43.143  24.878  26.331  1.00  0.00     0.131 A 
ATOM     52  C   UNL A   1      41.695  22.528  26.401  1.00  0.00     0.055 A 
ATOM     53  C   UNL A   1      43.214  23.996  25.253  1.00  0.00     0.041 A 
ATOM     54  F   UNL A   1      43.870  26.006  26.262  1.00  0.00    -0.206 F 
ATOM     55  C   UNL A   1      42.495  22.806  25.290  1.00  0.00     0.022 A 
BRANCH  52  56
ATOM     56  S   UNL A   1      40.834  20.937  26.524  1.00  0.00     0.124 S 
ATOM     57  O   UNL A   1      39.526  21.261  25.966  1.00  0.00    -0.237 OA
ATOM     58  O   UNL A   1      41.683  20.071  25.713  1.00  0.00    -0.237 OA
ATOM     59  O   UNL A   1      40.848  20.653  27.959  1.00  0.00    -0.744 OA
ENDBRANCH  52  56
ENDBRANCH  25  49
BRANCH  37  60
ATOM     60  C   UNL A   1      46.479  25.969  32.881  1.00  0.00     0.023 A 
ATOM     61  C   UNL A   1      46.455  24.880  33.770  1.00  0.00     0.031 A 
ATOM     62  C   UNL A   1      47.730  26.462  32.470  1.00  0.00     0.131 A 
ATOM     63  C   UNL A   1      47.658  24.357  34.265  1.00  0.00     0.055 A 
ATOM     64  C   UNL A   1      48.924  25.899  32.920  1.00  0.00     0.041 A 
ATOM     65  F   UNL A   1      47.810  27.502  31.625  1.00  0.00    -0.206 F 
ATOM     66  C   UNL A   1      48.893  24.849  33.833  1.00  0.00     0.022 A 
BRANCH  63  67
ATOM     67  S   UNL A   1      47.589  23.085  35.556  1.00  0.00     0.124 S 
ATOM     68  O   UNL A   1      48.314  23.723  36.650  1.00  0.00    -0.237 OA
ATOM     69  O   UNL A   1      46.152  22.918  35.754  1.00  0.00    -0.237 OA
ATOM     70  O   UNL A   1      48.266  21.941  34.949  1.00  0.00    -0.744 OA
ENDBRANCH  63  67
ENDBRANCH  37  60
ENDBRANCH  11  12
ENDBRANCH   4   6
ENDBRANCH   1   2
BRANCH   1  71
ATOM     71  C   UNL A   1      34.347  34.985  28.741  1.00  0.00     0.042 C 
BRANCH  71  72
ATOM     72  C   UNL A   1      33.635  34.591  30.028  1.00  0.00     0.117 C 
BRANCH  72  73
ATOM     73  N   UNL A   1      34.160  35.299  31.179  1.00  0.00    -0.356 N 
ATOM     74  C   UNL A   1      35.087  34.958  32.109  1.00  0.00     0.223 C 
ATOM     75  H   UNL A   1      33.771  36.195  31.311  1.00  0.00     0.163 HD
ATOM     76  O   UNL A   1      35.322  35.793  32.984  1.00  0.00    -0.275 OA
BRANCH  74  77
ATOM     77  C   UNL A   1      35.791  33.604  32.050  1.00  0.00     0.083 C 
ATOM     78  C   UNL A   1      36.956  33.655  31.029  1.00  0.00     0.020 C 
ATOM     79  C   UNL A   1      36.256  33.164  33.460  1.00  0.00     0.053 C 
ATOM     80  C   UNL A   1      38.150  34.535  31.453  1.00  0.00     0.057 C 
ATOM     81  C   UNL A   1      37.548  33.809  33.833  1.00  0.00     0.006 A 
ATOM     82  C   UNL A   1      38.373  34.408  32.912  1.00  0.00     0.039 A 
ATOM     83  C   UNL A   1      38.211  33.968  35.083  1.00  0.00     0.169 A 
ATOM     84  N   UNL A   1      39.394  34.966  33.611  1.00  0.00    -0.282 N 
ATOM     85  N   UNL A   1      39.355  34.673  34.921  1.00  0.00    -0.171 NA
ATOM     86  H   UNL A   1      40.092  35.526  33.201  1.00  0.00     0.190 HD
BRANCH  83  87
ATOM     87  C   UNL A   1      37.764  33.458  36.431  1.00  0.00     0.435 C 
ATOM     88  F   UNL A   1      36.423  33.595  36.624  1.00  0.00    -0.164 F 
ATOM     89  F   UNL A   1      38.059  32.143  36.609  1.00  0.00    -0.164 F 
ATOM     90  F   UNL A   1      38.363  34.130  37.453  1.00  0.00    -0.164 F 
ENDBRANCH  83  87
ENDBRANCH  74  77
ENDBRANCH  72  73
ENDBRANCH  71  72
ENDBRANCH   1  71
TORSDOF 14
ENDMDL
MODEL 3
REMARK VINA RESULT:     -12.1      1.839      2.399
REMARK SMILES O=C(NCCCNC(=O)[C@H]1CCc2[nH]nc(C(F)(F)F)c2C1)c1ccc(-c2c3nc(c(-c4cc(S(=O)(=O)[O-])ccc4F)c4ccc([nH]4)c(-c4cc(S(=O)(=O)[O-])ccc4F)c4nc(c(-c5cc(S(=O)(=O)[O-])ccc5F)c5ccc2[nH]5)C=C4)C=C3)cc1
REMARK SMILES IDX 4 1 3 2 1 3 2 4 23 6 24 7 85 8 25 9 84 10 26 11 27 12 28 13
REMARK SMILES IDX 78 14 29 15 83 16 77 17 79 18 30 19 82 20 76 21 75 22 31 24
REMARK SMILES IDX 63 25 43 26 62 27 44 28 47 29 61 30 80 31 45 32 46 33 60 35
REMARK SMILES IDX 81 36 48 37 32 38 33 39 41 40 34 41 40 42 42 43 39 44 35 45
REMARK SMILES IDX 36 46 37 47 38 48 64 49 65 50 73 51 66 52 72 53 74 54 71 55
REMARK SMILES IDX 67 56 68 57 69 58 70 59 49 60 50 61 58 62 51 63 57 64 59 65
REMARK SMILES IDX 56 66 52 67 53 68 54 69 55 70 5 71 6 72 7 73 8 74 9 76 10 77
REMARK SMILES IDX 11 78 22 79 12 80 21 81 13 82 16 83 14 84 15 85 17 87 18 88
REMARK SMILES IDX 19 89 20 90
REMARK H PARENT 3 5 79 23 47 34 7 75 14 86
REMARK Flexibility Score: inf
ROOT
ATOM      1  C   UNL A   1      32.903  32.845  27.196  1.00  0.00     0.118 C 
ENDROOT
BRANCH   1   2
ATOM      2  N   UNL A   1      32.743  34.164  27.797  1.00  0.00    -0.352 N 
ATOM      3  O   UNL A   1      32.983  35.799  29.322  1.00  0.00    -0.269 OA
ATOM      4  C   UNL A   1      33.379  34.724  28.877  1.00  0.00     0.251 C 
ATOM      5  H   UNL A   1      32.077  34.742  27.359  1.00  0.00     0.163 HD
BRANCH   4   6
ATOM      6  C   UNL A   1      34.518  34.029  29.514  1.00  0.00     0.039 A 
ATOM      7  C   UNL A   1      34.301  33.029  30.463  1.00  0.00     0.014 A 
ATOM      8  C   UNL A   1      35.821  34.371  29.141  1.00  0.00     0.014 A 
ATOM      9  C   UNL A   1      35.379  32.480  31.147  1.00  0.00     0.010 A 
ATOM     10  C   UNL A   1      36.907  33.751  29.766  1.00  0.00     0.010 A 
ATOM     11  C   UNL A   1      36.696  32.822  30.796  1.00  0.00    -0.014 A 
BRANCH  11  12
ATOM     12  C   UNL A   1      37.827  32.149  31.482  1.00  0.00     0.031 A 
ATOM     13  C   UNL A   1      38.602  31.050  30.808  1.00  0.00     0.074 A 
ATOM     14  C   UNL A   1      38.166  32.560  32.720  1.00  0.00     0.049 A 
ATOM     15  N   UNL A   1      39.619  30.362  31.260  1.00  0.00    -0.248 NA
ATOM     16  C   UNL A   1      38.173  30.667  29.456  1.00  0.00     0.031 C 
ATOM     17  C   UNL A   1      37.476  33.612  33.472  1.00  0.00     0.029 A 
ATOM     18  N   UNL A   1      39.176  32.164  33.558  1.00  0.00    -0.354 N 
ATOM     19  C   UNL A   1      39.943  29.453  30.260  1.00  0.00     0.074 A 
ATOM     20  C   UNL A   1      38.990  29.658  29.187  1.00  0.00     0.031 C 
ATOM     21  C   UNL A   1      38.108  33.806  34.638  1.00  0.00     0.029 A 
ATOM     22  C   UNL A   1      39.202  32.850  34.750  1.00  0.00     0.049 A 
ATOM     23  H   UNL A   1      39.822  31.456  33.327  1.00  0.00     0.167 HD
ATOM     24  C   UNL A   1      40.945  28.537  30.239  1.00  0.00     0.034 A 
ATOM     25  C   UNL A   1      40.000  32.709  35.825  1.00  0.00     0.034 A 
ATOM     26  C   UNL A   1      41.887  28.354  31.319  1.00  0.00     0.049 A 
ATOM     27  C   UNL A   1      41.085  31.669  35.787  1.00  0.00     0.074 A 
ATOM     28  C   UNL A   1      42.964  27.485  31.386  1.00  0.00     0.029 A 
ATOM     29  N   UNL A   1      41.861  29.041  32.527  1.00  0.00    -0.354 N 
ATOM     30  N   UNL A   1      41.389  30.831  34.823  1.00  0.00    -0.248 NA
ATOM     31  C   UNL A   1      41.934  31.559  36.977  1.00  0.00     0.031 C 
ATOM     32  C   UNL A   1      43.544  27.598  32.655  1.00  0.00     0.029 A 
ATOM     33  C   UNL A   1      42.879  28.591  33.357  1.00  0.00     0.049 A 
ATOM     34  H   UNL A   1      41.214  29.745  32.761  1.00  0.00     0.167 HD
ATOM     35  C   UNL A   1      42.478  30.101  35.288  1.00  0.00     0.074 A 
ATOM     36  C   UNL A   1      42.789  30.617  36.607  1.00  0.00     0.031 C 
ATOM     37  C   UNL A   1      43.160  29.098  34.681  1.00  0.00     0.034 A 
BRANCH  24  38
ATOM     38  C   UNL A   1      41.043  27.635  29.031  1.00  0.00     0.023 A 
ATOM     39  C   UNL A   1      42.028  27.813  28.044  1.00  0.00     0.031 A 
ATOM     40  C   UNL A   1      40.123  26.584  28.857  1.00  0.00     0.131 A 
ATOM     41  C   UNL A   1      42.033  26.998  26.901  1.00  0.00     0.055 A 
ATOM     42  C   UNL A   1      40.179  25.728  27.755  1.00  0.00     0.041 A 
ATOM     43  F   UNL A   1      39.147  26.377  29.755  1.00  0.00    -0.206 F 
ATOM     44  C   UNL A   1      41.129  25.941  26.761  1.00  0.00     0.022 A 
BRANCH  41  45
ATOM     45  S   UNL A   1      43.150  27.420  25.535  1.00  0.00     0.124 S 
ATOM     46  O   UNL A   1      43.534  26.096  25.048  1.00  0.00    -0.237 OA
ATOM     47  O   UNL A   1      42.289  28.200  24.653  1.00  0.00    -0.237 OA
ATOM     48  O   UNL A   1      44.222  28.169  26.186  1.00  0.00    -0.744 OA
ENDBRANCH  41  45
ENDBRANCH  24  38
BRANCH  25  49
ATOM     49  C   UNL A   1      39.775  33.549  37.034  1.00  0.00     0.023 A 
ATOM     50  C   UNL A   1      39.033  33.072  38.125  1.00  0.00     0.031 A 
ATOM     51  C   UNL A   1      40.295  34.854  37.108  1.00  0.00     0.131 A 
ATOM     52  C   UNL A   1      38.804  33.907  39.231  1.00  0.00     0.055 A 
ATOM     53  C   UNL A   1      40.110  35.661  38.231  1.00  0.00     0.041 A 
ATOM     54  F   UNL A   1      41.018  35.356  36.093  1.00  0.00    -0.206 F 
ATOM     55  C   UNL A   1      39.350  35.191  39.297  1.00  0.00     0.022 A 
BRANCH  52  56
ATOM     56  S   UNL A   1      37.721  33.313  40.557  1.00  0.00     0.124 S 
ATOM     57  O   UNL A   1      37.557  34.513  41.370  1.00  0.00    -0.237 OA
ATOM     58  O   UNL A   1      36.544  32.876  39.813  1.00  0.00    -0.237 OA
ATOM     59  O   UNL A   1      38.498  32.240  41.176  1.00  0.00    -0.744 OA
ENDBRANCH  52  56
ENDBRANCH  25  49
BRANCH  37  60
ATOM     60  C   UNL A   1      44.328  28.517  35.438  1.00  0.00     0.023 A 
ATOM     61  C   UNL A   1      44.153  27.510  36.403  1.00  0.00     0.031 A 
ATOM     62  C   UNL A   1      45.628  29.000  35.212  1.00  0.00     0.131 A 
ATOM     63  C   UNL A   1      45.251  27.058  37.148  1.00  0.00     0.055 A 
ATOM     64  C   UNL A   1      46.727  28.505  35.915  1.00  0.00     0.041 A 
ATOM     65  F   UNL A   1      45.851  29.964  34.305  1.00  0.00    -0.206 F 
ATOM     66  C   UNL A   1      46.541  27.539  36.899  1.00  0.00     0.022 A 
BRANCH  63  67
ATOM     67  S   UNL A   1      44.962  25.903  38.516  1.00  0.00     0.124 S 
ATOM     68  O   UNL A   1      44.637  24.669  37.807  1.00  0.00    -0.237 OA
ATOM     69  O   UNL A   1      46.243  25.919  39.215  1.00  0.00    -0.237 OA
ATOM     70  O   UNL A   1      43.850  26.508  39.247  1.00  0.00    -0.744 OA
ENDBRANCH  63  67
ENDBRANCH  37  60
ENDBRANCH  11  12
ENDBRANCH   4   6
ENDBRANCH   1   2
BRANCH   1  71
ATOM     71  C   UNL A   1      31.574  32.174  26.858  1.00  0.00     0.042 C 
BRANCH  71  72
ATOM     72  C   UNL A   1      31.711  30.808  26.200  1.00  0.00     0.117 C 
BRANCH  72  73
ATOM     73  N   UNL A   1      31.536  29.726  27.149  1.00  0.00    -0.356 N 
ATOM     74  C   UNL A   1      31.806  28.399  27.070  1.00  0.00     0.223 C 
ATOM     75  H   UNL A   1      31.150  30.006  28.011  1.00  0.00     0.163 HD
ATOM     76  O   UNL A   1      31.540  27.723  28.066  1.00  0.00    -0.275 OA
BRANCH  74  77
ATOM     77  C   UNL A   1      32.412  27.798  25.804  1.00  0.00     0.083 C 
ATOM     78  C   UNL A   1      32.314  26.251  25.850  1.00  0.00     0.020 C 
ATOM     79  C   UNL A   1      31.749  28.398  24.540  1.00  0.00     0.053 C 
ATOM     80  C   UNL A   1      30.882  25.690  25.728  1.00  0.00     0.057 C 
ATOM     81  C   UNL A   1      30.456  27.722  24.230  1.00  0.00     0.006 A 
ATOM     82  C   UNL A   1      30.101  26.510  24.774  1.00  0.00     0.039 A 
ATOM     83  C   UNL A   1      29.362  28.087  23.394  1.00  0.00     0.169 A 
ATOM     84  N   UNL A   1      28.837  26.252  24.353  1.00  0.00    -0.282 N 
ATOM     85  N   UNL A   1      28.380  27.159  23.474  1.00  0.00    -0.171 NA
ATOM     86  H   UNL A   1      28.309  25.480  24.659  1.00  0.00     0.190 HD
BRANCH  83  87
ATOM     87  C   UNL A   1      29.243  29.312  22.521  1.00  0.00     0.435 C 
ATOM     88  F   UNL A   1      29.167  30.463  23.244  1.00  0.00    -0.164 F 
ATOM     89  F   UNL A   1      30.295  29.444  21.671  1.00  0.00    -0.164 F 
ATOM     90  F   UNL A   1      28.123  29.277  21.747  1.00  0.00    -0.164 F 
ENDBRANCH  83  87
ENDBRANCH  74  77
ENDBRANCH  72  73
ENDBRANCH  71  72
ENDBRANCH   1  71
TORSDOF 14
ENDMDL
