MODEL 1
REMARK VINA RESULT:     -12.6      0.000      0.000
REMARK SMILES O=C(NCCCNC(=O)c1ccc(-c2c3nc(c(-c4cc(S(=O)(=O)[O-])ccc4F)c4ccc([nH]4)c(-c4cc(S(=O)(=O)[O-])ccc4F)c4nc(c(-c5cc(S(=O)(=O)[O-])ccc5F)c5ccc2[nH]5)C=C4)C=C3)cc1)C1=Cc2cc(S(F)(F)(F)(F)F)cc(Br)c2O[C@H]1C(F)(F)F
REMARK SMILES IDX 6 1 5 2 4 3 3 4 1 5 2 6 73 8 74 9 89 10 75 11 88 12 76 13
REMARK SMILES IDX 87 14 77 15 85 16 84 17 86 18 90 19 91 20 92 21 93 22 78 23
REMARK SMILES IDX 79 24 80 25 81 26 82 27 83 28 7 29 8 30 9 32 10 33 11 34
REMARK SMILES IDX 72 35 12 36 71 37 13 38 14 39 15 40 65 41 16 42 70 43 64 44
REMARK SMILES IDX 66 45 17 46 69 47 63 48 62 49 18 51 50 52 30 53 49 54 31 55
REMARK SMILES IDX 34 56 48 57 67 58 32 59 33 60 47 62 68 63 35 64 19 65 20 66
REMARK SMILES IDX 28 67 21 68 27 69 29 70 26 71 22 72 23 73 24 74 25 75 51 76
REMARK SMILES IDX 52 77 60 78 53 79 59 80 61 81 58 82 54 83 55 84 56 85 57 86
REMARK SMILES IDX 36 87 37 88 45 89 38 90 44 91 46 92 43 93 39 94 40 95 41 96
REMARK SMILES IDX 42 97
REMARK H PARENT 3 7 7 31 66 50 34 61
REMARK Flexibility Score: inf
ROOT
ATOM      1  C   UNL A   1      36.550  23.409  25.318  1.00  0.00     0.118 C 
ENDROOT
BRANCH   1   2
ATOM      2  C   UNL A   1      35.733  23.177  24.057  1.00  0.00     0.042 C 
BRANCH   2   3
ATOM      3  C   UNL A   1      34.797  24.353  23.836  1.00  0.00     0.118 C 
BRANCH   3   4
ATOM      4  N   UNL A   1      33.513  23.865  23.311  1.00  0.00    -0.352 N 
ATOM      5  O   UNL A   1      31.388  22.910  23.778  1.00  0.00    -0.270 OA
ATOM      6  C   UNL A   1      32.498  23.332  24.232  1.00  0.00     0.251 C 
ATOM      7  H   UNL A   1      33.332  23.895  22.344  1.00  0.00     0.163 HD
BRANCH   6   8
ATOM      8  C   UNL A   1      32.777  23.284  25.725  1.00  0.00     0.067 C 
ATOM      9  C   UNL A   1      32.798  24.435  26.450  1.00  0.00     0.025 C 
ATOM     10  C   UNL A   1      33.030  21.950  26.409  1.00  0.00     0.314 C 
ATOM     11  C   UNL A   1      32.543  25.768  25.767  1.00  0.00     0.020 A 
ATOM     12  O   UNL A   1      30.900  24.782  24.361  1.00  0.00    -0.474 OA
ATOM     13  C   UNL A   1      33.303  26.846  26.191  1.00  0.00     0.036 A 
ATOM     14  C   UNL A   1      31.552  25.924  24.897  1.00  0.00     0.142 A 
ATOM     15  C   UNL A   1      32.748  28.104  25.859  1.00  0.00     0.109 A 
ATOM     16  C   UNL A   1      31.151  27.181  24.512  1.00  0.00     0.062 A 
ATOM     17  C   UNL A   1      31.819  28.295  24.940  1.00  0.00     0.044 A 
ATOM     18  Br  UNL A   1      29.600  27.380  23.331  1.00  0.00    -0.047 Br
BRANCH  10  19
ATOM     19  C   UNL A   1      32.950  20.831  25.382  1.00  0.00     0.429 C 
ATOM     20  F   UNL A   1      33.790  21.070  24.380  1.00  0.00    -0.167 F 
ATOM     21  F   UNL A   1      33.302  19.706  25.998  1.00  0.00    -0.167 F 
ATOM     22  F   UNL A   1      31.714  20.709  24.905  1.00  0.00    -0.167 F 
ENDBRANCH  10  19
BRANCH  15  23
ATOM     23  S   UNL A   1      33.355  29.556  26.755  1.00  0.00     0.310 S 
ATOM     24  F   UNL A   1      33.934  28.662  27.930  1.00  0.00    -0.094 F 
ATOM     25  F   UNL A   1      31.994  29.595  27.548  1.00  0.00    -0.094 F 
ATOM     26  F   UNL A   1      33.874  30.801  27.529  1.00  0.00    -0.094 F 
ATOM     27  F   UNL A   1      34.763  29.416  26.052  1.00  0.00    -0.094 F 
ATOM     28  F   UNL A   1      32.885  28.224  26.045  1.00  0.00    -0.094 F 
ENDBRANCH  15  23
ENDBRANCH   6   8
ENDBRANCH   3   4
ENDBRANCH   2   3
ENDBRANCH   1   2
BRANCH   1  29
ATOM     29  N   UNL A   1      37.496  22.299  25.501  1.00  0.00    -0.352 N 
ATOM     30  C   UNL A   1      38.776  22.529  26.185  1.00  0.00     0.251 C 
ATOM     31  H   UNL A   1      37.271  21.401  25.165  1.00  0.00     0.163 HD
ATOM     32  O   UNL A   1      39.593  21.568  26.343  1.00  0.00    -0.269 OA
BRANCH  30  33
ATOM     33  C   UNL A   1      39.123  23.915  26.703  1.00  0.00     0.039 A 
ATOM     34  C   UNL A   1      39.715  24.835  25.854  1.00  0.00     0.014 A 
ATOM     35  C   UNL A   1      38.982  24.164  28.000  1.00  0.00     0.014 A 
ATOM     36  C   UNL A   1      40.392  25.881  26.525  1.00  0.00     0.010 A 
ATOM     37  C   UNL A   1      39.557  25.278  28.564  1.00  0.00     0.010 A 
ATOM     38  C   UNL A   1      40.208  26.200  27.793  1.00  0.00    -0.014 A 
BRANCH  38  39
ATOM     39  C   UNL A   1      40.696  27.521  28.365  1.00  0.00     0.031 A 
ATOM     40  C   UNL A   1      42.074  27.737  28.376  1.00  0.00     0.074 A 
ATOM     41  C   UNL A   1      39.759  28.476  28.725  1.00  0.00     0.049 A 
ATOM     42  N   UNL A   1      42.719  28.863  28.687  1.00  0.00    -0.248 NA
ATOM     43  C   UNL A   1      43.072  26.714  28.027  1.00  0.00     0.031 C 
ATOM     44  C   UNL A   1      38.367  28.268  28.709  1.00  0.00     0.029 A 
ATOM     45  N   UNL A   1      39.988  29.764  29.153  1.00  0.00    -0.354 N 
ATOM     46  C   UNL A   1      44.037  28.689  28.563  1.00  0.00     0.074 A 
ATOM     47  C   UNL A   1      44.283  27.303  28.142  1.00  0.00     0.031 C 
ATOM     48  C   UNL A   1      37.765  29.410  29.132  1.00  0.00     0.029 A 
ATOM     49  C   UNL A   1      38.772  30.352  29.420  1.00  0.00     0.049 A 
ATOM     50  H   UNL A   1      40.870  30.191  29.253  1.00  0.00     0.167 HD
ATOM     51  C   UNL A   1      45.042  29.632  28.781  1.00  0.00     0.034 A 
ATOM     52  C   UNL A   1      38.532  31.633  29.890  1.00  0.00     0.034 A 
ATOM     53  C   UNL A   1      44.800  30.928  29.209  1.00  0.00     0.049 A 
ATOM     54  C   UNL A   1      39.543  32.559  30.164  1.00  0.00     0.074 A 
ATOM     55  C   UNL A   1      45.801  31.893  29.426  1.00  0.00     0.029 A 
ATOM     56  N   UNL A   1      43.585  31.507  29.500  1.00  0.00    -0.354 N 
ATOM     57  N   UNL A   1      40.856  32.397  30.002  1.00  0.00    -0.248 NA
ATOM     58  C   UNL A   1      39.303  33.908  30.693  1.00  0.00     0.031 C 
ATOM     59  C   UNL A   1      45.199  33.037  29.851  1.00  0.00     0.029 A 
ATOM     60  C   UNL A   1      43.812  32.803  29.907  1.00  0.00     0.049 A 
ATOM     61  H   UNL A   1      42.705  31.071  29.427  1.00  0.00     0.167 HD
ATOM     62  C   UNL A   1      41.503  33.510  30.354  1.00  0.00     0.074 A 
ATOM     63  C   UNL A   1      40.513  34.496  30.810  1.00  0.00     0.031 C 
ATOM     64  C   UNL A   1      42.878  33.746  30.309  1.00  0.00     0.034 A 
BRANCH  51  65
ATOM     65  C   UNL A   1      46.483  29.215  28.536  1.00  0.00     0.023 A 
ATOM     66  C   UNL A   1      46.999  29.176  27.251  1.00  0.00     0.031 A 
ATOM     67  C   UNL A   1      47.217  28.862  29.585  1.00  0.00     0.131 A 
ATOM     68  C   UNL A   1      48.222  28.469  27.146  1.00  0.00     0.055 A 
ATOM     69  C   UNL A   1      48.460  28.303  29.412  1.00  0.00     0.041 A 
ATOM     70  F   UNL A   1      46.746  29.054  30.813  1.00  0.00    -0.206 F 
ATOM     71  C   UNL A   1      49.008  28.179  28.166  1.00  0.00     0.022 A 
BRANCH  68  72
ATOM     72  S   UNL A   1      48.741  27.926  25.499  1.00  0.00     0.124 S 
ATOM     73  O   UNL A   1      50.077  28.584  25.142  1.00  0.00    -0.237 OA
ATOM     74  O   UNL A   1      48.904  26.405  25.492  1.00  0.00    -0.237 OA
ATOM     75  O   UNL A   1      47.558  28.380  24.351  1.00  0.00    -0.744 OA
ENDBRANCH  68  72
ENDBRANCH  51  65
BRANCH  52  76
ATOM     76  C   UNL A   1      37.090  32.057  30.119  1.00  0.00     0.023 A 
ATOM     77  C   UNL A   1      36.339  32.597  29.089  1.00  0.00     0.031 A 
ATOM     78  C   UNL A   1      36.571  31.866  31.326  1.00  0.00     0.131 A 
ATOM     79  C   UNL A   1      35.120  33.178  29.514  1.00  0.00     0.055 A 
ATOM     80  C   UNL A   1      35.318  32.342  31.630  1.00  0.00     0.041 A 
ATOM     81  F   UNL A   1      37.268  31.208  32.248  1.00  0.00    -0.206 F 
ATOM     82  C   UNL A   1      34.542  32.941  30.677  1.00  0.00     0.022 A 
BRANCH  79  83
ATOM     83  S   UNL A   1      34.296  34.326  28.383  1.00  0.00     0.124 S 
ATOM     84  O   UNL A   1      34.131  35.686  29.067  1.00  0.00    -0.237 OA
ATOM     85  O   UNL A   1      35.142  34.492  27.118  1.00  0.00    -0.237 OA
ATOM     86  O   UNL A   1      32.758  33.709  27.964  1.00  0.00    -0.744 OA
ENDBRANCH  79  83
ENDBRANCH  52  76
BRANCH  64  87
ATOM     87  C   UNL A   1      43.383  35.117  30.726  1.00  0.00     0.023 A 
ATOM     88  C   UNL A   1      43.532  35.414  32.071  1.00  0.00     0.031 A 
ATOM     89  C   UNL A   1      43.581  36.039  29.791  1.00  0.00     0.131 A 
ATOM     90  C   UNL A   1      43.613  36.800  32.347  1.00  0.00     0.055 A 
ATOM     91  C   UNL A   1      43.789  37.352  30.137  1.00  0.00     0.041 A 
ATOM     92  F   UNL A   1      43.578  35.688  28.508  1.00  0.00    -0.206 F 
ATOM     93  C   UNL A   1      43.889  37.727  31.448  1.00  0.00     0.022 A 
BRANCH  90  94
ATOM     94  S   UNL A   1      43.318  37.337  34.049  1.00  0.00     0.124 S 
ATOM     95  O   UNL A   1      42.221  36.472  34.674  1.00  0.00    -0.237 OA
ATOM     96  O   UNL A   1      44.607  37.193  34.861  1.00  0.00    -0.237 OA
ATOM     97  O   UNL A   1      42.823  38.975  34.052  1.00  0.00    -0.744 OA
ENDBRANCH  90  94
ENDBRANCH  64  87
ENDBRANCH  38  39
ENDBRANCH  30  33
ENDBRANCH   1  29
TORSDOF 15
ENDMDL
MODEL 2
REMARK VINA RESULT:     -12.5      1.828      7.541
REMARK SMILES O=C(NCCCNC(=O)c1ccc(-c2c3nc(c(-c4cc(S(=O)(=O)[O-])ccc4F)c4ccc([nH]4)c(-c4cc(S(=O)(=O)[O-])ccc4F)c4nc(c(-c5cc(S(=O)(=O)[O-])ccc5F)c5ccc2[nH]5)C=C4)C=C3)cc1)C1=Cc2cc(S(F)(F)(F)(F)F)cc(Br)c2O[C@H]1C(F)(F)F
REMARK SMILES IDX 6 1 5 2 4 3 3 4 1 5 2 6 73 8 74 9 89 10 75 11 88 12 76 13
REMARK SMILES IDX 87 14 77 15 85 16 84 17 86 18 90 19 91 20 92 21 93 22 78 23
REMARK SMILES IDX 79 24 80 25 81 26 82 27 83 28 7 29 8 30 9 32 10 33 11 34
REMARK SMILES IDX 72 35 12 36 71 37 13 38 14 39 15 40 65 41 16 42 70 43 64 44
REMARK SMILES IDX 66 45 17 46 69 47 63 48 62 49 18 51 50 52 30 53 49 54 31 55
REMARK SMILES IDX 34 56 48 57 67 58 32 59 33 60 47 62 68 63 35 64 19 65 20 66
REMARK SMILES IDX 28 67 21 68 27 69 29 70 26 71 22 72 23 73 24 74 25 75 51 76
REMARK SMILES IDX 52 77 60 78 53 79 59 80 61 81 58 82 54 83 55 84 56 85 57 86
REMARK SMILES IDX 36 87 37 88 45 89 38 90 44 91 46 92 43 93 39 94 40 95 41 96
REMARK SMILES IDX 42 97
REMARK H PARENT 3 7 7 31 66 50 34 61
REMARK Flexibility Score: inf
ROOT
ATOM      1  C   UNL A   1      36.737  23.097  25.902  1.00  0.00     0.118 C 
ENDROOT
BRANCH   1   2
ATOM      2  C   UNL A   1      36.171  23.045  24.492  1.00  0.00     0.042 C 
BRANCH   2   3
ATOM      3  C   UNL A   1      35.278  24.252  24.259  1.00  0.00     0.118 C 
BRANCH   3   4
ATOM      4  N   UNL A   1      34.127  23.858  23.434  1.00  0.00    -0.352 N 
ATOM      5  O   UNL A   1      31.892  23.055  23.361  1.00  0.00    -0.270 OA
ATOM      6  C   UNL A   1      32.888  23.395  24.074  1.00  0.00     0.251 C 
ATOM      7  H   UNL A   1      34.186  23.905  22.452  1.00  0.00     0.163 HD
BRANCH   6   8
ATOM      8  C   UNL A   1      32.797  23.323  25.590  1.00  0.00     0.067 C 
ATOM      9  C   UNL A   1      32.700  24.465  26.321  1.00  0.00     0.025 C 
ATOM     10  C   UNL A   1      32.812  21.973  26.288  1.00  0.00     0.314 C 
ATOM     11  C   UNL A   1      32.683  25.815  25.622  1.00  0.00     0.020 A 
ATOM     12  O   UNL A   1      31.379  24.927  23.845  1.00  0.00    -0.474 OA
ATOM     13  C   UNL A   1      33.371  26.848  26.238  1.00  0.00     0.036 A 
ATOM     14  C   UNL A   1      31.939  26.030  24.544  1.00  0.00     0.142 A 
ATOM     15  C   UNL A   1      32.975  28.137  25.807  1.00  0.00     0.109 A 
ATOM     16  C   UNL A   1      31.705  27.309  24.099  1.00  0.00     0.062 A 
ATOM     17  C   UNL A   1      32.305  28.383  24.696  1.00  0.00     0.044 A 
ATOM     18  Br  UNL A   1      30.494  27.597  22.585  1.00  0.00    -0.047 Br
BRANCH  10  19
ATOM     19  C   UNL A   1      32.926  20.866  25.251  1.00  0.00     0.429 C 
ATOM     20  F   UNL A   1      33.946  21.109  24.433  1.00  0.00    -0.167 F 
ATOM     21  F   UNL A   1      33.143  19.731  25.907  1.00  0.00    -0.167 F 
ATOM     22  F   UNL A   1      31.805  20.761  24.541  1.00  0.00    -0.167 F 
ENDBRANCH  10  19
BRANCH  15  23
ATOM     23  S   UNL A   1      33.421  29.547  26.851  1.00  0.00     0.310 S 
ATOM     24  F   UNL A   1      33.740  28.607  28.088  1.00  0.00    -0.094 F 
ATOM     25  F   UNL A   1      31.931  29.598  27.361  1.00  0.00    -0.094 F 
ATOM     26  F   UNL A   1      33.800  30.758  27.750  1.00  0.00    -0.094 F 
ATOM     27  F   UNL A   1      34.937  29.392  26.435  1.00  0.00    -0.094 F 
ATOM     28  F   UNL A   1      33.075  28.248  26.020  1.00  0.00    -0.094 F 
ENDBRANCH  15  23
ENDBRANCH   6   8
ENDBRANCH   3   4
ENDBRANCH   2   3
ENDBRANCH   1   2
BRANCH   1  29
ATOM     29  N   UNL A   1      37.815  22.107  26.034  1.00  0.00    -0.352 N 
ATOM     30  C   UNL A   1      39.145  22.527  26.499  1.00  0.00     0.251 C 
ATOM     31  H   UNL A   1      37.647  21.163  25.811  1.00  0.00     0.163 HD
ATOM     32  O   UNL A   1      40.077  21.670  26.613  1.00  0.00    -0.269 OA
BRANCH  30  33
ATOM     33  C   UNL A   1      39.405  23.984  26.844  1.00  0.00     0.039 A 
ATOM     34  C   UNL A   1      39.888  24.842  25.870  1.00  0.00     0.014 A 
ATOM     35  C   UNL A   1      39.300  24.368  28.110  1.00  0.00     0.014 A 
ATOM     36  C   UNL A   1      40.510  26.003  26.386  1.00  0.00     0.010 A 
ATOM     37  C   UNL A   1      39.810  25.576  28.519  1.00  0.00     0.010 A 
ATOM     38  C   UNL A   1      40.356  26.450  27.619  1.00  0.00    -0.014 A 
BRANCH  38  39
ATOM     39  C   UNL A   1      40.763  27.859  28.017  1.00  0.00     0.031 A 
ATOM     40  C   UNL A   1      39.745  28.724  28.418  1.00  0.00     0.074 A 
ATOM     41  C   UNL A   1      42.112  28.168  28.079  1.00  0.00     0.049 A 
ATOM     42  N   UNL A   1      39.873  29.943  28.946  1.00  0.00    -0.248 NA
ATOM     43  C   UNL A   1      38.311  28.411  28.321  1.00  0.00     0.031 C 
ATOM     44  C   UNL A   1      43.146  27.298  27.685  1.00  0.00     0.029 A 
ATOM     45  N   UNL A   1      42.691  29.338  28.520  1.00  0.00    -0.354 N 
ATOM     46  C   UNL A   1      38.671  30.456  29.219  1.00  0.00     0.074 A 
ATOM     47  C   UNL A   1      37.649  29.480  28.816  1.00  0.00     0.031 C 
ATOM     48  C   UNL A   1      44.330  27.937  27.873  1.00  0.00     0.029 A 
ATOM     49  C   UNL A   1      44.057  29.218  28.389  1.00  0.00     0.049 A 
ATOM     50  H   UNL A   1      42.211  30.124  28.867  1.00  0.00     0.167 HD
ATOM     51  C   UNL A   1      38.387  31.697  29.791  1.00  0.00     0.034 A 
ATOM     52  C   UNL A   1      45.025  30.161  28.695  1.00  0.00     0.034 A 
ATOM     53  C   UNL A   1      39.359  32.623  30.139  1.00  0.00     0.049 A 
ATOM     54  C   UNL A   1      44.738  31.426  29.214  1.00  0.00     0.074 A 
ATOM     55  C   UNL A   1      39.091  33.875  30.723  1.00  0.00     0.029 A 
ATOM     56  N   UNL A   1      40.723  32.513  29.984  1.00  0.00    -0.354 N 
ATOM     57  N   UNL A   1      43.539  31.922  29.524  1.00  0.00    -0.248 NA
ATOM     58  C   UNL A   1      45.753  32.445  29.511  1.00  0.00     0.031 C 
ATOM     59  C   UNL A   1      40.276  34.515  30.910  1.00  0.00     0.029 A 
ATOM     60  C   UNL A   1      41.304  33.673  30.445  1.00  0.00     0.049 A 
ATOM     61  H   UNL A   1      41.201  31.737  29.610  1.00  0.00     0.167 HD
ATOM     62  C   UNL A   1      43.666  33.158  30.012  1.00  0.00     0.074 A 
ATOM     63  C   UNL A   1      45.091  33.515  30.004  1.00  0.00     0.031 C 
ATOM     64  C   UNL A   1      42.651  34.001  30.468  1.00  0.00     0.034 A 
BRANCH  51  65
ATOM     65  C   UNL A   1      36.933  32.053  30.048  1.00  0.00     0.023 A 
ATOM     66  C   UNL A   1      36.165  32.647  29.059  1.00  0.00     0.031 A 
ATOM     67  C   UNL A   1      36.433  31.806  31.253  1.00  0.00     0.131 A 
ATOM     68  C   UNL A   1      34.957  33.211  29.533  1.00  0.00     0.055 A 
ATOM     69  C   UNL A   1      35.188  32.271  31.603  1.00  0.00     0.041 A 
ATOM     70  F   UNL A   1      37.143  31.101  32.128  1.00  0.00    -0.206 F 
ATOM     71  C   UNL A   1      34.399  32.919  30.694  1.00  0.00     0.022 A 
BRANCH  68  72
ATOM     72  S   UNL A   1      34.119  34.418  28.475  1.00  0.00     0.124 S 
ATOM     73  O   UNL A   1      33.920  35.724  29.249  1.00  0.00    -0.237 OA
ATOM     74  O   UNL A   1      34.972  34.685  27.233  1.00  0.00    -0.237 OA
ATOM     75  O   UNL A   1      32.597  33.799  28.001  1.00  0.00    -0.744 OA
ENDBRANCH  68  72
ENDBRANCH  51  65
BRANCH  52  76
ATOM     76  C   UNL A   1      46.481  29.799  28.454  1.00  0.00     0.023 A 
ATOM     77  C   UNL A   1      47.218  29.141  29.424  1.00  0.00     0.031 A 
ATOM     78  C   UNL A   1      47.012  30.108  27.277  1.00  0.00     0.131 A 
ATOM     79  C   UNL A   1      48.609  29.108  29.163  1.00  0.00     0.055 A 
ATOM     80  C   UNL A   1      48.354  29.922  27.045  1.00  0.00     0.041 A 
ATOM     81  F   UNL A   1      46.240  30.602  26.313  1.00  0.00    -0.206 F 
ATOM     82  C   UNL A   1      49.155  29.332  27.983  1.00  0.00     0.022 A 
BRANCH  79  83
ATOM     83  S   UNL A   1      49.715  28.731  30.545  1.00  0.00     0.124 S 
ATOM     84  O   UNL A   1      50.771  29.832  30.669  1.00  0.00    -0.237 OA
ATOM     85  O   UNL A   1      48.905  28.654  31.842  1.00  0.00    -0.237 OA
ATOM     86  O   UNL A   1      50.487  27.231  30.265  1.00  0.00    -0.744 OA
ENDBRANCH  79  83
ENDBRANCH  52  76
BRANCH  64  87
ATOM     87  C   UNL A   1      43.045  35.360  31.022  1.00  0.00     0.023 A 
ATOM     88  C   UNL A   1      43.243  36.423  30.155  1.00  0.00     0.031 A 
ATOM     89  C   UNL A   1      43.285  35.478  32.322  1.00  0.00     0.131 A 
ATOM     90  C   UNL A   1      43.978  37.493  30.719  1.00  0.00     0.055 A 
ATOM     91  C   UNL A   1      43.883  36.608  32.824  1.00  0.00     0.041 A 
ATOM     92  F   UNL A   1      42.944  34.491  33.147  1.00  0.00    -0.206 F 
ATOM     93  C   UNL A   1      44.161  37.674  32.014  1.00  0.00     0.022 A 
BRANCH  90  94
ATOM     94  S   UNL A   1      44.717  38.695  29.587  1.00  0.00     0.124 S 
ATOM     95  O   UNL A   1      43.886  38.767  28.305  1.00  0.00    -0.237 OA
ATOM     96  O   UNL A   1      44.748  40.072  30.253  1.00  0.00    -0.237 OA
ATOM     97  O   UNL A   1      46.313  38.211  29.205  1.00  0.00    -0.744 OA
ENDBRANCH  90  94
ENDBRANCH  64  87
ENDBRANCH  38  39
ENDBRANCH  30  33
ENDBRANCH   1  29
TORSDOF 15
ENDMDL
MODEL 3
REMARK VINA RESULT:     -12.5      4.024      9.396
REMARK SMILES O=C(NCCCNC(=O)c1ccc(-c2c3nc(c(-c4cc(S(=O)(=O)[O-])ccc4F)c4ccc([nH]4)c(-c4cc(S(=O)(=O)[O-])ccc4F)c4nc(c(-c5cc(S(=O)(=O)[O-])ccc5F)c5ccc2[nH]5)C=C4)C=C3)cc1)C1=Cc2cc(S(F)(F)(F)(F)F)cc(Br)c2O[C@H]1C(F)(F)F
REMARK SMILES IDX 6 1 5 2 4 3 3 4 1 5 2 6 73 8 74 9 89 10 75 11 88 12 76 13
REMARK SMILES IDX 87 14 77 15 85 16 84 17 86 18 90 19 91 20 92 21 93 22 78 23
REMARK SMILES IDX 79 24 80 25 81 26 82 27 83 28 7 29 8 30 9 32 10 33 11 34
REMARK SMILES IDX 72 35 12 36 71 37 13 38 14 39 15 40 65 41 16 42 70 43 64 44
REMARK SMILES IDX 66 45 17 46 69 47 63 48 62 49 18 51 50 52 30 53 49 54 31 55
REMARK SMILES IDX 34 56 48 57 67 58 32 59 33 60 47 62 68 63 35 64 19 65 20 66
REMARK SMILES IDX 28 67 21 68 27 69 29 70 26 71 22 72 23 73 24 74 25 75 51 76
REMARK SMILES IDX 52 77 60 78 53 79 59 80 61 81 58 82 54 83 55 84 56 85 57 86
REMARK SMILES IDX 36 87 37 88 45 89 38 90 44 91 46 92 43 93 39 94 40 95 41 96
REMARK SMILES IDX 42 97
REMARK H PARENT 3 7 7 31 66 50 34 61
REMARK Flexibility Score: inf
ROOT
ATOM      1  C   UNL A   1      33.323  28.341  26.748  1.00  0.00     0.118 C 
ENDROOT
BRANCH   1   2
ATOM      2  C   UNL A   1      31.994  27.609  26.652  1.00  0.00     0.042 C 
BRANCH   2   3
ATOM      3  C   UNL A   1      32.244  26.138  26.364  1.00  0.00     0.118 C 
BRANCH   3   4
ATOM      4  N   UNL A   1      31.191  25.627  25.476  1.00  0.00    -0.352 N 
ATOM      5  O   UNL A   1      30.364  25.417  23.258  1.00  0.00    -0.270 OA
ATOM      6  C   UNL A   1      31.275  25.859  24.026  1.00  0.00     0.251 C 
ATOM      7  H   UNL A   1      30.429  25.128  25.850  1.00  0.00     0.163 HD
BRANCH   6   8
ATOM      8  C   UNL A   1      32.451  26.628  23.447  1.00  0.00     0.067 C 
ATOM      9  C   UNL A   1      33.680  26.050  23.391  1.00  0.00     0.025 C 
ATOM     10  C   UNL A   1      32.251  28.044  22.930  1.00  0.00     0.314 C 
ATOM     11  C   UNL A   1      33.879  24.635  23.906  1.00  0.00     0.020 A 
ATOM     12  O   UNL A   1      31.755  23.983  23.063  1.00  0.00    -0.474 OA
ATOM     13  C   UNL A   1      35.060  24.374  24.583  1.00  0.00     0.036 A 
ATOM     14  C   UNL A   1      33.025  23.662  23.611  1.00  0.00     0.142 A 
ATOM     15  C   UNL A   1      35.389  22.999  24.651  1.00  0.00     0.109 A 
ATOM     16  C   UNL A   1      33.359  22.347  23.831  1.00  0.00     0.062 A 
ATOM     17  C   UNL A   1      34.536  22.013  24.441  1.00  0.00     0.044 A 
ATOM     18  Br  UNL A   1      32.130  20.931  23.261  1.00  0.00    -0.047 Br
BRANCH  10  19
ATOM     19  C   UNL A   1      30.797  28.449  23.108  1.00  0.00     0.429 C 
ATOM     20  F   UNL A   1      30.438  28.319  24.382  1.00  0.00    -0.167 F 
ATOM     21  F   UNL A   1      30.695  29.724  22.746  1.00  0.00    -0.167 F 
ATOM     22  F   UNL A   1      29.998  27.706  22.345  1.00  0.00    -0.167 F 
ENDBRANCH  10  19
BRANCH  15  23
ATOM     23  S   UNL A   1      37.099  22.562  25.056  1.00  0.00     0.310 S 
ATOM     24  F   UNL A   1      37.571  24.072  24.957  1.00  0.00    -0.094 F 
ATOM     25  F   UNL A   1      37.398  22.438  23.514  1.00  0.00    -0.094 F 
ATOM     26  F   UNL A   1      38.568  22.188  25.400  1.00  0.00    -0.094 F 
ATOM     27  F   UNL A   1      36.816  22.827  26.588  1.00  0.00    -0.094 F 
ATOM     28  F   UNL A   1      35.635  23.053  24.717  1.00  0.00    -0.094 F 
ENDBRANCH  15  23
ENDBRANCH   6   8
ENDBRANCH   3   4
ENDBRANCH   2   3
ENDBRANCH   1   2
BRANCH   1  29
ATOM     29  N   UNL A   1      33.079  29.777  26.942  1.00  0.00    -0.352 N 
ATOM     30  C   UNL A   1      34.111  30.620  27.562  1.00  0.00     0.251 C 
ATOM     31  H   UNL A   1      32.224  30.174  26.658  1.00  0.00     0.163 HD
ATOM     32  O   UNL A   1      33.899  31.862  27.730  1.00  0.00    -0.269 OA
BRANCH  30  33
ATOM     33  C   UNL A   1      35.430  30.008  28.002  1.00  0.00     0.039 A 
ATOM     34  C   UNL A   1      35.548  29.476  29.275  1.00  0.00     0.014 A 
ATOM     35  C   UNL A   1      36.485  30.126  27.204  1.00  0.00     0.014 A 
ATOM     36  C   UNL A   1      36.884  29.361  29.727  1.00  0.00     0.010 A 
ATOM     37  C   UNL A   1      37.750  29.866  27.674  1.00  0.00     0.010 A 
ATOM     38  C   UNL A   1      37.945  29.394  28.943  1.00  0.00    -0.014 A 
BRANCH  38  39
ATOM     39  C   UNL A   1      39.311  28.933  29.424  1.00  0.00     0.031 A 
ATOM     40  C   UNL A   1      39.865  29.616  30.508  1.00  0.00     0.074 A 
ATOM     41  C   UNL A   1      39.871  27.802  28.853  1.00  0.00     0.049 A 
ATOM     42  N   UNL A   1      40.968  29.301  31.190  1.00  0.00    -0.248 NA
ATOM     43  C   UNL A   1      39.291  30.837  31.094  1.00  0.00     0.031 C 
ATOM     44  C   UNL A   1      39.314  27.103  27.765  1.00  0.00     0.029 A 
ATOM     45  N   UNL A   1      41.033  27.159  29.216  1.00  0.00    -0.354 N 
ATOM     46  C   UNL A   1      41.169  30.182  32.173  1.00  0.00     0.074 A 
ATOM     47  C   UNL A   1      40.097  31.185  32.122  1.00  0.00     0.031 C 
ATOM     48  C   UNL A   1      40.134  26.062  27.469  1.00  0.00     0.029 A 
ATOM     49  C   UNL A   1      41.217  26.091  28.367  1.00  0.00     0.049 A 
ATOM     50  H   UNL A   1      41.630  27.419  29.955  1.00  0.00     0.167 HD
ATOM     51  C   UNL A   1      42.202  30.186  33.111  1.00  0.00     0.034 A 
ATOM     52  C   UNL A   1      42.265  25.184  28.358  1.00  0.00     0.034 A 
ATOM     53  C   UNL A   1      43.226  29.252  33.130  1.00  0.00     0.049 A 
ATOM     54  C   UNL A   1      43.331  25.222  29.262  1.00  0.00     0.074 A 
ATOM     55  C   UNL A   1      44.271  29.238  34.074  1.00  0.00     0.029 A 
ATOM     56  N   UNL A   1      43.424  28.199  32.265  1.00  0.00    -0.354 N 
ATOM     57  N   UNL A   1      43.509  26.079  30.268  1.00  0.00    -0.248 NA
ATOM     58  C   UNL A   1      44.462  24.286  29.242  1.00  0.00     0.031 C 
ATOM     59  C   UNL A   1      45.093  28.195  33.776  1.00  0.00     0.029 A 
ATOM     60  C   UNL A   1      44.575  27.542  32.642  1.00  0.00     0.049 A 
ATOM     61  H   UNL A   1      42.842  27.957  31.509  1.00  0.00     0.167 HD
ATOM     62  C   UNL A   1      44.635  25.789  30.924  1.00  0.00     0.074 A 
ATOM     63  C   UNL A   1      45.268  24.636  30.268  1.00  0.00     0.031 C 
ATOM     64  C   UNL A   1      45.158  26.436  32.044  1.00  0.00     0.034 A 
BRANCH  51  65
ATOM     65  C   UNL A   1      42.204  31.275  34.172  1.00  0.00     0.023 A 
ATOM     66  C   UNL A   1      41.388  31.177  35.287  1.00  0.00     0.031 A 
ATOM     67  C   UNL A   1      42.987  32.330  33.981  1.00  0.00     0.131 A 
ATOM     68  C   UNL A   1      41.252  32.389  36.006  1.00  0.00     0.055 A 
ATOM     69  C   UNL A   1      42.896  33.426  34.805  1.00  0.00     0.041 A 
ATOM     70  F   UNL A   1      43.866  32.326  32.984  1.00  0.00    -0.206 F 
ATOM     71  C   UNL A   1      42.066  33.422  35.891  1.00  0.00     0.022 A 
BRANCH  68  72
ATOM     72  S   UNL A   1      39.866  32.532  37.160  1.00  0.00     0.124 S 
ATOM     73  O   UNL A   1      38.887  31.378  36.929  1.00  0.00    -0.237 OA
ATOM     74  O   UNL A   1      40.391  32.475  38.597  1.00  0.00    -0.237 OA
ATOM     75  O   UNL A   1      39.063  34.019  36.905  1.00  0.00    -0.744 OA
ENDBRANCH  68  72
ENDBRANCH  51  65
BRANCH  52  76
ATOM     76  C   UNL A   1      42.255  24.085  27.308  1.00  0.00     0.023 A 
ATOM     77  C   UNL A   1      41.554  22.910  27.520  1.00  0.00     0.031 A 
ATOM     78  C   UNL A   1      42.915  24.300  26.176  1.00  0.00     0.131 A 
ATOM     79  C   UNL A   1      41.850  21.890  26.583  1.00  0.00     0.055 A 
ATOM     80  C   UNL A   1      43.049  23.299  25.244  1.00  0.00     0.041 A 
ATOM     81  F   UNL A   1      43.450  25.495  25.942  1.00  0.00    -0.206 F 
ATOM     82  C   UNL A   1      42.432  22.091  25.416  1.00  0.00     0.022 A 
BRANCH  79  83
ATOM     83  S   UNL A   1      41.397  20.192  27.017  1.00  0.00     0.124 S 
ATOM     84  O   UNL A   1      42.650  19.313  27.012  1.00  0.00    -0.237 OA
ATOM     85  O   UNL A   1      40.767  20.172  28.412  1.00  0.00    -0.237 OA
ATOM     86  O   UNL A   1      40.275  19.591  25.876  1.00  0.00    -0.744 OA
ENDBRANCH  79  83
ENDBRANCH  52  76
BRANCH  64  87
ATOM     87  C   UNL A   1      46.445  25.896  32.645  1.00  0.00     0.023 A 
ATOM     88  C   UNL A   1      47.659  26.186  32.043  1.00  0.00     0.031 A 
ATOM     89  C   UNL A   1      46.373  25.076  33.687  1.00  0.00     0.131 A 
ATOM     90  C   UNL A   1      48.714  25.328  32.435  1.00  0.00     0.055 A 
ATOM     91  C   UNL A   1      47.476  24.371  34.101  1.00  0.00     0.041 A 
ATOM     92  F   UNL A   1      45.220  24.936  34.335  1.00  0.00    -0.206 F 
ATOM     93  C   UNL A   1      48.695  24.563  33.511  1.00  0.00     0.022 A 
BRANCH  90  94
ATOM     94  S   UNL A   1      50.189  25.274  31.389  1.00  0.00     0.124 S 
ATOM     95  O   UNL A   1      50.983  24.002  31.691  1.00  0.00    -0.237 OA
ATOM     96  O   UNL A   1      49.770  25.277  29.917  1.00  0.00    -0.237 OA
ATOM     97  O   UNL A   1      51.164  26.643  31.707  1.00  0.00    -0.744 OA
ENDBRANCH  90  94
ENDBRANCH  64  87
ENDBRANCH  38  39
ENDBRANCH  30  33
ENDBRANCH   1  29
TORSDOF 15
ENDMDL
