MODEL 1
REMARK VINA RESULT:     -13.9      0.000      0.000
REMARK SMILES Cc1ccc(-c2cc(C(=O)NCCCNC(=O)c3ccc(-c4c5nc(c(-c6cc(S(=O)(=O)[O-])ccc6F)c6ccc([nH]6)c(-c6cc(S(=O)(=O)[O-])ccc6F)c6nc(c(-c7cc(S(=O)(=O)[O-])ccc7F)c7ccc4[nH]7)C=C6)C=C5)cc3)c3cc(C)ccc3n2)c(C)c1
REMARK SMILES IDX 14 1 13 2 12 3 11 4 9 5 10 6 8 8 6 9 7 10 88 11 87 12 81 13
REMARK SMILES IDX 86 14 82 15 85 16 83 17 84 18 5 19 1 20 2 21 3 22 91 23 4 24
REMARK SMILES IDX 89 25 90 26 15 27 16 28 17 30 18 31 19 32 80 33 20 34 79 35
REMARK SMILES IDX 21 36 22 37 23 38 73 39 24 40 78 41 72 42 74 43 25 44 77 45
REMARK SMILES IDX 71 46 70 47 26 49 58 50 38 51 57 52 39 53 42 54 56 55 75 56
REMARK SMILES IDX 40 57 41 58 55 60 76 61 43 62 27 63 28 64 36 65 29 66 35 67
REMARK SMILES IDX 37 68 34 69 30 70 31 71 32 72 33 73 59 74 60 75 68 76 61 77
REMARK SMILES IDX 67 78 69 79 66 80 62 81 63 82 64 83 65 84 44 85 45 86 53 87
REMARK SMILES IDX 46 88 52 89 54 90 51 91 47 92 48 93 49 94 50 95
REMARK H PARENT 11 7 15 29 74 48 42 59
REMARK Flexibility Score: inf
ROOT
ATOM      1  C   UNL A   1      37.035  21.503  24.869  1.00  0.00     0.118 C 
ENDROOT
BRANCH   1   2
ATOM      2  C   UNL A   1      35.783  21.518  25.737  1.00  0.00     0.042 C 
BRANCH   2   3
ATOM      3  C   UNL A   1      35.427  22.871  26.324  1.00  0.00     0.118 C 
BRANCH   3   4
ATOM      4  N   UNL A   1      34.301  22.897  27.249  1.00  0.00    -0.352 N 
ATOM      5  C   UNL A   1      32.941  22.873  27.016  1.00  0.00     0.252 C 
ATOM      6  O   UNL A   1      32.186  22.821  27.987  1.00  0.00    -0.269 OA
ATOM      7  H   UNL A   1      34.552  22.940  28.199  1.00  0.00     0.163 HD
BRANCH   5   8
ATOM      8  C   UNL A   1      32.343  23.013  25.657  1.00  0.00     0.051 A 
ATOM      9  C   UNL A   1      31.524  24.539  24.006  1.00  0.00     0.072 A 
ATOM     10  C   UNL A   1      31.977  24.314  25.294  1.00  0.00     0.043 A 
ATOM     11  N   UNL A   1      31.549  23.573  23.058  1.00  0.00    -0.248 NA
ATOM     12  C   UNL A   1      31.882  22.322  23.410  1.00  0.00     0.072 A 
ATOM     13  C   UNL A   1      32.161  21.958  24.737  1.00  0.00     0.013 A 
ATOM     14  C   UNL A   1      31.967  21.348  22.424  1.00  0.00     0.029 A 
ATOM     15  C   UNL A   1      32.262  20.584  25.048  1.00  0.00     0.014 A 
ATOM     16  C   UNL A   1      32.291  20.022  22.723  1.00  0.00     0.005 A 
ATOM     17  C   UNL A   1      32.416  19.623  24.049  1.00  0.00    -0.050 A 
ATOM     18  C   UNL A   1      32.867  18.238  24.409  1.00  0.00     0.044 C 
BRANCH   9  19
ATOM     19  C   UNL A   1      30.904  25.808  23.602  1.00  0.00     0.003 A 
ATOM     20  C   UNL A   1      29.039  29.550  22.448  1.00  0.00     0.044 C 
ATOM     21  C   UNL A   1      29.666  28.248  22.847  1.00  0.00    -0.051 A 
ATOM     22  C   UNL A   1      28.953  27.283  23.560  1.00  0.00     0.004 A 
ATOM     23  C   UNL A   1      30.998  27.989  22.507  1.00  0.00     0.007 A 
ATOM     24  C   UNL A   1      29.564  26.081  23.933  1.00  0.00     0.011 A 
ATOM     25  C   UNL A   1      31.622  26.778  22.863  1.00  0.00    -0.041 A 
ATOM     26  C   UNL A   1      33.065  26.596  22.467  1.00  0.00     0.045 C 
ENDBRANCH   9  19
ENDBRANCH   5   8
ENDBRANCH   3   4
ENDBRANCH   2   3
ENDBRANCH   1   2
BRANCH   1  27
ATOM     27  N   UNL A   1      38.042  20.523  25.264  1.00  0.00    -0.352 N 
ATOM     28  C   UNL A   1      39.238  20.616  25.940  1.00  0.00     0.251 C 
ATOM     29  H   UNL A   1      37.820  19.604  24.991  1.00  0.00     0.163 HD
ATOM     30  O   UNL A   1      39.925  19.599  26.043  1.00  0.00    -0.269 OA
BRANCH  28  31
ATOM     31  C   UNL A   1      39.746  21.898  26.486  1.00  0.00     0.039 A 
ATOM     32  C   UNL A   1      40.779  21.871  27.433  1.00  0.00     0.014 A 
ATOM     33  C   UNL A   1      39.221  23.127  26.101  1.00  0.00     0.014 A 
ATOM     34  C   UNL A   1      41.346  23.066  27.893  1.00  0.00     0.010 A 
ATOM     35  C   UNL A   1      39.870  24.307  26.451  1.00  0.00     0.010 A 
ATOM     36  C   UNL A   1      40.943  24.296  27.352  1.00  0.00    -0.014 A 
BRANCH  36  37
ATOM     37  C   UNL A   1      41.609  25.582  27.708  1.00  0.00     0.031 A 
ATOM     38  C   UNL A   1      40.852  26.636  28.477  1.00  0.00     0.074 A 
ATOM     39  C   UNL A   1      42.847  25.850  27.246  1.00  0.00     0.049 A 
ATOM     40  N   UNL A   1      41.174  27.880  28.722  1.00  0.00    -0.248 NA
ATOM     41  C   UNL A   1      39.529  26.249  28.990  1.00  0.00     0.031 C 
ATOM     42  C   UNL A   1      43.667  24.942  26.440  1.00  0.00     0.029 A 
ATOM     43  N   UNL A   1      43.627  26.973  27.369  1.00  0.00    -0.354 N 
ATOM     44  C   UNL A   1      40.081  28.433  29.385  1.00  0.00     0.074 A 
ATOM     45  C   UNL A   1      39.061  27.406  29.427  1.00  0.00     0.031 C 
ATOM     46  C   UNL A   1      44.840  25.534  26.163  1.00  0.00     0.029 A 
ATOM     47  C   UNL A   1      44.837  26.882  26.720  1.00  0.00     0.049 A 
ATOM     48  H   UNL A   1      43.347  27.771  27.874  1.00  0.00     0.167 HD
ATOM     49  C   UNL A   1      39.949  29.667  29.934  1.00  0.00     0.034 A 
ATOM     50  C   UNL A   1      45.826  27.784  26.570  1.00  0.00     0.034 A 
ATOM     51  C   UNL A   1      40.991  30.665  29.912  1.00  0.00     0.049 A 
ATOM     52  C   UNL A   1      45.668  29.146  27.195  1.00  0.00     0.074 A 
ATOM     53  C   UNL A   1      40.995  31.923  30.489  1.00  0.00     0.029 A 
ATOM     54  N   UNL A   1      42.219  30.518  29.279  1.00  0.00    -0.354 N 
ATOM     55  N   UNL A   1      44.644  29.638  27.854  1.00  0.00    -0.248 NA
ATOM     56  C   UNL A   1      46.802  30.069  27.065  1.00  0.00     0.031 C 
ATOM     57  C   UNL A   1      42.198  32.556  30.158  1.00  0.00     0.029 A 
ATOM     58  C   UNL A   1      42.977  31.668  29.432  1.00  0.00     0.049 A 
ATOM     59  H   UNL A   1      42.509  29.712  28.791  1.00  0.00     0.167 HD
ATOM     60  C   UNL A   1      45.022  30.922  28.236  1.00  0.00     0.074 A 
ATOM     61  C   UNL A   1      46.373  31.118  27.750  1.00  0.00     0.031 C 
ATOM     62  C   UNL A   1      44.318  31.854  28.928  1.00  0.00     0.034 A 
BRANCH  49  63
ATOM     63  C   UNL A   1      38.626  29.994  30.590  1.00  0.00     0.023 A 
ATOM     64  C   UNL A   1      37.601  30.655  29.888  1.00  0.00     0.031 A 
ATOM     65  C   UNL A   1      38.401  29.693  31.945  1.00  0.00     0.131 A 
ATOM     66  C   UNL A   1      36.453  31.091  30.566  1.00  0.00     0.055 A 
ATOM     67  C   UNL A   1      37.212  30.042  32.590  1.00  0.00     0.041 A 
ATOM     68  F   UNL A   1      39.344  29.076  32.674  1.00  0.00    -0.206 F 
ATOM     69  C   UNL A   1      36.237  30.764  31.907  1.00  0.00     0.022 A 
BRANCH  66  70
ATOM     70  S   UNL A   1      35.336  32.240  29.718  1.00  0.00     0.124 S 
ATOM     71  O   UNL A   1      34.396  32.577  30.786  1.00  0.00    -0.237 OA
ATOM     72  O   UNL A   1      36.238  33.307  29.301  1.00  0.00    -0.237 OA
ATOM     73  O   UNL A   1      34.774  31.437  28.635  1.00  0.00    -0.744 OA
ENDBRANCH  66  70
ENDBRANCH  49  63
BRANCH  50  74
ATOM     74  C   UNL A   1      47.048  27.439  25.788  1.00  0.00     0.023 A 
ATOM     75  C   UNL A   1      47.157  27.776  24.430  1.00  0.00     0.031 A 
ATOM     76  C   UNL A   1      48.118  26.749  26.386  1.00  0.00     0.131 A 
ATOM     77  C   UNL A   1      48.293  27.388  23.703  1.00  0.00     0.055 A 
ATOM     78  C   UNL A   1      49.267  26.407  25.670  1.00  0.00     0.041 A 
ATOM     79  F   UNL A   1      48.068  26.413  27.685  1.00  0.00    -0.206 F 
ATOM     80  C   UNL A   1      49.353  26.717  24.316  1.00  0.00     0.022 A 
BRANCH  77  81
ATOM     81  S   UNL A   1      48.335  27.715  21.918  1.00  0.00     0.124 S 
ATOM     82  O   UNL A   1      48.547  26.377  21.376  1.00  0.00    -0.237 OA
ATOM     83  O   UNL A   1      47.019  28.300  21.687  1.00  0.00    -0.237 OA
ATOM     84  O   UNL A   1      49.460  28.635  21.767  1.00  0.00    -0.744 OA
ENDBRANCH  77  81
ENDBRANCH  50  74
BRANCH  62  85
ATOM     85  C   UNL A   1      45.019  33.156  29.227  1.00  0.00     0.023 A 
ATOM     86  C   UNL A   1      44.837  34.295  28.426  1.00  0.00     0.031 A 
ATOM     87  C   UNL A   1      45.894  33.250  30.326  1.00  0.00     0.131 A 
ATOM     88  C   UNL A   1      45.560  35.465  28.700  1.00  0.00     0.055 A 
ATOM     89  C   UNL A   1      46.566  34.435  30.629  1.00  0.00     0.041 A 
ATOM     90  F   UNL A   1      46.106  32.191  31.122  1.00  0.00    -0.206 F 
ATOM     91  C   UNL A   1      46.410  35.548  29.807  1.00  0.00     0.022 A 
BRANCH  88  92
ATOM     92  S   UNL A   1      45.443  36.855  27.540  1.00  0.00     0.124 S 
ATOM     93  O   UNL A   1      45.467  38.003  28.440  1.00  0.00    -0.237 OA
ATOM     94  O   UNL A   1      46.630  36.669  26.711  1.00  0.00    -0.237 OA
ATOM     95  O   UNL A   1      44.170  36.627  26.859  1.00  0.00    -0.744 OA
ENDBRANCH  88  92
ENDBRANCH  62  85
ENDBRANCH  36  37
ENDBRANCH  28  31
ENDBRANCH   1  27
TORSDOF 14
ENDMDL
MODEL 2
REMARK VINA RESULT:     -13.6      5.779     10.979
REMARK SMILES Cc1ccc(-c2cc(C(=O)NCCCNC(=O)c3ccc(-c4c5nc(c(-c6cc(S(=O)(=O)[O-])ccc6F)c6ccc([nH]6)c(-c6cc(S(=O)(=O)[O-])ccc6F)c6nc(c(-c7cc(S(=O)(=O)[O-])ccc7F)c7ccc4[nH]7)C=C6)C=C5)cc3)c3cc(C)ccc3n2)c(C)c1
REMARK SMILES IDX 14 1 13 2 12 3 11 4 9 5 10 6 8 8 6 9 7 10 88 11 87 12 81 13
REMARK SMILES IDX 86 14 82 15 85 16 83 17 84 18 5 19 1 20 2 21 3 22 91 23 4 24
REMARK SMILES IDX 89 25 90 26 15 27 16 28 17 30 18 31 19 32 80 33 20 34 79 35
REMARK SMILES IDX 21 36 22 37 23 38 73 39 24 40 78 41 72 42 74 43 25 44 77 45
REMARK SMILES IDX 71 46 70 47 26 49 58 50 38 51 57 52 39 53 42 54 56 55 75 56
REMARK SMILES IDX 40 57 41 58 55 60 76 61 43 62 27 63 28 64 36 65 29 66 35 67
REMARK SMILES IDX 37 68 34 69 30 70 31 71 32 72 33 73 59 74 60 75 68 76 61 77
REMARK SMILES IDX 67 78 69 79 66 80 62 81 63 82 64 83 65 84 44 85 45 86 53 87
REMARK SMILES IDX 46 88 52 89 54 90 51 91 47 92 48 93 49 94 50 95
REMARK H PARENT 11 7 15 29 74 48 42 59
REMARK Flexibility Score: inf
ROOT
ATOM      1  C   UNL A   1      32.855  32.007  27.246  1.00  0.00     0.118 C 
ENDROOT
BRANCH   1   2
ATOM      2  C   UNL A   1      31.745  31.332  26.449  1.00  0.00     0.042 C 
BRANCH   2   3
ATOM      3  C   UNL A   1      32.039  29.905  26.024  1.00  0.00     0.118 C 
BRANCH   3   4
ATOM      4  N   UNL A   1      32.856  29.744  24.827  1.00  0.00    -0.352 N 
ATOM      5  C   UNL A   1      32.684  28.941  23.718  1.00  0.00     0.252 C 
ATOM      6  O   UNL A   1      33.487  29.051  22.792  1.00  0.00    -0.269 OA
ATOM      7  H   UNL A   1      33.667  30.302  24.807  1.00  0.00     0.163 HD
BRANCH   5   8
ATOM      8  C   UNL A   1      31.641  27.879  23.634  1.00  0.00     0.051 A 
ATOM      9  C   UNL A   1      31.151  25.560  23.964  1.00  0.00     0.072 A 
ATOM     10  C   UNL A   1      32.084  26.580  23.909  1.00  0.00     0.043 A 
ATOM     11  N   UNL A   1      29.821  25.800  23.891  1.00  0.00    -0.248 NA
ATOM     12  C   UNL A   1      29.397  27.041  23.610  1.00  0.00     0.072 A 
ATOM     13  C   UNL A   1      30.279  28.099  23.338  1.00  0.00     0.013 A 
ATOM     14  C   UNL A   1      28.032  27.297  23.598  1.00  0.00     0.029 A 
ATOM     15  C   UNL A   1      29.746  29.298  22.817  1.00  0.00     0.014 A 
ATOM     16  C   UNL A   1      27.521  28.561  23.295  1.00  0.00     0.005 A 
ATOM     17  C   UNL A   1      28.378  29.571  22.874  1.00  0.00    -0.050 A 
ATOM     18  C   UNL A   1      27.886  30.969  22.643  1.00  0.00     0.044 C 
BRANCH   9  19
ATOM     19  C   UNL A   1      31.539  24.143  24.015  1.00  0.00     0.003 A 
ATOM     20  C   UNL A   1      32.714  19.971  24.126  1.00  0.00     0.044 C 
ATOM     21  C   UNL A   1      32.304  21.411  24.068  1.00  0.00    -0.051 A 
ATOM     22  C   UNL A   1      32.447  22.164  22.902  1.00  0.00     0.004 A 
ATOM     23  C   UNL A   1      31.773  22.025  25.207  1.00  0.00     0.007 A 
ATOM     24  C   UNL A   1      32.071  23.511  22.877  1.00  0.00     0.011 A 
ATOM     25  C   UNL A   1      31.376  23.375  25.193  1.00  0.00    -0.041 A 
ATOM     26  C   UNL A   1      30.829  23.955  26.473  1.00  0.00     0.045 C 
ENDBRANCH   9  19
ENDBRANCH   5   8
ENDBRANCH   3   4
ENDBRANCH   2   3
ENDBRANCH   1   2
BRANCH   1  27
ATOM     27  N   UNL A   1      32.606  33.407  27.576  1.00  0.00    -0.352 N 
ATOM     28  C   UNL A   1      33.195  34.291  28.452  1.00  0.00     0.251 C 
ATOM     29  H   UNL A   1      31.862  33.801  27.066  1.00  0.00     0.163 HD
ATOM     30  O   UNL A   1      32.690  35.407  28.574  1.00  0.00    -0.269 OA
BRANCH  28  31
ATOM     31  C   UNL A   1      34.364  33.924  29.287  1.00  0.00     0.039 A 
ATOM     32  C   UNL A   1      34.170  33.093  30.399  1.00  0.00     0.014 A 
ATOM     33  C   UNL A   1      35.646  34.390  29.014  1.00  0.00     0.014 A 
ATOM     34  C   UNL A   1      35.266  32.649  31.148  1.00  0.00     0.010 A 
ATOM     35  C   UNL A   1      36.745  33.844  29.671  1.00  0.00     0.010 A 
ATOM     36  C   UNL A   1      36.573  32.965  30.748  1.00  0.00    -0.014 A 
BRANCH  36  37
ATOM     37  C   UNL A   1      37.775  32.407  31.431  1.00  0.00     0.031 A 
ATOM     38  C   UNL A   1      38.544  31.273  30.799  1.00  0.00     0.074 A 
ATOM     39  C   UNL A   1      38.109  32.837  32.665  1.00  0.00     0.049 A 
ATOM     40  N   UNL A   1      39.492  30.526  31.305  1.00  0.00    -0.248 NA
ATOM     41  C   UNL A   1      38.151  30.897  29.433  1.00  0.00     0.031 C 
ATOM     42  C   UNL A   1      37.413  33.884  33.416  1.00  0.00     0.029 A 
ATOM     43  N   UNL A   1      39.106  32.431  33.517  1.00  0.00    -0.354 N 
ATOM     44  C   UNL A   1      39.782  29.571  30.334  1.00  0.00     0.074 A 
ATOM     45  C   UNL A   1      38.851  29.791  29.247  1.00  0.00     0.031 C 
ATOM     46  C   UNL A   1      38.018  34.055  34.602  1.00  0.00     0.029 A 
ATOM     47  C   UNL A   1      39.108  33.093  34.724  1.00  0.00     0.049 A 
ATOM     48  H   UNL A   1      39.759  31.731  33.288  1.00  0.00     0.167 HD
ATOM     49  C   UNL A   1      40.752  28.622  30.332  1.00  0.00     0.034 A 
ATOM     50  C   UNL A   1      39.882  32.933  35.815  1.00  0.00     0.034 A 
ATOM     51  C   UNL A   1      41.694  28.442  31.410  1.00  0.00     0.049 A 
ATOM     52  C   UNL A   1      40.962  31.882  35.792  1.00  0.00     0.074 A 
ATOM     53  C   UNL A   1      42.756  27.558  31.492  1.00  0.00     0.029 A 
ATOM     54  N   UNL A   1      41.687  29.161  32.599  1.00  0.00    -0.354 N 
ATOM     55  N   UNL A   1      41.250  31.015  34.849  1.00  0.00    -0.248 NA
ATOM     56  C   UNL A   1      41.825  31.795  36.976  1.00  0.00     0.031 C 
ATOM     57  C   UNL A   1      43.355  27.704  32.749  1.00  0.00     0.029 A 
ATOM     58  C   UNL A   1      42.711  28.727  33.427  1.00  0.00     0.049 A 
ATOM     59  H   UNL A   1      41.047  29.877  32.822  1.00  0.00     0.167 HD
ATOM     60  C   UNL A   1      42.344  30.294  35.319  1.00  0.00     0.074 A 
ATOM     61  C   UNL A   1      42.673  30.842  36.618  1.00  0.00     0.031 C 
ATOM     62  C   UNL A   1      43.017  29.273  34.728  1.00  0.00     0.034 A 
BRANCH  49  63
ATOM     63  C   UNL A   1      40.823  27.709  29.128  1.00  0.00     0.023 A 
ATOM     64  C   UNL A   1      41.774  27.906  28.111  1.00  0.00     0.031 A 
ATOM     65  C   UNL A   1      39.898  26.663  28.964  1.00  0.00     0.131 A 
ATOM     66  C   UNL A   1      41.711  27.148  26.932  1.00  0.00     0.055 A 
ATOM     67  C   UNL A   1      39.902  25.846  27.830  1.00  0.00     0.041 A 
ATOM     68  F   UNL A   1      38.955  26.432  29.891  1.00  0.00    -0.206 F 
ATOM     69  C   UNL A   1      40.798  26.100  26.796  1.00  0.00     0.022 A 
BRANCH  66  70
ATOM     70  S   UNL A   1      42.715  27.671  25.516  1.00  0.00     0.124 S 
ATOM     71  O   UNL A   1      42.677  26.477  24.673  1.00  0.00    -0.237 OA
ATOM     72  O   UNL A   1      41.980  28.828  25.018  1.00  0.00    -0.237 OA
ATOM     73  O   UNL A   1      44.017  27.965  26.108  1.00  0.00    -0.744 OA
ENDBRANCH  66  70
ENDBRANCH  49  63
BRANCH  50  74
ATOM     74  C   UNL A   1      39.664  33.778  37.023  1.00  0.00     0.023 A 
ATOM     75  C   UNL A   1      38.992  33.272  38.147  1.00  0.00     0.031 A 
ATOM     76  C   UNL A   1      40.108  35.112  37.064  1.00  0.00     0.131 A 
ATOM     77  C   UNL A   1      38.747  34.107  39.249  1.00  0.00     0.055 A 
ATOM     78  C   UNL A   1      39.905  35.923  38.182  1.00  0.00     0.041 A 
ATOM     79  F   UNL A   1      40.766  35.640  36.020  1.00  0.00    -0.206 F 
ATOM     80  C   UNL A   1      39.210  35.424  39.279  1.00  0.00     0.022 A 
BRANCH  77  81
ATOM     81  S   UNL A   1      37.752  33.462  40.622  1.00  0.00     0.124 S 
ATOM     82  O   UNL A   1      38.596  32.380  41.119  1.00  0.00    -0.237 OA
ATOM     83  O   UNL A   1      37.633  34.632  41.485  1.00  0.00    -0.237 OA
ATOM     84  O   UNL A   1      36.512  33.039  39.975  1.00  0.00    -0.744 OA
ENDBRANCH  77  81
ENDBRANCH  50  74
BRANCH  62  85
ATOM     85  C   UNL A   1      44.201  28.714  35.477  1.00  0.00     0.023 A 
ATOM     86  C   UNL A   1      44.061  27.664  36.401  1.00  0.00     0.031 A 
ATOM     87  C   UNL A   1      45.485  29.251  35.272  1.00  0.00     0.131 A 
ATOM     88  C   UNL A   1      45.177  27.219  37.125  1.00  0.00     0.055 A 
ATOM     89  C   UNL A   1      46.602  28.764  35.953  1.00  0.00     0.041 A 
ATOM     90  F   UNL A   1      45.673  30.257  34.403  1.00  0.00    -0.206 F 
ATOM     91  C   UNL A   1      46.449  27.750  36.895  1.00  0.00     0.022 A 
BRANCH  88  92
ATOM     92  S   UNL A   1      44.931  25.993  38.439  1.00  0.00     0.124 S 
ATOM     93  O   UNL A   1      46.240  25.971  39.082  1.00  0.00    -0.237 OA
ATOM     94  O   UNL A   1      43.847  26.585  39.219  1.00  0.00    -0.237 OA
ATOM     95  O   UNL A   1      44.577  24.775  37.712  1.00  0.00    -0.744 OA
ENDBRANCH  88  92
ENDBRANCH  62  85
ENDBRANCH  36  37
ENDBRANCH  28  31
ENDBRANCH   1  27
TORSDOF 14
ENDMDL
MODEL 3
REMARK VINA RESULT:     -13.6      0.822      7.429
REMARK SMILES Cc1ccc(-c2cc(C(=O)NCCCNC(=O)c3ccc(-c4c5nc(c(-c6cc(S(=O)(=O)[O-])ccc6F)c6ccc([nH]6)c(-c6cc(S(=O)(=O)[O-])ccc6F)c6nc(c(-c7cc(S(=O)(=O)[O-])ccc7F)c7ccc4[nH]7)C=C6)C=C5)cc3)c3cc(C)ccc3n2)c(C)c1
REMARK SMILES IDX 14 1 13 2 12 3 11 4 9 5 10 6 8 8 6 9 7 10 88 11 87 12 81 13
REMARK SMILES IDX 86 14 82 15 85 16 83 17 84 18 5 19 1 20 2 21 3 22 91 23 4 24
REMARK SMILES IDX 89 25 90 26 15 27 16 28 17 30 18 31 19 32 80 33 20 34 79 35
REMARK SMILES IDX 21 36 22 37 23 38 73 39 24 40 78 41 72 42 74 43 25 44 77 45
REMARK SMILES IDX 71 46 70 47 26 49 58 50 38 51 57 52 39 53 42 54 56 55 75 56
REMARK SMILES IDX 40 57 41 58 55 60 76 61 43 62 27 63 28 64 36 65 29 66 35 67
REMARK SMILES IDX 37 68 34 69 30 70 31 71 32 72 33 73 59 74 60 75 68 76 61 77
REMARK SMILES IDX 67 78 69 79 66 80 62 81 63 82 64 83 65 84 44 85 45 86 53 87
REMARK SMILES IDX 46 88 52 89 54 90 51 91 47 92 48 93 49 94 50 95
REMARK H PARENT 11 7 15 29 74 48 42 59
REMARK Flexibility Score: inf
ROOT
ATOM      1  C   UNL A   1      37.453  21.658  24.962  1.00  0.00     0.118 C 
ENDROOT
BRANCH   1   2
ATOM      2  C   UNL A   1      36.105  21.636  25.670  1.00  0.00     0.042 C 
BRANCH   2   3
ATOM      3  C   UNL A   1      35.671  22.965  26.260  1.00  0.00     0.118 C 
BRANCH   3   4
ATOM      4  N   UNL A   1      34.579  22.917  27.225  1.00  0.00    -0.352 N 
ATOM      5  C   UNL A   1      33.215  22.817  27.040  1.00  0.00     0.252 C 
ATOM      6  O   UNL A   1      32.500  22.712  28.037  1.00  0.00    -0.269 OA
ATOM      7  H   UNL A   1      34.862  22.964  28.167  1.00  0.00     0.163 HD
BRANCH   5   8
ATOM      8  C   UNL A   1      32.561  22.936  25.705  1.00  0.00     0.051 A 
ATOM      9  C   UNL A   1      31.686  24.437  24.060  1.00  0.00     0.072 A 
ATOM     10  C   UNL A   1      32.191  24.232  25.332  1.00  0.00     0.043 A 
ATOM     11  N   UNL A   1      31.663  23.453  23.131  1.00  0.00    -0.248 NA
ATOM     12  C   UNL A   1      32.002  22.206  23.493  1.00  0.00     0.072 A 
ATOM     13  C   UNL A   1      32.333  21.865  24.814  1.00  0.00     0.013 A 
ATOM     14  C   UNL A   1      32.038  21.213  22.524  1.00  0.00     0.029 A 
ATOM     15  C   UNL A   1      32.437  20.497  25.147  1.00  0.00     0.014 A 
ATOM     16  C   UNL A   1      32.363  19.890  22.835  1.00  0.00     0.005 A 
ATOM     17  C   UNL A   1      32.540  19.515  24.161  1.00  0.00    -0.050 A 
ATOM     18  C   UNL A   1      32.996  18.133  24.529  1.00  0.00     0.044 C 
BRANCH   9  19
ATOM     19  C   UNL A   1      31.059  25.704  23.658  1.00  0.00     0.003 A 
ATOM     20  C   UNL A   1      29.175  29.437  22.510  1.00  0.00     0.044 C 
ATOM     21  C   UNL A   1      29.809  28.138  22.906  1.00  0.00    -0.051 A 
ATOM     22  C   UNL A   1      29.101  27.169  23.619  1.00  0.00     0.004 A 
ATOM     23  C   UNL A   1      31.142  27.886  22.565  1.00  0.00     0.007 A 
ATOM     24  C   UNL A   1      29.719  25.970  23.990  1.00  0.00     0.011 A 
ATOM     25  C   UNL A   1      31.772  26.678  22.919  1.00  0.00    -0.041 A 
ATOM     26  C   UNL A   1      33.216  26.502  22.522  1.00  0.00     0.045 C 
ENDBRANCH   9  19
ENDBRANCH   5   8
ENDBRANCH   3   4
ENDBRANCH   2   3
ENDBRANCH   1   2
BRANCH   1  27
ATOM     27  N   UNL A   1      38.480  20.821  25.576  1.00  0.00    -0.352 N 
ATOM     28  C   UNL A   1      39.574  21.093  26.367  1.00  0.00     0.251 C 
ATOM     29  H   UNL A   1      38.367  19.862  25.384  1.00  0.00     0.163 HD
ATOM     30  O   UNL A   1      40.322  20.161  26.660  1.00  0.00    -0.269 OA
BRANCH  28  31
ATOM     31  C   UNL A   1      39.907  22.466  26.818  1.00  0.00     0.039 A 
ATOM     32  C   UNL A   1      40.842  22.634  27.849  1.00  0.00     0.014 A 
ATOM     33  C   UNL A   1      39.310  23.594  26.265  1.00  0.00     0.014 A 
ATOM     34  C   UNL A   1      41.250  23.918  28.229  1.00  0.00     0.010 A 
ATOM     35  C   UNL A   1      39.811  24.862  26.545  1.00  0.00     0.010 A 
ATOM     36  C   UNL A   1      40.789  25.045  27.532  1.00  0.00    -0.014 A 
BRANCH  36  37
ATOM     37  C   UNL A   1      41.296  26.419  27.808  1.00  0.00     0.031 A 
ATOM     38  C   UNL A   1      42.715  26.786  27.451  1.00  0.00     0.074 A 
ATOM     39  C   UNL A   1      40.525  27.299  28.480  1.00  0.00     0.049 A 
ATOM     40  N   UNL A   1      43.405  27.851  27.772  1.00  0.00    -0.248 NA
ATOM     41  C   UNL A   1      43.473  25.793  26.676  1.00  0.00     0.031 C 
ATOM     42  C   UNL A   1      39.156  27.050  28.938  1.00  0.00     0.029 A 
ATOM     43  N   UNL A   1      40.790  28.574  28.915  1.00  0.00    -0.354 N 
ATOM     44  C   UNL A   1      44.686  27.639  27.268  1.00  0.00     0.074 A 
ATOM     45  C   UNL A   1      44.691  26.310  26.695  1.00  0.00     0.031 C 
ATOM     46  C   UNL A   1      38.694  28.144  29.565  1.00  0.00     0.029 A 
ATOM     47  C   UNL A   1      39.749  29.150  29.607  1.00  0.00     0.049 A 
ATOM     48  H   UNL A   1      41.644  29.034  28.749  1.00  0.00     0.167 HD
ATOM     49  C   UNL A   1      45.749  28.482  27.256  1.00  0.00     0.034 A 
ATOM     50  C   UNL A   1      39.657  30.344  30.225  1.00  0.00     0.034 A 
ATOM     51  C   UNL A   1      45.715  29.817  27.803  1.00  0.00     0.049 A 
ATOM     52  C   UNL A   1      40.843  31.273  30.192  1.00  0.00     0.074 A 
ATOM     53  C   UNL A   1      46.708  30.782  27.791  1.00  0.00     0.029 A 
ATOM     54  N   UNL A   1      44.628  30.379  28.459  1.00  0.00    -0.354 N 
ATOM     55  N   UNL A   1      42.034  31.073  29.676  1.00  0.00    -0.248 NA
ATOM     56  C   UNL A   1      40.669  32.590  30.817  1.00  0.00     0.031 C 
ATOM     57  C   UNL A   1      46.242  31.902  28.488  1.00  0.00     0.029 A 
ATOM     58  C   UNL A   1      44.932  31.665  28.875  1.00  0.00     0.049 A 
ATOM     59  H   UNL A   1      43.764  29.928  28.609  1.00  0.00     0.167 HD
ATOM     60  C   UNL A   1      42.744  32.250  29.895  1.00  0.00     0.074 A 
ATOM     61  C   UNL A   1      41.841  33.158  30.572  1.00  0.00     0.031 C 
ATOM     62  C   UNL A   1      44.025  32.554  29.564  1.00  0.00     0.034 A 
BRANCH  49  63
ATOM     63  C   UNL A   1      47.032  27.968  26.641  1.00  0.00     0.023 A 
ATOM     64  C   UNL A   1      47.291  28.098  25.264  1.00  0.00     0.031 A 
ATOM     65  C   UNL A   1      47.984  27.291  27.424  1.00  0.00     0.131 A 
ATOM     66  C   UNL A   1      48.409  27.468  24.697  1.00  0.00     0.055 A 
ATOM     67  C   UNL A   1      49.146  26.750  26.868  1.00  0.00     0.041 A 
ATOM     68  F   UNL A   1      47.789  27.119  28.741  1.00  0.00    -0.206 F 
ATOM     69  C   UNL A   1      49.354  26.818  25.493  1.00  0.00     0.022 A 
BRANCH  66  70
ATOM     70  S   UNL A   1      48.510  27.357  22.889  1.00  0.00     0.124 S 
ATOM     71  O   UNL A   1      47.411  28.231  22.481  1.00  0.00    -0.237 OA
ATOM     72  O   UNL A   1      49.854  27.852  22.618  1.00  0.00    -0.237 OA
ATOM     73  O   UNL A   1      48.300  25.937  22.620  1.00  0.00    -0.744 OA
ENDBRANCH  66  70
ENDBRANCH  49  63
BRANCH  50  74
ATOM     74  C   UNL A   1      38.404  30.729  30.935  1.00  0.00     0.023 A 
ATOM     75  C   UNL A   1      37.391  31.446  30.279  1.00  0.00     0.031 A 
ATOM     76  C   UNL A   1      38.210  30.402  32.290  1.00  0.00     0.131 A 
ATOM     77  C   UNL A   1      36.248  31.848  30.987  1.00  0.00     0.055 A 
ATOM     78  C   UNL A   1      37.049  30.762  32.976  1.00  0.00     0.041 A 
ATOM     79  F   UNL A   1      39.143  29.707  32.960  1.00  0.00    -0.206 F 
ATOM     80  C   UNL A   1      36.064  31.499  32.327  1.00  0.00     0.022 A 
BRANCH  77  81
ATOM     81  S   UNL A   1      35.028  32.894  30.145  1.00  0.00     0.124 S 
ATOM     82  O   UNL A   1      34.163  33.290  31.251  1.00  0.00    -0.237 OA
ATOM     83  O   UNL A   1      35.869  33.944  29.580  1.00  0.00    -0.237 OA
ATOM     84  O   UNL A   1      34.421  31.992  29.169  1.00  0.00    -0.744 OA
ENDBRANCH  77  81
ENDBRANCH  50  74
BRANCH  62  85
ATOM     85  C   UNL A   1      44.505  33.943  29.903  1.00  0.00     0.023 A 
ATOM     86  C   UNL A   1      44.283  35.031  29.042  1.00  0.00     0.031 A 
ATOM     87  C   UNL A   1      45.207  34.176  31.100  1.00  0.00     0.131 A 
ATOM     88  C   UNL A   1      44.805  36.293  29.364  1.00  0.00     0.055 A 
ATOM     89  C   UNL A   1      45.673  35.446  31.442  1.00  0.00     0.041 A 
ATOM     90  F   UNL A   1      45.449  33.171  31.956  1.00  0.00    -0.206 F 
ATOM     91  C   UNL A   1      45.484  36.511  30.566  1.00  0.00     0.022 A 
BRANCH  88  92
ATOM     92  S   UNL A   1      44.663  37.631  28.147  1.00  0.00     0.124 S 
ATOM     93  O   UNL A   1      43.474  38.338  28.612  1.00  0.00    -0.237 OA
ATOM     94  O   UNL A   1      45.930  38.338  28.310  1.00  0.00    -0.237 OA
ATOM     95  O   UNL A   1      44.507  36.925  26.876  1.00  0.00    -0.744 OA
ENDBRANCH  88  92
ENDBRANCH  62  85
ENDBRANCH  36  37
ENDBRANCH  28  31
ENDBRANCH   1  27
TORSDOF 14
ENDMDL
