MODEL 1
REMARK VINA RESULT:     -12.6      0.000      0.000
REMARK SMILES Cc1ccc(NC(=O)C[C@@H](C(=O)NCCCNC(=O)c2ccc(-c3c4nc(c(-c5cc(S(=O)(=O)[O-])ccc5F)c5ccc([nH]5)c(-c5cc(S(=O)(=O)[O-])ccc5F)c5nc(c(-c6cc(S(=O)(=O)[O-])ccc6F)c6ccc3[nH]6)C=C5)C=C4)cc2)[NH+]2CCOCC2)cc1
REMARK SMILES IDX 15 1 14 2 13 3 11 4 12 5 10 7 9 8 7 9 6 10 8 12 5 13 1 14
REMARK SMILES IDX 2 15 3 16 90 17 4 18 89 19 83 20 84 21 88 22 85 24 87 25
REMARK SMILES IDX 86 26 16 27 17 28 18 29 19 31 20 32 21 33 82 34 22 35 81 36
REMARK SMILES IDX 23 37 24 38 25 39 75 40 26 41 80 42 74 43 76 44 27 45 79 46
REMARK SMILES IDX 73 47 72 48 28 50 60 51 40 52 59 53 41 54 44 55 58 56 77 57
REMARK SMILES IDX 42 58 43 59 57 61 78 62 45 63 29 64 30 65 38 66 31 67 37 68
REMARK SMILES IDX 39 69 36 70 32 71 33 72 34 73 35 74 61 75 62 76 70 77 63 78
REMARK SMILES IDX 69 79 71 80 68 81 64 82 65 83 66 84 67 85 46 86 47 87 55 88
REMARK SMILES IDX 48 89 54 90 56 91 53 92 49 93 50 94 51 95 52 96
REMARK H PARENT 13 6 6 11 83 23 17 30 76 49 44 60
REMARK Flexibility Score: inf
ROOT
ATOM      1  C   UNL A   1      33.107  30.927  27.270  1.00  0.00     0.042 C 
ENDROOT
BRANCH   1   2
ATOM      2  C   UNL A   1      32.486  30.249  26.046  1.00  0.00     0.118 C 
BRANCH   2   3
ATOM      3  N   UNL A   1      33.445  29.715  25.102  1.00  0.00    -0.351 N 
ATOM      4  C   UNL A   1      33.445  28.604  24.313  1.00  0.00     0.278 C 
ATOM      5  O   UNL A   1      34.327  28.550  23.449  1.00  0.00    -0.268 OA
ATOM      6  H   UNL A   1      34.259  30.262  25.013  1.00  0.00     0.163 HD
BRANCH   4   7
ATOM      7  C   UNL A   1      32.349  27.484  24.429  1.00  0.00     0.283 C 
BRANCH   7   8
ATOM      8  C   UNL A   1      32.897  26.058  24.653  1.00  0.00     0.175 C 
BRANCH   8   9
ATOM      9  C   UNL A   1      32.545  25.293  25.902  1.00  0.00     0.230 C 
ATOM     10  N   UNL A   1      33.239  24.200  26.324  1.00  0.00    -0.326 N 
ATOM     11  H   UNL A   1      32.904  23.806  27.162  1.00  0.00     0.169 HD
ATOM     12  O   UNL A   1      31.575  25.662  26.577  1.00  0.00    -0.274 OA
BRANCH  10  13
ATOM     13  C   UNL A   1      34.349  23.533  25.777  1.00  0.00     0.041 A 
ATOM     14  C   UNL A   1      37.634  20.916  24.862  1.00  0.00     0.044 C 
ATOM     15  C   UNL A   1      36.487  21.868  25.034  1.00  0.00    -0.051 A 
ATOM     16  C   UNL A   1      36.721  23.183  25.440  1.00  0.00     0.005 A 
ATOM     17  C   UNL A   1      35.168  21.430  24.899  1.00  0.00     0.005 A 
ATOM     18  C   UNL A   1      35.656  24.016  25.792  1.00  0.00     0.026 A 
ATOM     19  C   UNL A   1      34.106  22.264  25.248  1.00  0.00     0.026 A 
ENDBRANCH  10  13
ENDBRANCH   8   9
ENDBRANCH   7   8
BRANCH   7  20
ATOM     20  N   UNL A   1      31.479  27.531  23.199  1.00  0.00    -0.320 N 
ATOM     21  C   UNL A   1      30.989  28.885  22.860  1.00  0.00     0.291 C 
ATOM     22  C   UNL A   1      30.387  26.563  23.038  1.00  0.00     0.291 C 
ATOM     23  H   UNL A   1      32.179  27.215  22.528  1.00  0.00     0.348 HD
ATOM     24  C   UNL A   1      29.645  29.242  23.512  1.00  0.00     0.221 C 
ATOM     25  C   UNL A   1      29.057  26.977  23.677  1.00  0.00     0.221 C 
ATOM     26  O   UNL A   1      28.635  28.265  23.223  1.00  0.00    -0.370 OA
ENDBRANCH   7  20
ENDBRANCH   4   7
ENDBRANCH   2   3
ENDBRANCH   1   2
BRANCH   1  27
ATOM     27  C   UNL A   1      34.370  30.267  27.831  1.00  0.00     0.118 C 
BRANCH  27  28
ATOM     28  N   UNL A   1      35.026  31.120  28.830  1.00  0.00    -0.352 N 
ATOM     29  C   UNL A   1      36.250  30.992  29.449  1.00  0.00     0.251 C 
ATOM     30  H   UNL A   1      34.507  31.911  29.102  1.00  0.00     0.163 HD
ATOM     31  O   UNL A   1      36.691  31.876  30.183  1.00  0.00    -0.269 OA
BRANCH  29  32
ATOM     32  C   UNL A   1      37.091  29.823  29.138  1.00  0.00     0.039 A 
ATOM     33  C   UNL A   1      37.405  28.952  30.186  1.00  0.00     0.014 A 
ATOM     34  C   UNL A   1      37.708  29.700  27.896  1.00  0.00     0.014 A 
ATOM     35  C   UNL A   1      38.511  28.116  30.066  1.00  0.00     0.010 A 
ATOM     36  C   UNL A   1      38.837  28.906  27.794  1.00  0.00     0.010 A 
ATOM     37  C   UNL A   1      39.284  28.180  28.904  1.00  0.00    -0.014 A 
BRANCH  37  38
ATOM     38  C   UNL A   1      40.652  27.670  28.860  1.00  0.00     0.031 A 
ATOM     39  C   UNL A   1      40.952  26.293  28.433  1.00  0.00     0.074 A 
ATOM     40  C   UNL A   1      41.675  28.474  29.226  1.00  0.00     0.049 A 
ATOM     41  N   UNL A   1      41.968  25.613  28.847  1.00  0.00    -0.248 NA
ATOM     42  C   UNL A   1      40.099  25.558  27.511  1.00  0.00     0.031 C 
ATOM     43  C   UNL A   1      43.105  28.213  29.092  1.00  0.00     0.029 A 
ATOM     44  N   UNL A   1      41.603  29.611  30.028  1.00  0.00    -0.354 N 
ATOM     45  C   UNL A   1      42.076  24.498  28.052  1.00  0.00     0.074 A 
ATOM     46  C   UNL A   1      40.847  24.473  27.287  1.00  0.00     0.031 C 
ATOM     47  C   UNL A   1      43.764  28.961  29.991  1.00  0.00     0.029 A 
ATOM     48  C   UNL A   1      42.772  29.626  30.814  1.00  0.00     0.049 A 
ATOM     49  H   UNL A   1      40.877  30.276  30.042  1.00  0.00     0.167 HD
ATOM     50  C   UNL A   1      43.246  23.795  28.022  1.00  0.00     0.034 A 
ATOM     51  C   UNL A   1      42.687  29.567  32.176  1.00  0.00     0.034 A 
ATOM     52  C   UNL A   1      44.244  24.338  28.945  1.00  0.00     0.049 A 
ATOM     53  C   UNL A   1      43.338  28.332  32.780  1.00  0.00     0.074 A 
ATOM     54  C   UNL A   1      45.377  25.122  28.796  1.00  0.00     0.029 A 
ATOM     55  N   UNL A   1      43.999  24.286  30.307  1.00  0.00    -0.354 N 
ATOM     56  N   UNL A   1      43.903  27.382  32.086  1.00  0.00    -0.248 NA
ATOM     57  C   UNL A   1      43.320  28.030  34.212  1.00  0.00     0.031 C 
ATOM     58  C   UNL A   1      45.784  25.567  30.087  1.00  0.00     0.029 A 
ATOM     59  C   UNL A   1      44.912  25.039  31.020  1.00  0.00     0.049 A 
ATOM     60  H   UNL A   1      43.265  23.775  30.716  1.00  0.00     0.167 HD
ATOM     61  C   UNL A   1      44.238  26.345  32.917  1.00  0.00     0.074 A 
ATOM     62  C   UNL A   1      43.863  26.800  34.243  1.00  0.00     0.031 C 
ATOM     63  C   UNL A   1      44.752  25.164  32.461  1.00  0.00     0.034 A 
BRANCH  50  64
ATOM     64  C   UNL A   1      43.577  22.776  26.957  1.00  0.00     0.023 A 
ATOM     65  C   UNL A   1      42.967  21.505  27.004  1.00  0.00     0.031 A 
ATOM     66  C   UNL A   1      44.491  22.967  25.905  1.00  0.00     0.131 A 
ATOM     67  C   UNL A   1      43.349  20.474  26.127  1.00  0.00     0.055 A 
ATOM     68  C   UNL A   1      44.925  21.924  25.076  1.00  0.00     0.041 A 
ATOM     69  F   UNL A   1      44.960  24.184  25.595  1.00  0.00    -0.206 F 
ATOM     70  C   UNL A   1      44.365  20.661  25.196  1.00  0.00     0.022 A 
BRANCH  67  71
ATOM     71  S   UNL A   1      42.487  18.881  26.216  1.00  0.00     0.124 S 
ATOM     72  O   UNL A   1      41.151  19.222  25.739  1.00  0.00    -0.237 OA
ATOM     73  O   UNL A   1      43.295  18.047  25.333  1.00  0.00    -0.237 OA
ATOM     74  O   UNL A   1      42.565  18.533  27.634  1.00  0.00    -0.744 OA
ENDBRANCH  67  71
ENDBRANCH  50  64
BRANCH  51  75
ATOM     75  C   UNL A   1      41.478  30.276  32.700  1.00  0.00     0.023 A 
ATOM     76  C   UNL A   1      41.450  31.688  32.577  1.00  0.00     0.031 A 
ATOM     77  C   UNL A   1      40.264  29.621  32.936  1.00  0.00     0.131 A 
ATOM     78  C   UNL A   1      40.228  32.372  32.516  1.00  0.00     0.055 A 
ATOM     79  C   UNL A   1      39.052  30.322  32.965  1.00  0.00     0.041 A 
ATOM     80  F   UNL A   1      40.208  28.283  33.019  1.00  0.00    -0.206 F 
ATOM     81  C   UNL A   1      39.024  31.695  32.707  1.00  0.00     0.022 A 
BRANCH  78  82
ATOM     82  S   UNL A   1      40.227  34.089  31.911  1.00  0.00     0.124 S 
ATOM     83  O   UNL A   1      40.226  33.910  30.465  1.00  0.00    -0.237 OA
ATOM     84  O   UNL A   1      39.001  34.639  32.491  1.00  0.00    -0.237 OA
ATOM     85  O   UNL A   1      41.450  34.663  32.469  1.00  0.00    -0.744 OA
ENDBRANCH  78  82
ENDBRANCH  51  75
BRANCH  63  86
ATOM     86  C   UNL A   1      45.131  24.024  33.368  1.00  0.00     0.023 A 
ATOM     87  C   UNL A   1      46.434  23.879  33.871  1.00  0.00     0.031 A 
ATOM     88  C   UNL A   1      44.214  22.999  33.694  1.00  0.00     0.131 A 
ATOM     89  C   UNL A   1      46.764  22.795  34.705  1.00  0.00     0.055 A 
ATOM     90  C   UNL A   1      44.569  21.879  34.450  1.00  0.00     0.041 A 
ATOM     91  F   UNL A   1      42.925  23.066  33.326  1.00  0.00    -0.206 F 
ATOM     92  C   UNL A   1      45.850  21.776  34.971  1.00  0.00     0.022 A 
BRANCH  89  93
ATOM     93  S   UNL A   1      48.388  22.780  35.506  1.00  0.00     0.124 S 
ATOM     94  O   UNL A   1      48.422  21.466  36.140  1.00  0.00    -0.237 OA
ATOM     95  O   UNL A   1      49.281  22.955  34.363  1.00  0.00    -0.237 OA
ATOM     96  O   UNL A   1      48.332  23.914  36.425  1.00  0.00    -0.744 OA
ENDBRANCH  89  93
ENDBRANCH  63  86
ENDBRANCH  37  38
ENDBRANCH  29  32
ENDBRANCH  27  28
ENDBRANCH   1  27
TORSDOF 17
ENDMDL
MODEL 2
REMARK VINA RESULT:     -12.5      4.227     10.586
REMARK SMILES Cc1ccc(NC(=O)C[C@@H](C(=O)NCCCNC(=O)c2ccc(-c3c4nc(c(-c5cc(S(=O)(=O)[O-])ccc5F)c5ccc([nH]5)c(-c5cc(S(=O)(=O)[O-])ccc5F)c5nc(c(-c6cc(S(=O)(=O)[O-])ccc6F)c6ccc3[nH]6)C=C5)C=C4)cc2)[NH+]2CCOCC2)cc1
REMARK SMILES IDX 15 1 14 2 13 3 11 4 12 5 10 7 9 8 7 9 6 10 8 12 5 13 1 14
REMARK SMILES IDX 2 15 3 16 90 17 4 18 89 19 83 20 84 21 88 22 85 24 87 25
REMARK SMILES IDX 86 26 16 27 17 28 18 29 19 31 20 32 21 33 82 34 22 35 81 36
REMARK SMILES IDX 23 37 24 38 25 39 75 40 26 41 80 42 74 43 76 44 27 45 79 46
REMARK SMILES IDX 73 47 72 48 28 50 60 51 40 52 59 53 41 54 44 55 58 56 77 57
REMARK SMILES IDX 42 58 43 59 57 61 78 62 45 63 29 64 30 65 38 66 31 67 37 68
REMARK SMILES IDX 39 69 36 70 32 71 33 72 34 73 35 74 61 75 62 76 70 77 63 78
REMARK SMILES IDX 69 79 71 80 68 81 64 82 65 83 66 84 67 85 46 86 47 87 55 88
REMARK SMILES IDX 48 89 54 90 56 91 53 92 49 93 50 94 51 95 52 96
REMARK H PARENT 13 6 6 11 83 23 17 30 76 49 44 60
REMARK Flexibility Score: inf
ROOT
ATOM      1  C   UNL A   1      38.401  21.702  25.759  1.00  0.00     0.042 C 
ENDROOT
BRANCH   1   2
ATOM      2  C   UNL A   1      36.958  21.507  25.286  1.00  0.00     0.118 C 
BRANCH   2   3
ATOM      3  N   UNL A   1      35.975  21.474  26.349  1.00  0.00    -0.351 N 
ATOM      4  C   UNL A   1      34.643  21.754  26.384  1.00  0.00     0.278 C 
ATOM      5  O   UNL A   1      34.041  21.412  27.407  1.00  0.00    -0.268 OA
ATOM      6  H   UNL A   1      36.343  21.194  27.218  1.00  0.00     0.163 HD
BRANCH   4   7
ATOM      7  C   UNL A   1      33.882  22.406  25.172  1.00  0.00     0.283 C 
BRANCH   7   8
ATOM      8  C   UNL A   1      33.794  21.522  23.909  1.00  0.00     0.175 C 
BRANCH   8   9
ATOM      9  C   UNL A   1      32.452  21.132  23.344  1.00  0.00     0.230 C 
ATOM     10  N   UNL A   1      32.020  19.842  23.279  1.00  0.00    -0.326 N 
ATOM     11  H   UNL A   1      31.119  19.736  22.895  1.00  0.00     0.169 HD
ATOM     12  O   UNL A   1      31.708  22.018  22.906  1.00  0.00    -0.274 OA
BRANCH  10  13
ATOM     13  C   UNL A   1      32.628  18.636  23.664  1.00  0.00     0.041 A 
ATOM     14  C   UNL A   1      35.143  15.525  25.239  1.00  0.00     0.044 C 
ATOM     15  C   UNL A   1      34.153  16.508  24.688  1.00  0.00    -0.051 A 
ATOM     16  C   UNL A   1      34.067  16.720  23.310  1.00  0.00     0.005 A 
ATOM     17  C   UNL A   1      33.383  17.301  25.540  1.00  0.00     0.005 A 
ATOM     18  C   UNL A   1      33.294  17.767  22.801  1.00  0.00     0.026 A 
ATOM     19  C   UNL A   1      32.609  18.345  25.030  1.00  0.00     0.026 A 
ENDBRANCH  10  13
ENDBRANCH   8   9
ENDBRANCH   7   8
BRANCH   7  20
ATOM     20  N   UNL A   1      34.531  23.727  24.850  1.00  0.00    -0.320 N 
ATOM     21  C   UNL A   1      34.338  24.761  25.890  1.00  0.00     0.291 C 
ATOM     22  C   UNL A   1      34.347  24.329  23.523  1.00  0.00     0.291 C 
ATOM     23  H   UNL A   1      35.497  23.400  24.832  1.00  0.00     0.348 HD
ATOM     24  C   UNL A   1      33.080  25.620  25.687  1.00  0.00     0.221 C 
ATOM     25  C   UNL A   1      33.096  25.203  23.378  1.00  0.00     0.221 C 
ATOM     26  O   UNL A   1      33.046  26.218  24.384  1.00  0.00    -0.370 OA
ENDBRANCH   7  20
ENDBRANCH   4   7
ENDBRANCH   2   3
ENDBRANCH   1   2
BRANCH   1  27
ATOM     27  C   UNL A   1      38.795  23.135  26.128  1.00  0.00     0.118 C 
BRANCH  27  28
ATOM     28  N   UNL A   1      40.251  23.283  26.243  1.00  0.00    -0.352 N 
ATOM     29  C   UNL A   1      41.010  24.332  26.712  1.00  0.00     0.251 C 
ATOM     30  H   UNL A   1      40.770  22.505  25.933  1.00  0.00     0.163 HD
ATOM     31  O   UNL A   1      42.229  24.231  26.844  1.00  0.00    -0.269 OA
BRANCH  29  32
ATOM     32  C   UNL A   1      40.331  25.558  27.167  1.00  0.00     0.039 A 
ATOM     33  C   UNL A   1      40.628  26.751  26.500  1.00  0.00     0.014 A 
ATOM     34  C   UNL A   1      39.578  25.562  28.338  1.00  0.00     0.014 A 
ATOM     35  C   UNL A   1      40.381  27.964  27.135  1.00  0.00     0.010 A 
ATOM     36  C   UNL A   1      39.376  26.765  28.991  1.00  0.00     0.010 A 
ATOM     37  C   UNL A   1      39.852  27.955  28.427  1.00  0.00    -0.014 A 
BRANCH  37  38
ATOM     38  C   UNL A   1      39.948  29.117  29.307  1.00  0.00     0.031 A 
ATOM     39  C   UNL A   1      38.905  30.156  29.334  1.00  0.00     0.074 A 
ATOM     40  C   UNL A   1      41.022  29.255  30.115  1.00  0.00     0.049 A 
ATOM     41  N   UNL A   1      39.124  31.394  29.629  1.00  0.00    -0.248 NA
ATOM     42  C   UNL A   1      37.516  29.877  29.000  1.00  0.00     0.031 C 
ATOM     43  C   UNL A   1      41.221  30.241  31.173  1.00  0.00     0.029 A 
ATOM     44  N   UNL A   1      42.270  28.655  29.960  1.00  0.00    -0.354 N 
ATOM     45  C   UNL A   1      37.906  32.001  29.813  1.00  0.00     0.074 A 
ATOM     46  C   UNL A   1      36.938  31.035  29.337  1.00  0.00     0.031 C 
ATOM     47  C   UNL A   1      42.539  30.388  31.381  1.00  0.00     0.029 A 
ATOM     48  C   UNL A   1      43.228  29.600  30.376  1.00  0.00     0.049 A 
ATOM     49  H   UNL A   1      42.448  27.746  29.626  1.00  0.00     0.167 HD
ATOM     50  C   UNL A   1      37.834  33.193  30.474  1.00  0.00     0.034 A 
ATOM     51  C   UNL A   1      44.168  30.061  29.499  1.00  0.00     0.034 A 
ATOM     52  C   UNL A   1      39.154  33.699  30.854  1.00  0.00     0.049 A 
ATOM     53  C   UNL A   1      44.079  31.555  29.231  1.00  0.00     0.074 A 
ATOM     54  C   UNL A   1      39.873  33.738  32.038  1.00  0.00     0.029 A 
ATOM     55  N   UNL A   1      40.047  34.060  29.860  1.00  0.00    -0.354 N 
ATOM     56  N   UNL A   1      43.179  32.346  29.750  1.00  0.00    -0.248 NA
ATOM     57  C   UNL A   1      44.946  32.258  28.283  1.00  0.00     0.031 C 
ATOM     58  C   UNL A   1      41.218  34.095  31.731  1.00  0.00     0.029 A 
ATOM     59  C   UNL A   1      41.312  34.289  30.365  1.00  0.00     0.049 A 
ATOM     60  H   UNL A   1      39.809  34.144  28.908  1.00  0.00     0.167 HD
ATOM     61  C   UNL A   1      43.276  33.588  29.178  1.00  0.00     0.074 A 
ATOM     62  C   UNL A   1      44.404  33.489  28.272  1.00  0.00     0.031 C 
ATOM     63  C   UNL A   1      42.396  34.598  29.445  1.00  0.00     0.034 A 
BRANCH  50  64
ATOM     64  C   UNL A   1      36.545  33.770  31.013  1.00  0.00     0.023 A 
ATOM     65  C   UNL A   1      35.602  34.310  30.115  1.00  0.00     0.031 A 
ATOM     66  C   UNL A   1      36.197  33.850  32.374  1.00  0.00     0.131 A 
ATOM     67  C   UNL A   1      34.458  34.989  30.572  1.00  0.00     0.055 A 
ATOM     68  C   UNL A   1      35.097  34.586  32.834  1.00  0.00     0.041 A 
ATOM     69  F   UNL A   1      36.873  33.173  33.312  1.00  0.00    -0.206 F 
ATOM     70  C   UNL A   1      34.227  35.176  31.931  1.00  0.00     0.022 A 
BRANCH  67  71
ATOM     71  S   UNL A   1      33.266  35.616  29.358  1.00  0.00     0.124 S 
ATOM     72  O   UNL A   1      34.133  36.173  28.327  1.00  0.00    -0.237 OA
ATOM     73  O   UNL A   1      32.529  34.408  29.001  1.00  0.00    -0.237 OA
ATOM     74  O   UNL A   1      32.498  36.603  30.117  1.00  0.00    -0.744 OA
ENDBRANCH  67  71
ENDBRANCH  50  64
BRANCH  51  75
ATOM     75  C   UNL A   1      44.595  29.011  28.522  1.00  0.00     0.023 A 
ATOM     76  C   UNL A   1      45.390  27.948  29.018  1.00  0.00     0.031 A 
ATOM     77  C   UNL A   1      43.955  28.823  27.291  1.00  0.00     0.131 A 
ATOM     78  C   UNL A   1      45.384  26.698  28.383  1.00  0.00     0.055 A 
ATOM     79  C   UNL A   1      44.027  27.599  26.613  1.00  0.00     0.041 A 
ATOM     80  F   UNL A   1      43.151  29.768  26.781  1.00  0.00    -0.206 F 
ATOM     81  C   UNL A   1      44.703  26.517  27.180  1.00  0.00     0.022 A 
BRANCH  78  82
ATOM     82  S   UNL A   1      46.041  25.263  29.289  1.00  0.00     0.124 S 
ATOM     83  O   UNL A   1      47.424  25.213  28.834  1.00  0.00    -0.237 OA
ATOM     84  O   UNL A   1      45.839  25.640  30.689  1.00  0.00    -0.237 OA
ATOM     85  O   UNL A   1      45.199  24.151  28.853  1.00  0.00    -0.744 OA
ENDBRANCH  78  82
ENDBRANCH  51  75
BRANCH  63  86
ATOM     86  C   UNL A   1      42.501  35.968  28.829  1.00  0.00     0.023 A 
ATOM     87  C   UNL A   1      43.070  37.050  29.520  1.00  0.00     0.031 A 
ATOM     88  C   UNL A   1      41.958  36.252  27.555  1.00  0.00     0.131 A 
ATOM     89  C   UNL A   1      43.142  38.323  28.925  1.00  0.00     0.055 A 
ATOM     90  C   UNL A   1      41.953  37.536  27.005  1.00  0.00     0.041 A 
ATOM     91  F   UNL A   1      41.451  35.284  26.776  1.00  0.00    -0.206 F 
ATOM     92  C   UNL A   1      42.558  38.581  27.686  1.00  0.00     0.022 A 
BRANCH  89  93
ATOM     93  S   UNL A   1      44.086  39.621  29.764  1.00  0.00     0.124 S 
ATOM     94  O   UNL A   1      45.464  39.289  29.420  1.00  0.00    -0.237 OA
ATOM     95  O   UNL A   1      43.548  40.826  29.138  1.00  0.00    -0.237 OA
ATOM     96  O   UNL A   1      43.737  39.448  31.172  1.00  0.00    -0.744 OA
ENDBRANCH  89  93
ENDBRANCH  63  86
ENDBRANCH  37  38
ENDBRANCH  29  32
ENDBRANCH  27  28
ENDBRANCH   1  27
TORSDOF 17
ENDMDL
MODEL 3
REMARK VINA RESULT:     -12.5      4.054     10.714
REMARK SMILES Cc1ccc(NC(=O)C[C@@H](C(=O)NCCCNC(=O)c2ccc(-c3c4nc(c(-c5cc(S(=O)(=O)[O-])ccc5F)c5ccc([nH]5)c(-c5cc(S(=O)(=O)[O-])ccc5F)c5nc(c(-c6cc(S(=O)(=O)[O-])ccc6F)c6ccc3[nH]6)C=C5)C=C4)cc2)[NH+]2CCOCC2)cc1
REMARK SMILES IDX 15 1 14 2 13 3 11 4 12 5 10 7 9 8 7 9 6 10 8 12 5 13 1 14
REMARK SMILES IDX 2 15 3 16 90 17 4 18 89 19 83 20 84 21 88 22 85 24 87 25
REMARK SMILES IDX 86 26 16 27 17 28 18 29 19 31 20 32 21 33 82 34 22 35 81 36
REMARK SMILES IDX 23 37 24 38 25 39 75 40 26 41 80 42 74 43 76 44 27 45 79 46
REMARK SMILES IDX 73 47 72 48 28 50 60 51 40 52 59 53 41 54 44 55 58 56 77 57
REMARK SMILES IDX 42 58 43 59 57 61 78 62 45 63 29 64 30 65 38 66 31 67 37 68
REMARK SMILES IDX 39 69 36 70 32 71 33 72 34 73 35 74 61 75 62 76 70 77 63 78
REMARK SMILES IDX 69 79 71 80 68 81 64 82 65 83 66 84 67 85 46 86 47 87 55 88
REMARK SMILES IDX 48 89 54 90 56 91 53 92 49 93 50 94 51 95 52 96
REMARK H PARENT 13 6 6 11 83 23 17 30 76 49 44 60
REMARK Flexibility Score: inf
ROOT
ATOM      1  C   UNL A   1      38.303  21.726  25.481  1.00  0.00     0.042 C 
ENDROOT
BRANCH   1   2
ATOM      2  C   UNL A   1      36.796  21.483  25.369  1.00  0.00     0.118 C 
BRANCH   2   3
ATOM      3  N   UNL A   1      36.016  22.023  26.462  1.00  0.00    -0.351 N 
ATOM      4  C   UNL A   1      34.787  22.608  26.519  1.00  0.00     0.278 C 
ATOM      5  O   UNL A   1      34.309  22.762  27.648  1.00  0.00    -0.268 OA
ATOM      6  H   UNL A   1      36.462  21.955  27.337  1.00  0.00     0.163 HD
BRANCH   4   7
ATOM      7  C   UNL A   1      33.976  23.002  25.232  1.00  0.00     0.283 C 
BRANCH   7   8
ATOM      8  C   UNL A   1      33.634  24.502  25.112  1.00  0.00     0.175 C 
BRANCH   8   9
ATOM      9  C   UNL A   1      33.939  25.255  23.841  1.00  0.00     0.230 C 
ATOM     10  N   UNL A   1      33.751  26.597  23.710  1.00  0.00    -0.326 N 
ATOM     11  H   UNL A   1      34.002  26.957  22.828  1.00  0.00     0.169 HD
ATOM     12  O   UNL A   1      34.371  24.629  22.865  1.00  0.00    -0.274 OA
BRANCH  10  13
ATOM     13  C   UNL A   1      33.263  27.561  24.608  1.00  0.00     0.041 A 
ATOM     14  C   UNL A   1      31.758  31.073  26.578  1.00  0.00     0.044 C 
ATOM     15  C   UNL A   1      32.224  29.767  26.006  1.00  0.00    -0.051 A 
ATOM     16  C   UNL A   1      33.516  29.308  26.267  1.00  0.00     0.005 A 
ATOM     17  C   UNL A   1      31.420  29.048  25.120  1.00  0.00     0.005 A 
ATOM     18  C   UNL A   1      34.026  28.200  25.585  1.00  0.00     0.026 A 
ATOM     19  C   UNL A   1      31.930  27.939  24.442  1.00  0.00     0.026 A 
ENDBRANCH  10  13
ENDBRANCH   8   9
ENDBRANCH   7   8
BRANCH   7  20
ATOM     20  N   UNL A   1      32.723  22.167  25.177  1.00  0.00    -0.320 N 
ATOM     21  C   UNL A   1      32.940  20.735  25.482  1.00  0.00     0.291 C 
ATOM     22  C   UNL A   1      31.811  22.288  24.033  1.00  0.00     0.291 C 
ATOM     23  H   UNL A   1      32.220  22.631  25.934  1.00  0.00     0.348 HD
ATOM     24  C   UNL A   1      33.259  19.877  24.248  1.00  0.00     0.221 C 
ATOM     25  C   UNL A   1      32.150  21.390  22.838  1.00  0.00     0.221 C 
ATOM     26  O   UNL A   1      32.261  20.019  23.228  1.00  0.00    -0.370 OA
ENDBRANCH   7  20
ENDBRANCH   4   7
ENDBRANCH   2   3
ENDBRANCH   1   2
BRANCH   1  27
ATOM     27  C   UNL A   1      38.722  23.002  26.216  1.00  0.00     0.118 C 
BRANCH  27  28
ATOM     28  N   UNL A   1      40.182  23.148  26.255  1.00  0.00    -0.352 N 
ATOM     29  C   UNL A   1      40.964  24.223  26.617  1.00  0.00     0.251 C 
ATOM     30  H   UNL A   1      40.684  22.347  25.978  1.00  0.00     0.163 HD
ATOM     31  O   UNL A   1      42.188  24.124  26.701  1.00  0.00    -0.269 OA
BRANCH  29  32
ATOM     32  C   UNL A   1      40.310  25.481  27.015  1.00  0.00     0.039 A 
ATOM     33  C   UNL A   1      40.729  26.658  26.385  1.00  0.00     0.014 A 
ATOM     34  C   UNL A   1      39.453  25.523  28.111  1.00  0.00     0.014 A 
ATOM     35  C   UNL A   1      40.485  27.882  27.002  1.00  0.00     0.010 A 
ATOM     36  C   UNL A   1      39.253  26.734  28.750  1.00  0.00     0.010 A 
ATOM     37  C   UNL A   1      39.840  27.898  28.240  1.00  0.00    -0.014 A 
BRANCH  37  38
ATOM     38  C   UNL A   1      39.913  29.053  29.132  1.00  0.00     0.031 A 
ATOM     39  C   UNL A   1      38.870  30.092  29.141  1.00  0.00     0.074 A 
ATOM     40  C   UNL A   1      40.966  29.182  29.969  1.00  0.00     0.049 A 
ATOM     41  N   UNL A   1      39.082  31.327  29.452  1.00  0.00    -0.248 NA
ATOM     42  C   UNL A   1      37.490  29.817  28.768  1.00  0.00     0.031 C 
ATOM     43  C   UNL A   1      41.137  30.159  31.041  1.00  0.00     0.029 A 
ATOM     44  N   UNL A   1      42.217  28.583  29.842  1.00  0.00    -0.354 N 
ATOM     45  C   UNL A   1      37.860  31.934  29.609  1.00  0.00     0.074 A 
ATOM     46  C   UNL A   1      36.905  30.973  29.099  1.00  0.00     0.031 C 
ATOM     47  C   UNL A   1      42.449  30.303  31.284  1.00  0.00     0.029 A 
ATOM     48  C   UNL A   1      43.165  29.524  30.291  1.00  0.00     0.049 A 
ATOM     49  H   UNL A   1      42.403  27.676  29.505  1.00  0.00     0.167 HD
ATOM     50  C   UNL A   1      37.772  33.120  30.278  1.00  0.00     0.034 A 
ATOM     51  C   UNL A   1      44.127  29.991  29.443  1.00  0.00     0.034 A 
ATOM     52  C   UNL A   1      39.082  33.622  30.697  1.00  0.00     0.049 A 
ATOM     53  C   UNL A   1      44.046  31.488  29.186  1.00  0.00     0.074 A 
ATOM     54  C   UNL A   1      39.769  33.650  31.900  1.00  0.00     0.029 A 
ATOM     55  N   UNL A   1      40.001  33.991  29.730  1.00  0.00    -0.354 N 
ATOM     56  N   UNL A   1      43.134  32.275  29.688  1.00  0.00    -0.248 NA
ATOM     57  C   UNL A   1      44.939  32.198  28.268  1.00  0.00     0.031 C 
ATOM     58  C   UNL A   1      41.122  34.008  31.632  1.00  0.00     0.029 A 
ATOM     59  C   UNL A   1      41.252  34.215  30.271  1.00  0.00     0.049 A 
ATOM     60  H   UNL A   1      39.788  34.083  28.773  1.00  0.00     0.167 HD
ATOM     61  C   UNL A   1      43.246  33.522  29.130  1.00  0.00     0.074 A 
ATOM     62  C   UNL A   1      44.398  33.429  28.253  1.00  0.00     0.031 C 
ATOM     63  C   UNL A   1      42.360  34.531  29.383  1.00  0.00     0.034 A 
BRANCH  50  64
ATOM     64  C   UNL A   1      36.470  33.693  30.788  1.00  0.00     0.023 A 
ATOM     65  C   UNL A   1      35.558  34.258  29.872  1.00  0.00     0.031 A 
ATOM     66  C   UNL A   1      36.079  33.747  32.139  1.00  0.00     0.131 A 
ATOM     67  C   UNL A   1      34.404  34.934  30.307  1.00  0.00     0.055 A 
ATOM     68  C   UNL A   1      34.968  34.480  32.579  1.00  0.00     0.041 A 
ATOM     69  F   UNL A   1      36.721  33.048  33.084  1.00  0.00    -0.206 F 
ATOM     70  C   UNL A   1      34.131  35.094  31.661  1.00  0.00     0.022 A 
BRANCH  67  71
ATOM     71  S   UNL A   1      33.254  35.593  29.069  1.00  0.00     0.124 S 
ATOM     72  O   UNL A   1      32.666  34.381  28.512  1.00  0.00    -0.237 OA
ATOM     73  O   UNL A   1      32.373  36.424  29.883  1.00  0.00    -0.237 OA
ATOM     74  O   UNL A   1      34.127  36.331  28.157  1.00  0.00    -0.744 OA
ENDBRANCH  67  71
ENDBRANCH  50  64
BRANCH  51  75
ATOM     75  C   UNL A   1      44.579  28.949  28.469  1.00  0.00     0.023 A 
ATOM     76  C   UNL A   1      45.335  27.866  28.982  1.00  0.00     0.031 A 
ATOM     77  C   UNL A   1      43.990  28.791  27.209  1.00  0.00     0.131 A 
ATOM     78  C   UNL A   1      45.336  26.626  28.327  1.00  0.00     0.055 A 
ATOM     79  C   UNL A   1      44.071  27.577  26.515  1.00  0.00     0.041 A 
ATOM     80  F   UNL A   1      43.224  29.757  26.680  1.00  0.00    -0.206 F 
ATOM     81  C   UNL A   1      44.705  26.474  27.093  1.00  0.00     0.022 A 
BRANCH  78  82
ATOM     82  S   UNL A   1      45.931  25.167  29.238  1.00  0.00     0.124 S 
ATOM     83  O   UNL A   1      45.580  24.075  28.339  1.00  0.00    -0.237 OA
ATOM     84  O   UNL A   1      47.360  25.438  29.392  1.00  0.00    -0.237 OA
ATOM     85  O   UNL A   1      45.186  25.205  30.495  1.00  0.00    -0.744 OA
ENDBRANCH  78  82
ENDBRANCH  51  75
BRANCH  63  86
ATOM     86  C   UNL A   1      42.482  35.906  28.781  1.00  0.00     0.023 A 
ATOM     87  C   UNL A   1      42.987  36.992  29.513  1.00  0.00     0.031 A 
ATOM     88  C   UNL A   1      42.019  36.188  27.476  1.00  0.00     0.131 A 
ATOM     89  C   UNL A   1      43.076  38.270  28.930  1.00  0.00     0.055 A 
ATOM     90  C   UNL A   1      42.028  37.475  26.933  1.00  0.00     0.041 A 
ATOM     91  F   UNL A   1      41.579  35.217  26.661  1.00  0.00    -0.206 F 
ATOM     92  C   UNL A   1      42.570  38.526  27.657  1.00  0.00     0.022 A 
BRANCH  89  93
ATOM     93  S   UNL A   1      43.942  39.578  29.836  1.00  0.00     0.124 S 
ATOM     94  O   UNL A   1      45.303  39.479  29.319  1.00  0.00    -0.237 OA
ATOM     95  O   UNL A   1      43.192  40.764  29.426  1.00  0.00    -0.237 OA
ATOM     96  O   UNL A   1      43.778  39.197  31.236  1.00  0.00    -0.744 OA
ENDBRANCH  89  93
ENDBRANCH  63  86
ENDBRANCH  37  38
ENDBRANCH  29  32
ENDBRANCH  27  28
ENDBRANCH   1  27
TORSDOF 17
ENDMDL
