MODEL 1
REMARK VINA RESULT:     -12.2      0.000      0.000
REMARK SMILES COc1cccc([C@H]2CC(c3ccc(S(C)(=O)=O)cc3)=NN2c2ccc(C(=O)NCCCNC(=O)c3ccc(-c4c5nc(c(-c6cc(S(=O)(=O)[O-])ccc6F)c6ccc([nH]6)c(-c6cc(S(=O)(=O)[O-])ccc6F)c6nc(c(-c7cc(S(=O)(=O)[O-])ccc7F)c7ccc4[nH]7)C=C6)C=C5)cc3)cc2)c1
REMARK SMILES IDX 31 1 30 2 29 3 27 4 28 5 26 7 23 8 24 9 100 10 25 11 99 12
REMARK SMILES IDX 22 13 8 14 9 15 10 16 21 17 7 18 3 19 4 20 101 21 5 22 6 23
REMARK SMILES IDX 2 24 1 25 11 26 12 27 20 28 13 29 19 30 14 31 15 32 16 33
REMARK SMILES IDX 17 34 18 35 32 36 33 37 34 38 35 40 36 41 37 42 98 43 38 44
REMARK SMILES IDX 97 45 39 46 40 47 41 48 91 49 42 50 96 51 90 52 92 53 43 54
REMARK SMILES IDX 95 55 89 56 88 57 44 59 76 60 56 61 75 62 57 63 60 64 74 65
REMARK SMILES IDX 93 66 58 67 59 68 73 70 94 71 61 72 45 73 46 74 54 75 47 76
REMARK SMILES IDX 53 77 55 78 52 79 48 80 49 81 50 82 51 83 77 84 78 85 86 86
REMARK SMILES IDX 79 87 85 88 87 89 84 90 80 91 81 92 82 93 83 94 62 95 63 96
REMARK SMILES IDX 71 97 64 98 70 99 72 100 69 101 65 102 66 103 67 104 68 105
REMARK H PARENT 29 6 33 39 92 58 60 69
REMARK Flexibility Score: inf
ROOT
ATOM      1  C   UNL A   1      37.188  29.654  29.104  1.00  0.00     0.042 C 
ENDROOT
BRANCH   1   2
ATOM      2  C   UNL A   1      36.606  29.719  27.693  1.00  0.00     0.118 C 
BRANCH   2   3
ATOM      3  N   UNL A   1      35.512  30.669  27.627  1.00  0.00    -0.352 N 
ATOM      4  C   UNL A   1      34.183  30.530  27.324  1.00  0.00     0.251 C 
ATOM      5  O   UNL A   1      33.479  31.539  27.395  1.00  0.00    -0.269 OA
ATOM      6  H   UNL A   1      35.776  31.593  27.839  1.00  0.00     0.163 HD
BRANCH   4   7
ATOM      7  C   UNL A   1      33.548  29.226  26.984  1.00  0.00     0.039 A 
ATOM      8  C   UNL A   1      32.454  26.759  26.139  1.00  0.00     0.060 A 
ATOM      9  C   UNL A   1      33.698  27.189  25.669  1.00  0.00     0.029 A 
ATOM     10  C   UNL A   1      31.796  27.546  27.085  1.00  0.00     0.029 A 
ATOM     11  C   UNL A   1      34.230  28.416  26.068  1.00  0.00     0.016 A 
ATOM     12  C   UNL A   1      32.356  28.748  27.533  1.00  0.00     0.016 A 
BRANCH   8  13
ATOM     13  N   UNL A   1      31.907  25.581  25.665  1.00  0.00    -0.257 N 
ATOM     14  C   UNL A   1      30.475  25.325  25.533  1.00  0.00     0.144 C 
ATOM     15  C   UNL A   1      30.443  23.869  25.043  1.00  0.00     0.091 C 
ATOM     16  C   UNL A   1      31.908  23.540  25.117  1.00  0.00     0.071 C 
ATOM     17  N   UNL A   1      32.700  24.508  25.448  1.00  0.00    -0.176 NA
BRANCH  14  18
ATOM     18  C   UNL A   1      29.832  26.307  24.566  1.00  0.00    -0.019 A 
ATOM     19  C   UNL A   1      30.003  28.209  23.043  1.00  0.00     0.119 A 
ATOM     20  C   UNL A   1      28.613  28.228  22.927  1.00  0.00     0.046 A 
ATOM     21  C   UNL A   1      30.605  27.256  23.866  1.00  0.00     0.052 A 
ATOM     22  C   UNL A   1      27.832  27.292  23.604  1.00  0.00     0.004 A 
ATOM     23  C   UNL A   1      28.437  26.335  24.418  1.00  0.00     0.006 A 
BRANCH  19  24
ATOM     24  O   UNL A   1      30.653  29.187  22.341  1.00  0.00    -0.497 OA
ATOM     25  C   UNL A   1      29.833  30.112  21.639  1.00  0.00     0.278 C 
ENDBRANCH  19  24
ENDBRANCH  14  18
BRANCH  16  26
ATOM     26  C   UNL A   1      32.409  22.188  24.856  1.00  0.00    -0.002 A 
ATOM     27  C   UNL A   1      32.103  21.595  23.628  1.00  0.00     0.011 A 
ATOM     28  C   UNL A   1      33.110  21.488  25.841  1.00  0.00     0.011 A 
ATOM     29  C   UNL A   1      32.507  20.287  23.371  1.00  0.00     0.021 A 
ATOM     30  C   UNL A   1      33.491  20.167  25.597  1.00  0.00     0.021 A 
ATOM     31  C   UNL A   1      33.180  19.572  24.367  1.00  0.00     0.067 A 
BRANCH  31  32
ATOM     32  S   UNL A   1      33.630  17.880  24.059  1.00  0.00     0.175 S 
ATOM     33  C   UNL A   1      32.830  16.974  25.359  1.00  0.00     0.163 C 
ATOM     34  O   UNL A   1      33.026  17.509  22.796  1.00  0.00    -0.224 OA
ATOM     35  O   UNL A   1      35.062  17.765  24.266  1.00  0.00    -0.224 OA
ENDBRANCH  31  32
ENDBRANCH  16  26
ENDBRANCH   8  13
ENDBRANCH   4   7
ENDBRANCH   2   3
ENDBRANCH   1   2
BRANCH   1  36
ATOM     36  C   UNL A   1      37.639  31.014  29.631  1.00  0.00     0.118 C 
BRANCH  36  37
ATOM     37  N   UNL A   1      37.120  31.273  30.965  1.00  0.00    -0.352 N 
ATOM     38  C   UNL A   1      37.561  30.821  32.183  1.00  0.00     0.251 C 
ATOM     39  H   UNL A   1      36.333  31.863  30.999  1.00  0.00     0.163 HD
ATOM     40  O   UNL A   1      36.833  30.948  33.165  1.00  0.00    -0.269 OA
BRANCH  38  41
ATOM     41  C   UNL A   1      38.887  30.178  32.317  1.00  0.00     0.039 A 
ATOM     42  C   UNL A   1      38.957  28.782  32.357  1.00  0.00     0.014 A 
ATOM     43  C   UNL A   1      40.053  30.938  32.451  1.00  0.00     0.014 A 
ATOM     44  C   UNL A   1      40.196  28.150  32.485  1.00  0.00     0.010 A 
ATOM     45  C   UNL A   1      41.293  30.307  32.512  1.00  0.00     0.010 A 
ATOM     46  C   UNL A   1      41.378  28.906  32.536  1.00  0.00    -0.014 A 
BRANCH  46  47
ATOM     47  C   UNL A   1      42.709  28.253  32.630  1.00  0.00     0.031 A 
ATOM     48  C   UNL A   1      43.319  27.972  33.977  1.00  0.00     0.074 A 
ATOM     49  C   UNL A   1      43.393  27.970  31.504  1.00  0.00     0.049 A 
ATOM     50  N   UNL A   1      44.502  27.498  34.269  1.00  0.00    -0.248 NA
ATOM     51  C   UNL A   1      42.494  28.296  35.151  1.00  0.00     0.031 C 
ATOM     52  C   UNL A   1      42.918  28.225  30.141  1.00  0.00     0.029 A 
ATOM     53  N   UNL A   1      44.638  27.419  31.322  1.00  0.00    -0.354 N 
ATOM     54  C   UNL A   1      44.573  27.482  35.659  1.00  0.00     0.074 A 
ATOM     55  C   UNL A   1      43.331  28.046  36.145  1.00  0.00     0.031 C 
ATOM     56  C   UNL A   1      43.852  27.816  29.267  1.00  0.00     0.029 A 
ATOM     57  C   UNL A   1      45.009  27.315  30.001  1.00  0.00     0.049 A 
ATOM     58  H   UNL A   1      45.210  27.127  32.068  1.00  0.00     0.167 HD
ATOM     59  C   UNL A   1      45.572  27.021  36.453  1.00  0.00     0.034 A 
ATOM     60  C   UNL A   1      46.158  26.881  29.446  1.00  0.00     0.034 A 
ATOM     61  C   UNL A   1      46.797  26.450  35.947  1.00  0.00     0.049 A 
ATOM     62  C   UNL A   1      47.263  26.395  30.348  1.00  0.00     0.074 A 
ATOM     63  C   UNL A   1      47.854  25.907  36.658  1.00  0.00     0.029 A 
ATOM     64  N   UNL A   1      47.137  26.355  34.603  1.00  0.00    -0.354 N 
ATOM     65  N   UNL A   1      47.297  26.347  31.660  1.00  0.00    -0.248 NA
ATOM     66  C   UNL A   1      48.479  25.895  29.695  1.00  0.00     0.031 C 
ATOM     67  C   UNL A   1      48.855  25.543  35.750  1.00  0.00     0.029 A 
ATOM     68  C   UNL A   1      48.395  25.788  34.466  1.00  0.00     0.049 A 
ATOM     69  H   UNL A   1      46.566  26.647  33.856  1.00  0.00     0.167 HD
ATOM     70  C   UNL A   1      48.527  25.780  31.987  1.00  0.00     0.074 A 
ATOM     71  C   UNL A   1      49.196  25.492  30.735  1.00  0.00     0.031 C 
ATOM     72  C   UNL A   1      49.053  25.516  33.209  1.00  0.00     0.034 A 
BRANCH  59  73
ATOM     73  C   UNL A   1      45.384  27.142  37.947  1.00  0.00     0.023 A 
ATOM     74  C   UNL A   1      45.818  28.276  38.658  1.00  0.00     0.031 A 
ATOM     75  C   UNL A   1      44.786  26.100  38.677  1.00  0.00     0.131 A 
ATOM     76  C   UNL A   1      45.721  28.307  40.056  1.00  0.00     0.055 A 
ATOM     77  C   UNL A   1      44.616  26.173  40.061  1.00  0.00     0.041 A 
ATOM     78  F   UNL A   1      44.369  24.984  38.059  1.00  0.00    -0.206 F 
ATOM     79  C   UNL A   1      45.099  27.273  40.761  1.00  0.00     0.022 A 
BRANCH  76  80
ATOM     80  S   UNL A   1      46.548  29.649  40.952  1.00  0.00     0.124 S 
ATOM     81  O   UNL A   1      47.460  30.165  39.934  1.00  0.00    -0.237 OA
ATOM     82  O   UNL A   1      45.435  30.519  41.314  1.00  0.00    -0.237 OA
ATOM     83  O   UNL A   1      47.196  28.967  42.071  1.00  0.00    -0.744 OA
ENDBRANCH  76  80
ENDBRANCH  59  73
BRANCH  60  84
ATOM     84  C   UNL A   1      46.334  26.896  27.966  1.00  0.00     0.023 A 
ATOM     85  C   UNL A   1      46.122  25.738  27.201  1.00  0.00     0.031 A 
ATOM     86  C   UNL A   1      46.753  28.061  27.298  1.00  0.00     0.131 A 
ATOM     87  C   UNL A   1      46.377  25.755  25.821  1.00  0.00     0.055 A 
ATOM     88  C   UNL A   1      46.954  28.087  25.916  1.00  0.00     0.041 A 
ATOM     89  F   UNL A   1      46.962  29.198  27.980  1.00  0.00    -0.206 F 
ATOM     90  C   UNL A   1      46.778  26.925  25.172  1.00  0.00     0.022 A 
BRANCH  87  91
ATOM     91  S   UNL A   1      46.254  24.200  24.897  1.00  0.00     0.124 S 
ATOM     92  O   UNL A   1      47.230  24.408  23.832  1.00  0.00    -0.237 OA
ATOM     93  O   UNL A   1      46.613  23.216  25.913  1.00  0.00    -0.237 OA
ATOM     94  O   UNL A   1      44.858  24.169  24.467  1.00  0.00    -0.744 OA
ENDBRANCH  87  91
ENDBRANCH  60  84
BRANCH  72  95
ATOM     95  C   UNL A   1      50.400  24.837  33.243  1.00  0.00     0.023 A 
ATOM     96  C   UNL A   1      50.529  23.442  33.135  1.00  0.00     0.031 A 
ATOM     97  C   UNL A   1      51.571  25.601  33.397  1.00  0.00     0.131 A 
ATOM     98  C   UNL A   1      51.797  22.848  33.237  1.00  0.00     0.055 A 
ATOM     99  C   UNL A   1      52.834  25.010  33.438  1.00  0.00     0.041 A 
ATOM    100  F   UNL A   1      51.505  26.937  33.507  1.00  0.00    -0.206 F 
ATOM    101  C   UNL A   1      52.951  23.625  33.371  1.00  0.00     0.022 A 
BRANCH  98 102
ATOM    102  S   UNL A   1      51.911  21.039  33.281  1.00  0.00     0.124 S 
ATOM    103  O   UNL A   1      52.922  20.772  32.263  1.00  0.00    -0.237 OA
ATOM    104  O   UNL A   1      52.316  20.785  34.661  1.00  0.00    -0.237 OA
ATOM    105  O   UNL A   1      50.558  20.600  32.942  1.00  0.00    -0.744 OA
ENDBRANCH  98 102
ENDBRANCH  72  95
ENDBRANCH  46  47
ENDBRANCH  38  41
ENDBRANCH  36  37
ENDBRANCH   1  36
TORSDOF 18
ENDMDL
MODEL 2
REMARK VINA RESULT:     -12.1      5.639     13.914
REMARK SMILES COc1cccc([C@H]2CC(c3ccc(S(C)(=O)=O)cc3)=NN2c2ccc(C(=O)NCCCNC(=O)c3ccc(-c4c5nc(c(-c6cc(S(=O)(=O)[O-])ccc6F)c6ccc([nH]6)c(-c6cc(S(=O)(=O)[O-])ccc6F)c6nc(c(-c7cc(S(=O)(=O)[O-])ccc7F)c7ccc4[nH]7)C=C6)C=C5)cc3)cc2)c1
REMARK SMILES IDX 31 1 30 2 29 3 27 4 28 5 26 7 23 8 24 9 100 10 25 11 99 12
REMARK SMILES IDX 22 13 8 14 9 15 10 16 21 17 7 18 3 19 4 20 101 21 5 22 6 23
REMARK SMILES IDX 2 24 1 25 11 26 12 27 20 28 13 29 19 30 14 31 15 32 16 33
REMARK SMILES IDX 17 34 18 35 32 36 33 37 34 38 35 40 36 41 37 42 98 43 38 44
REMARK SMILES IDX 97 45 39 46 40 47 41 48 91 49 42 50 96 51 90 52 92 53 43 54
REMARK SMILES IDX 95 55 89 56 88 57 44 59 76 60 56 61 75 62 57 63 60 64 74 65
REMARK SMILES IDX 93 66 58 67 59 68 73 70 94 71 61 72 45 73 46 74 54 75 47 76
REMARK SMILES IDX 53 77 55 78 52 79 48 80 49 81 50 82 51 83 77 84 78 85 86 86
REMARK SMILES IDX 79 87 85 88 87 89 84 90 80 91 81 92 82 93 83 94 62 95 63 96
REMARK SMILES IDX 71 97 64 98 70 99 72 100 69 101 65 102 66 103 67 104 68 105
REMARK H PARENT 29 6 33 39 92 58 60 69
REMARK Flexibility Score: inf
ROOT
ATOM      1  C   UNL A   1      42.254  22.218  25.905  1.00  0.00     0.042 C 
ENDROOT
BRANCH   1   2
ATOM      2  C   UNL A   1      42.979  23.399  26.549  1.00  0.00     0.118 C 
BRANCH   2   3
ATOM      3  N   UNL A   1      44.416  23.259  26.421  1.00  0.00    -0.352 N 
ATOM      4  C   UNL A   1      45.449  23.472  27.296  1.00  0.00     0.251 C 
ATOM      5  O   UNL A   1      46.587  23.219  26.900  1.00  0.00    -0.269 OA
ATOM      6  H   UNL A   1      44.708  22.952  25.532  1.00  0.00     0.163 HD
BRANCH   4   7
ATOM      7  C   UNL A   1      45.255  23.924  28.702  1.00  0.00     0.039 A 
ATOM      8  C   UNL A   1      44.670  24.715  31.354  1.00  0.00     0.060 A 
ATOM      9  C   UNL A   1      43.959  23.678  30.743  1.00  0.00     0.029 A 
ATOM     10  C   UNL A   1      45.717  25.305  30.646  1.00  0.00     0.029 A 
ATOM     11  C   UNL A   1      44.232  23.300  29.427  1.00  0.00     0.016 A 
ATOM     12  C   UNL A   1      46.034  24.887  29.348  1.00  0.00     0.016 A 
BRANCH   8  13
ATOM     13  N   UNL A   1      44.326  25.130  32.627  1.00  0.00    -0.257 N 
ATOM     14  C   UNL A   1      43.996  24.233  33.731  1.00  0.00     0.144 C 
ATOM     15  C   UNL A   1      43.627  25.213  34.856  1.00  0.00     0.091 C 
ATOM     16  C   UNL A   1      43.705  26.512  34.101  1.00  0.00     0.071 C 
ATOM     17  N   UNL A   1      44.109  26.441  32.874  1.00  0.00    -0.176 NA
BRANCH  14  18
ATOM     18  C   UNL A   1      45.172  23.330  34.071  1.00  0.00    -0.019 A 
ATOM     19  C   UNL A   1      46.061  21.135  34.666  1.00  0.00     0.119 A 
ATOM     20  C   UNL A   1      47.315  21.710  34.873  1.00  0.00     0.046 A 
ATOM     21  C   UNL A   1      44.995  21.946  34.274  1.00  0.00     0.052 A 
ATOM     22  C   UNL A   1      47.511  23.075  34.667  1.00  0.00     0.004 A 
ATOM     23  C   UNL A   1      46.447  23.882  34.267  1.00  0.00     0.006 A 
BRANCH  19  24
ATOM     24  O   UNL A   1      45.995  19.791  34.914  1.00  0.00    -0.497 OA
ATOM     25  C   UNL A   1      45.941  19.402  36.281  1.00  0.00     0.278 C 
ENDBRANCH  19  24
ENDBRANCH  14  18
BRANCH  16  26
ATOM     26  C   UNL A   1      43.316  27.784  34.715  1.00  0.00    -0.002 A 
ATOM     27  C   UNL A   1      44.322  28.706  35.019  1.00  0.00     0.011 A 
ATOM     28  C   UNL A   1      41.983  28.033  35.049  1.00  0.00     0.011 A 
ATOM     29  C   UNL A   1      43.997  29.899  35.661  1.00  0.00     0.021 A 
ATOM     30  C   UNL A   1      41.659  29.214  35.718  1.00  0.00     0.021 A 
ATOM     31  C   UNL A   1      42.668  30.135  36.028  1.00  0.00     0.067 A 
BRANCH  31  32
ATOM     32  S   UNL A   1      42.270  31.627  36.910  1.00  0.00     0.175 S 
ATOM     33  C   UNL A   1      40.595  31.978  36.437  1.00  0.00     0.163 C 
ATOM     34  O   UNL A   1      42.295  31.299  38.321  1.00  0.00    -0.224 OA
ATOM     35  O   UNL A   1      43.104  32.687  36.374  1.00  0.00    -0.224 OA
ENDBRANCH  31  32
ENDBRANCH  16  26
ENDBRANCH   8  13
ENDBRANCH   4   7
ENDBRANCH   2   3
ENDBRANCH   1   2
BRANCH   1  36
ATOM     36  C   UNL A   1      41.118  21.669  26.764  1.00  0.00     0.118 C 
BRANCH  36  37
ATOM     37  N   UNL A   1      39.821  21.875  26.136  1.00  0.00    -0.352 N 
ATOM     38  C   UNL A   1      38.964  22.943  26.216  1.00  0.00     0.251 C 
ATOM     39  H   UNL A   1      39.512  21.133  25.567  1.00  0.00     0.163 HD
ATOM     40  O   UNL A   1      37.810  22.811  25.818  1.00  0.00    -0.269 OA
BRANCH  38  41
ATOM     41  C   UNL A   1      39.415  24.233  26.785  1.00  0.00     0.039 A 
ATOM     42  C   UNL A   1      40.014  25.169  25.937  1.00  0.00     0.014 A 
ATOM     43  C   UNL A   1      39.298  24.505  28.151  1.00  0.00     0.014 A 
ATOM     44  C   UNL A   1      40.450  26.394  26.448  1.00  0.00     0.010 A 
ATOM     45  C   UNL A   1      39.674  25.751  28.648  1.00  0.00     0.010 A 
ATOM     46  C   UNL A   1      40.260  26.706  27.804  1.00  0.00    -0.014 A 
BRANCH  46  47
ATOM     47  C   UNL A   1      40.679  28.019  28.360  1.00  0.00     0.031 A 
ATOM     48  C   UNL A   1      42.139  28.314  28.578  1.00  0.00     0.074 A 
ATOM     49  C   UNL A   1      39.743  28.918  28.724  1.00  0.00     0.049 A 
ATOM     50  N   UNL A   1      42.700  29.356  29.136  1.00  0.00    -0.248 NA
ATOM     51  C   UNL A   1      43.090  27.284  28.134  1.00  0.00     0.031 C 
ATOM     52  C   UNL A   1      38.296  28.731  28.589  1.00  0.00     0.029 A 
ATOM     53  N   UNL A   1      39.864  30.161  29.293  1.00  0.00    -0.354 N 
ATOM     54  C   UNL A   1      44.067  29.102  29.126  1.00  0.00     0.074 A 
ATOM     55  C   UNL A   1      44.242  27.782  28.556  1.00  0.00     0.031 C 
ATOM     56  C   UNL A   1      37.668  29.826  29.046  1.00  0.00     0.029 A 
ATOM     57  C   UNL A   1      38.658  30.772  29.550  1.00  0.00     0.049 A 
ATOM     58  H   UNL A   1      40.733  30.576  29.498  1.00  0.00     0.167 HD
ATOM     59  C   UNL A   1      45.083  29.904  29.536  1.00  0.00     0.034 A 
ATOM     60  C   UNL A   1      38.382  31.952  30.139  1.00  0.00     0.034 A 
ATOM     61  C   UNL A   1      44.888  31.222  30.090  1.00  0.00     0.049 A 
ATOM     62  C   UNL A   1      39.525  32.815  30.608  1.00  0.00     0.074 A 
ATOM     63  C   UNL A   1      45.844  32.139  30.491  1.00  0.00     0.029 A 
ATOM     64  N   UNL A   1      43.652  31.811  30.329  1.00  0.00    -0.354 N 
ATOM     65  N   UNL A   1      40.816  32.579  30.553  1.00  0.00    -0.248 NA
ATOM     66  C   UNL A   1      39.175  34.109  31.207  1.00  0.00     0.031 C 
ATOM     67  C   UNL A   1      45.188  33.252  31.031  1.00  0.00     0.029 A 
ATOM     68  C   UNL A   1      43.822  33.064  30.897  1.00  0.00     0.049 A 
ATOM     69  H   UNL A   1      42.782  31.398  30.125  1.00  0.00     0.167 HD
ATOM     70  C   UNL A   1      41.432  33.711  31.082  1.00  0.00     0.074 A 
ATOM     71  C   UNL A   1      40.372  34.631  31.436  1.00  0.00     0.031 C 
ATOM     72  C   UNL A   1      42.753  33.968  31.254  1.00  0.00     0.034 A 
BRANCH  59  73
ATOM     73  C   UNL A   1      46.487  29.359  29.422  1.00  0.00     0.023 A 
ATOM     74  C   UNL A   1      47.241  29.497  28.243  1.00  0.00     0.031 A 
ATOM     75  C   UNL A   1      47.073  28.669  30.498  1.00  0.00     0.131 A 
ATOM     76  C   UNL A   1      48.500  28.888  28.139  1.00  0.00     0.055 A 
ATOM     77  C   UNL A   1      48.362  28.136  30.418  1.00  0.00     0.041 A 
ATOM     78  F   UNL A   1      46.398  28.487  31.643  1.00  0.00    -0.206 F 
ATOM     79  C   UNL A   1      49.077  28.230  29.228  1.00  0.00     0.022 A 
BRANCH  76  80
ATOM     80  S   UNL A   1      49.310  28.843  26.518  1.00  0.00     0.124 S 
ATOM     81  O   UNL A   1      49.835  30.204  26.413  1.00  0.00    -0.237 OA
ATOM     82  O   UNL A   1      50.302  27.788  26.689  1.00  0.00    -0.237 OA
ATOM     83  O   UNL A   1      48.219  28.531  25.597  1.00  0.00    -0.744 OA
ENDBRANCH  76  80
ENDBRANCH  59  73
BRANCH  60  84
ATOM     84  C   UNL A   1      36.970  32.385  30.335  1.00  0.00     0.023 A 
ATOM     85  C   UNL A   1      36.267  33.043  29.313  1.00  0.00     0.031 A 
ATOM     86  C   UNL A   1      36.313  32.183  31.563  1.00  0.00     0.131 A 
ATOM     87  C   UNL A   1      34.967  33.517  29.551  1.00  0.00     0.055 A 
ATOM     88  C   UNL A   1      35.001  32.609  31.777  1.00  0.00     0.041 A 
ATOM     89  F   UNL A   1      36.936  31.554  32.572  1.00  0.00    -0.206 F 
ATOM     90  C   UNL A   1      34.325  33.293  30.771  1.00  0.00     0.022 A 
BRANCH  87  91
ATOM     91  S   UNL A   1      34.156  34.505  28.265  1.00  0.00     0.124 S 
ATOM     92  O   UNL A   1      35.135  34.449  27.185  1.00  0.00    -0.237 OA
ATOM     93  O   UNL A   1      32.919  33.763  28.049  1.00  0.00    -0.237 OA
ATOM     94  O   UNL A   1      33.994  35.814  28.894  1.00  0.00    -0.744 OA
ENDBRANCH  87  91
ENDBRANCH  60  84
BRANCH  72  95
ATOM     95  C   UNL A   1      43.120  35.324  31.807  1.00  0.00     0.023 A 
ATOM     96  C   UNL A   1      43.538  36.375  30.974  1.00  0.00     0.031 A 
ATOM     97  C   UNL A   1      43.061  35.559  33.192  1.00  0.00     0.131 A 
ATOM     98  C   UNL A   1      43.932  37.598  31.538  1.00  0.00     0.055 A 
ATOM     99  C   UNL A   1      43.397  36.796  33.742  1.00  0.00     0.041 A 
ATOM    100  F   UNL A   1      42.671  34.589  34.034  1.00  0.00    -0.206 F 
ATOM    101  C   UNL A   1      43.848  37.820  32.914  1.00  0.00     0.022 A 
BRANCH  98 102
ATOM    102  S   UNL A   1      44.641  38.869  30.455  1.00  0.00     0.124 S 
ATOM    103  O   UNL A   1      43.555  39.103  29.509  1.00  0.00    -0.237 OA
ATOM    104  O   UNL A   1      44.917  39.956  31.389  1.00  0.00    -0.237 OA
ATOM    105  O   UNL A   1      45.824  38.220  29.893  1.00  0.00    -0.744 OA
ENDBRANCH  98 102
ENDBRANCH  72  95
ENDBRANCH  46  47
ENDBRANCH  38  41
ENDBRANCH  36  37
ENDBRANCH   1  36
TORSDOF 18
ENDMDL
MODEL 3
REMARK VINA RESULT:     -11.7      7.553     12.819
REMARK SMILES COc1cccc([C@H]2CC(c3ccc(S(C)(=O)=O)cc3)=NN2c2ccc(C(=O)NCCCNC(=O)c3ccc(-c4c5nc(c(-c6cc(S(=O)(=O)[O-])ccc6F)c6ccc([nH]6)c(-c6cc(S(=O)(=O)[O-])ccc6F)c6nc(c(-c7cc(S(=O)(=O)[O-])ccc7F)c7ccc4[nH]7)C=C6)C=C5)cc3)cc2)c1
REMARK SMILES IDX 31 1 30 2 29 3 27 4 28 5 26 7 23 8 24 9 100 10 25 11 99 12
REMARK SMILES IDX 22 13 8 14 9 15 10 16 21 17 7 18 3 19 4 20 101 21 5 22 6 23
REMARK SMILES IDX 2 24 1 25 11 26 12 27 20 28 13 29 19 30 14 31 15 32 16 33
REMARK SMILES IDX 17 34 18 35 32 36 33 37 34 38 35 40 36 41 37 42 98 43 38 44
REMARK SMILES IDX 97 45 39 46 40 47 41 48 91 49 42 50 96 51 90 52 92 53 43 54
REMARK SMILES IDX 95 55 89 56 88 57 44 59 76 60 56 61 75 62 57 63 60 64 74 65
REMARK SMILES IDX 93 66 58 67 59 68 73 70 94 71 61 72 45 73 46 74 54 75 47 76
REMARK SMILES IDX 53 77 55 78 52 79 48 80 49 81 50 82 51 83 77 84 78 85 86 86
REMARK SMILES IDX 79 87 85 88 87 89 84 90 80 91 81 92 82 93 83 94 62 95 63 96
REMARK SMILES IDX 71 97 64 98 70 99 72 100 69 101 65 102 66 103 67 104 68 105
REMARK H PARENT 29 6 33 39 92 58 60 69
REMARK Flexibility Score: inf
ROOT
ATOM      1  C   UNL A   1      46.853  31.604  26.709  1.00  0.00     0.042 C 
ENDROOT
BRANCH   1   2
ATOM      2  C   UNL A   1      45.503  30.905  26.558  1.00  0.00     0.118 C 
BRANCH   2   3
ATOM      3  N   UNL A   1      45.608  29.497  26.891  1.00  0.00    -0.352 N 
ATOM      4  C   UNL A   1      44.743  28.622  27.494  1.00  0.00     0.251 C 
ATOM      5  O   UNL A   1      45.108  27.450  27.603  1.00  0.00    -0.269 OA
ATOM      6  H   UNL A   1      46.468  29.091  26.636  1.00  0.00     0.163 HD
BRANCH   4   7
ATOM      7  C   UNL A   1      43.378  29.000  27.955  1.00  0.00     0.039 A 
ATOM      8  C   UNL A   1      40.873  29.736  29.043  1.00  0.00     0.060 A 
ATOM      9  C   UNL A   1      42.064  30.155  29.642  1.00  0.00     0.029 A 
ATOM     10  C   UNL A   1      40.950  29.001  27.860  1.00  0.00     0.029 A 
ATOM     11  C   UNL A   1      43.302  29.775  29.119  1.00  0.00     0.016 A 
ATOM     12  C   UNL A   1      42.190  28.671  27.299  1.00  0.00     0.016 A 
BRANCH   8  13
ATOM     13  N   UNL A   1      39.660  30.052  29.626  1.00  0.00    -0.257 N 
ATOM     14  C   UNL A   1      39.052  29.313  30.730  1.00  0.00     0.144 C 
ATOM     15  C   UNL A   1      37.710  30.039  30.916  1.00  0.00     0.091 C 
ATOM     16  C   UNL A   1      37.774  30.999  29.759  1.00  0.00     0.071 C 
ATOM     17  N   UNL A   1      38.870  30.998  29.070  1.00  0.00    -0.176 NA
BRANCH  14  18
ATOM     18  C   UNL A   1      39.940  29.348  31.964  1.00  0.00    -0.019 A 
ATOM     19  C   UNL A   1      41.415  28.221  33.552  1.00  0.00     0.119 A 
ATOM     20  C   UNL A   1      41.429  29.372  34.340  1.00  0.00     0.046 A 
ATOM     21  C   UNL A   1      40.666  28.211  32.374  1.00  0.00     0.052 A 
ATOM     22  C   UNL A   1      40.725  30.510  33.946  1.00  0.00     0.004 A 
ATOM     23  C   UNL A   1      39.986  30.500  32.764  1.00  0.00     0.006 A 
BRANCH  19  24
ATOM     24  O   UNL A   1      42.133  27.171  34.054  1.00  0.00    -0.497 OA
ATOM     25  C   UNL A   1      41.579  26.508  35.184  1.00  0.00     0.278 C 
ENDBRANCH  19  24
ENDBRANCH  14  18
BRANCH  16  26
ATOM     26  C   UNL A   1      36.646  31.866  29.414  1.00  0.00    -0.002 A 
ATOM     27  C   UNL A   1      36.804  33.247  29.563  1.00  0.00     0.011 A 
ATOM     28  C   UNL A   1      35.424  31.318  29.017  1.00  0.00     0.011 A 
ATOM     29  C   UNL A   1      35.731  34.098  29.306  1.00  0.00     0.021 A 
ATOM     30  C   UNL A   1      34.340  32.167  28.787  1.00  0.00     0.021 A 
ATOM     31  C   UNL A   1      34.498  33.550  28.941  1.00  0.00     0.067 A 
BRANCH  31  32
ATOM     32  S   UNL A   1      33.114  34.636  28.683  1.00  0.00     0.175 S 
ATOM     33  C   UNL A   1      33.854  36.179  28.211  1.00  0.00     0.163 C 
ATOM     34  O   UNL A   1      32.374  34.112  27.554  1.00  0.00    -0.224 OA
ATOM     35  O   UNL A   1      32.471  34.838  29.969  1.00  0.00    -0.224 OA
ENDBRANCH  31  32
ENDBRANCH  16  26
ENDBRANCH   8  13
ENDBRANCH   4   7
ENDBRANCH   2   3
ENDBRANCH   1   2
BRANCH   1  36
ATOM     36  C   UNL A   1      46.753  32.958  27.409  1.00  0.00     0.118 C 
BRANCH  36  37
ATOM     37  N   UNL A   1      45.966  33.906  26.634  1.00  0.00    -0.352 N 
ATOM     38  C   UNL A   1      44.764  34.499  26.928  1.00  0.00     0.251 C 
ATOM     39  H   UNL A   1      46.356  34.161  25.767  1.00  0.00     0.163 HD
ATOM     40  O   UNL A   1      44.146  35.069  26.032  1.00  0.00    -0.269 OA
BRANCH  38  41
ATOM     41  C   UNL A   1      44.209  34.444  28.299  1.00  0.00     0.039 A 
ATOM     42  C   UNL A   1      43.947  35.644  28.967  1.00  0.00     0.014 A 
ATOM     43  C   UNL A   1      43.992  33.224  28.947  1.00  0.00     0.014 A 
ATOM     44  C   UNL A   1      43.425  35.620  30.263  1.00  0.00     0.010 A 
ATOM     45  C   UNL A   1      43.412  33.200  30.213  1.00  0.00     0.010 A 
ATOM     46  C   UNL A   1      43.128  34.398  30.888  1.00  0.00    -0.014 A 
BRANCH  46  47
ATOM     47  C   UNL A   1      42.534  34.351  32.249  1.00  0.00     0.031 A 
ATOM     48  C   UNL A   1      43.426  34.276  33.458  1.00  0.00     0.074 A 
ATOM     49  C   UNL A   1      41.194  34.313  32.390  1.00  0.00     0.049 A 
ATOM     50  N   UNL A   1      43.104  34.134  34.719  1.00  0.00    -0.248 NA
ATOM     51  C   UNL A   1      44.874  34.343  33.212  1.00  0.00     0.031 C 
ATOM     52  C   UNL A   1      40.228  34.348  31.289  1.00  0.00     0.029 A 
ATOM     53  N   UNL A   1      40.411  34.224  33.514  1.00  0.00    -0.354 N 
ATOM     54  C   UNL A   1      44.308  34.077  35.414  1.00  0.00     0.074 A 
ATOM     55  C   UNL A   1      45.363  34.145  34.426  1.00  0.00     0.031 C 
ATOM     56  C   UNL A   1      38.985  34.298  31.794  1.00  0.00     0.029 A 
ATOM     57  C   UNL A   1      39.062  34.179  33.246  1.00  0.00     0.049 A 
ATOM     58  H   UNL A   1      40.781  34.194  34.426  1.00  0.00     0.167 HD
ATOM     59  C   UNL A   1      44.511  33.996  36.753  1.00  0.00     0.034 A 
ATOM     60  C   UNL A   1      38.008  34.042  34.075  1.00  0.00     0.034 A 
ATOM     61  C   UNL A   1      43.444  33.942  37.723  1.00  0.00     0.049 A 
ATOM     62  C   UNL A   1      38.260  33.929  35.557  1.00  0.00     0.074 A 
ATOM     63  C   UNL A   1      43.534  33.908  39.104  1.00  0.00     0.029 A 
ATOM     64  N   UNL A   1      42.089  33.905  37.416  1.00  0.00    -0.354 N 
ATOM     65  N   UNL A   1      39.404  33.919  36.203  1.00  0.00    -0.248 NA
ATOM     66  C   UNL A   1      37.079  33.822  36.423  1.00  0.00     0.031 C 
ATOM     67  C   UNL A   1      42.242  33.787  39.627  1.00  0.00     0.029 A 
ATOM     68  C   UNL A   1      41.337  33.822  38.578  1.00  0.00     0.049 A 
ATOM     69  H   UNL A   1      41.717  33.935  36.505  1.00  0.00     0.167 HD
ATOM     70  C   UNL A   1      39.075  33.837  37.554  1.00  0.00     0.074 A 
ATOM     71  C   UNL A   1      37.629  33.814  37.628  1.00  0.00     0.031 C 
ATOM     72  C   UNL A   1      39.894  33.790  38.635  1.00  0.00     0.034 A 
BRANCH  59  73
ATOM     73  C   UNL A   1      45.941  33.934  37.236  1.00  0.00     0.023 A 
ATOM     74  C   UNL A   1      46.613  32.710  37.406  1.00  0.00     0.031 A 
ATOM     75  C   UNL A   1      46.636  35.113  37.556  1.00  0.00     0.131 A 
ATOM     76  C   UNL A   1      47.904  32.688  37.955  1.00  0.00     0.055 A 
ATOM     77  C   UNL A   1      47.952  35.090  38.024  1.00  0.00     0.041 A 
ATOM     78  F   UNL A   1      46.044  36.311  37.434  1.00  0.00    -0.206 F 
ATOM     79  C   UNL A   1      48.588  33.872  38.241  1.00  0.00     0.022 A 
BRANCH  76  80
ATOM     80  S   UNL A   1      48.618  31.089  38.424  1.00  0.00     0.124 S 
ATOM     81  O   UNL A   1      47.424  30.254  38.536  1.00  0.00    -0.237 OA
ATOM     82  O   UNL A   1      49.499  30.794  37.299  1.00  0.00    -0.237 OA
ATOM     83  O   UNL A   1      49.293  31.372  39.689  1.00  0.00    -0.744 OA
ENDBRANCH  76  80
ENDBRANCH  59  73
BRANCH  60  84
ATOM     84  C   UNL A   1      36.622  33.988  33.531  1.00  0.00     0.023 A 
ATOM     85  C   UNL A   1      35.869  35.159  33.353  1.00  0.00     0.031 A 
ATOM     86  C   UNL A   1      36.014  32.758  33.217  1.00  0.00     0.131 A 
ATOM     87  C   UNL A   1      34.536  35.075  32.921  1.00  0.00     0.055 A 
ATOM     88  C   UNL A   1      34.706  32.685  32.736  1.00  0.00     0.041 A 
ATOM     89  F   UNL A   1      36.691  31.609  33.361  1.00  0.00    -0.206 F 
ATOM     90  C   UNL A   1      33.954  33.848  32.598  1.00  0.00     0.022 A 
BRANCH  87  91
ATOM     91  S   UNL A   1      33.546  36.594  32.863  1.00  0.00     0.124 S 
ATOM     92  O   UNL A   1      32.188  36.062  32.840  1.00  0.00    -0.237 OA
ATOM     93  O   UNL A   1      33.952  37.266  34.093  1.00  0.00    -0.237 OA
ATOM     94  O   UNL A   1      33.985  37.239  31.628  1.00  0.00    -0.744 OA
ENDBRANCH  87  91
ENDBRANCH  60  84
BRANCH  72  95
ATOM     95  C   UNL A   1      39.235  33.760  39.993  1.00  0.00     0.023 A 
ATOM     96  C   UNL A   1      38.841  32.556  40.599  1.00  0.00     0.031 A 
ATOM     97  C   UNL A   1      38.990  34.961  40.682  1.00  0.00     0.131 A 
ATOM     98  C   UNL A   1      38.173  32.582  41.833  1.00  0.00     0.055 A 
ATOM     99  C   UNL A   1      38.379  34.977  41.936  1.00  0.00     0.041 A 
ATOM    100  F   UNL A   1      39.343  36.141  40.148  1.00  0.00    -0.206 F 
ATOM    101  C   UNL A   1      37.955  33.782  42.512  1.00  0.00     0.022 A 
BRANCH  98 102
ATOM    102  S   UNL A   1      37.513  31.029  42.499  1.00  0.00     0.124 S 
ATOM    103  O   UNL A   1      38.225  30.031  41.708  1.00  0.00    -0.237 OA
ATOM    104  O   UNL A   1      37.887  31.110  43.908  1.00  0.00    -0.237 OA
ATOM    105  O   UNL A   1      36.078  31.123  42.233  1.00  0.00    -0.744 OA
ENDBRANCH  98 102
ENDBRANCH  72  95
ENDBRANCH  46  47
ENDBRANCH  38  41
ENDBRANCH  36  37
ENDBRANCH   1  36
TORSDOF 18
ENDMDL
