MODEL 1
REMARK VINA RESULT:     -12.1      0.000      0.000
REMARK SMILES O=C(NCCCNC(=O)c1cc2ncc(Cl)cn2n1)c1ccc(-c2c3nc(c(-c4cc(S(=O)(=O)[O-])ccc4F)c4ccc([nH]4)c(-c4cc(S(=O)(=O)[O-])ccc4F)c4nc(c(-c5cc(S(=O)(=O)[O-])ccc5F)c5ccc2[nH]5)C=C4)C=C3)cc1
REMARK SMILES IDX 1 1 2 2 3 3 20 5 21 6 82 7 22 8 81 9 23 10 24 11 25 12 75 13
REMARK SMILES IDX 26 14 80 15 74 16 76 17 27 18 79 19 73 20 72 21 28 23 60 24
REMARK SMILES IDX 40 25 59 26 41 27 44 28 58 29 77 30 42 31 43 32 57 34 78 35
REMARK SMILES IDX 45 36 29 37 30 38 38 39 31 40 37 41 39 42 36 43 32 44 33 45
REMARK SMILES IDX 34 46 35 47 61 48 62 49 70 50 63 51 69 52 71 53 68 54 64 55
REMARK SMILES IDX 65 56 66 57 67 58 46 59 47 60 55 61 48 62 54 63 56 64 53 65
REMARK SMILES IDX 49 66 50 67 51 68 52 69 4 70 5 71 6 72 7 73 8 74 9 76 10 77
REMARK SMILES IDX 11 78 19 79 12 80 18 81 13 82 17 83 14 84 15 85 16 86
REMARK H PARENT 3 4 76 22 44 33 7 75
REMARK Flexibility Score: inf
ROOT
ATOM      1  O   UNL A   1      33.888  31.188  27.526  1.00  0.00    -0.269 OA
ATOM      2  C   UNL A   1      34.779  31.906  27.994  1.00  0.00     0.251 C 
ATOM      3  N   UNL A   1      34.469  33.238  28.065  1.00  0.00    -0.352 N 
ATOM      4  H   UNL A   1      33.657  33.458  27.554  1.00  0.00     0.163 HD
ENDROOT
BRANCH   2   5
ATOM      5  C   UNL A   1      36.079  31.277  28.371  1.00  0.00     0.039 A 
ATOM      6  C   UNL A   1      37.154  31.903  29.000  1.00  0.00     0.014 A 
ATOM      7  C   UNL A   1      36.219  29.918  28.016  1.00  0.00     0.014 A 
ATOM      8  C   UNL A   1      38.352  31.206  29.207  1.00  0.00     0.010 A 
ATOM      9  C   UNL A   1      37.411  29.222  28.218  1.00  0.00     0.010 A 
ATOM     10  C   UNL A   1      38.497  29.873  28.789  1.00  0.00    -0.014 A 
BRANCH  10  11
ATOM     11  C   UNL A   1      39.745  29.159  29.092  1.00  0.00     0.031 A 
ATOM     12  C   UNL A   1      40.038  28.993  30.544  1.00  0.00     0.074 A 
ATOM     13  C   UNL A   1      40.563  28.570  28.191  1.00  0.00     0.049 A 
ATOM     14  N   UNL A   1      40.984  29.551  31.224  1.00  0.00    -0.248 NA
ATOM     15  C   UNL A   1      39.116  28.192  31.360  1.00  0.00     0.031 C 
ATOM     16  C   UNL A   1      40.370  28.401  26.751  1.00  0.00     0.029 A 
ATOM     17  N   UNL A   1      41.755  27.931  28.413  1.00  0.00    -0.354 N 
ATOM     18  C   UNL A   1      40.907  29.035  32.515  1.00  0.00     0.074 A 
ATOM     19  C   UNL A   1      39.665  28.307  32.573  1.00  0.00     0.031 C 
ATOM     20  C   UNL A   1      41.305  27.548  26.264  1.00  0.00     0.029 A 
ATOM     21  C   UNL A   1      42.251  27.221  27.320  1.00  0.00     0.049 A 
ATOM     22  H   UNL A   1      42.225  27.971  29.277  1.00  0.00     0.167 HD
ATOM     23  C   UNL A   1      41.957  29.117  33.381  1.00  0.00     0.034 A 
ATOM     24  C   UNL A   1      43.360  26.432  27.280  1.00  0.00     0.034 A 
ATOM     25  C   UNL A   1      42.925  30.094  32.940  1.00  0.00     0.049 A 
ATOM     26  C   UNL A   1      44.268  26.926  28.341  1.00  0.00     0.074 A 
ATOM     27  C   UNL A   1      42.903  31.455  32.708  1.00  0.00     0.029 A 
ATOM     28  N   UNL A   1      44.067  29.642  32.321  1.00  0.00    -0.354 N 
ATOM     29  N   UNL A   1      44.821  28.105  28.315  1.00  0.00    -0.248 NA
ATOM     30  C   UNL A   1      44.216  26.290  29.647  1.00  0.00     0.031 C 
ATOM     31  C   UNL A   1      43.714  31.642  31.548  1.00  0.00     0.029 A 
ATOM     32  C   UNL A   1      44.227  30.396  31.185  1.00  0.00     0.049 A 
ATOM     33  H   UNL A   1      44.657  28.917  32.633  1.00  0.00     0.167 HD
ATOM     34  C   UNL A   1      44.781  28.543  29.628  1.00  0.00     0.074 A 
ATOM     35  C   UNL A   1      44.492  27.346  30.416  1.00  0.00     0.031 C 
ATOM     36  C   UNL A   1      44.721  29.874  29.927  1.00  0.00     0.034 A 
BRANCH  23  37
ATOM     37  C   UNL A   1      42.286  28.119  34.468  1.00  0.00     0.023 A 
ATOM     38  C   UNL A   1      43.034  26.978  34.106  1.00  0.00     0.031 A 
ATOM     39  C   UNL A   1      41.673  28.073  35.739  1.00  0.00     0.131 A 
ATOM     40  C   UNL A   1      43.068  25.839  34.931  1.00  0.00     0.055 A 
ATOM     41  C   UNL A   1      41.760  26.961  36.583  1.00  0.00     0.041 A 
ATOM     42  F   UNL A   1      40.885  29.055  36.192  1.00  0.00    -0.206 F 
ATOM     43  C   UNL A   1      42.431  25.822  36.168  1.00  0.00     0.022 A 
BRANCH  40  44
ATOM     44  S   UNL A   1      43.819  24.322  34.282  1.00  0.00     0.124 S 
ATOM     45  O   UNL A   1      44.157  24.717  32.919  1.00  0.00    -0.237 OA
ATOM     46  O   UNL A   1      44.942  24.129  35.194  1.00  0.00    -0.237 OA
ATOM     47  O   UNL A   1      42.746  23.337  34.398  1.00  0.00    -0.744 OA
ENDBRANCH  40  44
ENDBRANCH  23  37
BRANCH  24  48
ATOM     48  C   UNL A   1      43.551  25.113  26.609  1.00  0.00     0.023 A 
ATOM     49  C   UNL A   1      42.772  23.975  26.931  1.00  0.00     0.031 A 
ATOM     50  C   UNL A   1      44.318  25.034  25.428  1.00  0.00     0.131 A 
ATOM     51  C   UNL A   1      42.772  22.841  26.083  1.00  0.00     0.055 A 
ATOM     52  C   UNL A   1      44.311  23.914  24.592  1.00  0.00     0.041 A 
ATOM     53  F   UNL A   1      45.029  26.086  24.991  1.00  0.00    -0.206 F 
ATOM     54  C   UNL A   1      43.528  22.815  24.910  1.00  0.00     0.022 A 
BRANCH  51  55
ATOM     55  S   UNL A   1      41.682  21.415  26.421  1.00  0.00     0.124 S 
ATOM     56  O   UNL A   1      42.275  20.372  25.590  1.00  0.00    -0.237 OA
ATOM     57  O   UNL A   1      41.812  21.246  27.863  1.00  0.00    -0.237 OA
ATOM     58  O   UNL A   1      40.367  21.882  25.978  1.00  0.00    -0.744 OA
ENDBRANCH  51  55
ENDBRANCH  24  48
BRANCH  36  59
ATOM     59  C   UNL A   1      44.967  30.870  28.813  1.00  0.00     0.023 A 
ATOM     60  C   UNL A   1      46.233  31.399  28.470  1.00  0.00     0.031 A 
ATOM     61  C   UNL A   1      43.878  31.199  27.988  1.00  0.00     0.131 A 
ATOM     62  C   UNL A   1      46.368  32.235  27.344  1.00  0.00     0.055 A 
ATOM     63  C   UNL A   1      44.018  32.012  26.865  1.00  0.00     0.041 A 
ATOM     64  F   UNL A   1      42.657  30.701  28.243  1.00  0.00    -0.206 F 
ATOM     65  C   UNL A   1      45.264  32.537  26.540  1.00  0.00     0.022 A 
BRANCH  62  66
ATOM     66  S   UNL A   1      47.993  32.926  26.889  1.00  0.00     0.124 S 
ATOM     67  O   UNL A   1      48.430  33.595  28.108  1.00  0.00    -0.237 OA
ATOM     68  O   UNL A   1      48.752  31.740  26.499  1.00  0.00    -0.237 OA
ATOM     69  O   UNL A   1      47.682  33.830  25.779  1.00  0.00    -0.744 OA
ENDBRANCH  62  66
ENDBRANCH  36  59
ENDBRANCH  10  11
ENDBRANCH   2   5
BRANCH   3  70
ATOM     70  C   UNL A   1      35.044  34.403  28.707  1.00  0.00     0.118 C 
BRANCH  70  71
ATOM     71  C   UNL A   1      34.102  35.598  28.851  1.00  0.00     0.042 C 
BRANCH  71  72
ATOM     72  C   UNL A   1      32.976  35.431  29.879  1.00  0.00     0.118 C 
BRANCH  72  73
ATOM     73  N   UNL A   1      33.083  36.365  30.992  1.00  0.00    -0.351 N 
ATOM     74  C   UNL A   1      33.775  36.283  32.180  1.00  0.00     0.271 C 
ATOM     75  H   UNL A   1      32.572  37.199  30.876  1.00  0.00     0.163 HD
ATOM     76  O   UNL A   1      33.565  37.159  33.020  1.00  0.00    -0.267 OA
BRANCH  74  77
ATOM     77  C   UNL A   1      34.714  35.182  32.451  1.00  0.00     0.152 A 
ATOM     78  C   UNL A   1      34.427  33.806  32.263  1.00  0.00     0.085 A 
ATOM     79  N   UNL A   1      35.929  35.345  33.003  1.00  0.00    -0.161 NA
ATOM     80  C   UNL A   1      35.548  33.123  32.665  1.00  0.00     0.155 A 
ATOM     81  N   UNL A   1      36.446  34.099  33.111  1.00  0.00    -0.220 N 
ATOM     82  N   UNL A   1      35.845  31.785  32.681  1.00  0.00    -0.235 NA
ATOM     83  C   UNL A   1      37.692  33.737  33.610  1.00  0.00     0.137 A 
ATOM     84  C   UNL A   1      37.026  31.482  33.139  1.00  0.00     0.135 A 
ATOM     85  C   UNL A   1      38.039  32.448  33.652  1.00  0.00     0.077 A 
ATOM     86  Cl  UNL A   1      39.519  31.860  34.257  1.00  0.00    -0.081 Cl
ENDBRANCH  74  77
ENDBRANCH  72  73
ENDBRANCH  71  72
ENDBRANCH  70  71
ENDBRANCH   3  70
TORSDOF 13
ENDMDL
MODEL 2
REMARK VINA RESULT:     -11.8      3.769      5.470
REMARK SMILES O=C(NCCCNC(=O)c1cc2ncc(Cl)cn2n1)c1ccc(-c2c3nc(c(-c4cc(S(=O)(=O)[O-])ccc4F)c4ccc([nH]4)c(-c4cc(S(=O)(=O)[O-])ccc4F)c4nc(c(-c5cc(S(=O)(=O)[O-])ccc5F)c5ccc2[nH]5)C=C4)C=C3)cc1
REMARK SMILES IDX 1 1 2 2 3 3 20 5 21 6 82 7 22 8 81 9 23 10 24 11 25 12 75 13
REMARK SMILES IDX 26 14 80 15 74 16 76 17 27 18 79 19 73 20 72 21 28 23 60 24
REMARK SMILES IDX 40 25 59 26 41 27 44 28 58 29 77 30 42 31 43 32 57 34 78 35
REMARK SMILES IDX 45 36 29 37 30 38 38 39 31 40 37 41 39 42 36 43 32 44 33 45
REMARK SMILES IDX 34 46 35 47 61 48 62 49 70 50 63 51 69 52 71 53 68 54 64 55
REMARK SMILES IDX 65 56 66 57 67 58 46 59 47 60 55 61 48 62 54 63 56 64 53 65
REMARK SMILES IDX 49 66 50 67 51 68 52 69 4 70 5 71 6 72 7 73 8 74 9 76 10 77
REMARK SMILES IDX 11 78 19 79 12 80 18 81 13 82 17 83 14 84 15 85 16 86
REMARK H PARENT 3 4 76 22 44 33 7 75
REMARK Flexibility Score: inf
ROOT
ATOM      1  O   UNL A   1      35.003  33.176  28.103  1.00  0.00    -0.269 OA
ATOM      2  C   UNL A   1      34.929  31.950  27.963  1.00  0.00     0.251 C 
ATOM      3  N   UNL A   1      33.680  31.478  27.662  1.00  0.00    -0.352 N 
ATOM      4  H   UNL A   1      32.984  32.162  27.791  1.00  0.00     0.163 HD
ENDROOT
BRANCH   2   5
ATOM      5  C   UNL A   1      36.157  31.132  28.185  1.00  0.00     0.039 A 
ATOM      6  C   UNL A   1      36.312  29.775  27.906  1.00  0.00     0.014 A 
ATOM      7  C   UNL A   1      37.247  31.818  28.763  1.00  0.00     0.014 A 
ATOM      8  C   UNL A   1      37.499  29.115  28.256  1.00  0.00     0.010 A 
ATOM      9  C   UNL A   1      38.427  31.164  29.115  1.00  0.00     0.010 A 
ATOM     10  C   UNL A   1      38.548  29.799  28.890  1.00  0.00    -0.014 A 
BRANCH  10  11
ATOM     11  C   UNL A   1      39.802  29.085  29.172  1.00  0.00     0.031 A 
ATOM     12  C   UNL A   1      40.108  28.899  30.619  1.00  0.00     0.074 A 
ATOM     13  C   UNL A   1      40.615  28.513  28.255  1.00  0.00     0.049 A 
ATOM     14  N   UNL A   1      41.058  29.451  31.298  1.00  0.00    -0.248 NA
ATOM     15  C   UNL A   1      39.196  28.083  31.431  1.00  0.00     0.031 C 
ATOM     16  C   UNL A   1      40.410  28.363  26.815  1.00  0.00     0.029 A 
ATOM     17  N   UNL A   1      41.810  27.875  28.458  1.00  0.00    -0.354 N 
ATOM     18  C   UNL A   1      40.994  28.917  32.583  1.00  0.00     0.074 A 
ATOM     19  C   UNL A   1      39.755  28.183  32.640  1.00  0.00     0.031 C 
ATOM     20  C   UNL A   1      41.343  27.521  26.308  1.00  0.00     0.029 A 
ATOM     21  C   UNL A   1      42.299  27.183  27.350  1.00  0.00     0.049 A 
ATOM     22  H   UNL A   1      42.288  27.905  29.318  1.00  0.00     0.167 HD
ATOM     23  C   UNL A   1      42.051  28.990  33.440  1.00  0.00     0.034 A 
ATOM     24  C   UNL A   1      43.411  26.399  27.289  1.00  0.00     0.034 A 
ATOM     25  C   UNL A   1      43.012  29.977  33.005  1.00  0.00     0.049 A 
ATOM     26  C   UNL A   1      44.326  26.880  28.349  1.00  0.00     0.074 A 
ATOM     27  C   UNL A   1      42.983  31.341  32.792  1.00  0.00     0.029 A 
ATOM     28  N   UNL A   1      44.150  29.538  32.370  1.00  0.00    -0.354 N 
ATOM     29  N   UNL A   1      44.875  28.062  28.335  1.00  0.00    -0.248 NA
ATOM     30  C   UNL A   1      44.288  26.225  29.646  1.00  0.00     0.031 C 
ATOM     31  C   UNL A   1      43.783  31.547  31.629  1.00  0.00     0.029 A 
ATOM     32  C   UNL A   1      44.297  30.309  31.243  1.00  0.00     0.049 A 
ATOM     33  H   UNL A   1      44.746  28.811  32.666  1.00  0.00     0.167 HD
ATOM     34  C   UNL A   1      44.845  28.480  29.655  1.00  0.00     0.074 A 
ATOM     35  C   UNL A   1      44.567  27.271  30.428  1.00  0.00     0.031 C 
ATOM     36  C   UNL A   1      44.782  29.807  29.974  1.00  0.00     0.034 A 
BRANCH  23  37
ATOM     37  C   UNL A   1      42.394  27.977  34.510  1.00  0.00     0.023 A 
ATOM     38  C   UNL A   1      43.133  26.840  34.123  1.00  0.00     0.031 A 
ATOM     39  C   UNL A   1      41.799  27.917  35.789  1.00  0.00     0.131 A 
ATOM     40  C   UNL A   1      43.176  25.690  34.933  1.00  0.00     0.055 A 
ATOM     41  C   UNL A   1      41.895  26.794  36.617  1.00  0.00     0.041 A 
ATOM     42  F   UNL A   1      41.021  28.895  36.266  1.00  0.00    -0.206 F 
ATOM     43  C   UNL A   1      42.557  25.659  36.179  1.00  0.00     0.022 A 
BRANCH  40  44
ATOM     44  S   UNL A   1      43.913  24.179  34.254  1.00  0.00     0.124 S 
ATOM     45  O   UNL A   1      45.158  24.090  35.008  1.00  0.00    -0.237 OA
ATOM     46  O   UNL A   1      42.896  23.181  34.570  1.00  0.00    -0.237 OA
ATOM     47  O   UNL A   1      44.064  24.484  32.833  1.00  0.00    -0.744 OA
ENDBRANCH  40  44
ENDBRANCH  23  37
BRANCH  24  48
ATOM     48  C   UNL A   1      43.601  25.090  26.598  1.00  0.00     0.023 A 
ATOM     49  C   UNL A   1      42.843  23.939  26.924  1.00  0.00     0.031 A 
ATOM     50  C   UNL A   1      44.340  25.035  25.397  1.00  0.00     0.131 A 
ATOM     51  C   UNL A   1      42.836  22.815  26.063  1.00  0.00     0.055 A 
ATOM     52  C   UNL A   1      44.326  23.925  24.548  1.00  0.00     0.041 A 
ATOM     53  F   UNL A   1      45.027  26.100  24.956  1.00  0.00    -0.206 F 
ATOM     54  C   UNL A   1      43.563  22.813  24.871  1.00  0.00     0.022 A 
BRANCH  51  55
ATOM     55  S   UNL A   1      41.772  21.372  26.410  1.00  0.00     0.124 S 
ATOM     56  O   UNL A   1      41.978  21.176  27.841  1.00  0.00    -0.237 OA
ATOM     57  O   UNL A   1      40.452  21.841  26.004  1.00  0.00    -0.237 OA
ATOM     58  O   UNL A   1      42.335  20.323  25.558  1.00  0.00    -0.744 OA
ENDBRANCH  51  55
ENDBRANCH  24  48
BRANCH  36  59
ATOM     59  C   UNL A   1      45.015  30.820  28.872  1.00  0.00     0.023 A 
ATOM     60  C   UNL A   1      46.280  31.337  28.507  1.00  0.00     0.031 A 
ATOM     61  C   UNL A   1      43.911  31.180  28.081  1.00  0.00     0.131 A 
ATOM     62  C   UNL A   1      46.398  32.192  27.393  1.00  0.00     0.055 A 
ATOM     63  C   UNL A   1      44.034  32.011  26.969  1.00  0.00     0.041 A 
ATOM     64  F   UNL A   1      42.689  30.694  28.358  1.00  0.00    -0.206 F 
ATOM     65  C   UNL A   1      45.279  32.524  26.623  1.00  0.00     0.022 A 
BRANCH  62  66
ATOM     66  S   UNL A   1      48.021  32.869  26.910  1.00  0.00     0.124 S 
ATOM     67  O   UNL A   1      47.698  33.773  25.813  1.00  0.00    -0.237 OA
ATOM     68  O   UNL A   1      48.491  33.495  28.144  1.00  0.00    -0.237 OA
ATOM     69  O   UNL A   1      48.783  31.682  26.514  1.00  0.00    -0.744 OA
ENDBRANCH  62  66
ENDBRANCH  36  59
ENDBRANCH  10  11
ENDBRANCH   2   5
BRANCH   3  70
ATOM     70  C   UNL A   1      33.131  30.219  27.200  1.00  0.00     0.118 C 
BRANCH  70  71
ATOM     71  C   UNL A   1      32.210  30.317  25.986  1.00  0.00     0.042 C 
BRANCH  71  72
ATOM     72  C   UNL A   1      32.219  29.101  25.050  1.00  0.00     0.118 C 
BRANCH  72  73
ATOM     73  N   UNL A   1      31.022  29.014  24.224  1.00  0.00    -0.351 N 
ATOM     74  C   UNL A   1      30.256  27.932  23.851  1.00  0.00     0.271 C 
ATOM     75  H   UNL A   1      30.706  29.878  23.871  1.00  0.00     0.163 HD
ATOM     76  O   UNL A   1      29.377  28.123  23.010  1.00  0.00    -0.267 OA
BRANCH  74  77
ATOM     77  C   UNL A   1      30.489  26.592  24.413  1.00  0.00     0.152 A 
ATOM     78  C   UNL A   1      30.305  26.241  25.775  1.00  0.00     0.085 A 
ATOM     79  N   UNL A   1      30.999  25.560  23.719  1.00  0.00    -0.161 NA
ATOM     80  C   UNL A   1      30.665  24.920  25.882  1.00  0.00     0.155 A 
ATOM     81  N   UNL A   1      31.084  24.538  24.602  1.00  0.00    -0.220 N 
ATOM     82  N   UNL A   1      30.664  24.057  26.946  1.00  0.00    -0.235 NA
ATOM     83  C   UNL A   1      31.537  23.246  24.364  1.00  0.00     0.137 A 
ATOM     84  C   UNL A   1      31.080  22.851  26.685  1.00  0.00     0.135 A 
ATOM     85  C   UNL A   1      31.561  22.359  25.362  1.00  0.00     0.077 A 
ATOM     86  Cl  UNL A   1      32.112  20.752  25.221  1.00  0.00    -0.081 Cl
ENDBRANCH  74  77
ENDBRANCH  72  73
ENDBRANCH  71  72
ENDBRANCH  70  71
ENDBRANCH   3  70
TORSDOF 13
ENDMDL
MODEL 3
REMARK VINA RESULT:     -11.7      1.355      2.108
REMARK SMILES O=C(NCCCNC(=O)c1cc2ncc(Cl)cn2n1)c1ccc(-c2c3nc(c(-c4cc(S(=O)(=O)[O-])ccc4F)c4ccc([nH]4)c(-c4cc(S(=O)(=O)[O-])ccc4F)c4nc(c(-c5cc(S(=O)(=O)[O-])ccc5F)c5ccc2[nH]5)C=C4)C=C3)cc1
REMARK SMILES IDX 1 1 2 2 3 3 20 5 21 6 82 7 22 8 81 9 23 10 24 11 25 12 75 13
REMARK SMILES IDX 26 14 80 15 74 16 76 17 27 18 79 19 73 20 72 21 28 23 60 24
REMARK SMILES IDX 40 25 59 26 41 27 44 28 58 29 77 30 42 31 43 32 57 34 78 35
REMARK SMILES IDX 45 36 29 37 30 38 38 39 31 40 37 41 39 42 36 43 32 44 33 45
REMARK SMILES IDX 34 46 35 47 61 48 62 49 70 50 63 51 69 52 71 53 68 54 64 55
REMARK SMILES IDX 65 56 66 57 67 58 46 59 47 60 55 61 48 62 54 63 56 64 53 65
REMARK SMILES IDX 49 66 50 67 51 68 52 69 4 70 5 71 6 72 7 73 8 74 9 76 10 77
REMARK SMILES IDX 11 78 19 79 12 80 18 81 13 82 17 83 14 84 15 85 16 86
REMARK H PARENT 3 4 76 22 44 33 7 75
REMARK Flexibility Score: inf
ROOT
ATOM      1  O   UNL A   1      34.167  31.308  27.254  1.00  0.00    -0.269 OA
ATOM      2  C   UNL A   1      34.917  31.898  28.039  1.00  0.00     0.251 C 
ATOM      3  N   UNL A   1      34.467  33.121  28.457  1.00  0.00    -0.352 N 
ATOM      4  H   UNL A   1      33.703  33.439  27.923  1.00  0.00     0.163 HD
ENDROOT
BRANCH   2   5
ATOM      5  C   UNL A   1      36.220  31.264  28.394  1.00  0.00     0.039 A 
ATOM      6  C   UNL A   1      37.362  31.915  28.858  1.00  0.00     0.014 A 
ATOM      7  C   UNL A   1      36.285  29.866  28.204  1.00  0.00     0.014 A 
ATOM      8  C   UNL A   1      38.549  31.196  29.063  1.00  0.00     0.010 A 
ATOM      9  C   UNL A   1      37.464  29.149  28.403  1.00  0.00     0.010 A 
ATOM     10  C   UNL A   1      38.614  29.817  28.806  1.00  0.00    -0.014 A 
BRANCH  10  11
ATOM     11  C   UNL A   1      39.856  29.091  29.104  1.00  0.00     0.031 A 
ATOM     12  C   UNL A   1      40.144  28.906  30.555  1.00  0.00     0.074 A 
ATOM     13  C   UNL A   1      40.674  28.510  28.199  1.00  0.00     0.049 A 
ATOM     14  N   UNL A   1      41.091  29.449  31.245  1.00  0.00    -0.248 NA
ATOM     15  C   UNL A   1      39.214  28.100  31.358  1.00  0.00     0.031 C 
ATOM     16  C   UNL A   1      40.485  28.360  26.756  1.00  0.00     0.029 A 
ATOM     17  N   UNL A   1      41.861  27.861  28.416  1.00  0.00    -0.354 N 
ATOM     18  C   UNL A   1      41.007  28.917  32.529  1.00  0.00     0.074 A 
ATOM     19  C   UNL A   1      39.760  28.196  32.573  1.00  0.00     0.031 C 
ATOM     20  C   UNL A   1      41.416  27.508  26.261  1.00  0.00     0.029 A 
ATOM     21  C   UNL A   1      42.356  27.162  27.315  1.00  0.00     0.049 A 
ATOM     22  H   UNL A   1      42.329  27.887  29.282  1.00  0.00     0.167 HD
ATOM     23  C   UNL A   1      42.054  28.982  33.399  1.00  0.00     0.034 A 
ATOM     24  C   UNL A   1      43.461  26.367  27.269  1.00  0.00     0.034 A 
ATOM     25  C   UNL A   1      43.030  29.958  32.974  1.00  0.00     0.049 A 
ATOM     26  C   UNL A   1      44.368  26.842  28.339  1.00  0.00     0.074 A 
ATOM     27  C   UNL A   1      43.016  31.323  32.759  1.00  0.00     0.029 A 
ATOM     28  N   UNL A   1      44.171  29.507  32.353  1.00  0.00    -0.354 N 
ATOM     29  N   UNL A   1      44.929  28.018  28.330  1.00  0.00    -0.248 NA
ATOM     30  C   UNL A   1      44.309  26.189  29.636  1.00  0.00     0.031 C 
ATOM     31  C   UNL A   1      43.833  31.519  31.604  1.00  0.00     0.029 A 
ATOM     32  C   UNL A   1      44.339  30.275  31.227  1.00  0.00     0.049 A 
ATOM     33  H   UNL A   1      44.756  28.775  32.657  1.00  0.00     0.167 HD
ATOM     34  C   UNL A   1      44.887  28.438  29.648  1.00  0.00     0.074 A 
ATOM     35  C   UNL A   1      44.589  27.233  30.419  1.00  0.00     0.031 C 
ATOM     36  C   UNL A   1      44.834  29.766  29.964  1.00  0.00     0.034 A 
BRANCH  23  37
ATOM     37  C   UNL A   1      42.375  27.967  34.475  1.00  0.00     0.023 A 
ATOM     38  C   UNL A   1      43.118  26.828  34.100  1.00  0.00     0.031 A 
ATOM     39  C   UNL A   1      41.756  27.908  35.742  1.00  0.00     0.131 A 
ATOM     40  C   UNL A   1      43.143  25.678  34.910  1.00  0.00     0.055 A 
ATOM     41  C   UNL A   1      41.834  26.784  36.571  1.00  0.00     0.041 A 
ATOM     42  F   UNL A   1      40.971  28.888  36.205  1.00  0.00    -0.206 F 
ATOM     43  C   UNL A   1      42.501  25.648  36.145  1.00  0.00     0.022 A 
BRANCH  40  44
ATOM     44  S   UNL A   1      43.888  24.166  34.245  1.00  0.00     0.124 S 
ATOM     45  O   UNL A   1      42.798  23.208  34.389  1.00  0.00    -0.237 OA
ATOM     46  O   UNL A   1      44.215  24.567  32.880  1.00  0.00    -0.237 OA
ATOM     47  O   UNL A   1      45.037  23.940  35.119  1.00  0.00    -0.744 OA
ENDBRANCH  40  44
ENDBRANCH  23  37
BRANCH  24  48
ATOM     48  C   UNL A   1      43.646  25.055  26.582  1.00  0.00     0.023 A 
ATOM     49  C   UNL A   1      42.878  23.911  26.905  1.00  0.00     0.031 A 
ATOM     50  C   UNL A   1      44.394  24.992  25.386  1.00  0.00     0.131 A 
ATOM     51  C   UNL A   1      42.869  22.785  26.046  1.00  0.00     0.055 A 
ATOM     52  C   UNL A   1      44.378  23.880  24.540  1.00  0.00     0.041 A 
ATOM     53  F   UNL A   1      45.092  26.051  24.948  1.00  0.00    -0.206 F 
ATOM     54  C   UNL A   1      43.604  22.775  24.860  1.00  0.00     0.022 A 
BRANCH  51  55
ATOM     55  S   UNL A   1      41.791  21.351  26.388  1.00  0.00     0.124 S 
ATOM     56  O   UNL A   1      40.481  21.847  25.977  1.00  0.00    -0.237 OA
ATOM     57  O   UNL A   1      42.376  20.304  25.560  1.00  0.00    -0.237 OA
ATOM     58  O   UNL A   1      41.946  21.147  27.829  1.00  0.00    -0.744 OA
ENDBRANCH  51  55
ENDBRANCH  24  48
BRANCH  36  59
ATOM     59  C   UNL A   1      45.090  30.775  28.864  1.00  0.00     0.023 A 
ATOM     60  C   UNL A   1      46.366  31.268  28.503  1.00  0.00     0.031 A 
ATOM     61  C   UNL A   1      43.995  31.156  28.069  1.00  0.00     0.131 A 
ATOM     62  C   UNL A   1      46.504  32.121  27.390  1.00  0.00     0.055 A 
ATOM     63  C   UNL A   1      44.138  31.985  26.958  1.00  0.00     0.041 A 
ATOM     64  F   UNL A   1      42.764  30.693  28.341  1.00  0.00    -0.206 F 
ATOM     65  C   UNL A   1      45.394  32.474  26.616  1.00  0.00     0.022 A 
BRANCH  62  66
ATOM     66  S   UNL A   1      48.141  32.767  26.913  1.00  0.00     0.124 S 
ATOM     67  O   UNL A   1      47.838  33.688  25.824  1.00  0.00    -0.237 OA
ATOM     68  O   UNL A   1      48.623  33.374  28.152  1.00  0.00    -0.237 OA
ATOM     69  O   UNL A   1      48.878  31.569  26.507  1.00  0.00    -0.744 OA
ENDBRANCH  62  66
ENDBRANCH  36  59
ENDBRANCH  10  11
ENDBRANCH   2   5
BRANCH   3  70
ATOM     70  C   UNL A   1      34.838  34.064  29.494  1.00  0.00     0.118 C 
BRANCH  70  71
ATOM     71  C   UNL A   1      34.164  33.843  30.847  1.00  0.00     0.042 C 
BRANCH  71  72
ATOM     72  C   UNL A   1      35.059  33.245  31.940  1.00  0.00     0.118 C 
BRANCH  72  73
ATOM     73  N   UNL A   1      35.247  31.807  31.793  1.00  0.00    -0.351 N 
ATOM     74  C   UNL A   1      36.316  30.997  32.105  1.00  0.00     0.271 C 
ATOM     75  H   UNL A   1      34.478  31.333  31.401  1.00  0.00     0.163 HD
ATOM     76  O   UNL A   1      36.268  29.825  31.728  1.00  0.00    -0.267 OA
BRANCH  74  77
ATOM     77  C   UNL A   1      37.483  31.510  32.840  1.00  0.00     0.152 A 
ATOM     78  C   UNL A   1      37.938  31.015  34.088  1.00  0.00     0.085 A 
ATOM     79  N   UNL A   1      38.204  32.580  32.459  1.00  0.00    -0.161 NA
ATOM     80  C   UNL A   1      39.018  31.788  34.437  1.00  0.00     0.155 A 
ATOM     81  N   UNL A   1      39.151  32.735  33.415  1.00  0.00    -0.220 N 
ATOM     82  N   UNL A   1      39.859  31.747  35.517  1.00  0.00    -0.235 NA
ATOM     83  C   UNL A   1      40.152  33.696  33.468  1.00  0.00     0.137 A 
ATOM     84  C   UNL A   1      40.796  32.651  35.528  1.00  0.00     0.135 A 
ATOM     85  C   UNL A   1      41.003  33.708  34.498  1.00  0.00     0.077 A 
ATOM     86  Cl  UNL A   1      42.261  34.839  34.705  1.00  0.00    -0.081 Cl
ENDBRANCH  74  77
ENDBRANCH  72  73
ENDBRANCH  71  72
ENDBRANCH  70  71
ENDBRANCH   3  70
TORSDOF 13
ENDMDL
