MODEL 1
REMARK VINA RESULT:     -12.3      0.000      0.000
REMARK SMILES O=C(NCCCNC(=O)c1cn(C2C[NH+](CCC[C@@H]3CCCO3)C2)nn1)c1ccc(-c2c3nc(c(-c4cc(S(=O)(=O)[O-])ccc4F)c4ccc([nH]4)c(-c4cc(S(=O)(=O)[O-])ccc4F)c4nc(c(-c5cc(S(=O)(=O)[O-])ccc5F)c5ccc2[nH]5)C=C4)C=C3)cc1
REMARK SMILES IDX 6 1 5 2 4 3 3 4 1 5 2 6 27 8 28 9 89 10 29 11 88 12 30 13
REMARK SMILES IDX 31 14 32 15 82 16 33 17 87 18 81 19 83 20 34 21 86 22 80 23
REMARK SMILES IDX 79 24 35 26 67 27 47 28 66 29 48 30 51 31 65 32 84 33 49 34
REMARK SMILES IDX 50 35 64 37 85 38 52 39 36 40 37 41 45 42 38 43 44 44 46 45
REMARK SMILES IDX 43 46 39 47 40 48 41 49 42 50 68 51 69 52 77 53 70 54 76 55
REMARK SMILES IDX 78 56 75 57 71 58 72 59 73 60 74 61 53 62 54 63 62 64 55 65
REMARK SMILES IDX 61 66 63 67 60 68 56 69 57 70 58 71 59 72 7 73 8 74 9 76
REMARK SMILES IDX 10 77 11 78 26 79 12 80 25 81 13 82 14 83 24 84 15 85 16 87
REMARK SMILES IDX 17 88 18 89 19 90 20 91 23 92 21 93 22 94
REMARK H PARENT 3 7 83 25 51 36 7 75 15 86
REMARK Flexibility Score: inf
ROOT
ATOM      1  C   UNL A   1      36.007  21.150  25.506  1.00  0.00     0.118 C 
ENDROOT
BRANCH   1   2
ATOM      2  C   UNL A   1      37.390  21.508  24.956  1.00  0.00     0.042 C 
BRANCH   2   3
ATOM      3  C   UNL A   1      38.194  22.488  25.809  1.00  0.00     0.118 C 
BRANCH   3   4
ATOM      4  N   UNL A   1      39.571  22.115  26.055  1.00  0.00    -0.352 N 
ATOM      5  O   UNL A   1      41.596  21.953  26.910  1.00  0.00    -0.269 OA
ATOM      6  C   UNL A   1      40.606  22.673  26.752  1.00  0.00     0.251 C 
ATOM      7  H   UNL A   1      39.818  21.266  25.619  1.00  0.00     0.163 HD
BRANCH   6   8
ATOM      8  C   UNL A   1      40.646  24.074  27.254  1.00  0.00     0.039 A 
ATOM      9  C   UNL A   1      39.698  25.065  26.994  1.00  0.00     0.014 A 
ATOM     10  C   UNL A   1      41.759  24.403  28.052  1.00  0.00     0.014 A 
ATOM     11  C   UNL A   1      39.893  26.367  27.455  1.00  0.00     0.010 A 
ATOM     12  C   UNL A   1      41.954  25.697  28.522  1.00  0.00     0.010 A 
ATOM     13  C   UNL A   1      41.028  26.688  28.205  1.00  0.00    -0.014 A 
BRANCH  13  14
ATOM     14  C   UNL A   1      41.093  28.000  28.853  1.00  0.00     0.031 A 
ATOM     15  C   UNL A   1      42.161  28.883  28.307  1.00  0.00     0.074 A 
ATOM     16  C   UNL A   1      40.173  28.478  29.715  1.00  0.00     0.049 A 
ATOM     17  N   UNL A   1      43.189  29.370  28.922  1.00  0.00    -0.248 NA
ATOM     18  C   UNL A   1      42.163  29.136  26.856  1.00  0.00     0.031 C 
ATOM     19  C   UNL A   1      38.928  27.828  30.120  1.00  0.00     0.029 A 
ATOM     20  N   UNL A   1      40.094  29.703  30.324  1.00  0.00    -0.354 N 
ATOM     21  C   UNL A   1      43.822  30.199  27.998  1.00  0.00     0.074 A 
ATOM     22  C   UNL A   1      43.285  29.838  26.715  1.00  0.00     0.031 C 
ATOM     23  C   UNL A   1      38.124  28.737  30.715  1.00  0.00     0.029 A 
ATOM     24  C   UNL A   1      38.829  30.005  30.827  1.00  0.00     0.049 A 
ATOM     25  H   UNL A   1      40.863  30.315  30.399  1.00  0.00     0.167 HD
ATOM     26  C   UNL A   1      44.518  31.300  28.399  1.00  0.00     0.034 A 
ATOM     27  C   UNL A   1      38.360  31.217  31.236  1.00  0.00     0.034 A 
ATOM     28  C   UNL A   1      44.890  31.197  29.797  1.00  0.00     0.049 A 
ATOM     29  C   UNL A   1      39.535  32.059  31.565  1.00  0.00     0.074 A 
ATOM     30  C   UNL A   1      45.564  30.254  30.554  1.00  0.00     0.029 A 
ATOM     31  N   UNL A   1      44.257  32.007  30.716  1.00  0.00    -0.354 N 
ATOM     32  N   UNL A   1      40.333  31.819  32.568  1.00  0.00    -0.248 NA
ATOM     33  C   UNL A   1      40.091  32.909  30.523  1.00  0.00     0.031 C 
ATOM     34  C   UNL A   1      44.887  30.236  31.811  1.00  0.00     0.029 A 
ATOM     35  C   UNL A   1      43.898  31.219  31.778  1.00  0.00     0.049 A 
ATOM     36  H   UNL A   1      44.094  32.974  30.626  1.00  0.00     0.167 HD
ATOM     37  C   UNL A   1      41.602  32.095  32.086  1.00  0.00     0.074 A 
ATOM     38  C   UNL A   1      41.381  32.868  30.866  1.00  0.00     0.031 C 
ATOM     39  C   UNL A   1      42.696  31.428  32.560  1.00  0.00     0.034 A 
BRANCH  26  40
ATOM     40  C   UNL A   1      44.466  32.640  27.673  1.00  0.00     0.023 A 
ATOM     41  C   UNL A   1      43.950  33.722  28.409  1.00  0.00     0.031 A 
ATOM     42  C   UNL A   1      44.543  32.842  26.275  1.00  0.00     0.131 A 
ATOM     43  C   UNL A   1      43.335  34.806  27.761  1.00  0.00     0.055 A 
ATOM     44  C   UNL A   1      44.008  33.967  25.639  1.00  0.00     0.041 A 
ATOM     45  F   UNL A   1      45.065  31.948  25.431  1.00  0.00    -0.206 F 
ATOM     46  C   UNL A   1      43.347  34.932  26.377  1.00  0.00     0.022 A 
BRANCH  43  47
ATOM     47  S   UNL A   1      42.295  35.894  28.763  1.00  0.00     0.124 S 
ATOM     48  O   UNL A   1      42.607  37.192  28.170  1.00  0.00    -0.237 OA
ATOM     49  O   UNL A   1      40.963  35.365  28.493  1.00  0.00    -0.237 OA
ATOM     50  O   UNL A   1      42.792  35.683  30.119  1.00  0.00    -0.744 OA
ENDBRANCH  43  47
ENDBRANCH  26  40
BRANCH  27  51
ATOM     51  C   UNL A   1      36.975  31.760  31.099  1.00  0.00     0.023 A 
ATOM     52  C   UNL A   1      36.233  32.275  32.187  1.00  0.00     0.031 A 
ATOM     53  C   UNL A   1      36.440  31.995  29.812  1.00  0.00     0.131 A 
ATOM     54  C   UNL A   1      35.022  32.977  31.961  1.00  0.00     0.055 A 
ATOM     55  C   UNL A   1      35.242  32.676  29.595  1.00  0.00     0.041 A 
ATOM     56  F   UNL A   1      37.113  31.647  28.703  1.00  0.00    -0.206 F 
ATOM     57  C   UNL A   1      34.530  33.179  30.669  1.00  0.00     0.022 A 
BRANCH  54  58
ATOM     58  S   UNL A   1      34.104  33.736  33.344  1.00  0.00     0.124 S 
ATOM     59  O   UNL A   1      34.988  33.491  34.477  1.00  0.00    -0.237 OA
ATOM     60  O   UNL A   1      33.969  35.122  32.911  1.00  0.00    -0.237 OA
ATOM     61  O   UNL A   1      32.847  32.984  33.373  1.00  0.00    -0.744 OA
ENDBRANCH  54  58
ENDBRANCH  27  51
BRANCH  39  62
ATOM     62  C   UNL A   1      42.583  30.679  33.870  1.00  0.00     0.023 A 
ATOM     63  C   UNL A   1      42.248  29.313  33.999  1.00  0.00     0.031 A 
ATOM     64  C   UNL A   1      42.928  31.379  35.040  1.00  0.00     0.131 A 
ATOM     65  C   UNL A   1      42.248  28.704  35.269  1.00  0.00     0.055 A 
ATOM     66  C   UNL A   1      42.942  30.770  36.293  1.00  0.00     0.041 A 
ATOM     67  F   UNL A   1      43.287  32.673  34.982  1.00  0.00    -0.206 F 
ATOM     68  C   UNL A   1      42.592  29.431  36.414  1.00  0.00     0.022 A 
BRANCH  65  69
ATOM     69  S   UNL A   1      41.777  26.956  35.466  1.00  0.00     0.124 S 
ATOM     70  O   UNL A   1      40.802  26.736  34.405  1.00  0.00    -0.237 OA
ATOM     71  O   UNL A   1      43.055  26.263  35.311  1.00  0.00    -0.237 OA
ATOM     72  O   UNL A   1      41.225  26.902  36.821  1.00  0.00    -0.744 OA
ENDBRANCH  65  69
ENDBRANCH  39  62
ENDBRANCH  13  14
ENDBRANCH   6   8
ENDBRANCH   3   4
ENDBRANCH   2   3
ENDBRANCH   1   2
BRANCH   1  73
ATOM     73  N   UNL A   1      35.440  19.971  24.865  1.00  0.00    -0.351 N 
ATOM     74  C   UNL A   1      34.133  19.626  24.608  1.00  0.00     0.273 C 
ATOM     75  H   UNL A   1      36.103  19.310  24.565  1.00  0.00     0.163 HD
ATOM     76  O   UNL A   1      33.905  18.472  24.252  1.00  0.00    -0.267 OA
BRANCH  74  77
ATOM     77  C   UNL A   1      33.081  20.617  24.747  1.00  0.00     0.170 A 
ATOM     78  C   UNL A   1      32.917  21.811  24.072  1.00  0.00     0.145 A 
ATOM     79  N   UNL A   1      32.005  20.434  25.582  1.00  0.00    -0.125 NA
ATOM     80  N   UNL A   1      31.813  22.370  24.649  1.00  0.00    -0.237 N 
ATOM     81  N   UNL A   1      31.241  21.516  25.518  1.00  0.00    -0.066 NA
BRANCH  80  82
ATOM     82  C   UNL A   1      31.344  23.715  24.539  1.00  0.00     0.218 C 
ATOM     83  C   UNL A   1      32.417  24.690  23.985  1.00  0.00     0.295 C 
ATOM     84  C   UNL A   1      30.580  24.069  23.247  1.00  0.00     0.295 C 
ATOM     85  N   UNL A   1      31.399  25.288  23.114  1.00  0.00    -0.331 N 
ATOM     86  H   UNL A   1      31.653  25.643  22.192  1.00  0.00     0.348 HD
BRANCH  85  87
ATOM     87  C   UNL A   1      30.778  26.521  23.623  1.00  0.00     0.262 C 
BRANCH  87  88
ATOM     88  C   UNL A   1      30.657  27.838  22.829  1.00  0.00     0.064 C 
BRANCH  88  89
ATOM     89  C   UNL A   1      30.136  29.110  23.509  1.00  0.00     0.038 C 
BRANCH  89  90
ATOM     90  C   UNL A   1      29.825  30.346  22.658  1.00  0.00     0.118 C 
ATOM     91  C   UNL A   1      28.821  31.357  23.191  1.00  0.00     0.034 C 
ATOM     92  O   UNL A   1      29.291  29.852  21.406  1.00  0.00    -0.378 OA
ATOM     93  C   UNL A   1      28.038  31.761  21.966  1.00  0.00     0.031 C 
ATOM     94  C   UNL A   1      28.018  30.478  21.174  1.00  0.00     0.160 C 
ENDBRANCH  89  90
ENDBRANCH  88  89
ENDBRANCH  87  88
ENDBRANCH  85  87
ENDBRANCH  80  82
ENDBRANCH  74  77
ENDBRANCH   1  73
TORSDOF 18
ENDMDL
MODEL 2
REMARK VINA RESULT:     -12.2      3.906      9.456
REMARK SMILES O=C(NCCCNC(=O)c1cn(C2C[NH+](CCC[C@@H]3CCCO3)C2)nn1)c1ccc(-c2c3nc(c(-c4cc(S(=O)(=O)[O-])ccc4F)c4ccc([nH]4)c(-c4cc(S(=O)(=O)[O-])ccc4F)c4nc(c(-c5cc(S(=O)(=O)[O-])ccc5F)c5ccc2[nH]5)C=C4)C=C3)cc1
REMARK SMILES IDX 6 1 5 2 4 3 3 4 1 5 2 6 27 8 28 9 89 10 29 11 88 12 30 13
REMARK SMILES IDX 31 14 32 15 82 16 33 17 87 18 81 19 83 20 34 21 86 22 80 23
REMARK SMILES IDX 79 24 35 26 67 27 47 28 66 29 48 30 51 31 65 32 84 33 49 34
REMARK SMILES IDX 50 35 64 37 85 38 52 39 36 40 37 41 45 42 38 43 44 44 46 45
REMARK SMILES IDX 43 46 39 47 40 48 41 49 42 50 68 51 69 52 77 53 70 54 76 55
REMARK SMILES IDX 78 56 75 57 71 58 72 59 73 60 74 61 53 62 54 63 62 64 55 65
REMARK SMILES IDX 61 66 63 67 60 68 56 69 57 70 58 71 59 72 7 73 8 74 9 76
REMARK SMILES IDX 10 77 11 78 26 79 12 80 25 81 13 82 14 83 24 84 15 85 16 87
REMARK SMILES IDX 17 88 18 89 19 90 20 91 23 92 21 93 22 94
REMARK H PARENT 3 7 83 25 51 36 7 75 15 86
REMARK Flexibility Score: inf
ROOT
ATOM      1  C   UNL A   1      32.783  28.857  27.214  1.00  0.00     0.118 C 
ENDROOT
BRANCH   1   2
ATOM      2  C   UNL A   1      34.213  28.893  26.671  1.00  0.00     0.042 C 
BRANCH   2   3
ATOM      3  C   UNL A   1      35.146  29.886  27.363  1.00  0.00     0.118 C 
BRANCH   3   4
ATOM      4  N   UNL A   1      35.234  29.757  28.803  1.00  0.00    -0.352 N 
ATOM      5  O   UNL A   1      35.972  29.722  30.879  1.00  0.00    -0.269 OA
ATOM      6  C   UNL A   1      36.260  29.580  29.688  1.00  0.00     0.251 C 
ATOM      7  H   UNL A   1      34.354  29.809  29.243  1.00  0.00     0.163 HD
BRANCH   6   8
ATOM      8  C   UNL A   1      37.644  29.165  29.327  1.00  0.00     0.039 A 
ATOM      9  C   UNL A   1      38.363  29.595  28.210  1.00  0.00     0.014 A 
ATOM     10  C   UNL A   1      38.253  28.246  30.204  1.00  0.00     0.014 A 
ATOM     11  C   UNL A   1      39.625  29.067  27.936  1.00  0.00     0.010 A 
ATOM     12  C   UNL A   1      39.514  27.724  29.941  1.00  0.00     0.010 A 
ATOM     13  C   UNL A   1      40.194  28.119  28.791  1.00  0.00    -0.014 A 
BRANCH  13  14
ATOM     14  C   UNL A   1      41.598  27.751  28.595  1.00  0.00     0.031 A 
ATOM     15  C   UNL A   1      41.781  26.452  27.889  1.00  0.00     0.074 A 
ATOM     16  C   UNL A   1      42.647  28.565  28.829  1.00  0.00     0.049 A 
ATOM     17  N   UNL A   1      42.346  25.375  28.328  1.00  0.00    -0.248 NA
ATOM     18  C   UNL A   1      41.121  26.285  26.583  1.00  0.00     0.031 C 
ATOM     19  C   UNL A   1      42.594  29.963  29.255  1.00  0.00     0.029 A 
ATOM     20  N   UNL A   1      43.984  28.356  28.620  1.00  0.00    -0.354 N 
ATOM     21  C   UNL A   1      42.340  24.484  27.257  1.00  0.00     0.074 A 
ATOM     22  C   UNL A   1      41.393  25.010  26.314  1.00  0.00     0.031 C 
ATOM     23  C   UNL A   1      43.804  30.534  29.058  1.00  0.00     0.029 A 
ATOM     24  C   UNL A   1      44.743  29.525  28.590  1.00  0.00     0.049 A 
ATOM     25  H   UNL A   1      44.374  27.459  28.501  1.00  0.00     0.167 HD
ATOM     26  C   UNL A   1      43.321  23.549  27.112  1.00  0.00     0.034 A 
ATOM     27  C   UNL A   1      46.021  29.681  28.145  1.00  0.00     0.034 A 
ATOM     28  C   UNL A   1      44.001  23.312  28.371  1.00  0.00     0.049 A 
ATOM     29  C   UNL A   1      46.670  28.349  28.187  1.00  0.00     0.074 A 
ATOM     30  C   UNL A   1      43.588  22.965  29.646  1.00  0.00     0.029 A 
ATOM     31  N   UNL A   1      45.293  23.766  28.526  1.00  0.00    -0.354 N 
ATOM     32  N   UNL A   1      46.934  27.713  29.295  1.00  0.00    -0.248 NA
ATOM     33  C   UNL A   1      46.625  27.519  26.993  1.00  0.00     0.031 C 
ATOM     34  C   UNL A   1      44.436  23.704  30.524  1.00  0.00     0.029 A 
ATOM     35  C   UNL A   1      45.364  24.392  29.743  1.00  0.00     0.049 A 
ATOM     36  H   UNL A   1      46.030  23.659  27.881  1.00  0.00     0.167 HD
ATOM     37  C   UNL A   1      46.642  26.387  29.020  1.00  0.00     0.074 A 
ATOM     38  C   UNL A   1      46.568  26.312  27.563  1.00  0.00     0.031 C 
ATOM     39  C   UNL A   1      46.204  25.544  30.003  1.00  0.00     0.034 A 
BRANCH  26  40
ATOM     40  C   UNL A   1      43.956  23.193  25.772  1.00  0.00     0.023 A 
ATOM     41  C   UNL A   1      43.975  21.826  25.441  1.00  0.00     0.031 A 
ATOM     42  C   UNL A   1      44.820  24.012  25.009  1.00  0.00     0.131 A 
ATOM     43  C   UNL A   1      44.962  21.305  24.589  1.00  0.00     0.055 A 
ATOM     44  C   UNL A   1      45.743  23.496  24.092  1.00  0.00     0.041 A 
ATOM     45  F   UNL A   1      44.885  25.339  25.143  1.00  0.00    -0.206 F 
ATOM     46  C   UNL A   1      45.858  22.129  23.920  1.00  0.00     0.022 A 
BRANCH  43  47
ATOM     47  S   UNL A   1      45.206  19.513  24.595  1.00  0.00     0.124 S 
ATOM     48  O   UNL A   1      46.652  19.435  24.781  1.00  0.00    -0.237 OA
ATOM     49  O   UNL A   1      44.386  19.105  25.731  1.00  0.00    -0.237 OA
ATOM     50  O   UNL A   1      44.715  19.100  23.285  1.00  0.00    -0.744 OA
ENDBRANCH  43  47
ENDBRANCH  26  40
BRANCH  27  51
ATOM     51  C   UNL A   1      46.613  30.860  27.442  1.00  0.00     0.023 A 
ATOM     52  C   UNL A   1      45.833  31.872  26.836  1.00  0.00     0.031 A 
ATOM     53  C   UNL A   1      47.995  31.124  27.563  1.00  0.00     0.131 A 
ATOM     54  C   UNL A   1      46.441  33.071  26.383  1.00  0.00     0.055 A 
ATOM     55  C   UNL A   1      48.591  32.300  27.104  1.00  0.00     0.041 A 
ATOM     56  F   UNL A   1      48.812  30.282  28.216  1.00  0.00    -0.206 F 
ATOM     57  C   UNL A   1      47.815  33.284  26.519  1.00  0.00     0.022 A 
BRANCH  54  58
ATOM     58  S   UNL A   1      45.438  34.430  25.692  1.00  0.00     0.124 S 
ATOM     59  O   UNL A   1      44.411  34.609  26.712  1.00  0.00    -0.237 OA
ATOM     60  O   UNL A   1      46.414  35.504  25.555  1.00  0.00    -0.237 OA
ATOM     61  O   UNL A   1      44.952  33.885  24.423  1.00  0.00    -0.744 OA
ENDBRANCH  54  58
ENDBRANCH  27  51
BRANCH  39  62
ATOM     62  C   UNL A   1      46.409  25.940  31.448  1.00  0.00     0.023 A 
ATOM     63  C   UNL A   1      45.395  26.400  32.317  1.00  0.00     0.031 A 
ATOM     64  C   UNL A   1      47.693  25.747  31.990  1.00  0.00     0.131 A 
ATOM     65  C   UNL A   1      45.692  26.667  33.669  1.00  0.00     0.055 A 
ATOM     66  C   UNL A   1      47.980  25.996  33.330  1.00  0.00     0.041 A 
ATOM     67  F   UNL A   1      48.695  25.280  31.224  1.00  0.00    -0.206 F 
ATOM     68  C   UNL A   1      46.981  26.467  34.173  1.00  0.00     0.022 A 
BRANCH  65  69
ATOM     69  S   UNL A   1      44.411  27.303  34.797  1.00  0.00     0.124 S 
ATOM     70  O   UNL A   1      45.164  27.759  35.958  1.00  0.00    -0.237 OA
ATOM     71  O   UNL A   1      43.775  28.349  33.997  1.00  0.00    -0.237 OA
ATOM     72  O   UNL A   1      43.563  26.135  35.041  1.00  0.00    -0.744 OA
ENDBRANCH  65  69
ENDBRANCH  39  62
ENDBRANCH  13  14
ENDBRANCH   6   8
ENDBRANCH   3   4
ENDBRANCH   2   3
ENDBRANCH   1   2
BRANCH   1  73
ATOM     73  N   UNL A   1      31.790  28.691  26.161  1.00  0.00    -0.351 N 
ATOM     74  C   UNL A   1      31.363  27.567  25.494  1.00  0.00     0.273 C 
ATOM     75  H   UNL A   1      31.350  29.525  25.879  1.00  0.00     0.163 HD
ATOM     76  O   UNL A   1      30.669  27.724  24.490  1.00  0.00    -0.267 OA
BRANCH  74  77
ATOM     77  C   UNL A   1      31.723  26.250  25.988  1.00  0.00     0.170 A 
ATOM     78  C   UNL A   1      32.932  25.588  25.897  1.00  0.00     0.145 A 
ATOM     79  N   UNL A   1      30.855  25.478  26.722  1.00  0.00    -0.125 NA
ATOM     80  N   UNL A   1      32.685  24.368  26.458  1.00  0.00    -0.237 N 
ATOM     81  N   UNL A   1      31.453  24.327  26.997  1.00  0.00    -0.066 NA
BRANCH  80  82
ATOM     82  C   UNL A   1      33.488  23.188  26.392  1.00  0.00     0.218 C 
ATOM     83  C   UNL A   1      33.424  22.485  25.009  1.00  0.00     0.295 C 
ATOM     84  C   UNL A   1      34.977  23.393  26.045  1.00  0.00     0.295 C 
ATOM     85  N   UNL A   1      34.880  22.305  25.052  1.00  0.00    -0.331 N 
ATOM     86  H   UNL A   1      35.429  22.338  24.194  1.00  0.00     0.348 HD
BRANCH  85  87
ATOM     87  C   UNL A   1      35.340  20.988  25.518  1.00  0.00     0.262 C 
BRANCH  87  88
ATOM     88  C   UNL A   1      36.480  20.174  24.870  1.00  0.00     0.064 C 
BRANCH  88  89
ATOM     89  C   UNL A   1      37.911  20.724  24.847  1.00  0.00     0.038 C 
BRANCH  89  90
ATOM     90  C   UNL A   1      38.832  20.479  26.046  1.00  0.00     0.118 C 
ATOM     91  C   UNL A   1      39.820  21.568  26.434  1.00  0.00     0.034 C 
ATOM     92  O   UNL A   1      39.617  19.306  25.720  1.00  0.00    -0.378 OA
ATOM     93  C   UNL A   1      41.066  20.804  26.809  1.00  0.00     0.031 C 
ATOM     94  C   UNL A   1      41.009  19.636  25.858  1.00  0.00     0.160 C 
ENDBRANCH  89  90
ENDBRANCH  88  89
ENDBRANCH  87  88
ENDBRANCH  85  87
ENDBRANCH  80  82
ENDBRANCH  74  77
ENDBRANCH   1  73
TORSDOF 18
ENDMDL
MODEL 3
REMARK VINA RESULT:     -12.2      3.877      9.974
REMARK SMILES O=C(NCCCNC(=O)c1cn(C2C[NH+](CCC[C@@H]3CCCO3)C2)nn1)c1ccc(-c2c3nc(c(-c4cc(S(=O)(=O)[O-])ccc4F)c4ccc([nH]4)c(-c4cc(S(=O)(=O)[O-])ccc4F)c4nc(c(-c5cc(S(=O)(=O)[O-])ccc5F)c5ccc2[nH]5)C=C4)C=C3)cc1
REMARK SMILES IDX 6 1 5 2 4 3 3 4 1 5 2 6 27 8 28 9 89 10 29 11 88 12 30 13
REMARK SMILES IDX 31 14 32 15 82 16 33 17 87 18 81 19 83 20 34 21 86 22 80 23
REMARK SMILES IDX 79 24 35 26 67 27 47 28 66 29 48 30 51 31 65 32 84 33 49 34
REMARK SMILES IDX 50 35 64 37 85 38 52 39 36 40 37 41 45 42 38 43 44 44 46 45
REMARK SMILES IDX 43 46 39 47 40 48 41 49 42 50 68 51 69 52 77 53 70 54 76 55
REMARK SMILES IDX 78 56 75 57 71 58 72 59 73 60 74 61 53 62 54 63 62 64 55 65
REMARK SMILES IDX 61 66 63 67 60 68 56 69 57 70 58 71 59 72 7 73 8 74 9 76
REMARK SMILES IDX 10 77 11 78 26 79 12 80 25 81 13 82 14 83 24 84 15 85 16 87
REMARK SMILES IDX 17 88 18 89 19 90 20 91 23 92 21 93 22 94
REMARK H PARENT 3 7 83 25 51 36 7 75 15 86
REMARK Flexibility Score: inf
ROOT
ATOM      1  C   UNL A   1      32.214  28.842  25.680  1.00  0.00     0.118 C 
ENDROOT
BRANCH   1   2
ATOM      2  C   UNL A   1      32.575  30.139  26.408  1.00  0.00     0.042 C 
BRANCH   2   3
ATOM      3  C   UNL A   1      33.817  30.063  27.293  1.00  0.00     0.118 C 
BRANCH   3   4
ATOM      4  N   UNL A   1      34.419  31.336  27.631  1.00  0.00    -0.352 N 
ATOM      5  O   UNL A   1      35.861  32.970  27.959  1.00  0.00    -0.269 OA
ATOM      6  C   UNL A   1      35.690  31.749  27.919  1.00  0.00     0.251 C 
ATOM      7  H   UNL A   1      33.763  32.070  27.661  1.00  0.00     0.163 HD
BRANCH   6   8
ATOM      8  C   UNL A   1      36.830  30.851  28.252  1.00  0.00     0.039 A 
ATOM      9  C   UNL A   1      36.923  29.494  27.937  1.00  0.00     0.014 A 
ATOM     10  C   UNL A   1      37.891  31.450  28.958  1.00  0.00     0.014 A 
ATOM     11  C   UNL A   1      38.010  28.739  28.378  1.00  0.00     0.010 A 
ATOM     12  C   UNL A   1      38.982  30.704  29.392  1.00  0.00     0.010 A 
ATOM     13  C   UNL A   1      39.031  29.340  29.121  1.00  0.00    -0.014 A 
BRANCH  13  14
ATOM     14  C   UNL A   1      40.253  28.574  29.379  1.00  0.00     0.031 A 
ATOM     15  C   UNL A   1      40.615  28.498  30.822  1.00  0.00     0.074 A 
ATOM     16  C   UNL A   1      40.902  27.828  28.462  1.00  0.00     0.049 A 
ATOM     17  N   UNL A   1      41.677  28.950  31.406  1.00  0.00    -0.248 NA
ATOM     18  C   UNL A   1      39.598  27.985  31.755  1.00  0.00     0.031 C 
ATOM     19  C   UNL A   1      40.495  27.588  27.079  1.00  0.00     0.029 A 
ATOM     20  N   UNL A   1      42.002  27.025  28.604  1.00  0.00    -0.354 N 
ATOM     21  C   UNL A   1      41.576  28.544  32.735  1.00  0.00     0.074 A 
ATOM     22  C   UNL A   1      40.204  28.167  32.927  1.00  0.00     0.031 C 
ATOM     23  C   UNL A   1      41.194  26.542  26.584  1.00  0.00     0.029 A 
ATOM     24  C   UNL A   1      42.167  26.102  27.573  1.00  0.00     0.049 A 
ATOM     25  H   UNL A   1      42.622  27.094  29.368  1.00  0.00     0.167 HD
ATOM     26  C   UNL A   1      42.688  28.284  33.480  1.00  0.00     0.034 A 
ATOM     27  C   UNL A   1      42.981  25.009  27.550  1.00  0.00     0.034 A 
ATOM     28  C   UNL A   1      43.858  28.919  32.903  1.00  0.00     0.049 A 
ATOM     29  C   UNL A   1      44.048  25.232  28.555  1.00  0.00     0.074 A 
ATOM     30  C   UNL A   1      44.173  30.214  32.528  1.00  0.00     0.029 A 
ATOM     31  N   UNL A   1      44.815  28.130  32.300  1.00  0.00    -0.354 N 
ATOM     32  N   UNL A   1      44.965  26.152  28.437  1.00  0.00    -0.248 NA
ATOM     33  C   UNL A   1      43.841  24.735  29.906  1.00  0.00     0.031 C 
ATOM     34  C   UNL A   1      44.949  30.076  31.338  1.00  0.00     0.029 A 
ATOM     35  C   UNL A   1      45.132  28.714  31.102  1.00  0.00     0.049 A 
ATOM     36  H   UNL A   1      45.200  27.301  32.665  1.00  0.00     0.167 HD
ATOM     37  C   UNL A   1      45.122  26.662  29.716  1.00  0.00     0.074 A 
ATOM     38  C   UNL A   1      44.492  25.677  30.593  1.00  0.00     0.031 C 
ATOM     39  C   UNL A   1      45.488  27.963  29.915  1.00  0.00     0.034 A 
BRANCH  26  40
ATOM     40  C   UNL A   1      42.800  27.110  34.446  1.00  0.00     0.023 A 
ATOM     41  C   UNL A   1      43.680  26.080  34.069  1.00  0.00     0.031 A 
ATOM     42  C   UNL A   1      41.885  26.778  35.473  1.00  0.00     0.131 A 
ATOM     43  C   UNL A   1      43.480  24.763  34.513  1.00  0.00     0.055 A 
ATOM     44  C   UNL A   1      41.750  25.481  35.979  1.00  0.00     0.041 A 
ATOM     45  F   UNL A   1      41.022  27.650  35.999  1.00  0.00    -0.206 F 
ATOM     46  C   UNL A   1      42.511  24.451  35.458  1.00  0.00     0.022 A 
BRANCH  43  47
ATOM     47  S   UNL A   1      44.341  23.444  33.624  1.00  0.00     0.124 S 
ATOM     48  O   UNL A   1      44.515  22.464  34.692  1.00  0.00    -0.237 OA
ATOM     49  O   UNL A   1      43.373  23.104  32.586  1.00  0.00    -0.237 OA
ATOM     50  O   UNL A   1      45.561  24.093  33.156  1.00  0.00    -0.744 OA
ENDBRANCH  43  47
ENDBRANCH  26  40
BRANCH  27  51
ATOM     51  C   UNL A   1      42.727  23.687  26.903  1.00  0.00     0.023 A 
ATOM     52  C   UNL A   1      43.673  23.032  26.080  1.00  0.00     0.031 A 
ATOM     53  C   UNL A   1      41.601  22.925  27.288  1.00  0.00     0.131 A 
ATOM     54  C   UNL A   1      43.466  21.688  25.679  1.00  0.00     0.055 A 
ATOM     55  C   UNL A   1      41.396  21.606  26.881  1.00  0.00     0.041 A 
ATOM     56  F   UNL A   1      40.695  23.408  28.153  1.00  0.00    -0.206 F 
ATOM     57  C   UNL A   1      42.333  20.978  26.080  1.00  0.00     0.022 A 
BRANCH  54  58
ATOM     58  S   UNL A   1      44.723  20.795  24.702  1.00  0.00     0.124 S 
ATOM     59  O   UNL A   1      45.931  20.993  25.494  1.00  0.00    -0.237 OA
ATOM     60  O   UNL A   1      44.186  19.440  24.660  1.00  0.00    -0.237 OA
ATOM     61  O   UNL A   1      44.713  21.492  23.414  1.00  0.00    -0.744 OA
ENDBRANCH  54  58
ENDBRANCH  27  51
BRANCH  39  62
ATOM     62  C   UNL A   1      46.098  28.733  28.765  1.00  0.00     0.023 A 
ATOM     63  C   UNL A   1      47.464  28.708  28.403  1.00  0.00     0.031 A 
ATOM     64  C   UNL A   1      45.219  29.457  27.940  1.00  0.00     0.131 A 
ATOM     65  C   UNL A   1      47.904  29.408  27.262  1.00  0.00     0.055 A 
ATOM     66  C   UNL A   1      45.654  30.136  26.803  1.00  0.00     0.041 A 
ATOM     67  F   UNL A   1      43.903  29.494  28.210  1.00  0.00    -0.206 F 
ATOM     68  C   UNL A   1      47.002  30.122  26.466  1.00  0.00     0.022 A 
BRANCH  65  69
ATOM     69  S   UNL A   1      49.666  29.427  26.802  1.00  0.00     0.124 S 
ATOM     70  O   UNL A   1      49.987  30.846  26.709  1.00  0.00    -0.237 OA
ATOM     71  O   UNL A   1      50.291  28.702  27.907  1.00  0.00    -0.237 OA
ATOM     72  O   UNL A   1      49.691  28.712  25.524  1.00  0.00    -0.744 OA
ENDBRANCH  65  69
ENDBRANCH  39  62
ENDBRANCH  13  14
ENDBRANCH   6   8
ENDBRANCH   3   4
ENDBRANCH   2   3
ENDBRANCH   1   2
BRANCH   1  73
ATOM     73  N   UNL A   1      31.346  29.067  24.533  1.00  0.00    -0.351 N 
ATOM     74  C   UNL A   1      31.417  28.595  23.242  1.00  0.00     0.273 C 
ATOM     75  H   UNL A   1      30.579  29.657  24.710  1.00  0.00     0.163 HD
ATOM     76  O   UNL A   1      30.682  29.111  22.402  1.00  0.00    -0.267 OA
BRANCH  74  77
ATOM     77  C   UNL A   1      32.328  27.513  22.915  1.00  0.00     0.170 A 
ATOM     78  C   UNL A   1      32.394  26.241  23.449  1.00  0.00     0.145 A 
ATOM     79  N   UNL A   1      33.258  27.614  21.909  1.00  0.00    -0.125 NA
ATOM     80  N   UNL A   1      33.475  25.678  22.833  1.00  0.00    -0.237 N 
ATOM     81  N   UNL A   1      33.958  26.488  21.874  1.00  0.00    -0.066 NA
BRANCH  80  82
ATOM     82  C   UNL A   1      34.172  24.483  23.192  1.00  0.00     0.218 C 
ATOM     83  C   UNL A   1      34.647  24.475  24.669  1.00  0.00     0.295 C 
ATOM     84  C   UNL A   1      33.298  23.288  23.629  1.00  0.00     0.295 C 
ATOM     85  N   UNL A   1      34.182  23.088  24.793  1.00  0.00    -0.331 N 
ATOM     86  H   UNL A   1      33.804  22.748  25.678  1.00  0.00     0.348 HD
BRANCH  85  87
ATOM     87  C   UNL A   1      35.218  22.058  24.625  1.00  0.00     0.262 C 
BRANCH  87  88
ATOM     88  C   UNL A   1      35.046  20.569  24.992  1.00  0.00     0.064 C 
BRANCH  88  89
ATOM     89  C   UNL A   1      33.645  19.967  25.161  1.00  0.00     0.038 C 
BRANCH  89  90
ATOM     90  C   UNL A   1      33.417  18.487  24.837  1.00  0.00     0.118 C 
ATOM     91  C   UNL A   1      34.564  17.693  24.233  1.00  0.00     0.034 C 
ATOM     92  O   UNL A   1      32.333  18.446  23.877  1.00  0.00    -0.378 OA
ATOM     93  C   UNL A   1      33.890  16.815  23.208  1.00  0.00     0.031 C 
ATOM     94  C   UNL A   1      32.773  17.706  22.726  1.00  0.00     0.160 C 
ENDBRANCH  89  90
ENDBRANCH  88  89
ENDBRANCH  87  88
ENDBRANCH  85  87
ENDBRANCH  80  82
ENDBRANCH  74  77
ENDBRANCH   1  73
TORSDOF 18
ENDMDL
