MODEL 1
REMARK VINA RESULT:     -12.7      0.000      0.000
REMARK SMILES O=C(NCCCNC(=O)c1cc(Br)n(Cc2ccn(C3CCCC3)n2)c1)c1ccc(-c2c3nc(c(-c4cc(S(=O)(=O)[O-])ccc4F)c4ccc([nH]4)c(-c4cc(S(=O)(=O)[O-])ccc4F)c4nc(c(-c5cc(S(=O)(=O)[O-])ccc5F)c5ccc2[nH]5)C=C4)C=C3)cc1
REMARK SMILES IDX 5 1 4 2 3 3 1 4 2 5 27 7 28 8 89 9 29 10 88 11 30 12 31 13
REMARK SMILES IDX 32 14 82 15 33 16 87 17 81 18 83 19 34 20 86 21 80 22 79 23
REMARK SMILES IDX 35 25 67 26 47 27 66 28 48 29 51 30 65 31 84 32 49 33 50 34
REMARK SMILES IDX 64 36 85 37 52 38 36 39 37 40 45 41 38 42 44 43 46 44 43 45
REMARK SMILES IDX 39 46 40 47 41 48 42 49 68 50 69 51 77 52 70 53 76 54 78 55
REMARK SMILES IDX 75 56 71 57 72 58 73 59 74 60 53 61 54 62 62 63 55 64 61 65
REMARK SMILES IDX 63 66 60 67 56 68 57 69 58 70 59 71 6 72 7 73 8 74 9 76
REMARK SMILES IDX 10 77 11 78 26 79 12 80 14 81 13 82 15 83 16 84 17 85 25 86
REMARK SMILES IDX 18 87 19 88 20 89 21 90 24 91 22 92 23 93
REMARK H PARENT 3 6 83 24 51 35 7 75
REMARK Flexibility Score: inf
ROOT
ATOM      1  C   UNL A   1      32.843  30.494  26.965  1.00  0.00     0.042 C 
ENDROOT
BRANCH   1   2
ATOM      2  C   UNL A   1      34.223  30.974  27.418  1.00  0.00     0.118 C 
BRANCH   2   3
ATOM      3  N   UNL A   1      34.268  31.602  28.725  1.00  0.00    -0.352 N 
ATOM      4  O   UNL A   1      34.930  32.460  30.651  1.00  0.00    -0.269 OA
ATOM      5  C   UNL A   1      35.226  31.737  29.695  1.00  0.00     0.251 C 
ATOM      6  H   UNL A   1      33.415  32.026  28.973  1.00  0.00     0.163 HD
BRANCH   5   7
ATOM      7  C   UNL A   1      36.548  31.052  29.693  1.00  0.00     0.039 A 
ATOM      8  C   UNL A   1      37.787  31.687  29.783  1.00  0.00     0.014 A 
ATOM      9  C   UNL A   1      36.519  29.646  29.619  1.00  0.00     0.014 A 
ATOM     10  C   UNL A   1      38.967  30.947  29.738  1.00  0.00     0.010 A 
ATOM     11  C   UNL A   1      37.697  28.899  29.600  1.00  0.00     0.010 A 
ATOM     12  C   UNL A   1      38.927  29.553  29.650  1.00  0.00    -0.014 A 
BRANCH  12  13
ATOM     13  C   UNL A   1      40.182  28.819  29.828  1.00  0.00     0.031 A 
ATOM     14  C   UNL A   1      40.608  28.622  31.243  1.00  0.00     0.074 A 
ATOM     15  C   UNL A   1      40.845  28.169  28.851  1.00  0.00     0.049 A 
ATOM     16  N   UNL A   1      41.724  28.958  31.804  1.00  0.00    -0.248 NA
ATOM     17  C   UNL A   1      39.627  28.039  32.172  1.00  0.00     0.031 C 
ATOM     18  C   UNL A   1      40.410  27.980  27.467  1.00  0.00     0.029 A 
ATOM     19  N   UNL A   1      41.996  27.430  28.926  1.00  0.00    -0.354 N 
ATOM     20  C   UNL A   1      41.680  28.432  33.094  1.00  0.00     0.074 A 
ATOM     21  C   UNL A   1      40.318  28.022  33.311  1.00  0.00     0.031 C 
ATOM     22  C   UNL A   1      41.161  27.012  26.900  1.00  0.00     0.029 A 
ATOM     23  C   UNL A   1      42.191  26.589  27.837  1.00  0.00     0.049 A 
ATOM     24  H   UNL A   1      42.625  27.489  29.682  1.00  0.00     0.167 HD
ATOM     25  C   UNL A   1      42.813  28.175  33.805  1.00  0.00     0.034 A 
ATOM     26  C   UNL A   1      43.079  25.567  27.727  1.00  0.00     0.034 A 
ATOM     27  C   UNL A   1      43.935  28.940  33.309  1.00  0.00     0.049 A 
ATOM     28  C   UNL A   1      44.163  25.788  28.712  1.00  0.00     0.074 A 
ATOM     29  C   UNL A   1      44.161  30.284  33.070  1.00  0.00     0.029 A 
ATOM     30  N   UNL A   1      44.967  28.287  32.673  1.00  0.00    -0.354 N 
ATOM     31  N   UNL A   1      45.031  26.757  28.634  1.00  0.00    -0.248 NA
ATOM     32  C   UNL A   1      44.071  25.145  30.013  1.00  0.00     0.031 C 
ATOM     33  C   UNL A   1      44.987  30.324  31.907  1.00  0.00     0.029 A 
ATOM     34  C   UNL A   1      45.255  29.005  31.541  1.00  0.00     0.049 A 
ATOM     35  H   UNL A   1      45.413  27.462  32.974  1.00  0.00     0.167 HD
ATOM     36  C   UNL A   1      45.281  27.122  29.946  1.00  0.00     0.074 A 
ATOM     37  C   UNL A   1      44.766  26.016  30.747  1.00  0.00     0.031 C 
ATOM     38  C   UNL A   1      45.618  28.405  30.272  1.00  0.00     0.034 A 
BRANCH  25  39
ATOM     39  C   UNL A   1      42.992  26.973  34.718  1.00  0.00     0.023 A 
ATOM     40  C   UNL A   1      43.776  25.909  34.232  1.00  0.00     0.031 A 
ATOM     41  C   UNL A   1      42.210  26.677  35.858  1.00  0.00     0.131 A 
ATOM     42  C   UNL A   1      43.648  24.613  34.759  1.00  0.00     0.055 A 
ATOM     43  C   UNL A   1      42.155  25.405  36.437  1.00  0.00     0.041 A 
ATOM     44  F   UNL A   1      41.386  27.566  36.426  1.00  0.00    -0.206 F 
ATOM     45  C   UNL A   1      42.843  24.351  35.861  1.00  0.00     0.022 A 
BRANCH  42  46
ATOM     46  S   UNL A   1      44.367  23.242  33.819  1.00  0.00     0.124 S 
ATOM     47  O   UNL A   1      43.523  23.238  32.629  1.00  0.00    -0.237 OA
ATOM     48  O   UNL A   1      45.742  23.695  33.635  1.00  0.00    -0.237 OA
ATOM     49  O   UNL A   1      44.201  22.096  34.709  1.00  0.00    -0.744 OA
ENDBRANCH  42  46
ENDBRANCH  25  39
BRANCH  26  50
ATOM     50  C   UNL A   1      42.916  24.302  26.960  1.00  0.00     0.023 A 
ATOM     51  C   UNL A   1      43.896  23.826  26.066  1.00  0.00     0.031 A 
ATOM     52  C   UNL A   1      41.860  23.414  27.270  1.00  0.00     0.131 A 
ATOM     53  C   UNL A   1      43.788  22.529  25.513  1.00  0.00     0.055 A 
ATOM     54  C   UNL A   1      41.744  22.144  26.703  1.00  0.00     0.041 A 
ATOM     55  F   UNL A   1      40.944  23.717  28.203  1.00  0.00    -0.206 F 
ATOM     56  C   UNL A   1      42.713  21.692  25.826  1.00  0.00     0.022 A 
BRANCH  53  57
ATOM     57  S   UNL A   1      45.118  21.858  24.466  1.00  0.00     0.124 S 
ATOM     58  O   UNL A   1      44.482  20.691  23.865  1.00  0.00    -0.237 OA
ATOM     59  O   UNL A   1      45.409  22.974  23.572  1.00  0.00    -0.237 OA
ATOM     60  O   UNL A   1      46.183  21.553  25.423  1.00  0.00    -0.744 OA
ENDBRANCH  53  57
ENDBRANCH  26  50
BRANCH  38  61
ATOM     61  C   UNL A   1      46.137  29.328  29.193  1.00  0.00     0.023 A 
ATOM     62  C   UNL A   1      45.367  30.309  28.531  1.00  0.00     0.031 A 
ATOM     63  C   UNL A   1      47.512  29.273  28.896  1.00  0.00     0.131 A 
ATOM     64  C   UNL A   1      45.972  31.172  27.598  1.00  0.00     0.055 A 
ATOM     65  C   UNL A   1      48.113  30.141  27.986  1.00  0.00     0.041 A 
ATOM     66  F   UNL A   1      48.309  28.385  29.514  1.00  0.00    -0.206 F 
ATOM     67  C   UNL A   1      47.341  31.089  27.325  1.00  0.00     0.022 A 
BRANCH  64  68
ATOM     68  S   UNL A   1      44.982  32.411  26.707  1.00  0.00     0.124 S 
ATOM     69  O   UNL A   1      44.039  31.612  25.935  1.00  0.00    -0.237 OA
ATOM     70  O   UNL A   1      44.411  33.199  27.797  1.00  0.00    -0.237 OA
ATOM     71  O   UNL A   1      45.976  33.125  25.904  1.00  0.00    -0.744 OA
ENDBRANCH  64  68
ENDBRANCH  38  61
ENDBRANCH  12  13
ENDBRANCH   5   7
ENDBRANCH   2   3
ENDBRANCH   1   2
BRANCH   1  72
ATOM     72  C   UNL A   1      32.830  29.754  25.627  1.00  0.00     0.118 C 
BRANCH  72  73
ATOM     73  N   UNL A   1      31.581  29.952  24.910  1.00  0.00    -0.352 N 
ATOM     74  C   UNL A   1      30.852  29.064  24.164  1.00  0.00     0.252 C 
ATOM     75  H   UNL A   1      31.203  30.860  24.971  1.00  0.00     0.163 HD
ATOM     76  O   UNL A   1      29.995  29.503  23.398  1.00  0.00    -0.269 OA
BRANCH  74  77
ATOM     77  C   UNL A   1      31.085  27.638  24.323  1.00  0.00     0.058 A 
ATOM     78  C   UNL A   1      30.849  26.824  25.468  1.00  0.00     0.049 A 
ATOM     79  C   UNL A   1      31.468  26.776  23.309  1.00  0.00     0.101 A 
ATOM     80  C   UNL A   1      31.052  25.513  25.099  1.00  0.00     0.086 A 
ATOM     81  N   UNL A   1      31.507  25.490  23.806  1.00  0.00    -0.335 N 
ATOM     82  Br  UNL A   1      30.681  24.064  26.222  1.00  0.00    -0.031 Br
BRANCH  81  83
ATOM     83  C   UNL A   1      31.816  24.309  23.002  1.00  0.00     0.180 C 
BRANCH  83  84
ATOM     84  C   UNL A   1      32.916  23.477  23.583  1.00  0.00     0.082 A 
ATOM     85  C   UNL A   1      32.899  22.102  23.916  1.00  0.00     0.047 A 
ATOM     86  N   UNL A   1      34.141  24.004  23.775  1.00  0.00    -0.176 NA
ATOM     87  C   UNL A   1      34.172  21.809  24.336  1.00  0.00     0.109 A 
ATOM     88  N   UNL A   1      34.877  22.973  24.249  1.00  0.00    -0.269 N 
BRANCH  88  89
ATOM     89  C   UNL A   1      36.274  23.129  24.583  1.00  0.00     0.107 C 
ATOM     90  C   UNL A   1      36.558  23.942  25.844  1.00  0.00     0.027 C 
ATOM     91  C   UNL A   1      37.006  21.817  24.856  1.00  0.00     0.027 C 
ATOM     92  C   UNL A   1      38.030  23.654  26.114  1.00  0.00     0.002 C 
ATOM     93  C   UNL A   1      38.280  22.239  25.589  1.00  0.00     0.002 C 
ENDBRANCH  88  89
ENDBRANCH  83  84
ENDBRANCH  81  83
ENDBRANCH  74  77
ENDBRANCH  72  73
ENDBRANCH   1  72
TORSDOF 16
ENDMDL
MODEL 2
REMARK VINA RESULT:     -12.7      1.303      1.897
REMARK SMILES O=C(NCCCNC(=O)c1cc(Br)n(Cc2ccn(C3CCCC3)n2)c1)c1ccc(-c2c3nc(c(-c4cc(S(=O)(=O)[O-])ccc4F)c4ccc([nH]4)c(-c4cc(S(=O)(=O)[O-])ccc4F)c4nc(c(-c5cc(S(=O)(=O)[O-])ccc5F)c5ccc2[nH]5)C=C4)C=C3)cc1
REMARK SMILES IDX 5 1 4 2 3 3 1 4 2 5 27 7 28 8 89 9 29 10 88 11 30 12 31 13
REMARK SMILES IDX 32 14 82 15 33 16 87 17 81 18 83 19 34 20 86 21 80 22 79 23
REMARK SMILES IDX 35 25 67 26 47 27 66 28 48 29 51 30 65 31 84 32 49 33 50 34
REMARK SMILES IDX 64 36 85 37 52 38 36 39 37 40 45 41 38 42 44 43 46 44 43 45
REMARK SMILES IDX 39 46 40 47 41 48 42 49 68 50 69 51 77 52 70 53 76 54 78 55
REMARK SMILES IDX 75 56 71 57 72 58 73 59 74 60 53 61 54 62 62 63 55 64 61 65
REMARK SMILES IDX 63 66 60 67 56 68 57 69 58 70 59 71 6 72 7 73 8 74 9 76
REMARK SMILES IDX 10 77 11 78 26 79 12 80 14 81 13 82 15 83 16 84 17 85 25 86
REMARK SMILES IDX 18 87 19 88 20 89 21 90 24 91 22 92 23 93
REMARK H PARENT 3 6 83 24 51 35 7 75
REMARK Flexibility Score: inf
ROOT
ATOM      1  C   UNL A   1      32.600  30.782  26.887  1.00  0.00     0.042 C 
ENDROOT
BRANCH   1   2
ATOM      2  C   UNL A   1      34.002  30.826  27.498  1.00  0.00     0.118 C 
BRANCH   2   3
ATOM      3  N   UNL A   1      34.124  31.587  28.727  1.00  0.00    -0.352 N 
ATOM      4  O   UNL A   1      34.897  32.637  30.511  1.00  0.00    -0.269 OA
ATOM      5  C   UNL A   1      35.135  31.815  29.622  1.00  0.00     0.251 C 
ATOM      6  H   UNL A   1      33.288  32.044  28.975  1.00  0.00     0.163 HD
BRANCH   5   7
ATOM      7  C   UNL A   1      36.452  31.119  29.619  1.00  0.00     0.039 A 
ATOM      8  C   UNL A   1      37.695  31.743  29.509  1.00  0.00     0.014 A 
ATOM      9  C   UNL A   1      36.417  29.719  29.765  1.00  0.00     0.014 A 
ATOM     10  C   UNL A   1      38.867  30.990  29.484  1.00  0.00     0.010 A 
ATOM     11  C   UNL A   1      37.588  28.962  29.767  1.00  0.00     0.010 A 
ATOM     12  C   UNL A   1      38.819  29.600  29.615  1.00  0.00    -0.014 A 
BRANCH  12  13
ATOM     13  C   UNL A   1      40.083  28.884  29.802  1.00  0.00     0.031 A 
ATOM     14  C   UNL A   1      40.492  28.678  31.221  1.00  0.00     0.074 A 
ATOM     15  C   UNL A   1      40.771  28.258  28.827  1.00  0.00     0.049 A 
ATOM     16  N   UNL A   1      41.594  29.026  31.802  1.00  0.00    -0.248 NA
ATOM     17  C   UNL A   1      39.509  28.066  32.129  1.00  0.00     0.031 C 
ATOM     18  C   UNL A   1      40.359  28.079  27.435  1.00  0.00     0.029 A 
ATOM     19  N   UNL A   1      41.933  27.538  28.910  1.00  0.00    -0.354 N 
ATOM     20  C   UNL A   1      41.542  28.483  33.085  1.00  0.00     0.074 A 
ATOM     21  C   UNL A   1      40.184  28.047  33.277  1.00  0.00     0.031 C 
ATOM     22  C   UNL A   1      41.135  27.131  26.867  1.00  0.00     0.029 A 
ATOM     23  C   UNL A   1      42.159  26.714  27.814  1.00  0.00     0.049 A 
ATOM     24  H   UNL A   1      42.550  27.598  29.675  1.00  0.00     0.167 HD
ATOM     25  C   UNL A   1      42.668  28.236  33.809  1.00  0.00     0.034 A 
ATOM     26  C   UNL A   1      43.065  25.708  27.704  1.00  0.00     0.034 A 
ATOM     27  C   UNL A   1      43.785  29.027  33.338  1.00  0.00     0.049 A 
ATOM     28  C   UNL A   1      44.131  25.936  28.707  1.00  0.00     0.074 A 
ATOM     29  C   UNL A   1      43.991  30.378  33.119  1.00  0.00     0.029 A 
ATOM     30  N   UNL A   1      44.836  28.399  32.709  1.00  0.00    -0.354 N 
ATOM     31  N   UNL A   1      44.983  26.921  28.654  1.00  0.00    -0.248 NA
ATOM     32  C   UNL A   1      44.032  25.275  29.999  1.00  0.00     0.031 C 
ATOM     33  C   UNL A   1      44.832  30.445  31.969  1.00  0.00     0.029 A 
ATOM     34  C   UNL A   1      45.128  29.136  31.590  1.00  0.00     0.049 A 
ATOM     35  H   UNL A   1      45.292  27.578  33.007  1.00  0.00     0.167 HD
ATOM     36  C   UNL A   1      45.208  27.273  29.973  1.00  0.00     0.074 A 
ATOM     37  C   UNL A   1      44.702  26.149  30.753  1.00  0.00     0.031 C 
ATOM     38  C   UNL A   1      45.519  28.558  30.319  1.00  0.00     0.034 A 
BRANCH  25  39
ATOM     39  C   UNL A   1      42.855  27.027  34.709  1.00  0.00     0.023 A 
ATOM     40  C   UNL A   1      43.656  25.978  34.218  1.00  0.00     0.031 A 
ATOM     41  C   UNL A   1      42.068  26.709  35.840  1.00  0.00     0.131 A 
ATOM     42  C   UNL A   1      43.540  24.674  34.729  1.00  0.00     0.055 A 
ATOM     43  C   UNL A   1      42.024  25.429  36.405  1.00  0.00     0.041 A 
ATOM     44  F   UNL A   1      41.228  27.580  36.411  1.00  0.00    -0.206 F 
ATOM     45  C   UNL A   1      42.729  24.390  35.822  1.00  0.00     0.022 A 
BRANCH  42  46
ATOM     46  S   UNL A   1      44.283  23.323  33.780  1.00  0.00     0.124 S 
ATOM     47  O   UNL A   1      43.312  23.164  32.702  1.00  0.00    -0.237 OA
ATOM     48  O   UNL A   1      45.573  23.894  33.408  1.00  0.00    -0.237 OA
ATOM     49  O   UNL A   1      44.339  22.224  34.740  1.00  0.00    -0.744 OA
ENDBRANCH  42  46
ENDBRANCH  25  39
BRANCH  26  50
ATOM     50  C   UNL A   1      42.935  24.450  26.920  1.00  0.00     0.023 A 
ATOM     51  C   UNL A   1      43.927  24.013  26.018  1.00  0.00     0.031 A 
ATOM     52  C   UNL A   1      41.903  23.531  27.217  1.00  0.00     0.131 A 
ATOM     53  C   UNL A   1      43.852  22.722  25.448  1.00  0.00     0.055 A 
ATOM     54  C   UNL A   1      41.819  22.267  26.633  1.00  0.00     0.041 A 
ATOM     55  F   UNL A   1      40.980  23.798  28.155  1.00  0.00    -0.206 F 
ATOM     56  C   UNL A   1      42.800  21.853  25.749  1.00  0.00     0.022 A 
BRANCH  53  57
ATOM     57  S   UNL A   1      45.199  22.100  24.391  1.00  0.00     0.124 S 
ATOM     58  O   UNL A   1      46.062  21.425  25.354  1.00  0.00    -0.237 OA
ATOM     59  O   UNL A   1      44.489  21.248  23.444  1.00  0.00    -0.237 OA
ATOM     60  O   UNL A   1      45.764  23.319  23.809  1.00  0.00    -0.744 OA
ENDBRANCH  53  57
ENDBRANCH  26  50
BRANCH  38  61
ATOM     61  C   UNL A   1      46.037  29.503  29.259  1.00  0.00     0.023 A 
ATOM     62  C   UNL A   1      45.230  30.352  28.471  1.00  0.00     0.031 A 
ATOM     63  C   UNL A   1      47.433  29.617  29.116  1.00  0.00     0.131 A 
ATOM     64  C   UNL A   1      45.824  31.254  27.568  1.00  0.00     0.055 A 
ATOM     65  C   UNL A   1      48.020  30.524  28.235  1.00  0.00     0.041 A 
ATOM     66  F   UNL A   1      48.260  28.862  29.859  1.00  0.00    -0.206 F 
ATOM     67  C   UNL A   1      47.215  31.340  27.449  1.00  0.00     0.022 A 
BRANCH  64  68
ATOM     68  S   UNL A   1      44.794  32.323  26.516  1.00  0.00     0.124 S 
ATOM     69  O   UNL A   1      43.801  31.411  25.962  1.00  0.00    -0.237 OA
ATOM     70  O   UNL A   1      44.295  33.312  27.468  1.00  0.00    -0.237 OA
ATOM     71  O   UNL A   1      45.746  32.853  25.538  1.00  0.00    -0.744 OA
ENDBRANCH  64  68
ENDBRANCH  38  61
ENDBRANCH  12  13
ENDBRANCH   5   7
ENDBRANCH   2   3
ENDBRANCH   1   2
BRANCH   1  72
ATOM     72  C   UNL A   1      32.155  29.401  26.407  1.00  0.00     0.118 C 
BRANCH  72  73
ATOM     73  N   UNL A   1      31.665  29.435  25.038  1.00  0.00    -0.352 N 
ATOM     74  C   UNL A   1      31.845  28.532  24.024  1.00  0.00     0.252 C 
ATOM     75  H   UNL A   1      31.124  30.224  24.807  1.00  0.00     0.163 HD
ATOM     76  O   UNL A   1      31.609  28.888  22.870  1.00  0.00    -0.269 OA
BRANCH  74  77
ATOM     77  C   UNL A   1      32.271  27.178  24.340  1.00  0.00     0.058 A 
ATOM     78  C   UNL A   1      33.597  26.664  24.426  1.00  0.00     0.049 A 
ATOM     79  C   UNL A   1      31.433  26.156  24.754  1.00  0.00     0.101 A 
ATOM     80  C   UNL A   1      33.518  25.383  24.923  1.00  0.00     0.086 A 
ATOM     81  N   UNL A   1      32.195  25.044  25.046  1.00  0.00    -0.335 N 
ATOM     82  Br  UNL A   1      35.020  24.368  25.384  1.00  0.00    -0.031 Br
BRANCH  81  83
ATOM     83  C   UNL A   1      31.651  23.791  25.568  1.00  0.00     0.180 C 
BRANCH  83  84
ATOM     84  C   UNL A   1      31.876  22.629  24.652  1.00  0.00     0.082 A 
ATOM     85  C   UNL A   1      31.905  22.616  23.236  1.00  0.00     0.047 A 
ATOM     86  N   UNL A   1      32.173  21.415  25.151  1.00  0.00    -0.176 NA
ATOM     87  C   UNL A   1      32.224  21.328  22.888  1.00  0.00     0.109 A 
ATOM     88  N   UNL A   1      32.362  20.642  24.058  1.00  0.00    -0.269 N 
BRANCH  88  89
ATOM     89  C   UNL A   1      32.707  19.243  24.169  1.00  0.00     0.107 C 
ATOM     90  C   UNL A   1      32.507  18.417  22.900  1.00  0.00     0.027 C 
ATOM     91  C   UNL A   1      34.171  18.981  24.514  1.00  0.00     0.027 C 
ATOM     92  C   UNL A   1      33.246  17.122  23.213  1.00  0.00     0.002 C 
ATOM     93  C   UNL A   1      34.390  17.512  24.152  1.00  0.00     0.002 C 
ENDBRANCH  88  89
ENDBRANCH  83  84
ENDBRANCH  81  83
ENDBRANCH  74  77
ENDBRANCH  72  73
ENDBRANCH   1  72
TORSDOF 16
ENDMDL
MODEL 3
REMARK VINA RESULT:     -12.6      3.683      9.523
REMARK SMILES O=C(NCCCNC(=O)c1cc(Br)n(Cc2ccn(C3CCCC3)n2)c1)c1ccc(-c2c3nc(c(-c4cc(S(=O)(=O)[O-])ccc4F)c4ccc([nH]4)c(-c4cc(S(=O)(=O)[O-])ccc4F)c4nc(c(-c5cc(S(=O)(=O)[O-])ccc5F)c5ccc2[nH]5)C=C4)C=C3)cc1
REMARK SMILES IDX 5 1 4 2 3 3 1 4 2 5 27 7 28 8 89 9 29 10 88 11 30 12 31 13
REMARK SMILES IDX 32 14 82 15 33 16 87 17 81 18 83 19 34 20 86 21 80 22 79 23
REMARK SMILES IDX 35 25 67 26 47 27 66 28 48 29 51 30 65 31 84 32 49 33 50 34
REMARK SMILES IDX 64 36 85 37 52 38 36 39 37 40 45 41 38 42 44 43 46 44 43 45
REMARK SMILES IDX 39 46 40 47 41 48 42 49 68 50 69 51 77 52 70 53 76 54 78 55
REMARK SMILES IDX 75 56 71 57 72 58 73 59 74 60 53 61 54 62 62 63 55 64 61 65
REMARK SMILES IDX 63 66 60 67 56 68 57 69 58 70 59 71 6 72 7 73 8 74 9 76
REMARK SMILES IDX 10 77 11 78 26 79 12 80 14 81 13 82 15 83 16 84 17 85 25 86
REMARK SMILES IDX 18 87 19 88 20 89 21 90 24 91 22 92 23 93
REMARK H PARENT 3 6 83 24 51 35 7 75
REMARK Flexibility Score: inf
ROOT
ATOM      1  C   UNL A   1      37.056  21.878  24.831  1.00  0.00     0.042 C 
ENDROOT
BRANCH   1   2
ATOM      2  C   UNL A   1      37.907  22.877  25.617  1.00  0.00     0.118 C 
BRANCH   2   3
ATOM      3  N   UNL A   1      39.032  22.309  26.336  1.00  0.00    -0.352 N 
ATOM      4  O   UNL A   1      40.706  21.966  27.737  1.00  0.00    -0.269 OA
ATOM      5  C   UNL A   1      39.947  22.797  27.231  1.00  0.00     0.251 C 
ATOM      6  H   UNL A   1      39.170  21.356  26.134  1.00  0.00     0.163 HD
BRANCH   5   7
ATOM      7  C   UNL A   1      40.111  24.233  27.591  1.00  0.00     0.039 A 
ATOM      8  C   UNL A   1      39.186  25.243  27.323  1.00  0.00     0.014 A 
ATOM      9  C   UNL A   1      41.291  24.571  28.279  1.00  0.00     0.014 A 
ATOM     10  C   UNL A   1      39.458  26.564  27.676  1.00  0.00     0.010 A 
ATOM     11  C   UNL A   1      41.556  25.887  28.658  1.00  0.00     0.010 A 
ATOM     12  C   UNL A   1      40.640  26.890  28.345  1.00  0.00    -0.014 A 
BRANCH  12  13
ATOM     13  C   UNL A   1      40.771  28.246  28.884  1.00  0.00     0.031 A 
ATOM     14  C   UNL A   1      41.895  29.047  28.321  1.00  0.00     0.074 A 
ATOM     15  C   UNL A   1      39.866  28.857  29.674  1.00  0.00     0.049 A 
ATOM     16  N   UNL A   1      42.866  29.628  28.948  1.00  0.00    -0.248 NA
ATOM     17  C   UNL A   1      41.988  29.151  26.856  1.00  0.00     0.031 C 
ATOM     18  C   UNL A   1      38.553  28.347  30.066  1.00  0.00     0.029 A 
ATOM     19  N   UNL A   1      39.883  30.124  30.193  1.00  0.00    -0.354 N 
ATOM     20  C   UNL A   1      43.564  30.357  27.987  1.00  0.00     0.074 A 
ATOM     21  C   UNL A   1      43.080  29.901  26.712  1.00  0.00     0.031 C 
ATOM     22  C   UNL A   1      37.819  29.363  30.569  1.00  0.00     0.029 A 
ATOM     23  C   UNL A   1      38.639  30.564  30.632  1.00  0.00     0.049 A 
ATOM     24  H   UNL A   1      40.699  30.673  30.249  1.00  0.00     0.167 HD
ATOM     25  C   UNL A   1      44.332  31.433  28.317  1.00  0.00     0.034 A 
ATOM     26  C   UNL A   1      38.274  31.831  30.955  1.00  0.00     0.034 A 
ATOM     27  C   UNL A   1      44.719  31.401  29.710  1.00  0.00     0.049 A 
ATOM     28  C   UNL A   1      39.500  32.598  31.277  1.00  0.00     0.074 A 
ATOM     29  C   UNL A   1      45.340  30.468  30.522  1.00  0.00     0.029 A 
ATOM     30  N   UNL A   1      44.193  32.333  30.577  1.00  0.00    -0.354 N 
ATOM     31  N   UNL A   1      40.243  32.378  32.324  1.00  0.00    -0.248 NA
ATOM     32  C   UNL A   1      40.129  33.387  30.229  1.00  0.00     0.031 C 
ATOM     33  C   UNL A   1      44.720  30.610  31.798  1.00  0.00     0.029 A 
ATOM     34  C   UNL A   1      43.799  31.653  31.701  1.00  0.00     0.049 A 
ATOM     35  H   UNL A   1      44.115  33.302  30.419  1.00  0.00     0.167 HD
ATOM     36  C   UNL A   1      41.539  32.625  31.904  1.00  0.00     0.074 A 
ATOM     37  C   UNL A   1      41.393  33.364  30.655  1.00  0.00     0.031 C 
ATOM     38  C   UNL A   1      42.600  31.964  32.455  1.00  0.00     0.034 A 
BRANCH  25  39
ATOM     39  C   UNL A   1      44.439  32.693  27.475  1.00  0.00     0.023 A 
ATOM     40  C   UNL A   1      43.789  33.845  27.959  1.00  0.00     0.031 A 
ATOM     41  C   UNL A   1      44.849  32.752  26.123  1.00  0.00     0.131 A 
ATOM     42  C   UNL A   1      43.439  34.898  27.096  1.00  0.00     0.055 A 
ATOM     43  C   UNL A   1      44.579  33.844  25.290  1.00  0.00     0.041 A 
ATOM     44  F   UNL A   1      45.451  31.732  25.500  1.00  0.00    -0.206 F 
ATOM     45  C   UNL A   1      43.831  34.908  25.763  1.00  0.00     0.022 A 
BRANCH  42  46
ATOM     46  S   UNL A   1      42.257  36.130  27.700  1.00  0.00     0.124 S 
ATOM     47  O   UNL A   1      40.992  35.427  27.512  1.00  0.00    -0.237 OA
ATOM     48  O   UNL A   1      42.695  36.314  29.079  1.00  0.00    -0.237 OA
ATOM     49  O   UNL A   1      42.476  37.272  26.817  1.00  0.00    -0.744 OA
ENDBRANCH  42  46
ENDBRANCH  25  39
BRANCH  26  50
ATOM     50  C   UNL A   1      36.936  32.461  30.788  1.00  0.00     0.023 A 
ATOM     51  C   UNL A   1      36.253  33.083  31.853  1.00  0.00     0.031 A 
ATOM     52  C   UNL A   1      36.396  32.651  29.496  1.00  0.00     0.131 A 
ATOM     53  C   UNL A   1      35.082  33.836  31.606  1.00  0.00     0.055 A 
ATOM     54  C   UNL A   1      35.227  33.375  29.259  1.00  0.00     0.041 A 
ATOM     55  F   UNL A   1      37.035  32.210  28.401  1.00  0.00    -0.206 F 
ATOM     56  C   UNL A   1      34.567  33.978  30.315  1.00  0.00     0.022 A 
BRANCH  53  57
ATOM     57  S   UNL A   1      34.274  34.754  32.955  1.00  0.00     0.124 S 
ATOM     58  O   UNL A   1      35.015  36.010  32.964  1.00  0.00    -0.237 OA
ATOM     59  O   UNL A   1      32.888  34.820  32.506  1.00  0.00    -0.237 OA
ATOM     60  O   UNL A   1      34.494  33.903  34.125  1.00  0.00    -0.744 OA
ENDBRANCH  53  57
ENDBRANCH  26  50
BRANCH  38  61
ATOM     61  C   UNL A   1      42.431  31.285  33.796  1.00  0.00     0.023 A 
ATOM     62  C   UNL A   1      42.205  29.904  33.979  1.00  0.00     0.031 A 
ATOM     63  C   UNL A   1      42.611  32.073  34.950  1.00  0.00     0.131 A 
ATOM     64  C   UNL A   1      42.145  29.363  35.277  1.00  0.00     0.055 A 
ATOM     65  C   UNL A   1      42.569  31.531  36.234  1.00  0.00     0.041 A 
ATOM     66  F   UNL A   1      42.862  33.388  34.846  1.00  0.00    -0.206 F 
ATOM     67  C   UNL A   1      42.326  30.174  36.402  1.00  0.00     0.022 A 
BRANCH  64  68
ATOM     68  S   UNL A   1      41.811  27.592  35.527  1.00  0.00     0.124 S 
ATOM     69  O   UNL A   1      43.127  26.974  35.426  1.00  0.00    -0.237 OA
ATOM     70  O   UNL A   1      41.193  27.574  36.850  1.00  0.00    -0.237 OA
ATOM     71  O   UNL A   1      40.899  27.262  34.430  1.00  0.00    -0.744 OA
ENDBRANCH  64  68
ENDBRANCH  38  61
ENDBRANCH  12  13
ENDBRANCH   5   7
ENDBRANCH   2   3
ENDBRANCH   1   2
BRANCH   1  72
ATOM     72  C   UNL A   1      36.063  21.080  25.676  1.00  0.00     0.118 C 
BRANCH  72  73
ATOM     73  N   UNL A   1      35.589  19.895  24.980  1.00  0.00    -0.352 N 
ATOM     74  C   UNL A   1      34.309  19.517  24.673  1.00  0.00     0.252 C 
ATOM     75  H   UNL A   1      36.293  19.273  24.685  1.00  0.00     0.163 HD
ATOM     76  O   UNL A   1      34.101  18.347  24.354  1.00  0.00    -0.269 OA
BRANCH  74  77
ATOM     77  C   UNL A   1      33.246  20.508  24.697  1.00  0.00     0.058 A 
ATOM     78  C   UNL A   1      32.355  20.827  25.762  1.00  0.00     0.049 A 
ATOM     79  C   UNL A   1      32.998  21.434  23.696  1.00  0.00     0.101 A 
ATOM     80  C   UNL A   1      31.641  21.944  25.391  1.00  0.00     0.086 A 
ATOM     81  N   UNL A   1      31.975  22.265  24.100  1.00  0.00    -0.335 N 
ATOM     82  Br  UNL A   1      30.476  22.845  26.544  1.00  0.00    -0.031 Br
BRANCH  81  83
ATOM     83  C   UNL A   1      31.482  23.399  23.320  1.00  0.00     0.180 C 
BRANCH  83  84
ATOM     84  C   UNL A   1      32.219  24.670  23.605  1.00  0.00     0.082 A 
ATOM     85  C   UNL A   1      33.331  25.216  22.921  1.00  0.00     0.047 A 
ATOM     86  N   UNL A   1      31.789  25.504  24.571  1.00  0.00    -0.176 NA
ATOM     87  C   UNL A   1      33.574  26.425  23.523  1.00  0.00     0.109 A 
ATOM     88  N   UNL A   1      32.642  26.552  24.509  1.00  0.00    -0.269 N 
BRANCH  88  89
ATOM     89  C   UNL A   1      32.517  27.686  25.398  1.00  0.00     0.107 C 
ATOM     90  C   UNL A   1      31.528  27.509  26.548  1.00  0.00     0.027 C 
ATOM     91  C   UNL A   1      33.808  28.065  26.119  1.00  0.00     0.027 C 
ATOM     92  C   UNL A   1      31.855  28.680  27.466  1.00  0.00     0.002 C 
ATOM     93  C   UNL A   1      33.350  28.952  27.277  1.00  0.00     0.002 C 
ENDBRANCH  88  89
ENDBRANCH  83  84
ENDBRANCH  81  83
ENDBRANCH  74  77
ENDBRANCH  72  73
ENDBRANCH   1  72
TORSDOF 16
ENDMDL
