MODEL 1
REMARK VINA RESULT:     -13.3      0.000      0.000
REMARK SMILES O=C(N/N=C/c1ccccc1O)C(=O)Nc1cccc(C(=O)NCCCNC(=O)c2ccc(-c3c4nc(c(-c5cc(S(=O)(=O)[O-])ccc5F)c5ccc([nH]5)c(-c5cc(S(=O)(=O)[O-])ccc5F)c5nc(c(-c6cc(S(=O)(=O)[O-])ccc6F)c6ccc3[nH]6)C=C5)C=C4)cc2)c1
REMARK SMILES IDX 24 1 23 2 21 3 22 4 20 6 16 7 17 8 93 9 18 10 19 11 15 12
REMARK SMILES IDX 13 13 14 14 2 16 1 17 3 18 4 20 5 21 6 22 7 23 11 24 8 25
REMARK SMILES IDX 10 26 9 27 12 28 25 30 26 31 27 32 28 33 29 35 30 36 31 37
REMARK SMILES IDX 92 38 32 39 91 40 33 41 34 42 35 43 85 44 36 45 90 46 84 47
REMARK SMILES IDX 86 48 37 49 89 50 83 51 82 52 38 54 70 55 50 56 69 57 51 58
REMARK SMILES IDX 54 59 68 60 87 61 52 62 53 63 67 65 88 66 55 67 39 68 40 69
REMARK SMILES IDX 48 70 41 71 47 72 49 73 46 74 42 75 43 76 44 77 45 78 71 79
REMARK SMILES IDX 72 80 80 81 73 82 79 83 81 84 78 85 74 86 75 87 76 88 77 89
REMARK SMILES IDX 56 90 57 91 65 92 58 93 64 94 66 95 63 96 59 97 60 98 61 99
REMARK SMILES IDX 62 100
REMARK H PARENT 23 5 15 15 3 19 12 29 27 34 86 53 54 64
REMARK Flexibility Score: inf
ROOT
ATOM      1  C   UNL A   1      31.771  30.311  26.929  1.00  0.00     0.118 C 
ENDROOT
BRANCH   1   2
ATOM      2  N   UNL A   1      33.058  29.884  27.449  1.00  0.00    -0.352 N 
ATOM      3  C   UNL A   1      34.054  29.149  26.859  1.00  0.00     0.251 C 
ATOM      4  O   UNL A   1      35.172  29.111  27.378  1.00  0.00    -0.269 OA
ATOM      5  H   UNL A   1      33.246  30.167  28.373  1.00  0.00     0.163 HD
BRANCH   3   6
ATOM      6  C   UNL A   1      33.863  28.326  25.640  1.00  0.00     0.041 A 
ATOM      7  C   UNL A   1      33.364  25.592  24.135  1.00  0.00     0.042 A 
ATOM      8  C   UNL A   1      32.979  26.491  22.589  1.00  0.00     0.026 A 
ATOM      9  C   UNL A   1      33.880  26.486  25.636  1.00  0.00     0.040 A 
ATOM     10  C   UNL A   1      33.173  28.319  22.547  1.00  0.00     0.003 A 
ATOM     11  C   UNL A   1      33.567  29.218  24.077  1.00  0.00     0.014 A 
BRANCH   7  12
ATOM     12  N   UNL A   1      32.669  24.401  24.298  1.00  0.00    -0.318 N 
ATOM     13  C   UNL A   1      31.386  24.255  24.817  1.00  0.00     0.315 C 
ATOM     14  O   UNL A   1      30.839  23.165  24.615  1.00  0.00    -0.263 OA
ATOM     15  H   UNL A   1      33.129  23.578  24.017  1.00  0.00     0.170 HD
BRANCH  13  16
ATOM     16  C   UNL A   1      30.547  25.332  25.559  1.00  0.00     0.329 C 
ATOM     17  O   UNL A   1      30.803  25.555  26.744  1.00  0.00    -0.262 OA
ATOM     18  N   UNL A   1      29.424  25.951  25.001  1.00  0.00    -0.239 N 
ATOM     19  H   UNL A   1      28.539  25.878  25.426  1.00  0.00     0.194 HD
BRANCH  18  20
ATOM     20  N   UNL A   1      29.595  26.657  23.849  1.00  0.00    -0.180 NA
ATOM     21  C   UNL A   1      29.806  28.009  24.003  1.00  0.00     0.145 C 
BRANCH  21  22
ATOM     22  C   UNL A   1      29.283  29.797  22.986  1.00  0.00     0.036 A 
ATOM     23  C   UNL A   1      28.864  29.965  21.519  1.00  0.00     0.013 A 
ATOM     24  C   UNL A   1      29.119  31.263  23.402  1.00  0.00     0.124 A 
ATOM     25  C   UNL A   1      28.198  31.024  20.835  1.00  0.00     0.001 A 
ATOM     26  C   UNL A   1      28.392  32.320  22.749  1.00  0.00     0.047 A 
ATOM     27  C   UNL A   1      27.879  32.178  21.487  1.00  0.00     0.004 A 
BRANCH  24  28
ATOM     28  O   UNL A   1      29.848  31.908  24.406  1.00  0.00    -0.507 OA
ATOM     29  H   UNL A   1      30.251  31.406  25.088  1.00  0.00     0.293 HD
ENDBRANCH  24  28
ENDBRANCH  21  22
ENDBRANCH  18  20
ENDBRANCH  13  16
ENDBRANCH   7  12
ENDBRANCH   3   6
ENDBRANCH   1   2
BRANCH   1  30
ATOM     30  C   UNL A   1      31.582  31.824  26.940  1.00  0.00     0.042 C 
BRANCH  30  31
ATOM     31  C   UNL A   1      32.877  32.607  27.119  1.00  0.00     0.118 C 
BRANCH  31  32
ATOM     32  N   UNL A   1      32.651  33.949  27.638  1.00  0.00    -0.352 N 
ATOM     33  C   UNL A   1      33.209  34.599  28.710  1.00  0.00     0.251 C 
ATOM     34  H   UNL A   1      31.988  34.477  27.137  1.00  0.00     0.163 HD
ATOM     35  O   UNL A   1      32.740  35.682  29.052  1.00  0.00    -0.269 OA
BRANCH  33  36
ATOM     36  C   UNL A   1      34.344  34.013  29.461  1.00  0.00     0.039 A 
ATOM     37  C   UNL A   1      35.645  34.389  29.106  1.00  0.00     0.014 A 
ATOM     38  C   UNL A   1      34.149  33.060  30.463  1.00  0.00     0.014 A 
ATOM     39  C   UNL A   1      36.741  33.842  29.780  1.00  0.00     0.010 A 
ATOM     40  C   UNL A   1      35.237  32.570  31.184  1.00  0.00     0.010 A 
ATOM     41  C   UNL A   1      36.545  32.941  30.836  1.00  0.00    -0.014 A 
BRANCH  41  42
ATOM     42  C   UNL A   1      37.695  32.334  31.553  1.00  0.00     0.031 A 
ATOM     43  C   UNL A   1      38.482  31.228  30.902  1.00  0.00     0.074 A 
ATOM     44  C   UNL A   1      37.990  32.730  32.806  1.00  0.00     0.049 A 
ATOM     45  N   UNL A   1      39.468  30.515  31.383  1.00  0.00    -0.248 NA
ATOM     46  C   UNL A   1      38.074  30.849  29.541  1.00  0.00     0.031 C 
ATOM     47  C   UNL A   1      37.268  33.755  33.562  1.00  0.00     0.029 A 
ATOM     48  N   UNL A   1      38.971  32.310  33.667  1.00  0.00    -0.354 N 
ATOM     49  C   UNL A   1      39.774  29.579  30.400  1.00  0.00     0.074 A 
ATOM     50  C   UNL A   1      38.835  29.788  29.318  1.00  0.00     0.031 C 
ATOM     51  C   UNL A   1      37.845  33.899  34.766  1.00  0.00     0.029 A 
ATOM     52  C   UNL A   1      38.957  32.962  34.878  1.00  0.00     0.049 A 
ATOM     53  H   UNL A   1      39.623  31.608  33.440  1.00  0.00     0.167 HD
ATOM     54  C   UNL A   1      40.758  28.645  30.392  1.00  0.00     0.034 A 
ATOM     55  C   UNL A   1      39.754  32.818  35.954  1.00  0.00     0.034 A 
ATOM     56  C   UNL A   1      41.716  28.483  31.459  1.00  0.00     0.049 A 
ATOM     57  C   UNL A   1      40.873  31.812  35.905  1.00  0.00     0.074 A 
ATOM     58  C   UNL A   1      42.807  27.633  31.521  1.00  0.00     0.029 A 
ATOM     59  N   UNL A   1      41.695  29.190  32.654  1.00  0.00    -0.354 N 
ATOM     60  N   UNL A   1      41.185  30.970  34.947  1.00  0.00    -0.248 NA
ATOM     61  C   UNL A   1      41.755  31.749  37.078  1.00  0.00     0.031 C 
ATOM     62  C   UNL A   1      43.422  27.798  32.769  1.00  0.00     0.029 A 
ATOM     63  C   UNL A   1      42.742  28.784  33.467  1.00  0.00     0.049 A 
ATOM     64  H   UNL A   1      41.033  29.879  32.890  1.00  0.00     0.167 HD
ATOM     65  C   UNL A   1      42.316  30.295  35.392  1.00  0.00     0.074 A 
ATOM     66  C   UNL A   1      42.633  30.830  36.702  1.00  0.00     0.031 C 
ATOM     67  C   UNL A   1      43.034  29.324  34.772  1.00  0.00     0.034 A 
BRANCH  54  68
ATOM     68  C   UNL A   1      40.818  27.717  29.203  1.00  0.00     0.023 A 
ATOM     69  C   UNL A   1      41.748  27.904  28.166  1.00  0.00     0.031 A 
ATOM     70  C   UNL A   1      39.890  26.668  29.075  1.00  0.00     0.131 A 
ATOM     71  C   UNL A   1      41.670  27.118  27.006  1.00  0.00     0.055 A 
ATOM     72  C   UNL A   1      39.872  25.836  27.955  1.00  0.00     0.041 A 
ATOM     73  F   UNL A   1      38.967  26.452  30.025  1.00  0.00    -0.206 F 
ATOM     74  C   UNL A   1      40.753  26.070  26.902  1.00  0.00     0.022 A 
BRANCH  71  75
ATOM     75  S   UNL A   1      42.677  27.591  25.572  1.00  0.00     0.124 S 
ATOM     76  O   UNL A   1      43.978  27.826  26.193  1.00  0.00    -0.237 OA
ATOM     77  O   UNL A   1      42.579  26.414  24.717  1.00  0.00    -0.237 OA
ATOM     78  O   UNL A   1      42.010  28.789  25.065  1.00  0.00    -0.744 OA
ENDBRANCH  71  75
ENDBRANCH  54  68
BRANCH  55  79
ATOM     79  C   UNL A   1      39.537  33.655  37.163  1.00  0.00     0.023 A 
ATOM     80  C   UNL A   1      38.789  33.169  38.246  1.00  0.00     0.031 A 
ATOM     81  C   UNL A   1      40.060  34.956  37.244  1.00  0.00     0.131 A 
ATOM     82  C   UNL A   1      38.557  33.993  39.358  1.00  0.00     0.055 A 
ATOM     83  C   UNL A   1      39.855  35.760  38.366  1.00  0.00     0.041 A 
ATOM     84  F   UNL A   1      40.792  35.458  36.237  1.00  0.00    -0.206 F 
ATOM     85  C   UNL A   1      39.090  35.282  39.428  1.00  0.00     0.022 A 
BRANCH  82  86
ATOM     86  S   UNL A   1      37.502  33.370  40.695  1.00  0.00     0.124 S 
ATOM     87  O   UNL A   1      37.190  34.594  41.425  1.00  0.00    -0.237 OA
ATOM     88  O   UNL A   1      36.400  32.765  39.953  1.00  0.00    -0.237 OA
ATOM     89  O   UNL A   1      38.367  32.425  41.399  1.00  0.00    -0.744 OA
ENDBRANCH  82  86
ENDBRANCH  55  79
BRANCH  67  90
ATOM     90  C   UNL A   1      44.253  28.821  35.496  1.00  0.00     0.023 A 
ATOM     91  C   UNL A   1      44.167  27.806  36.463  1.00  0.00     0.031 A 
ATOM     92  C   UNL A   1      45.512  29.383  35.227  1.00  0.00     0.131 A 
ATOM     93  C   UNL A   1      45.318  27.413  37.162  1.00  0.00     0.055 A 
ATOM     94  C   UNL A   1      46.661  28.959  35.895  1.00  0.00     0.041 A 
ATOM     95  F   UNL A   1      45.644  30.357  34.311  1.00  0.00    -0.206 F 
ATOM     96  C   UNL A   1      46.565  27.976  36.877  1.00  0.00     0.022 A 
BRANCH  93  97
ATOM     97  S   UNL A   1      45.152  26.200  38.500  1.00  0.00     0.124 S 
ATOM     98  O   UNL A   1      44.164  26.836  39.368  1.00  0.00    -0.237 OA
ATOM     99  O   UNL A   1      44.702  25.008  37.789  1.00  0.00    -0.237 OA
ATOM    100  O   UNL A   1      46.502  26.116  39.057  1.00  0.00    -0.744 OA
ENDBRANCH  93  97
ENDBRANCH  67  90
ENDBRANCH  41  42
ENDBRANCH  33  36
ENDBRANCH  31  32
ENDBRANCH  30  31
ENDBRANCH   1  30
TORSDOF 18
ENDMDL
MODEL 2
REMARK VINA RESULT:     -12.9      3.908      9.443
REMARK SMILES O=C(N/N=C/c1ccccc1O)C(=O)Nc1cccc(C(=O)NCCCNC(=O)c2ccc(-c3c4nc(c(-c5cc(S(=O)(=O)[O-])ccc5F)c5ccc([nH]5)c(-c5cc(S(=O)(=O)[O-])ccc5F)c5nc(c(-c6cc(S(=O)(=O)[O-])ccc6F)c6ccc3[nH]6)C=C5)C=C4)cc2)c1
REMARK SMILES IDX 24 1 23 2 21 3 22 4 20 6 16 7 17 8 93 9 18 10 19 11 15 12
REMARK SMILES IDX 13 13 14 14 2 16 1 17 3 18 4 20 5 21 6 22 7 23 11 24 8 25
REMARK SMILES IDX 10 26 9 27 12 28 25 30 26 31 27 32 28 33 29 35 30 36 31 37
REMARK SMILES IDX 92 38 32 39 91 40 33 41 34 42 35 43 85 44 36 45 90 46 84 47
REMARK SMILES IDX 86 48 37 49 89 50 83 51 82 52 38 54 70 55 50 56 69 57 51 58
REMARK SMILES IDX 54 59 68 60 87 61 52 62 53 63 67 65 88 66 55 67 39 68 40 69
REMARK SMILES IDX 48 70 41 71 47 72 49 73 46 74 42 75 43 76 44 77 45 78 71 79
REMARK SMILES IDX 72 80 80 81 73 82 79 83 81 84 78 85 74 86 75 87 76 88 77 89
REMARK SMILES IDX 56 90 57 91 65 92 58 93 64 94 66 95 63 96 59 97 60 98 61 99
REMARK SMILES IDX 62 100
REMARK H PARENT 23 5 15 15 3 19 12 29 27 34 86 53 54 64
REMARK Flexibility Score: inf
ROOT
ATOM      1  C   UNL A   1      31.465  29.657  25.089  1.00  0.00     0.118 C 
ENDROOT
BRANCH   1   2
ATOM      2  N   UNL A   1      30.868  29.697  23.766  1.00  0.00    -0.352 N 
ATOM      3  C   UNL A   1      30.368  28.685  22.986  1.00  0.00     0.251 C 
ATOM      4  O   UNL A   1      29.674  28.959  22.004  1.00  0.00    -0.269 OA
ATOM      5  H   UNL A   1      30.813  30.593  23.363  1.00  0.00     0.163 HD
BRANCH   3   6
ATOM      6  C   UNL A   1      30.658  27.248  23.211  1.00  0.00     0.041 A 
ATOM      7  C   UNL A   1      32.276  24.584  22.685  1.00  0.00     0.042 A 
ATOM      8  C   UNL A   1      31.539  23.820  24.176  1.00  0.00     0.026 A 
ATOM      9  C   UNL A   1      31.789  26.256  22.151  1.00  0.00     0.040 A 
ATOM     10  C   UNL A   1      30.249  24.742  25.106  1.00  0.00     0.003 A 
ATOM     11  C   UNL A   1      29.856  26.455  24.644  1.00  0.00     0.014 A 
BRANCH   7  12
ATOM     12  N   UNL A   1      33.569  24.165  22.403  1.00  0.00    -0.318 N 
ATOM     13  C   UNL A   1      34.605  24.001  23.317  1.00  0.00     0.315 C 
ATOM     14  O   UNL A   1      35.582  23.354  22.921  1.00  0.00    -0.263 OA
ATOM     15  H   UNL A   1      33.773  23.964  21.461  1.00  0.00     0.170 HD
BRANCH  13  16
ATOM     16  C   UNL A   1      34.637  24.480  24.794  1.00  0.00     0.329 C 
ATOM     17  O   UNL A   1      34.455  25.678  25.021  1.00  0.00    -0.262 OA
ATOM     18  N   UNL A   1      35.008  23.658  25.863  1.00  0.00    -0.239 N 
ATOM     19  H   UNL A   1      35.776  23.884  26.436  1.00  0.00     0.194 HD
BRANCH  18  20
ATOM     20  N   UNL A   1      34.273  22.533  26.083  1.00  0.00    -0.180 NA
ATOM     21  C   UNL A   1      34.807  21.364  25.588  1.00  0.00     0.145 C 
BRANCH  21  22
ATOM     22  C   UNL A   1      34.092  19.574  24.700  1.00  0.00     0.036 A 
ATOM     23  C   UNL A   1      32.711  19.306  24.086  1.00  0.00     0.013 A 
ATOM     24  C   UNL A   1      34.712  18.207  24.383  1.00  0.00     0.124 A 
ATOM     25  C   UNL A   1      32.245  18.291  23.200  1.00  0.00     0.001 A 
ATOM     26  C   UNL A   1      34.281  17.208  23.441  1.00  0.00     0.047 A 
ATOM     27  C   UNL A   1      33.072  17.282  22.804  1.00  0.00     0.004 A 
BRANCH  24  28
ATOM     28  O   UNL A   1      35.712  17.577  25.131  1.00  0.00    -0.507 OA
ATOM     29  H   UNL A   1      36.598  17.580  24.824  1.00  0.00     0.293 HD
ENDBRANCH  24  28
ENDBRANCH  21  22
ENDBRANCH  18  20
ENDBRANCH  13  16
ENDBRANCH   7  12
ENDBRANCH   3   6
ENDBRANCH   1   2
BRANCH   1  30
ATOM     30  C   UNL A   1      32.944  29.285  25.078  1.00  0.00     0.042 C 
BRANCH  30  31
ATOM     31  C   UNL A   1      33.624  29.419  26.435  1.00  0.00     0.118 C 
BRANCH  31  32
ATOM     32  N   UNL A   1      33.548  30.773  26.966  1.00  0.00    -0.352 N 
ATOM     33  C   UNL A   1      34.353  31.428  27.864  1.00  0.00     0.251 C 
ATOM     34  H   UNL A   1      32.795  31.306  26.625  1.00  0.00     0.163 HD
ATOM     35  O   UNL A   1      33.996  32.525  28.286  1.00  0.00    -0.269 OA
BRANCH  33  36
ATOM     36  C   UNL A   1      35.624  30.830  28.339  1.00  0.00     0.039 A 
ATOM     37  C   UNL A   1      35.564  29.782  29.265  1.00  0.00     0.014 A 
ATOM     38  C   UNL A   1      36.866  31.325  27.935  1.00  0.00     0.014 A 
ATOM     39  C   UNL A   1      36.742  29.208  29.750  1.00  0.00     0.010 A 
ATOM     40  C   UNL A   1      38.039  30.705  28.361  1.00  0.00     0.010 A 
ATOM     41  C   UNL A   1      37.989  29.653  29.289  1.00  0.00    -0.014 A 
BRANCH  41  42
ATOM     42  C   UNL A   1      39.254  29.069  29.804  1.00  0.00     0.031 A 
ATOM     43  C   UNL A   1      39.916  29.673  31.014  1.00  0.00     0.074 A 
ATOM     44  C   UNL A   1      39.836  28.045  29.151  1.00  0.00     0.049 A 
ATOM     45  N   UNL A   1      41.056  29.365  31.577  1.00  0.00    -0.248 NA
ATOM     46  C   UNL A   1      39.218  30.800  31.648  1.00  0.00     0.031 C 
ATOM     47  C   UNL A   1      39.317  27.411  27.938  1.00  0.00     0.029 A 
ATOM     48  N   UNL A   1      40.997  27.364  29.413  1.00  0.00    -0.354 N 
ATOM     49  C   UNL A   1      41.231  30.283  32.607  1.00  0.00     0.074 A 
ATOM     50  C   UNL A   1      40.101  31.186  32.558  1.00  0.00     0.031 C 
ATOM     51  C   UNL A   1      40.146  26.418  27.574  1.00  0.00     0.029 A 
ATOM     52  C   UNL A   1      41.265  26.364  28.510  1.00  0.00     0.049 A 
ATOM     53  H   UNL A   1      41.583  27.572  30.177  1.00  0.00     0.167 HD
ATOM     54  C   UNL A   1      42.230  30.355  33.522  1.00  0.00     0.034 A 
ATOM     55  C   UNL A   1      42.297  25.500  28.445  1.00  0.00     0.034 A 
ATOM     56  C   UNL A   1      43.324  29.418  33.588  1.00  0.00     0.049 A 
ATOM     57  C   UNL A   1      43.368  25.563  29.500  1.00  0.00     0.074 A 
ATOM     58  C   UNL A   1      44.343  29.338  34.523  1.00  0.00     0.029 A 
ATOM     59  N   UNL A   1      43.541  28.390  32.678  1.00  0.00    -0.354 N 
ATOM     60  N   UNL A   1      43.493  26.404  30.501  1.00  0.00    -0.248 NA
ATOM     61  C   UNL A   1      44.430  24.552  29.423  1.00  0.00     0.031 C 
ATOM     62  C   UNL A   1      45.197  28.290  34.155  1.00  0.00     0.029 A 
ATOM     63  C   UNL A   1      44.684  27.685  33.018  1.00  0.00     0.049 A 
ATOM     64  H   UNL A   1      42.966  28.192  31.904  1.00  0.00     0.167 HD
ATOM     65  C   UNL A   1      44.633  26.005  31.189  1.00  0.00     0.074 A 
ATOM     66  C   UNL A   1      45.158  24.848  30.491  1.00  0.00     0.031 C 
ATOM     67  C   UNL A   1      45.194  26.541  32.302  1.00  0.00     0.034 A 
BRANCH  54  68
ATOM     68  C   UNL A   1      42.189  31.506  34.499  1.00  0.00     0.023 A 
ATOM     69  C   UNL A   1      41.321  31.505  35.605  1.00  0.00     0.031 A 
ATOM     70  C   UNL A   1      42.982  32.646  34.285  1.00  0.00     0.131 A 
ATOM     71  C   UNL A   1      41.199  32.656  36.399  1.00  0.00     0.055 A 
ATOM     72  C   UNL A   1      42.916  33.757  35.128  1.00  0.00     0.041 A 
ATOM     73  F   UNL A   1      43.816  32.711  33.235  1.00  0.00    -0.206 F 
ATOM     74  C   UNL A   1      42.007  33.774  36.182  1.00  0.00     0.022 A 
BRANCH  71  75
ATOM     75  S   UNL A   1      39.855  32.727  37.616  1.00  0.00     0.124 S 
ATOM     76  O   UNL A   1      38.987  31.645  37.158  1.00  0.00    -0.237 OA
ATOM     77  O   UNL A   1      40.556  32.496  38.873  1.00  0.00    -0.237 OA
ATOM     78  O   UNL A   1      39.308  34.071  37.444  1.00  0.00    -0.744 OA
ENDBRANCH  71  75
ENDBRANCH  54  68
BRANCH  55  79
ATOM     79  C   UNL A   1      42.361  24.492  27.355  1.00  0.00     0.023 A 
ATOM     80  C   UNL A   1      41.587  23.323  27.413  1.00  0.00     0.031 A 
ATOM     81  C   UNL A   1      43.208  24.676  26.250  1.00  0.00     0.131 A 
ATOM     82  C   UNL A   1      41.697  22.363  26.396  1.00  0.00     0.055 A 
ATOM     83  C   UNL A   1      43.290  23.734  25.224  1.00  0.00     0.041 A 
ATOM     84  F   UNL A   1      43.958  25.785  26.146  1.00  0.00    -0.206 F 
ATOM     85  C   UNL A   1      42.538  22.564  25.298  1.00  0.00     0.022 A 
BRANCH  82  86
ATOM     86  S   UNL A   1      40.758  20.820  26.553  1.00  0.00     0.124 S 
ATOM     87  O   UNL A   1      40.853  20.557  27.985  1.00  0.00    -0.237 OA
ATOM     88  O   UNL A   1      39.443  21.215  26.058  1.00  0.00    -0.237 OA
ATOM     89  O   UNL A   1      41.488  19.888  25.696  1.00  0.00    -0.744 OA
ENDBRANCH  82  86
ENDBRANCH  55  79
BRANCH  67  90
ATOM     90  C   UNL A   1      46.413  25.845  32.846  1.00  0.00     0.023 A 
ATOM     91  C   UNL A   1      47.677  26.010  32.256  1.00  0.00     0.031 A 
ATOM     92  C   UNL A   1      46.297  24.989  33.954  1.00  0.00     0.131 A 
ATOM     93  C   UNL A   1      48.774  25.290  32.754  1.00  0.00     0.055 A 
ATOM     94  C   UNL A   1      47.400  24.308  34.470  1.00  0.00     0.041 A 
ATOM     95  F   UNL A   1      45.109  24.799  34.550  1.00  0.00    -0.206 F 
ATOM     96  C   UNL A   1      48.646  24.449  33.862  1.00  0.00     0.022 A 
BRANCH  93  97
ATOM     97  S   UNL A   1      50.363  25.416  31.888  1.00  0.00     0.124 S 
ATOM     98  O   UNL A   1      51.152  26.225  32.813  1.00  0.00    -0.237 OA
ATOM     99  O   UNL A   1      50.763  24.018  31.763  1.00  0.00    -0.237 OA
ATOM    100  O   UNL A   1      50.017  26.076  30.629  1.00  0.00    -0.744 OA
ENDBRANCH  93  97
ENDBRANCH  67  90
ENDBRANCH  41  42
ENDBRANCH  33  36
ENDBRANCH  31  32
ENDBRANCH  30  31
ENDBRANCH   1  30
TORSDOF 18
ENDMDL
MODEL 3
REMARK VINA RESULT:     -12.9      0.904      7.640
REMARK SMILES O=C(N/N=C/c1ccccc1O)C(=O)Nc1cccc(C(=O)NCCCNC(=O)c2ccc(-c3c4nc(c(-c5cc(S(=O)(=O)[O-])ccc5F)c5ccc([nH]5)c(-c5cc(S(=O)(=O)[O-])ccc5F)c5nc(c(-c6cc(S(=O)(=O)[O-])ccc6F)c6ccc3[nH]6)C=C5)C=C4)cc2)c1
REMARK SMILES IDX 24 1 23 2 21 3 22 4 20 6 16 7 17 8 93 9 18 10 19 11 15 12
REMARK SMILES IDX 13 13 14 14 2 16 1 17 3 18 4 20 5 21 6 22 7 23 11 24 8 25
REMARK SMILES IDX 10 26 9 27 12 28 25 30 26 31 27 32 28 33 29 35 30 36 31 37
REMARK SMILES IDX 92 38 32 39 91 40 33 41 34 42 35 43 85 44 36 45 90 46 84 47
REMARK SMILES IDX 86 48 37 49 89 50 83 51 82 52 38 54 70 55 50 56 69 57 51 58
REMARK SMILES IDX 54 59 68 60 87 61 52 62 53 63 67 65 88 66 55 67 39 68 40 69
REMARK SMILES IDX 48 70 41 71 47 72 49 73 46 74 42 75 43 76 44 77 45 78 71 79
REMARK SMILES IDX 72 80 80 81 73 82 79 83 81 84 78 85 74 86 75 87 76 88 77 89
REMARK SMILES IDX 56 90 57 91 65 92 58 93 64 94 66 95 63 96 59 97 60 98 61 99
REMARK SMILES IDX 62 100
REMARK H PARENT 23 5 15 15 3 19 12 29 27 34 86 53 54 64
REMARK Flexibility Score: inf
ROOT
ATOM      1  C   UNL A   1      31.740  30.378  26.820  1.00  0.00     0.118 C 
ENDROOT
BRANCH   1   2
ATOM      2  N   UNL A   1      32.975  29.912  27.425  1.00  0.00    -0.352 N 
ATOM      3  C   UNL A   1      33.982  29.139  26.905  1.00  0.00     0.251 C 
ATOM      4  O   UNL A   1      35.063  29.069  27.496  1.00  0.00    -0.269 OA
ATOM      5  H   UNL A   1      33.113  30.197  28.357  1.00  0.00     0.163 HD
BRANCH   3   6
ATOM      6  C   UNL A   1      33.842  28.312  25.683  1.00  0.00     0.041 A 
ATOM      7  C   UNL A   1      33.530  25.557  24.164  1.00  0.00     0.042 A 
ATOM      8  C   UNL A   1      33.070  26.436  22.626  1.00  0.00     0.026 A 
ATOM      9  C   UNL A   1      33.991  26.478  25.667  1.00  0.00     0.040 A 
ATOM     10  C   UNL A   1      33.133  28.273  22.595  1.00  0.00     0.003 A 
ATOM     11  C   UNL A   1      33.472  29.189  24.127  1.00  0.00     0.014 A 
BRANCH   7  12
ATOM     12  N   UNL A   1      32.922  24.319  24.324  1.00  0.00    -0.318 N 
ATOM     13  C   UNL A   1      31.679  24.074  24.899  1.00  0.00     0.315 C 
ATOM     14  O   UNL A   1      31.195  22.956  24.691  1.00  0.00    -0.263 OA
ATOM     15  H   UNL A   1      33.420  23.536  23.996  1.00  0.00     0.170 HD
BRANCH  13  16
ATOM     16  C   UNL A   1      30.809  25.072  25.713  1.00  0.00     0.329 C 
ATOM     17  O   UNL A   1      31.190  25.389  26.842  1.00  0.00    -0.262 OA
ATOM     18  N   UNL A   1      29.549  25.511  25.296  1.00  0.00    -0.239 N 
ATOM     19  H   UNL A   1      28.747  25.348  25.843  1.00  0.00     0.194 HD
BRANCH  18  20
ATOM     20  N   UNL A   1      29.468  26.171  24.108  1.00  0.00    -0.180 NA
ATOM     21  C   UNL A   1      29.758  27.516  24.150  1.00  0.00     0.145 C 
BRANCH  21  22
ATOM     22  C   UNL A   1      29.073  29.292  23.210  1.00  0.00     0.036 A 
ATOM     23  C   UNL A   1      27.736  30.016  23.414  1.00  0.00     0.013 A 
ATOM     24  C   UNL A   1      29.686  30.291  22.223  1.00  0.00     0.124 A 
ATOM     25  C   UNL A   1      27.314  31.341  23.099  1.00  0.00     0.001 A 
ATOM     26  C   UNL A   1      29.305  31.653  21.950  1.00  0.00     0.047 A 
ATOM     27  C   UNL A   1      28.147  32.196  22.439  1.00  0.00     0.004 A 
BRANCH  24  28
ATOM     28  O   UNL A   1      30.615  29.981  21.225  1.00  0.00    -0.507 OA
ATOM     29  H   UNL A   1      31.256  29.313  21.373  1.00  0.00     0.293 HD
ENDBRANCH  24  28
ENDBRANCH  21  22
ENDBRANCH  18  20
ENDBRANCH  13  16
ENDBRANCH   7  12
ENDBRANCH   3   6
ENDBRANCH   1   2
BRANCH   1  30
ATOM     30  C   UNL A   1      31.552  31.888  26.907  1.00  0.00     0.042 C 
BRANCH  30  31
ATOM     31  C   UNL A   1      32.851  32.665  27.073  1.00  0.00     0.118 C 
BRANCH  31  32
ATOM     32  N   UNL A   1      32.653  33.951  27.727  1.00  0.00    -0.352 N 
ATOM     33  C   UNL A   1      33.256  34.493  28.835  1.00  0.00     0.251 C 
ATOM     34  H   UNL A   1      31.976  34.527  27.305  1.00  0.00     0.163 HD
ATOM     35  O   UNL A   1      32.807  35.540  29.298  1.00  0.00    -0.269 OA
BRANCH  33  36
ATOM     36  C   UNL A   1      34.415  33.834  29.482  1.00  0.00     0.039 A 
ATOM     37  C   UNL A   1      35.696  34.337  29.228  1.00  0.00     0.014 A 
ATOM     38  C   UNL A   1      34.263  32.700  30.282  1.00  0.00     0.014 A 
ATOM     39  C   UNL A   1      36.814  33.729  29.807  1.00  0.00     0.010 A 
ATOM     40  C   UNL A   1      35.370  32.138  30.917  1.00  0.00     0.010 A 
ATOM     41  C   UNL A   1      36.658  32.635  30.670  1.00  0.00    -0.014 A 
BRANCH  41  42
ATOM     42  C   UNL A   1      37.834  31.963  31.280  1.00  0.00     0.031 A 
ATOM     43  C   UNL A   1      38.341  32.420  32.622  1.00  0.00     0.074 A 
ATOM     44  C   UNL A   1      38.478  30.992  30.605  1.00  0.00     0.049 A 
ATOM     45  N   UNL A   1      39.392  32.021  33.292  1.00  0.00    -0.248 NA
ATOM     46  C   UNL A   1      37.586  33.499  33.275  1.00  0.00     0.031 C 
ATOM     47  C   UNL A   1      38.113  30.501  29.275  1.00  0.00     0.029 A 
ATOM     48  N   UNL A   1      39.583  30.253  30.942  1.00  0.00    -0.354 N 
ATOM     49  C   UNL A   1      39.445  32.824  34.427  1.00  0.00     0.074 A 
ATOM     50  C   UNL A   1      38.347  33.763  34.326  1.00  0.00     0.031 C 
ATOM     51  C   UNL A   1      38.966  29.525  28.920  1.00  0.00     0.029 A 
ATOM     52  C   UNL A   1      39.950  29.341  29.981  1.00  0.00     0.049 A 
ATOM     53  H   UNL A   1      40.066  30.364  31.793  1.00  0.00     0.167 HD
ATOM     54  C   UNL A   1      40.316  32.773  35.466  1.00  0.00     0.034 A 
ATOM     55  C   UNL A   1      40.966  28.457  29.961  1.00  0.00     0.034 A 
ATOM     56  C   UNL A   1      41.375  31.800  35.574  1.00  0.00     0.049 A 
ATOM     57  C   UNL A   1      41.890  28.380  31.147  1.00  0.00     0.074 A 
ATOM     58  C   UNL A   1      42.260  31.595  36.619  1.00  0.00     0.029 A 
ATOM     59  N   UNL A   1      41.692  30.864  34.598  1.00  0.00    -0.354 N 
ATOM     60  N   UNL A   1      41.896  29.110  32.238  1.00  0.00    -0.248 NA
ATOM     61  C   UNL A   1      42.935  27.348  31.102  1.00  0.00     0.031 C 
ATOM     62  C   UNL A   1      43.136  30.563  36.258  1.00  0.00     0.029 A 
ATOM     63  C   UNL A   1      42.768  30.093  35.007  1.00  0.00     0.049 A 
ATOM     64  H   UNL A   1      41.221  30.763  33.740  1.00  0.00     0.167 HD
ATOM     65  C   UNL A   1      42.929  28.608  33.022  1.00  0.00     0.074 A 
ATOM     66  C   UNL A   1      43.521  27.512  32.280  1.00  0.00     0.031 C 
ATOM     67  C   UNL A   1      43.348  29.011  34.248  1.00  0.00     0.034 A 
BRANCH  54  68
ATOM     68  C   UNL A   1      40.167  33.819  36.544  1.00  0.00     0.023 A 
ATOM     69  C   UNL A   1      39.687  33.496  37.825  1.00  0.00     0.031 A 
ATOM     70  C   UNL A   1      40.448  35.168  36.266  1.00  0.00     0.131 A 
ATOM     71  C   UNL A   1      39.414  34.518  38.748  1.00  0.00     0.055 A 
ATOM     72  C   UNL A   1      40.253  36.171  37.217  1.00  0.00     0.041 A 
ATOM     73  F   UNL A   1      40.891  35.539  35.054  1.00  0.00    -0.206 F 
ATOM     74  C   UNL A   1      39.715  35.851  38.461  1.00  0.00     0.022 A 
BRANCH  71  75
ATOM     75  S   UNL A   1      38.512  34.095  40.264  1.00  0.00     0.124 S 
ATOM     76  O   UNL A   1      39.488  33.265  40.965  1.00  0.00    -0.237 OA
ATOM     77  O   UNL A   1      38.248  35.404  40.849  1.00  0.00    -0.237 OA
ATOM     78  O   UNL A   1      37.334  33.381  39.774  1.00  0.00    -0.744 OA
ENDBRANCH  71  75
ENDBRANCH  54  68
BRANCH  55  79
ATOM     79  C   UNL A   1      41.156  27.562  28.789  1.00  0.00     0.023 A 
ATOM     80  C   UNL A   1      42.132  27.846  27.822  1.00  0.00     0.031 A 
ATOM     81  C   UNL A   1      40.354  26.422  28.614  1.00  0.00     0.131 A 
ATOM     82  C   UNL A   1      42.263  27.013  26.700  1.00  0.00     0.055 A 
ATOM     83  C   UNL A   1      40.510  25.579  27.513  1.00  0.00     0.041 A 
ATOM     84  F   UNL A   1      39.416  26.105  29.520  1.00  0.00    -0.206 F 
ATOM     85  C   UNL A   1      41.464  25.878  26.542  1.00  0.00     0.022 A 
BRANCH  82  86
ATOM     86  S   UNL A   1      43.465  27.465  25.420  1.00  0.00     0.124 S 
ATOM     87  O   UNL A   1      44.159  26.201  25.202  1.00  0.00    -0.237 OA
ATOM     88  O   UNL A   1      42.598  27.917  24.337  1.00  0.00    -0.237 OA
ATOM     89  O   UNL A   1      44.261  28.513  26.055  1.00  0.00    -0.744 OA
ENDBRANCH  82  86
ENDBRANCH  55  79
BRANCH  67  90
ATOM     90  C   UNL A   1      44.472  28.226  34.869  1.00  0.00     0.023 A 
ATOM     91  C   UNL A   1      44.237  27.017  35.544  1.00  0.00     0.031 A 
ATOM     92  C   UNL A   1      45.789  28.709  34.798  1.00  0.00     0.131 A 
ATOM     93  C   UNL A   1      45.304  26.351  36.165  1.00  0.00     0.055 A 
ATOM     94  C   UNL A   1      46.853  28.021  35.382  1.00  0.00     0.041 A 
ATOM     95  F   UNL A   1      46.061  29.861  34.163  1.00  0.00    -0.206 F 
ATOM     96  C   UNL A   1      46.611  26.840  36.080  1.00  0.00     0.022 A 
BRANCH  93  97
ATOM     97  S   UNL A   1      44.952  24.868  37.148  1.00  0.00     0.124 S 
ATOM     98  O   UNL A   1      46.237  24.175  37.126  1.00  0.00    -0.237 OA
ATOM     99  O   UNL A   1      44.554  25.431  38.434  1.00  0.00    -0.237 OA
ATOM    100  O   UNL A   1      43.880  24.209  36.403  1.00  0.00    -0.744 OA
ENDBRANCH  93  97
ENDBRANCH  67  90
ENDBRANCH  41  42
ENDBRANCH  33  36
ENDBRANCH  31  32
ENDBRANCH  30  31
ENDBRANCH   1  30
TORSDOF 18
ENDMDL
