MODEL 1
REMARK VINA RESULT:     -12.6      0.000      0.000
REMARK SMILES Cc1nn([C@@H]2CCS(=O)(=O)C2)c(C)c1[C@@H]([NH3+])C(=O)NCCCNC(=O)c1ccc(-c2c3nc(c(-c4cc(S(=O)(=O)[O-])ccc4F)c4ccc([nH]4)c(-c4cc(S(=O)(=O)[O-])ccc4F)c4nc(c(-c5cc(S(=O)(=O)[O-])ccc5F)c5ccc2[nH]5)C=C4)C=C3)cc1
REMARK SMILES IDX 21 1 20 2 19 3 17 4 18 5 15 7 14 8 1 9 2 10 3 11 4 12 12 13
REMARK SMILES IDX 13 14 5 15 6 16 11 17 7 18 8 19 9 20 10 21 16 22 22 26 23 27
REMARK SMILES IDX 24 28 25 30 26 31 27 32 88 33 28 34 87 35 29 36 30 37 31 38
REMARK SMILES IDX 81 39 32 40 86 41 80 42 82 43 33 44 85 45 79 46 78 47 34 49
REMARK SMILES IDX 66 50 46 51 65 52 47 53 50 54 64 55 83 56 48 57 49 58 63 60
REMARK SMILES IDX 84 61 51 62 35 63 36 64 44 65 37 66 43 67 45 68 42 69 38 70
REMARK SMILES IDX 39 71 40 72 41 73 67 74 68 75 76 76 69 77 75 78 77 79 74 80
REMARK SMILES IDX 70 81 71 82 72 83 73 84 52 85 53 86 61 87 54 88 60 89 62 90
REMARK SMILES IDX 59 91 55 92 56 93 57 94 58 95
REMARK H PARENT 19 6 16 23 16 24 16 25 23 29 82 48 50 59
REMARK Flexibility Score: inf
ROOT
ATOM      1  C   UNL A   1      33.962  30.102  26.960  1.00  0.00     0.042 C 
ENDROOT
BRANCH   1   2
ATOM      2  C   UNL A   1      33.346  29.348  25.787  1.00  0.00     0.118 C 
BRANCH   2   3
ATOM      3  N   UNL A   1      32.002  29.823  25.503  1.00  0.00    -0.351 N 
ATOM      4  C   UNL A   1      31.272  29.749  24.349  1.00  0.00     0.283 C 
ATOM      5  O   UNL A   1      30.162  30.295  24.351  1.00  0.00    -0.268 OA
ATOM      6  H   UNL A   1      31.549  30.266  26.255  1.00  0.00     0.163 HD
BRANCH   4   7
ATOM      7  C   UNL A   1      31.760  28.996  23.074  1.00  0.00     0.306 C 
BRANCH   7   8
ATOM      8  C   UNL A   1      31.398  27.534  23.085  1.00  0.00     0.063 A 
ATOM      9  C   UNL A   1      33.558  26.589  21.936  1.00  0.00     0.069 C 
ATOM     10  C   UNL A   1      32.263  26.475  22.655  1.00  0.00     0.069 A 
ATOM     11  N   UNL A   1      31.761  25.268  22.947  1.00  0.00    -0.177 NA
ATOM     12  N   UNL A   1      30.661  25.559  23.660  1.00  0.00    -0.265 N 
ATOM     13  C   UNL A   1      30.224  26.847  23.389  1.00  0.00     0.046 A 
ATOM     14  C   UNL A   1      28.800  27.250  23.520  1.00  0.00     0.067 C 
BRANCH  12  15
ATOM     15  C   UNL A   1      30.406  24.841  24.908  1.00  0.00     0.123 C 
ATOM     16  C   UNL A   1      30.653  25.642  26.205  1.00  0.00     0.044 C 
ATOM     17  C   UNL A   1      31.051  23.469  25.000  1.00  0.00     0.164 C 
ATOM     18  C   UNL A   1      32.032  25.270  26.712  1.00  0.00     0.139 C 
ATOM     19  S   UNL A   1      32.183  23.535  26.363  1.00  0.00     0.152 S 
ATOM     20  O   UNL A   1      33.512  23.247  25.881  1.00  0.00    -0.229 OA
ATOM     21  O   UNL A   1      31.586  22.796  27.462  1.00  0.00    -0.229 OA
ENDBRANCH  12  15
ENDBRANCH   7   8
BRANCH   7  22
ATOM     22  N   UNL A   1      31.335  29.682  21.845  1.00  0.00    -0.343 N 
ATOM     23  H   UNL A   1      30.816  30.525  22.089  1.00  0.00     0.345 HD
ATOM     24  H   UNL A   1      30.739  29.062  21.298  1.00  0.00     0.345 HD
ATOM     25  H   UNL A   1      32.156  29.936  21.296  1.00  0.00     0.345 HD
ENDBRANCH   7  22
ENDBRANCH   4   7
ENDBRANCH   2   3
ENDBRANCH   1   2
BRANCH   1  26
ATOM     26  C   UNL A   1      35.178  29.440  27.555  1.00  0.00     0.118 C 
BRANCH  26  27
ATOM     27  N   UNL A   1      35.439  29.865  28.938  1.00  0.00    -0.352 N 
ATOM     28  C   UNL A   1      36.501  29.490  29.759  1.00  0.00     0.251 C 
ATOM     29  H   UNL A   1      34.786  30.489  29.330  1.00  0.00     0.163 HD
ATOM     30  O   UNL A   1      36.443  29.630  30.962  1.00  0.00    -0.269 OA
BRANCH  28  31
ATOM     31  C   UNL A   1      37.683  28.898  29.097  1.00  0.00     0.039 A 
ATOM     32  C   UNL A   1      38.329  29.500  28.017  1.00  0.00     0.014 A 
ATOM     33  C   UNL A   1      38.225  27.785  29.715  1.00  0.00     0.014 A 
ATOM     34  C   UNL A   1      39.597  29.033  27.665  1.00  0.00     0.010 A 
ATOM     35  C   UNL A   1      39.559  27.545  29.569  1.00  0.00     0.010 A 
ATOM     36  C   UNL A   1      40.231  28.083  28.486  1.00  0.00    -0.014 A 
BRANCH  36  37
ATOM     37  C   UNL A   1      41.634  27.707  28.326  1.00  0.00     0.031 A 
ATOM     38  C   UNL A   1      41.840  26.445  27.575  1.00  0.00     0.074 A 
ATOM     39  C   UNL A   1      42.664  28.535  28.615  1.00  0.00     0.049 A 
ATOM     40  N   UNL A   1      42.157  25.294  28.066  1.00  0.00    -0.248 NA
ATOM     41  C   UNL A   1      41.461  26.394  26.153  1.00  0.00     0.031 C 
ATOM     42  C   UNL A   1      42.616  29.929  29.085  1.00  0.00     0.029 A 
ATOM     43  N   UNL A   1      44.000  28.342  28.437  1.00  0.00    -0.354 N 
ATOM     44  C   UNL A   1      42.314  24.451  26.974  1.00  0.00     0.074 A 
ATOM     45  C   UNL A   1      41.625  25.095  25.889  1.00  0.00     0.031 C 
ATOM     46  C   UNL A   1      43.819  30.516  28.914  1.00  0.00     0.029 A 
ATOM     47  C   UNL A   1      44.773  29.501  28.514  1.00  0.00     0.049 A 
ATOM     48  H   UNL A   1      44.390  27.454  28.268  1.00  0.00     0.167 HD
ATOM     49  C   UNL A   1      43.244  23.455  26.998  1.00  0.00     0.034 A 
ATOM     50  C   UNL A   1      46.107  29.626  28.275  1.00  0.00     0.034 A 
ATOM     51  C   UNL A   1      43.727  23.244  28.352  1.00  0.00     0.049 A 
ATOM     52  C   UNL A   1      46.689  28.276  28.472  1.00  0.00     0.074 A 
ATOM     53  C   UNL A   1      43.121  22.955  29.560  1.00  0.00     0.029 A 
ATOM     54  N   UNL A   1      44.970  23.746  28.679  1.00  0.00    -0.354 N 
ATOM     55  N   UNL A   1      46.688  27.663  29.625  1.00  0.00    -0.248 NA
ATOM     56  C   UNL A   1      46.801  27.406  27.311  1.00  0.00     0.031 C 
ATOM     57  C   UNL A   1      43.799  23.771  30.515  1.00  0.00     0.029 A 
ATOM     58  C   UNL A   1      44.849  24.426  29.866  1.00  0.00     0.049 A 
ATOM     59  H   UNL A   1      45.796  23.637  28.154  1.00  0.00     0.167 HD
ATOM     60  C   UNL A   1      46.336  26.353  29.333  1.00  0.00     0.074 A 
ATOM     61  C   UNL A   1      46.526  26.230  27.887  1.00  0.00     0.031 C 
ATOM     62  C   UNL A   1      45.647  25.586  30.231  1.00  0.00     0.034 A 
BRANCH  49  63
ATOM     63  C   UNL A   1      44.016  22.951  25.793  1.00  0.00     0.023 A 
ATOM     64  C   UNL A   1      44.034  21.558  25.593  1.00  0.00     0.031 A 
ATOM     65  C   UNL A   1      44.944  23.687  25.022  1.00  0.00     0.131 A 
ATOM     66  C   UNL A   1      45.011  20.952  24.787  1.00  0.00     0.055 A 
ATOM     67  C   UNL A   1      45.869  23.083  24.164  1.00  0.00     0.041 A 
ATOM     68  F   UNL A   1      45.078  25.014  25.107  1.00  0.00    -0.206 F 
ATOM     69  C   UNL A   1      45.934  21.706  24.072  1.00  0.00     0.022 A 
BRANCH  66  70
ATOM     70  S   UNL A   1      45.172  19.150  24.855  1.00  0.00     0.124 S 
ATOM     71  O   UNL A   1      46.515  19.002  25.404  1.00  0.00    -0.237 OA
ATOM     72  O   UNL A   1      44.070  18.785  25.739  1.00  0.00    -0.237 OA
ATOM     73  O   UNL A   1      45.016  18.745  23.461  1.00  0.00    -0.744 OA
ENDBRANCH  66  70
ENDBRANCH  49  63
BRANCH  50  74
ATOM     74  C   UNL A   1      46.811  30.755  27.600  1.00  0.00     0.023 A 
ATOM     75  C   UNL A   1      46.133  31.789  26.919  1.00  0.00     0.031 A 
ATOM     76  C   UNL A   1      48.190  30.960  27.842  1.00  0.00     0.131 A 
ATOM     77  C   UNL A   1      46.825  32.962  26.524  1.00  0.00     0.055 A 
ATOM     78  C   UNL A   1      48.867  32.117  27.449  1.00  0.00     0.041 A 
ATOM     79  F   UNL A   1      48.912  30.074  28.547  1.00  0.00    -0.206 F 
ATOM     80  C   UNL A   1      48.184  33.130  26.799  1.00  0.00     0.022 A 
BRANCH  77  81
ATOM     81  S   UNL A   1      45.941  34.343  25.723  1.00  0.00     0.124 S 
ATOM     82  O   UNL A   1      45.386  35.061  26.864  1.00  0.00    -0.237 OA
ATOM     83  O   UNL A   1      47.007  35.014  24.988  1.00  0.00    -0.237 OA
ATOM     84  O   UNL A   1      44.950  33.671  24.879  1.00  0.00    -0.744 OA
ENDBRANCH  77  81
ENDBRANCH  50  74
BRANCH  62  85
ATOM     85  C   UNL A   1      45.543  26.067  31.669  1.00  0.00     0.023 A 
ATOM     86  C   UNL A   1      44.425  26.726  32.236  1.00  0.00     0.031 A 
ATOM     87  C   UNL A   1      46.603  25.734  32.531  1.00  0.00     0.131 A 
ATOM     88  C   UNL A   1      44.409  27.032  33.614  1.00  0.00     0.055 A 
ATOM     89  C   UNL A   1      46.573  26.016  33.897  1.00  0.00     0.041 A 
ATOM     90  F   UNL A   1      47.683  25.088  32.063  1.00  0.00    -0.206 F 
ATOM     91  C   UNL A   1      45.478  26.673  34.442  1.00  0.00     0.022 A 
BRANCH  88  92
ATOM     92  S   UNL A   1      43.006  27.929  34.358  1.00  0.00     0.124 S 
ATOM     93  O   UNL A   1      42.776  29.035  33.437  1.00  0.00    -0.237 OA
ATOM     94  O   UNL A   1      41.962  26.907  34.403  1.00  0.00    -0.237 OA
ATOM     95  O   UNL A   1      43.517  28.328  35.672  1.00  0.00    -0.744 OA
ENDBRANCH  88  92
ENDBRANCH  62  85
ENDBRANCH  36  37
ENDBRANCH  28  31
ENDBRANCH  26  27
ENDBRANCH   1  26
TORSDOF 16
ENDMDL
MODEL 2
REMARK VINA RESULT:     -12.6      3.502      8.648
REMARK SMILES Cc1nn([C@@H]2CCS(=O)(=O)C2)c(C)c1[C@@H]([NH3+])C(=O)NCCCNC(=O)c1ccc(-c2c3nc(c(-c4cc(S(=O)(=O)[O-])ccc4F)c4ccc([nH]4)c(-c4cc(S(=O)(=O)[O-])ccc4F)c4nc(c(-c5cc(S(=O)(=O)[O-])ccc5F)c5ccc2[nH]5)C=C4)C=C3)cc1
REMARK SMILES IDX 21 1 20 2 19 3 17 4 18 5 15 7 14 8 1 9 2 10 3 11 4 12 12 13
REMARK SMILES IDX 13 14 5 15 6 16 11 17 7 18 8 19 9 20 10 21 16 22 22 26 23 27
REMARK SMILES IDX 24 28 25 30 26 31 27 32 88 33 28 34 87 35 29 36 30 37 31 38
REMARK SMILES IDX 81 39 32 40 86 41 80 42 82 43 33 44 85 45 79 46 78 47 34 49
REMARK SMILES IDX 66 50 46 51 65 52 47 53 50 54 64 55 83 56 48 57 49 58 63 60
REMARK SMILES IDX 84 61 51 62 35 63 36 64 44 65 37 66 43 67 45 68 42 69 38 70
REMARK SMILES IDX 39 71 40 72 41 73 67 74 68 75 76 76 69 77 75 78 77 79 74 80
REMARK SMILES IDX 70 81 71 82 72 83 73 84 52 85 53 86 61 87 54 88 60 89 62 90
REMARK SMILES IDX 59 91 55 92 56 93 57 94 58 95
REMARK H PARENT 19 6 16 23 16 24 16 25 23 29 82 48 50 59
REMARK Flexibility Score: inf
ROOT
ATOM      1  C   UNL A   1      37.209  21.192  24.625  1.00  0.00     0.042 C 
ENDROOT
BRANCH   1   2
ATOM      2  C   UNL A   1      35.877  20.759  25.227  1.00  0.00     0.118 C 
BRANCH   2   3
ATOM      3  N   UNL A   1      35.559  21.535  26.414  1.00  0.00    -0.351 N 
ATOM      4  C   UNL A   1      34.363  21.707  27.055  1.00  0.00     0.283 C 
ATOM      5  O   UNL A   1      34.350  22.480  28.021  1.00  0.00    -0.268 OA
ATOM      6  H   UNL A   1      36.321  22.009  26.818  1.00  0.00     0.163 HD
BRANCH   4   7
ATOM      7  C   UNL A   1      33.057  20.962  26.644  1.00  0.00     0.306 C 
BRANCH   7   8
ATOM      8  C   UNL A   1      32.333  21.637  25.509  1.00  0.00     0.063 A 
ATOM      9  C   UNL A   1      30.780  23.211  26.920  1.00  0.00     0.069 C 
ATOM     10  C   UNL A   1      31.389  22.705  25.663  1.00  0.00     0.069 A 
ATOM     11  N   UNL A   1      31.041  23.240  24.485  1.00  0.00    -0.177 NA
ATOM     12  N   UNL A   1      31.845  22.610  23.614  1.00  0.00    -0.265 N 
ATOM     13  C   UNL A   1      32.288  21.404  24.135  1.00  0.00     0.046 A 
ATOM     14  C   UNL A   1      32.661  20.252  23.275  1.00  0.00     0.067 C 
BRANCH  12  15
ATOM     15  C   UNL A   1      32.558  23.389  22.604  1.00  0.00     0.123 C 
ATOM     16  C   UNL A   1      34.095  23.437  22.756  1.00  0.00     0.044 C 
ATOM     17  C   UNL A   1      32.005  24.783  22.364  1.00  0.00     0.164 C 
ATOM     18  C   UNL A   1      34.441  24.734  23.459  1.00  0.00     0.139 C 
ATOM     19  S   UNL A   1      33.294  25.920  22.800  1.00  0.00     0.152 S 
ATOM     20  O   UNL A   1      32.820  26.780  23.856  1.00  0.00    -0.229 OA
ATOM     21  O   UNL A   1      33.846  26.449  21.565  1.00  0.00    -0.229 OA
ENDBRANCH  12  15
ENDBRANCH   7   8
BRANCH   7  22
ATOM     22  N   UNL A   1      33.304  19.534  26.397  1.00  0.00    -0.343 N 
ATOM     23  H   UNL A   1      32.461  19.103  26.020  1.00  0.00     0.345 HD
ATOM     24  H   UNL A   1      33.558  19.077  27.272  1.00  0.00     0.345 HD
ATOM     25  H   UNL A   1      34.066  19.431  25.727  1.00  0.00     0.345 HD
ENDBRANCH   7  22
ENDBRANCH   4   7
ENDBRANCH   2   3
ENDBRANCH   1   2
BRANCH   1  26
ATOM     26  C   UNL A   1      38.351  21.235  25.608  1.00  0.00     0.118 C 
BRANCH  26  27
ATOM     27  N   UNL A   1      39.068  19.956  25.705  1.00  0.00    -0.352 N 
ATOM     28  C   UNL A   1      40.430  19.757  25.920  1.00  0.00     0.251 C 
ATOM     29  H   UNL A   1      38.520  19.143  25.608  1.00  0.00     0.163 HD
ATOM     30  O   UNL A   1      40.958  18.697  25.656  1.00  0.00    -0.269 OA
BRANCH  28  31
ATOM     31  C   UNL A   1      41.197  20.899  26.462  1.00  0.00     0.039 A 
ATOM     32  C   UNL A   1      41.708  21.919  25.661  1.00  0.00     0.014 A 
ATOM     33  C   UNL A   1      41.242  20.992  27.842  1.00  0.00     0.014 A 
ATOM     34  C   UNL A   1      42.140  23.092  26.285  1.00  0.00     0.010 A 
ATOM     35  C   UNL A   1      41.373  22.226  28.407  1.00  0.00     0.010 A 
ATOM     36  C   UNL A   1      41.920  23.257  27.664  1.00  0.00    -0.014 A 
BRANCH  36  37
ATOM     37  C   UNL A   1      42.131  24.528  28.353  1.00  0.00     0.031 A 
ATOM     38  C   UNL A   1      41.001  25.481  28.224  1.00  0.00     0.074 A 
ATOM     39  C   UNL A   1      43.142  24.744  29.226  1.00  0.00     0.049 A 
ATOM     40  N   UNL A   1      40.951  26.526  27.469  1.00  0.00    -0.248 NA
ATOM     41  C   UNL A   1      39.708  25.137  28.840  1.00  0.00     0.031 C 
ATOM     42  C   UNL A   1      44.171  23.800  29.687  1.00  0.00     0.029 A 
ATOM     43  N   UNL A   1      43.402  25.842  29.988  1.00  0.00    -0.354 N 
ATOM     44  C   UNL A   1      39.735  27.134  27.750  1.00  0.00     0.074 A 
ATOM     45  C   UNL A   1      38.931  26.116  28.371  1.00  0.00     0.031 C 
ATOM     46  C   UNL A   1      44.764  24.273  30.803  1.00  0.00     0.029 A 
ATOM     47  C   UNL A   1      44.310  25.631  31.026  1.00  0.00     0.049 A 
ATOM     48  H   UNL A   1      42.982  26.716  29.820  1.00  0.00     0.167 HD
ATOM     49  C   UNL A   1      39.615  28.492  27.714  1.00  0.00     0.034 A 
ATOM     50  C   UNL A   1      44.674  26.507  32.001  1.00  0.00     0.034 A 
ATOM     51  C   UNL A   1      40.766  29.084  27.053  1.00  0.00     0.049 A 
ATOM     52  C   UNL A   1      44.392  27.860  31.465  1.00  0.00     0.074 A 
ATOM     53  C   UNL A   1      41.360  28.920  25.815  1.00  0.00     0.029 A 
ATOM     54  N   UNL A   1      41.728  29.679  27.843  1.00  0.00    -0.354 N 
ATOM     55  N   UNL A   1      45.009  28.356  30.426  1.00  0.00    -0.248 NA
ATOM     56  C   UNL A   1      43.092  28.449  31.747  1.00  0.00     0.031 C 
ATOM     57  C   UNL A   1      42.763  28.933  26.078  1.00  0.00     0.029 A 
ATOM     58  C   UNL A   1      42.955  29.214  27.434  1.00  0.00     0.049 A 
ATOM     59  H   UNL A   1      41.565  30.321  28.571  1.00  0.00     0.167 HD
ATOM     60  C   UNL A   1      44.014  28.963  29.675  1.00  0.00     0.074 A 
ATOM     61  C   UNL A   1      42.878  29.084  30.590  1.00  0.00     0.031 C 
ATOM     62  C   UNL A   1      44.100  29.040  28.312  1.00  0.00     0.034 A 
BRANCH  49  63
ATOM     63  C   UNL A   1      38.702  29.313  28.603  1.00  0.00     0.023 A 
ATOM     64  C   UNL A   1      38.994  29.311  29.980  1.00  0.00     0.031 A 
ATOM     65  C   UNL A   1      37.439  29.841  28.252  1.00  0.00     0.131 A 
ATOM     66  C   UNL A   1      38.026  29.679  30.929  1.00  0.00     0.055 A 
ATOM     67  C   UNL A   1      36.505  30.274  29.198  1.00  0.00     0.041 A 
ATOM     68  F   UNL A   1      36.992  29.894  26.993  1.00  0.00    -0.206 F 
ATOM     69  C   UNL A   1      36.779  30.158  30.547  1.00  0.00     0.022 A 
BRANCH  66  70
ATOM     70  S   UNL A   1      38.367  29.326  32.672  1.00  0.00     0.124 S 
ATOM     71  O   UNL A   1      37.574  28.119  32.881  1.00  0.00    -0.237 OA
ATOM     72  O   UNL A   1      39.816  29.153  32.664  1.00  0.00    -0.237 OA
ATOM     73  O   UNL A   1      37.884  30.521  33.358  1.00  0.00    -0.744 OA
ENDBRANCH  66  70
ENDBRANCH  49  63
BRANCH  50  74
ATOM     74  C   UNL A   1      44.945  26.212  33.438  1.00  0.00     0.023 A 
ATOM     75  C   UNL A   1      43.962  26.323  34.446  1.00  0.00     0.031 A 
ATOM     76  C   UNL A   1      46.147  25.561  33.802  1.00  0.00     0.131 A 
ATOM     77  C   UNL A   1      44.196  25.787  35.738  1.00  0.00     0.055 A 
ATOM     78  C   UNL A   1      46.373  25.036  35.077  1.00  0.00     0.041 A 
ATOM     79  F   UNL A   1      47.116  25.335  32.900  1.00  0.00    -0.206 F 
ATOM     80  C   UNL A   1      45.391  25.136  36.048  1.00  0.00     0.022 A 
BRANCH  77  81
ATOM     81  S   UNL A   1      42.900  25.845  37.022  1.00  0.00     0.124 S 
ATOM     82  O   UNL A   1      42.505  27.249  37.002  1.00  0.00    -0.237 OA
ATOM     83  O   UNL A   1      41.921  24.887  36.524  1.00  0.00    -0.237 OA
ATOM     84  O   UNL A   1      43.603  25.422  38.236  1.00  0.00    -0.744 OA
ENDBRANCH  77  81
ENDBRANCH  50  74
BRANCH  62  85
ATOM     85  C   UNL A   1      45.435  28.740  27.650  1.00  0.00     0.023 A 
ATOM     86  C   UNL A   1      45.795  27.510  27.049  1.00  0.00     0.031 A 
ATOM     87  C   UNL A   1      46.343  29.808  27.533  1.00  0.00     0.131 A 
ATOM     88  C   UNL A   1      47.029  27.388  26.374  1.00  0.00     0.055 A 
ATOM     89  C   UNL A   1      47.550  29.690  26.844  1.00  0.00     0.041 A 
ATOM     90  F   UNL A   1      46.053  31.009  28.060  1.00  0.00    -0.206 F 
ATOM     91  C   UNL A   1      47.901  28.477  26.268  1.00  0.00     0.022 A 
BRANCH  88  92
ATOM     92  S   UNL A   1      47.542  25.799  25.639  1.00  0.00     0.124 S 
ATOM     93  O   UNL A   1      48.820  26.108  25.009  1.00  0.00    -0.237 OA
ATOM     94  O   UNL A   1      47.599  24.915  26.800  1.00  0.00    -0.237 OA
ATOM     95  O   UNL A   1      46.460  25.494  24.699  1.00  0.00    -0.744 OA
ENDBRANCH  88  92
ENDBRANCH  62  85
ENDBRANCH  36  37
ENDBRANCH  28  31
ENDBRANCH  26  27
ENDBRANCH   1  26
TORSDOF 16
ENDMDL
MODEL 3
REMARK VINA RESULT:     -12.3      1.846      2.387
REMARK SMILES Cc1nn([C@@H]2CCS(=O)(=O)C2)c(C)c1[C@@H]([NH3+])C(=O)NCCCNC(=O)c1ccc(-c2c3nc(c(-c4cc(S(=O)(=O)[O-])ccc4F)c4ccc([nH]4)c(-c4cc(S(=O)(=O)[O-])ccc4F)c4nc(c(-c5cc(S(=O)(=O)[O-])ccc5F)c5ccc2[nH]5)C=C4)C=C3)cc1
REMARK SMILES IDX 21 1 20 2 19 3 17 4 18 5 15 7 14 8 1 9 2 10 3 11 4 12 12 13
REMARK SMILES IDX 13 14 5 15 6 16 11 17 7 18 8 19 9 20 10 21 16 22 22 26 23 27
REMARK SMILES IDX 24 28 25 30 26 31 27 32 88 33 28 34 87 35 29 36 30 37 31 38
REMARK SMILES IDX 81 39 32 40 86 41 80 42 82 43 33 44 85 45 79 46 78 47 34 49
REMARK SMILES IDX 66 50 46 51 65 52 47 53 50 54 64 55 83 56 48 57 49 58 63 60
REMARK SMILES IDX 84 61 51 62 35 63 36 64 44 65 37 66 43 67 45 68 42 69 38 70
REMARK SMILES IDX 39 71 40 72 41 73 67 74 68 75 76 76 69 77 75 78 77 79 74 80
REMARK SMILES IDX 70 81 71 82 72 83 73 84 52 85 53 86 61 87 54 88 60 89 62 90
REMARK SMILES IDX 59 91 55 92 56 93 57 94 58 95
REMARK H PARENT 19 6 16 23 16 24 16 25 23 29 82 48 50 59
REMARK Flexibility Score: inf
ROOT
ATOM      1  C   UNL A   1      33.954  29.671  26.801  1.00  0.00     0.042 C 
ENDROOT
BRANCH   1   2
ATOM      2  C   UNL A   1      33.314  28.661  25.856  1.00  0.00     0.118 C 
BRANCH   2   3
ATOM      3  N   UNL A   1      32.347  27.828  26.553  1.00  0.00    -0.351 N 
ATOM      4  C   UNL A   1      31.386  26.994  26.052  1.00  0.00     0.283 C 
ATOM      5  O   UNL A   1      30.641  26.441  26.870  1.00  0.00    -0.268 OA
ATOM      6  H   UNL A   1      32.391  27.872  27.535  1.00  0.00     0.163 HD
BRANCH   4   7
ATOM      7  C   UNL A   1      31.218  26.699  24.530  1.00  0.00     0.306 C 
BRANCH   7   8
ATOM      8  C   UNL A   1      31.853  25.399  24.114  1.00  0.00     0.063 A 
ATOM      9  C   UNL A   1      33.061  26.233  21.941  1.00  0.00     0.069 C 
ATOM     10  C   UNL A   1      32.748  25.245  23.005  1.00  0.00     0.069 A 
ATOM     11  N   UNL A   1      33.307  24.028  22.977  1.00  0.00    -0.177 NA
ATOM     12  N   UNL A   1      32.873  23.467  24.118  1.00  0.00    -0.265 N 
ATOM     13  C   UNL A   1      31.716  24.086  24.563  1.00  0.00     0.046 A 
ATOM     14  C   UNL A   1      30.701  23.381  25.389  1.00  0.00     0.067 C 
BRANCH  12  15
ATOM     15  C   UNL A   1      33.825  22.768  24.979  1.00  0.00     0.123 C 
ATOM     16  C   UNL A   1      34.594  23.652  25.985  1.00  0.00     0.044 C 
ATOM     17  C   UNL A   1      34.781  21.836  24.253  1.00  0.00     0.164 C 
ATOM     18  C   UNL A   1      35.946  23.961  25.376  1.00  0.00     0.139 C 
ATOM     19  S   UNL A   1      36.414  22.464  24.542  1.00  0.00     0.152 S 
ATOM     20  O   UNL A   1      37.023  22.781  23.274  1.00  0.00    -0.229 OA
ATOM     21  O   UNL A   1      37.055  21.587  25.506  1.00  0.00    -0.229 OA
ENDBRANCH  12  15
ENDBRANCH   7   8
BRANCH   7  22
ATOM     22  N   UNL A   1      29.813  26.811  24.110  1.00  0.00    -0.343 N 
ATOM     23  H   UNL A   1      29.754  27.389  23.272  1.00  0.00     0.345 HD
ATOM     24  H   UNL A   1      29.268  27.239  24.858  1.00  0.00     0.345 HD
ATOM     25  H   UNL A   1      29.443  25.882  23.909  1.00  0.00     0.345 HD
ENDBRANCH   7  22
ENDBRANCH   4   7
ENDBRANCH   2   3
ENDBRANCH   1   2
BRANCH   1  26
ATOM     26  C   UNL A   1      35.244  29.207  27.427  1.00  0.00     0.118 C 
BRANCH  26  27
ATOM     27  N   UNL A   1      35.530  29.874  28.705  1.00  0.00    -0.352 N 
ATOM     28  C   UNL A   1      36.619  29.668  29.549  1.00  0.00     0.251 C 
ATOM     29  H   UNL A   1      34.873  30.547  29.000  1.00  0.00     0.163 HD
ATOM     30  O   UNL A   1      36.589  30.019  30.710  1.00  0.00    -0.269 OA
BRANCH  28  31
ATOM     31  C   UNL A   1      37.798  28.989  28.968  1.00  0.00     0.039 A 
ATOM     32  C   UNL A   1      38.514  29.502  27.888  1.00  0.00     0.014 A 
ATOM     33  C   UNL A   1      38.260  27.886  29.665  1.00  0.00     0.014 A 
ATOM     34  C   UNL A   1      39.772  28.960  27.614  1.00  0.00     0.010 A 
ATOM     35  C   UNL A   1      39.586  27.578  29.589  1.00  0.00     0.010 A 
ATOM     36  C   UNL A   1      40.325  28.026  28.508  1.00  0.00    -0.014 A 
BRANCH  36  37
ATOM     37  C   UNL A   1      41.714  27.579  28.427  1.00  0.00     0.031 A 
ATOM     38  C   UNL A   1      41.910  26.361  27.604  1.00  0.00     0.074 A 
ATOM     39  C   UNL A   1      42.762  28.321  28.853  1.00  0.00     0.049 A 
ATOM     40  N   UNL A   1      42.123  25.162  28.031  1.00  0.00    -0.248 NA
ATOM     41  C   UNL A   1      41.643  26.431  26.157  1.00  0.00     0.031 C 
ATOM     42  C   UNL A   1      42.753  29.679  29.419  1.00  0.00     0.029 A 
ATOM     43  N   UNL A   1      44.095  28.060  28.762  1.00  0.00    -0.354 N 
ATOM     44  C   UNL A   1      42.319  24.388  26.896  1.00  0.00     0.074 A 
ATOM     45  C   UNL A   1      41.755  25.146  25.812  1.00  0.00     0.031 C 
ATOM     46  C   UNL A   1      43.996  30.203  29.382  1.00  0.00     0.029 A 
ATOM     47  C   UNL A   1      44.922  29.162  28.982  1.00  0.00     0.049 A 
ATOM     48  H   UNL A   1      44.448  27.164  28.558  1.00  0.00     0.167 HD
ATOM     49  C   UNL A   1      43.189  23.338  26.916  1.00  0.00     0.034 A 
ATOM     50  C   UNL A   1      46.275  29.223  28.853  1.00  0.00     0.034 A 
ATOM     51  C   UNL A   1      43.551  23.006  28.283  1.00  0.00     0.049 A 
ATOM     52  C   UNL A   1      46.765  27.830  28.994  1.00  0.00     0.074 A 
ATOM     53  C   UNL A   1      42.836  22.671  29.418  1.00  0.00     0.029 A 
ATOM     54  N   UNL A   1      44.790  23.409  28.739  1.00  0.00    -0.354 N 
ATOM     55  N   UNL A   1      46.640  27.140  30.095  1.00  0.00    -0.248 NA
ATOM     56  C   UNL A   1      46.921  27.036  27.784  1.00  0.00     0.031 C 
ATOM     57  C   UNL A   1      43.480  23.377  30.478  1.00  0.00     0.029 A 
ATOM     58  C   UNL A   1      44.613  24.012  29.961  1.00  0.00     0.049 A 
ATOM     59  H   UNL A   1      45.647  23.286  28.271  1.00  0.00     0.167 HD
ATOM     60  C   UNL A   1      46.240  25.878  29.683  1.00  0.00     0.074 A 
ATOM     61  C   UNL A   1      46.538  25.843  28.250  1.00  0.00     0.031 C 
ATOM     62  C   UNL A   1      45.441  25.093  30.468  1.00  0.00     0.034 A 
BRANCH  49  63
ATOM     63  C   UNL A   1      44.025  22.873  25.739  1.00  0.00     0.023 A 
ATOM     64  C   UNL A   1      44.050  21.487  25.493  1.00  0.00     0.031 A 
ATOM     65  C   UNL A   1      44.996  23.631  25.046  1.00  0.00     0.131 A 
ATOM     66  C   UNL A   1      45.070  20.905  24.721  1.00  0.00     0.055 A 
ATOM     67  C   UNL A   1      45.966  23.053  24.220  1.00  0.00     0.041 A 
ATOM     68  F   UNL A   1      45.128  24.954  25.184  1.00  0.00    -0.206 F 
ATOM     69  C   UNL A   1      46.032  21.679  24.085  1.00  0.00     0.022 A 
BRANCH  66  70
ATOM     70  S   UNL A   1      45.222  19.101  24.735  1.00  0.00     0.124 S 
ATOM     71  O   UNL A   1      43.867  18.701  25.099  1.00  0.00    -0.237 OA
ATOM     72  O   UNL A   1      45.630  18.825  23.362  1.00  0.00    -0.237 OA
ATOM     73  O   UNL A   1      46.242  18.857  25.752  1.00  0.00    -0.744 OA
ENDBRANCH  66  70
ENDBRANCH  49  63
BRANCH  50  74
ATOM     74  C   UNL A   1      47.092  30.351  28.317  1.00  0.00     0.023 A 
ATOM     75  C   UNL A   1      46.564  31.348  27.468  1.00  0.00     0.031 A 
ATOM     76  C   UNL A   1      48.376  30.599  28.856  1.00  0.00     0.131 A 
ATOM     77  C   UNL A   1      47.305  32.527  27.201  1.00  0.00     0.055 A 
ATOM     78  C   UNL A   1      49.102  31.763  28.588  1.00  0.00     0.041 A 
ATOM     79  F   UNL A   1      48.938  29.752  29.734  1.00  0.00    -0.206 F 
ATOM     80  C   UNL A   1      48.563  32.739  27.768  1.00  0.00     0.022 A 
BRANCH  77  81
ATOM     81  S   UNL A   1      46.598  33.862  26.177  1.00  0.00     0.124 S 
ATOM     82  O   UNL A   1      47.742  34.278  25.374  1.00  0.00    -0.237 OA
ATOM     83  O   UNL A   1      45.521  33.180  25.469  1.00  0.00    -0.237 OA
ATOM     84  O   UNL A   1      46.149  34.848  27.163  1.00  0.00    -0.744 OA
ENDBRANCH  77  81
ENDBRANCH  50  74
BRANCH  62  85
ATOM     85  C   UNL A   1      45.250  25.480  31.925  1.00  0.00     0.023 A 
ATOM     86  C   UNL A   1      46.138  25.167  32.982  1.00  0.00     0.031 A 
ATOM     87  C   UNL A   1      44.153  26.308  32.226  1.00  0.00     0.131 A 
ATOM     88  C   UNL A   1      45.901  25.672  34.279  1.00  0.00     0.055 A 
ATOM     89  C   UNL A   1      43.936  26.826  33.503  1.00  0.00     0.041 A 
ATOM     90  F   UNL A   1      43.285  26.663  31.265  1.00  0.00    -0.206 F 
ATOM     91  C   UNL A   1      44.806  26.504  34.536  1.00  0.00     0.022 A 
BRANCH  88  92
ATOM     92  S   UNL A   1      46.999  25.239  35.669  1.00  0.00     0.124 S 
ATOM     93  O   UNL A   1      48.279  24.967  35.026  1.00  0.00    -0.237 OA
ATOM     94  O   UNL A   1      46.946  26.438  36.502  1.00  0.00    -0.237 OA
ATOM     95  O   UNL A   1      46.353  24.064  36.259  1.00  0.00    -0.744 OA
ENDBRANCH  88  92
ENDBRANCH  62  85
ENDBRANCH  36  37
ENDBRANCH  28  31
ENDBRANCH  26  27
ENDBRANCH   1  26
TORSDOF 16
ENDMDL
