MODEL 1
REMARK VINA RESULT:     -11.8      0.000      0.000
REMARK SMILES C[C@@H](C(=O)NCCCNC(=O)c1ccc(-c2c3nc(c(-c4cc(S(=O)(=O)[O-])ccc4F)c4ccc([nH]4)c(-c4cc(S(=O)(=O)[O-])ccc4F)c4nc(c(-c5cc(S(=O)(=O)[O-])ccc5F)c5ccc2[nH]5)C=C4)C=C3)cc1)c1ccc(=O)n(C(F)F)c1
REMARK SMILES IDX 7 1 6 2 5 3 3 4 4 5 2 7 1 8 75 9 76 10 84 11 77 12 80 13
REMARK SMILES IDX 78 14 79 15 81 16 82 17 83 18 8 19 9 20 10 21 11 23 12 24
REMARK SMILES IDX 13 25 74 26 14 27 73 28 15 29 16 30 17 31 67 32 18 33 72 34
REMARK SMILES IDX 66 35 68 36 19 37 71 38 65 39 64 40 20 42 52 43 32 44 51 45
REMARK SMILES IDX 33 46 36 47 50 48 69 49 34 50 35 51 49 53 70 54 37 55 21 56
REMARK SMILES IDX 22 57 30 58 23 59 29 60 31 61 28 62 24 63 25 64 26 65 27 66
REMARK SMILES IDX 53 67 54 68 62 69 55 70 61 71 63 72 60 73 56 74 57 75 58 76
REMARK SMILES IDX 59 77 38 78 39 79 47 80 40 81 46 82 48 83 45 84 41 85 42 86
REMARK SMILES IDX 43 87 44 88
REMARK H PARENT 5 6 9 22 68 41 36 52
REMARK Flexibility Score: inf
ROOT
ATOM      1  C   UNL A   1      32.167  30.002  25.560  1.00  0.00     0.042 C 
ENDROOT
BRANCH   1   2
ATOM      2  C   UNL A   1      33.040  28.791  25.223  1.00  0.00     0.117 C 
BRANCH   2   3
ATOM      3  N   UNL A   1      33.567  28.872  23.872  1.00  0.00    -0.356 N 
ATOM      4  C   UNL A   1      33.367  28.085  22.778  1.00  0.00     0.227 C 
ATOM      5  O   UNL A   1      34.047  28.356  21.785  1.00  0.00    -0.274 OA
ATOM      6  H   UNL A   1      34.175  29.630  23.720  1.00  0.00     0.163 HD
BRANCH   4   7
ATOM      7  C   UNL A   1      32.295  26.965  22.784  1.00  0.00     0.107 C 
ATOM      8  C   UNL A   1      32.479  26.052  21.567  1.00  0.00     0.023 C 
BRANCH   7   9
ATOM      9  C   UNL A   1      30.882  27.566  22.915  1.00  0.00    -0.019 A 
ATOM     10  C   UNL A   1      29.828  26.863  23.631  1.00  0.00     0.012 A 
ATOM     11  C   UNL A   1      30.557  28.746  22.347  1.00  0.00     0.099 A 
ATOM     12  C   UNL A   1      28.578  27.339  23.690  1.00  0.00     0.072 A 
ATOM     13  N   UNL A   1      29.268  29.258  22.383  1.00  0.00    -0.258 N 
ATOM     14  C   UNL A   1      28.224  28.615  23.019  1.00  0.00     0.254 A 
ATOM     15  O   UNL A   1      27.061  29.006  23.077  1.00  0.00    -0.269 OA
BRANCH  13  16
ATOM     16  C   UNL A   1      28.945  30.465  21.667  1.00  0.00     0.451 C 
ATOM     17  F   UNL A   1      27.968  30.245  20.753  1.00  0.00    -0.185 F 
ATOM     18  F   UNL A   1      28.512  31.435  22.511  1.00  0.00    -0.185 F 
ENDBRANCH  13  16
ENDBRANCH   7   9
ENDBRANCH   4   7
ENDBRANCH   2   3
ENDBRANCH   1   2
BRANCH   1  19
ATOM     19  C   UNL A   1      32.342  30.533  26.983  1.00  0.00     0.118 C 
BRANCH  19  20
ATOM     20  N   UNL A   1      32.454  31.982  27.031  1.00  0.00    -0.352 N 
ATOM     21  C   UNL A   1      33.435  32.781  27.566  1.00  0.00     0.251 C 
ATOM     22  H   UNL A   1      31.708  32.469  26.612  1.00  0.00     0.163 HD
ATOM     23  O   UNL A   1      33.227  33.987  27.673  1.00  0.00    -0.269 OA
BRANCH  21  24
ATOM     24  C   UNL A   1      34.713  32.203  28.043  1.00  0.00     0.039 A 
ATOM     25  C   UNL A   1      35.858  33.005  28.030  1.00  0.00     0.014 A 
ATOM     26  C   UNL A   1      34.798  30.880  28.485  1.00  0.00     0.014 A 
ATOM     27  C   UNL A   1      37.060  32.513  28.546  1.00  0.00     0.010 A 
ATOM     28  C   UNL A   1      35.981  30.411  29.059  1.00  0.00     0.010 A 
ATOM     29  C   UNL A   1      37.118  31.231  29.118  1.00  0.00    -0.014 A 
BRANCH  29  30
ATOM     30  C   UNL A   1      38.332  30.771  29.848  1.00  0.00     0.031 A 
ATOM     31  C   UNL A   1      39.253  29.744  29.245  1.00  0.00     0.074 A 
ATOM     32  C   UNL A   1      38.560  31.236  31.094  1.00  0.00     0.049 A 
ATOM     33  N   UNL A   1      40.305  29.172  29.773  1.00  0.00    -0.248 NA
ATOM     34  C   UNL A   1      38.945  29.290  27.880  1.00  0.00     0.031 C 
ATOM     35  C   UNL A   1      37.720  32.211  31.797  1.00  0.00     0.029 A 
ATOM     36  N   UNL A   1      39.549  30.945  32.002  1.00  0.00    -0.354 N 
ATOM     37  C   UNL A   1      40.779  28.283  28.814  1.00  0.00     0.074 A 
ATOM     38  C   UNL A   1      39.876  28.367  27.684  1.00  0.00     0.031 C 
ATOM     39  C   UNL A   1      38.237  32.447  33.012  1.00  0.00     0.029 A 
ATOM     40  C   UNL A   1      39.407  31.598  33.206  1.00  0.00     0.049 A 
ATOM     41  H   UNL A   1      40.291  30.327  31.809  1.00  0.00     0.167 HD
ATOM     42  C   UNL A   1      41.869  27.480  28.872  1.00  0.00     0.034 A 
ATOM     43  C   UNL A   1      40.117  31.504  34.349  1.00  0.00     0.034 A 
ATOM     44  C   UNL A   1      42.766  27.417  30.001  1.00  0.00     0.049 A 
ATOM     45  C   UNL A   1      41.294  30.560  34.397  1.00  0.00     0.074 A 
ATOM     46  C   UNL A   1      43.943  26.698  30.122  1.00  0.00     0.029 A 
ATOM     47  N   UNL A   1      42.579  28.075  31.208  1.00  0.00    -0.354 N 
ATOM     48  N   UNL A   1      41.772  29.788  33.448  1.00  0.00    -0.248 NA
ATOM     49  C   UNL A   1      42.029  30.476  35.667  1.00  0.00     0.031 C 
ATOM     50  C   UNL A   1      44.419  26.850  31.428  1.00  0.00     0.029 A 
ATOM     51  C   UNL A   1      43.588  27.733  32.097  1.00  0.00     0.049 A 
ATOM     52  H   UNL A   1      41.839  28.694  31.406  1.00  0.00     0.167 HD
ATOM     53  C   UNL A   1      42.877  29.148  34.003  1.00  0.00     0.074 A 
ATOM     54  C   UNL A   1      43.013  29.646  35.354  1.00  0.00     0.031 C 
ATOM     55  C   UNL A   1      43.705  28.226  33.448  1.00  0.00     0.034 A 
BRANCH  42  56
ATOM     56  C   UNL A   1      42.149  26.572  27.699  1.00  0.00     0.023 A 
ATOM     57  C   UNL A   1      41.669  25.253  27.648  1.00  0.00     0.031 A 
ATOM     58  C   UNL A   1      42.867  27.057  26.591  1.00  0.00     0.131 A 
ATOM     59  C   UNL A   1      41.941  24.453  26.526  1.00  0.00     0.055 A 
ATOM     60  C   UNL A   1      43.076  26.280  25.450  1.00  0.00     0.041 A 
ATOM     61  F   UNL A   1      43.365  28.303  26.593  1.00  0.00    -0.206 F 
ATOM     62  C   UNL A   1      42.617  24.967  25.416  1.00  0.00     0.022 A 
BRANCH  59  63
ATOM     63  S   UNL A   1      41.478  22.701  26.573  1.00  0.00     0.124 S 
ATOM     64  O   UNL A   1      40.022  22.777  26.485  1.00  0.00    -0.237 OA
ATOM     65  O   UNL A   1      42.162  22.161  25.404  1.00  0.00    -0.237 OA
ATOM     66  O   UNL A   1      41.994  22.244  27.863  1.00  0.00    -0.744 OA
ENDBRANCH  59  63
ENDBRANCH  42  56
BRANCH  43  67
ATOM     67  C   UNL A   1      39.721  32.275  35.566  1.00  0.00     0.023 A 
ATOM     68  C   UNL A   1      38.926  31.690  36.565  1.00  0.00     0.031 A 
ATOM     69  C   UNL A   1      40.050  33.636  35.705  1.00  0.00     0.131 A 
ATOM     70  C   UNL A   1      38.425  32.478  37.613  1.00  0.00     0.055 A 
ATOM     71  C   UNL A   1      39.611  34.397  36.790  1.00  0.00     0.041 A 
ATOM     72  F   UNL A   1      40.806  34.252  34.781  1.00  0.00    -0.206 F 
ATOM     73  C   UNL A   1      38.775  33.824  37.741  1.00  0.00     0.022 A 
BRANCH  70  74
ATOM     74  S   UNL A   1      37.188  31.753  38.725  1.00  0.00     0.124 S 
ATOM     75  O   UNL A   1      37.871  31.826  40.012  1.00  0.00    -0.237 OA
ATOM     76  O   UNL A   1      36.056  32.655  38.546  1.00  0.00    -0.237 OA
ATOM     77  O   UNL A   1      37.001  30.405  38.192  1.00  0.00    -0.744 OA
ENDBRANCH  70  74
ENDBRANCH  43  67
BRANCH  55  78
ATOM     78  C   UNL A   1      44.843  27.723  34.301  1.00  0.00     0.023 A 
ATOM     79  C   UNL A   1      44.698  26.597  35.130  1.00  0.00     0.031 A 
ATOM     80  C   UNL A   1      46.086  28.381  34.292  1.00  0.00     0.131 A 
ATOM     81  C   UNL A   1      45.758  26.197  35.957  1.00  0.00     0.055 A 
ATOM     82  C   UNL A   1      47.159  27.938  35.065  1.00  0.00     0.041 A 
ATOM     83  F   UNL A   1      46.280  29.465  33.522  1.00  0.00    -0.206 F 
ATOM     84  C   UNL A   1      46.994  26.847  35.915  1.00  0.00     0.022 A 
BRANCH  81  85
ATOM     85  S   UNL A   1      45.471  24.868  37.158  1.00  0.00     0.124 S 
ATOM     86  O   UNL A   1      44.988  23.787  36.304  1.00  0.00    -0.237 OA
ATOM     87  O   UNL A   1      46.798  24.677  37.737  1.00  0.00    -0.237 OA
ATOM     88  O   UNL A   1      44.476  25.435  38.065  1.00  0.00    -0.744 OA
ENDBRANCH  81  85
ENDBRANCH  55  78
ENDBRANCH  29  30
ENDBRANCH  21  24
ENDBRANCH  19  20
ENDBRANCH   1  19
TORSDOF 15
ENDMDL
MODEL 2
REMARK VINA RESULT:     -11.7      6.279     10.814
REMARK SMILES C[C@@H](C(=O)NCCCNC(=O)c1ccc(-c2c3nc(c(-c4cc(S(=O)(=O)[O-])ccc4F)c4ccc([nH]4)c(-c4cc(S(=O)(=O)[O-])ccc4F)c4nc(c(-c5cc(S(=O)(=O)[O-])ccc5F)c5ccc2[nH]5)C=C4)C=C3)cc1)c1ccc(=O)n(C(F)F)c1
REMARK SMILES IDX 7 1 6 2 5 3 3 4 4 5 2 7 1 8 75 9 76 10 84 11 77 12 80 13
REMARK SMILES IDX 78 14 79 15 81 16 82 17 83 18 8 19 9 20 10 21 11 23 12 24
REMARK SMILES IDX 13 25 74 26 14 27 73 28 15 29 16 30 17 31 67 32 18 33 72 34
REMARK SMILES IDX 66 35 68 36 19 37 71 38 65 39 64 40 20 42 52 43 32 44 51 45
REMARK SMILES IDX 33 46 36 47 50 48 69 49 34 50 35 51 49 53 70 54 37 55 21 56
REMARK SMILES IDX 22 57 30 58 23 59 29 60 31 61 28 62 24 63 25 64 26 65 27 66
REMARK SMILES IDX 53 67 54 68 62 69 55 70 61 71 63 72 60 73 56 74 57 75 58 76
REMARK SMILES IDX 59 77 38 78 39 79 47 80 40 81 46 82 48 83 45 84 41 85 42 86
REMARK SMILES IDX 43 87 44 88
REMARK H PARENT 5 6 9 22 68 41 36 52
REMARK Flexibility Score: inf
ROOT
ATOM      1  C   UNL A   1      35.935  21.631  25.870  1.00  0.00     0.042 C 
ENDROOT
BRANCH   1   2
ATOM      2  C   UNL A   1      35.316  22.983  26.232  1.00  0.00     0.117 C 
BRANCH   2   3
ATOM      3  N   UNL A   1      34.118  22.823  27.038  1.00  0.00    -0.356 N 
ATOM      4  C   UNL A   1      32.798  22.960  26.727  1.00  0.00     0.227 C 
ATOM      5  O   UNL A   1      32.007  22.857  27.669  1.00  0.00    -0.274 OA
ATOM      6  H   UNL A   1      34.290  22.570  27.973  1.00  0.00     0.163 HD
BRANCH   4   7
ATOM      7  C   UNL A   1      32.339  23.164  25.261  1.00  0.00     0.107 C 
ATOM      8  C   UNL A   1      30.983  23.878  25.226  1.00  0.00     0.023 C 
BRANCH   7   9
ATOM      9  C   UNL A   1      32.370  21.830  24.490  1.00  0.00    -0.019 A 
ATOM     10  C   UNL A   1      32.170  21.787  23.049  1.00  0.00     0.012 A 
ATOM     11  C   UNL A   1      32.549  20.650  25.120  1.00  0.00     0.099 A 
ATOM     12  C   UNL A   1      32.121  20.629  22.379  1.00  0.00     0.072 A 
ATOM     13  N   UNL A   1      32.494  19.435  24.453  1.00  0.00    -0.258 N 
ATOM     14  C   UNL A   1      32.273  19.338  23.093  1.00  0.00     0.254 A 
ATOM     15  O   UNL A   1      32.199  18.296  22.445  1.00  0.00    -0.269 OA
BRANCH  13  16
ATOM     16  C   UNL A   1      32.580  18.199  25.186  1.00  0.00     0.451 C 
ATOM     17  F   UNL A   1      33.686  17.497  24.833  1.00  0.00    -0.185 F 
ATOM     18  F   UNL A   1      32.642  18.425  26.522  1.00  0.00    -0.185 F 
ENDBRANCH  13  16
ENDBRANCH   7   9
ENDBRANCH   4   7
ENDBRANCH   2   3
ENDBRANCH   1   2
BRANCH   1  19
ATOM     19  C   UNL A   1      37.219  21.722  25.046  1.00  0.00     0.118 C 
BRANCH  19  20
ATOM     20  N   UNL A   1      38.200  20.717  25.423  1.00  0.00    -0.352 N 
ATOM     21  C   UNL A   1      39.425  20.851  26.031  1.00  0.00     0.251 C 
ATOM     22  H   UNL A   1      37.945  19.790  25.208  1.00  0.00     0.163 HD
ATOM     23  O   UNL A   1      40.178  19.881  26.072  1.00  0.00    -0.269 OA
BRANCH  21  24
ATOM     24  C   UNL A   1      39.854  22.150  26.599  1.00  0.00     0.039 A 
ATOM     25  C   UNL A   1      40.805  22.151  27.624  1.00  0.00     0.014 A 
ATOM     26  C   UNL A   1      39.319  23.360  26.147  1.00  0.00     0.014 A 
ATOM     27  C   UNL A   1      41.287  23.364  28.126  1.00  0.00     0.010 A 
ATOM     28  C   UNL A   1      39.847  24.569  26.602  1.00  0.00     0.010 A 
ATOM     29  C   UNL A   1      40.854  24.584  27.580  1.00  0.00    -0.014 A 
BRANCH  29  30
ATOM     30  C   UNL A   1      41.502  25.869  27.963  1.00  0.00     0.031 A 
ATOM     31  C   UNL A   1      40.723  26.946  28.668  1.00  0.00     0.074 A 
ATOM     32  C   UNL A   1      42.785  26.085  27.605  1.00  0.00     0.049 A 
ATOM     33  N   UNL A   1      41.104  28.153  29.002  1.00  0.00    -0.248 NA
ATOM     34  C   UNL A   1      39.332  26.635  29.033  1.00  0.00     0.031 C 
ATOM     35  C   UNL A   1      43.634  25.127  26.891  1.00  0.00     0.029 A 
ATOM     36  N   UNL A   1      43.600  27.179  27.773  1.00  0.00    -0.354 N 
ATOM     37  C   UNL A   1      40.002  28.751  29.603  1.00  0.00     0.074 A 
ATOM     38  C   UNL A   1      38.925  27.783  29.556  1.00  0.00     0.031 C 
ATOM     39  C   UNL A   1      44.848  25.667  26.698  1.00  0.00     0.029 A 
ATOM     40  C   UNL A   1      44.850  27.031  27.216  1.00  0.00     0.049 A 
ATOM     41  H   UNL A   1      43.315  27.993  28.249  1.00  0.00     0.167 HD
ATOM     42  C   UNL A   1      39.904  29.987  30.149  1.00  0.00     0.034 A 
ATOM     43  C   UNL A   1      45.874  27.902  27.104  1.00  0.00     0.034 A 
ATOM     44  C   UNL A   1      40.992  30.936  30.199  1.00  0.00     0.049 A 
ATOM     45  C   UNL A   1      45.713  29.290  27.675  1.00  0.00     0.074 A 
ATOM     46  C   UNL A   1      41.017  32.181  30.804  1.00  0.00     0.029 A 
ATOM     47  N   UNL A   1      42.234  30.760  29.607  1.00  0.00    -0.354 N 
ATOM     48  N   UNL A   1      44.687  29.805  28.313  1.00  0.00    -0.248 NA
ATOM     49  C   UNL A   1      46.846  30.211  27.516  1.00  0.00     0.031 C 
ATOM     50  C   UNL A   1      42.237  32.792  30.502  1.00  0.00     0.029 A 
ATOM     51  C   UNL A   1      43.010  31.896  29.783  1.00  0.00     0.049 A 
ATOM     52  H   UNL A   1      42.523  29.948  29.130  1.00  0.00     0.167 HD
ATOM     53  C   UNL A   1      45.066  31.102  28.650  1.00  0.00     0.074 A 
ATOM     54  C   UNL A   1      46.420  31.278  28.175  1.00  0.00     0.031 C 
ATOM     55  C   UNL A   1      44.356  32.065  29.291  1.00  0.00     0.034 A 
BRANCH  42  56
ATOM     56  C   UNL A   1      38.572  30.415  30.713  1.00  0.00     0.023 A 
ATOM     57  C   UNL A   1      37.603  31.062  29.926  1.00  0.00     0.031 A 
ATOM     58  C   UNL A   1      38.247  30.120  32.050  1.00  0.00     0.131 A 
ATOM     59  C   UNL A   1      36.370  31.423  30.493  1.00  0.00     0.055 A 
ATOM     60  C   UNL A   1      36.995  30.422  32.588  1.00  0.00     0.041 A 
ATOM     61  F   UNL A   1      39.140  29.521  32.852  1.00  0.00    -0.206 F 
ATOM     62  C   UNL A   1      36.050  31.083  31.810  1.00  0.00     0.022 A 
BRANCH  59  63
ATOM     63  S   UNL A   1      35.223  32.427  29.511  1.00  0.00     0.124 S 
ATOM     64  O   UNL A   1      34.330  32.949  30.542  1.00  0.00    -0.237 OA
ATOM     65  O   UNL A   1      36.110  33.398  28.882  1.00  0.00    -0.237 OA
ATOM     66  O   UNL A   1      34.613  31.459  28.601  1.00  0.00    -0.744 OA
ENDBRANCH  59  63
ENDBRANCH  42  56
BRANCH  43  67
ATOM     67  C   UNL A   1      47.127  27.526  26.381  1.00  0.00     0.023 A 
ATOM     68  C   UNL A   1      47.311  27.863  25.030  1.00  0.00     0.031 A 
ATOM     69  C   UNL A   1      48.119  26.744  27.001  1.00  0.00     0.131 A 
ATOM     70  C   UNL A   1      48.414  27.356  24.326  1.00  0.00     0.055 A 
ATOM     71  C   UNL A   1      49.254  26.306  26.316  1.00  0.00     0.041 A 
ATOM     72  F   UNL A   1      47.998  26.389  28.291  1.00  0.00    -0.206 F 
ATOM     73  C   UNL A   1      49.395  26.593  24.963  1.00  0.00     0.022 A 
BRANCH  70  74
ATOM     74  S   UNL A   1      48.472  27.587  22.527  1.00  0.00     0.124 S 
ATOM     75  O   UNL A   1      49.674  28.397  22.373  1.00  0.00    -0.237 OA
ATOM     76  O   UNL A   1      48.558  26.211  22.050  1.00  0.00    -0.237 OA
ATOM     77  O   UNL A   1      47.215  28.271  22.232  1.00  0.00    -0.744 OA
ENDBRANCH  70  74
ENDBRANCH  43  67
BRANCH  55  78
ATOM     78  C   UNL A   1      45.050  33.383  29.535  1.00  0.00     0.023 A 
ATOM     79  C   UNL A   1      45.058  34.399  28.564  1.00  0.00     0.031 A 
ATOM     80  C   UNL A   1      45.717  33.623  30.749  1.00  0.00     0.131 A 
ATOM     81  C   UNL A   1      45.768  35.586  28.801  1.00  0.00     0.055 A 
ATOM     82  C   UNL A   1      46.365  34.832  31.006  1.00  0.00     0.041 A 
ATOM     83  F   UNL A   1      45.746  32.686  31.711  1.00  0.00    -0.206 F 
ATOM     84  C   UNL A   1      46.404  35.817  30.023  1.00  0.00     0.022 A 
BRANCH  81  85
ATOM     85  S   UNL A   1      45.927  36.789  27.453  1.00  0.00     0.124 S 
ATOM     86  O   UNL A   1      47.240  37.369  27.718  1.00  0.00    -0.237 OA
ATOM     87  O   UNL A   1      45.832  35.943  26.266  1.00  0.00    -0.237 OA
ATOM     88  O   UNL A   1      44.796  37.690  27.661  1.00  0.00    -0.744 OA
ENDBRANCH  81  85
ENDBRANCH  55  78
ENDBRANCH  29  30
ENDBRANCH  21  24
ENDBRANCH  19  20
ENDBRANCH   1  19
TORSDOF 15
ENDMDL
MODEL 3
REMARK VINA RESULT:     -11.5      7.035     11.485
REMARK SMILES C[C@@H](C(=O)NCCCNC(=O)c1ccc(-c2c3nc(c(-c4cc(S(=O)(=O)[O-])ccc4F)c4ccc([nH]4)c(-c4cc(S(=O)(=O)[O-])ccc4F)c4nc(c(-c5cc(S(=O)(=O)[O-])ccc5F)c5ccc2[nH]5)C=C4)C=C3)cc1)c1ccc(=O)n(C(F)F)c1
REMARK SMILES IDX 7 1 6 2 5 3 3 4 4 5 2 7 1 8 75 9 76 10 84 11 77 12 80 13
REMARK SMILES IDX 78 14 79 15 81 16 82 17 83 18 8 19 9 20 10 21 11 23 12 24
REMARK SMILES IDX 13 25 74 26 14 27 73 28 15 29 16 30 17 31 67 32 18 33 72 34
REMARK SMILES IDX 66 35 68 36 19 37 71 38 65 39 64 40 20 42 52 43 32 44 51 45
REMARK SMILES IDX 33 46 36 47 50 48 69 49 34 50 35 51 49 53 70 54 37 55 21 56
REMARK SMILES IDX 22 57 30 58 23 59 29 60 31 61 28 62 24 63 25 64 26 65 27 66
REMARK SMILES IDX 53 67 54 68 62 69 55 70 61 71 63 72 60 73 56 74 57 75 58 76
REMARK SMILES IDX 59 77 38 78 39 79 47 80 40 81 46 82 48 83 45 84 41 85 42 86
REMARK SMILES IDX 43 87 44 88
REMARK H PARENT 5 6 9 22 68 41 36 52
REMARK Flexibility Score: inf
ROOT
ATOM      1  C   UNL A   1      37.748  20.549  25.113  1.00  0.00     0.042 C 
ENDROOT
BRANCH   1   2
ATOM      2  C   UNL A   1      36.641  21.601  25.207  1.00  0.00     0.117 C 
BRANCH   2   3
ATOM      3  N   UNL A   1      35.711  21.303  26.282  1.00  0.00    -0.356 N 
ATOM      4  C   UNL A   1      34.367  21.505  26.393  1.00  0.00     0.227 C 
ATOM      5  O   UNL A   1      33.869  21.235  27.489  1.00  0.00    -0.274 OA
ATOM      6  H   UNL A   1      36.123  20.879  27.068  1.00  0.00     0.163 HD
BRANCH   4   7
ATOM      7  C   UNL A   1      33.528  21.981  25.180  1.00  0.00     0.107 C 
ATOM      8  C   UNL A   1      32.301  22.762  25.662  1.00  0.00     0.023 C 
BRANCH   7   9
ATOM      9  C   UNL A   1      33.198  20.798  24.249  1.00  0.00    -0.019 A 
ATOM     10  C   UNL A   1      32.350  20.975  23.078  1.00  0.00     0.012 A 
ATOM     11  C   UNL A   1      33.651  19.552  24.496  1.00  0.00     0.099 A 
ATOM     12  C   UNL A   1      31.997  19.942  22.303  1.00  0.00     0.072 A 
ATOM     13  N   UNL A   1      33.294  18.462  23.716  1.00  0.00    -0.258 N 
ATOM     14  C   UNL A   1      32.465  18.570  22.615  1.00  0.00     0.254 A 
ATOM     15  O   UNL A   1      32.100  17.645  21.892  1.00  0.00    -0.269 OA
BRANCH  13  16
ATOM     16  C   UNL A   1      33.713  17.135  24.085  1.00  0.00     0.451 C 
ATOM     17  F   UNL A   1      34.776  17.174  24.926  1.00  0.00    -0.185 F 
ATOM     18  F   UNL A   1      32.715  16.462  24.709  1.00  0.00    -0.185 F 
ENDBRANCH  13  16
ENDBRANCH   7   9
ENDBRANCH   4   7
ENDBRANCH   2   3
ENDBRANCH   1   2
BRANCH   1  19
ATOM     19  C   UNL A   1      38.987  20.856  25.955  1.00  0.00     0.118 C 
BRANCH  19  20
ATOM     20  N   UNL A   1      39.917  19.739  26.012  1.00  0.00    -0.352 N 
ATOM     21  C   UNL A   1      41.284  19.726  26.152  1.00  0.00     0.251 C 
ATOM     22  H   UNL A   1      39.501  18.850  25.940  1.00  0.00     0.163 HD
ATOM     23  O   UNL A   1      41.890  18.672  25.973  1.00  0.00    -0.269 OA
BRANCH  21  24
ATOM     24  C   UNL A   1      42.028  20.965  26.479  1.00  0.00     0.039 A 
ATOM     25  C   UNL A   1      42.423  21.805  25.434  1.00  0.00     0.014 A 
ATOM     26  C   UNL A   1      42.355  21.296  27.797  1.00  0.00     0.014 A 
ATOM     27  C   UNL A   1      43.058  23.017  25.716  1.00  0.00     0.010 A 
ATOM     28  C   UNL A   1      42.930  22.536  28.082  1.00  0.00     0.010 A 
ATOM     29  C   UNL A   1      43.266  23.421  27.046  1.00  0.00    -0.014 A 
BRANCH  29  30
ATOM     30  C   UNL A   1      43.755  24.790  27.364  1.00  0.00     0.031 A 
ATOM     31  C   UNL A   1      42.822  25.835  27.916  1.00  0.00     0.074 A 
ATOM     32  C   UNL A   1      45.037  25.108  27.084  1.00  0.00     0.049 A 
ATOM     33  N   UNL A   1      43.058  27.096  28.172  1.00  0.00    -0.248 NA
ATOM     34  C   UNL A   1      41.442  25.414  28.202  1.00  0.00     0.031 C 
ATOM     35  C   UNL A   1      46.029  24.188  26.519  1.00  0.00     0.029 A 
ATOM     36  N   UNL A   1      45.727  26.288  27.218  1.00  0.00    -0.354 N 
ATOM     37  C   UNL A   1      41.859  27.624  28.637  1.00  0.00     0.074 A 
ATOM     38  C   UNL A   1      40.886  26.552  28.594  1.00  0.00     0.031 C 
ATOM     39  C   UNL A   1      47.197  24.832  26.370  1.00  0.00     0.029 A 
ATOM     40  C   UNL A   1      47.027  26.225  26.769  1.00  0.00     0.049 A 
ATOM     41  H   UNL A   1      45.329  27.104  27.600  1.00  0.00     0.167 HD
ATOM     42  C   UNL A   1      41.600  28.883  29.066  1.00  0.00     0.034 A 
ATOM     43  C   UNL A   1      47.970  27.184  26.658  1.00  0.00     0.034 A 
ATOM     44  C   UNL A   1      42.584  29.938  29.115  1.00  0.00     0.049 A 
ATOM     45  C   UNL A   1      47.631  28.588  27.096  1.00  0.00     0.074 A 
ATOM     46  C   UNL A   1      42.441  31.223  29.612  1.00  0.00     0.029 A 
ATOM     47  N   UNL A   1      43.882  29.843  28.633  1.00  0.00    -0.354 N 
ATOM     48  N   UNL A   1      46.512  29.045  27.610  1.00  0.00    -0.248 NA
ATOM     49  C   UNL A   1      48.681  29.605  26.942  1.00  0.00     0.031 C 
ATOM     50  C   UNL A   1      43.618  31.929  29.349  1.00  0.00     0.029 A 
ATOM     51  C   UNL A   1      44.529  31.063  28.769  1.00  0.00     0.049 A 
ATOM     52  H   UNL A   1      44.284  29.031  28.250  1.00  0.00     0.167 HD
ATOM     53  C   UNL A   1      46.737  30.396  27.862  1.00  0.00     0.074 A 
ATOM     54  C   UNL A   1      48.103  30.671  27.474  1.00  0.00     0.031 C 
ATOM     55  C   UNL A   1      45.889  31.329  28.365  1.00  0.00     0.034 A 
BRANCH  42  56
ATOM     56  C   UNL A   1      40.191  29.216  29.493  1.00  0.00     0.023 A 
ATOM     57  C   UNL A   1      39.815  29.268  30.846  1.00  0.00     0.031 A 
ATOM     58  C   UNL A   1      39.222  29.539  28.525  1.00  0.00     0.131 A 
ATOM     59  C   UNL A   1      38.496  29.601  31.192  1.00  0.00     0.055 A 
ATOM     60  C   UNL A   1      37.931  29.935  28.879  1.00  0.00     0.041 A 
ATOM     61  F   UNL A   1      39.519  29.488  27.218  1.00  0.00    -0.206 F 
ATOM     62  C   UNL A   1      37.560  29.961  30.219  1.00  0.00     0.022 A 
BRANCH  59  63
ATOM     63  S   UNL A   1      37.993  29.469  32.929  1.00  0.00     0.124 S 
ATOM     64  O   UNL A   1      37.050  30.578  33.050  1.00  0.00    -0.237 OA
ATOM     65  O   UNL A   1      37.417  28.131  32.991  1.00  0.00    -0.237 OA
ATOM     66  O   UNL A   1      39.246  29.643  33.663  1.00  0.00    -0.744 OA
ENDBRANCH  59  63
ENDBRANCH  42  56
BRANCH  43  67
ATOM     67  C   UNL A   1      49.307  26.882  26.064  1.00  0.00     0.023 A 
ATOM     68  C   UNL A   1      50.407  26.572  26.881  1.00  0.00     0.031 A 
ATOM     69  C   UNL A   1      49.530  26.991  24.679  1.00  0.00     0.131 A 
ATOM     70  C   UNL A   1      51.687  26.458  26.317  1.00  0.00     0.055 A 
ATOM     71  C   UNL A   1      50.793  26.802  24.115  1.00  0.00     0.041 A 
ATOM     72  F   UNL A   1      48.518  27.287  23.848  1.00  0.00    -0.206 F 
ATOM     73  C   UNL A   1      51.886  26.555  24.939  1.00  0.00     0.022 A 
BRANCH  70  74
ATOM     74  S   UNL A   1      53.114  26.328  27.432  1.00  0.00     0.124 S 
ATOM     75  O   UNL A   1      52.465  26.286  28.737  1.00  0.00    -0.237 OA
ATOM     76  O   UNL A   1      53.734  25.086  26.982  1.00  0.00    -0.237 OA
ATOM     77  O   UNL A   1      53.876  27.542  27.150  1.00  0.00    -0.744 OA
ENDBRANCH  70  74
ENDBRANCH  43  67
BRANCH  55  78
ATOM     78  C   UNL A   1      46.432  32.725  28.545  1.00  0.00     0.023 A 
ATOM     79  C   UNL A   1      46.587  33.600  27.455  1.00  0.00     0.031 A 
ATOM     80  C   UNL A   1      46.807  33.184  29.820  1.00  0.00     0.131 A 
ATOM     81  C   UNL A   1      47.155  34.868  27.653  1.00  0.00     0.055 A 
ATOM     82  C   UNL A   1      47.309  34.471  30.020  1.00  0.00     0.041 A 
ATOM     83  F   UNL A   1      46.686  32.390  30.896  1.00  0.00    -0.206 F 
ATOM     84  C   UNL A   1      47.498  35.316  28.930  1.00  0.00     0.022 A 
BRANCH  81  85
ATOM     85  S   UNL A   1      47.526  35.889  26.201  1.00  0.00     0.124 S 
ATOM     86  O   UNL A   1      46.398  36.817  26.188  1.00  0.00    -0.237 OA
ATOM     87  O   UNL A   1      48.821  36.467  26.547  1.00  0.00    -0.237 OA
ATOM     88  O   UNL A   1      47.550  34.928  25.101  1.00  0.00    -0.744 OA
ENDBRANCH  81  85
ENDBRANCH  55  78
ENDBRANCH  29  30
ENDBRANCH  21  24
ENDBRANCH  19  20
ENDBRANCH   1  19
TORSDOF 15
ENDMDL
