MODEL 1
REMARK VINA RESULT:     -12.3      0.000      0.000
REMARK SMILES C[C@H](NC(=O)N1CC[C@H](C(=O)NCCCNC(=O)c2ccc(-c3c4nc(c(-c5cc(S(=O)(=O)[O-])ccc5F)c5ccc([nH]5)c(-c5cc(S(=O)(=O)[O-])ccc5F)c5nc(c(-c6cc(S(=O)(=O)[O-])ccc6F)c6ccc3[nH]6)C=C5)C=C4)cc2)[C@H]1C)c1ccsc1
REMARK SMILES IDX 14 1 13 2 12 3 10 4 11 5 9 7 6 8 7 9 82 10 8 11 83 12 4 13
REMARK SMILES IDX 3 14 5 16 2 17 1 18 84 19 85 20 88 21 86 22 87 23 15 24
REMARK SMILES IDX 16 25 17 26 18 28 19 29 20 30 81 31 21 32 80 33 22 34 23 35
REMARK SMILES IDX 24 36 74 37 25 38 79 39 73 40 75 41 26 42 78 43 72 44 71 45
REMARK SMILES IDX 27 47 59 48 39 49 58 50 40 51 43 52 57 53 76 54 41 55 42 56
REMARK SMILES IDX 56 58 77 59 44 60 28 61 29 62 37 63 30 64 36 65 38 66 35 67
REMARK SMILES IDX 31 68 32 69 33 70 34 71 60 72 61 73 69 74 62 75 68 76 70 77
REMARK SMILES IDX 67 78 63 79 64 80 65 81 66 82 45 83 46 84 54 85 47 86 53 87
REMARK SMILES IDX 55 88 52 89 48 90 49 91 50 92 51 93
REMARK H PARENT 12 6 3 15 16 27 75 46 43 57
REMARK Flexibility Score: inf
ROOT
ATOM      1  C   UNL A   1      31.430  31.963  26.496  1.00  0.00     0.042 C 
ENDROOT
BRANCH   1   2
ATOM      2  C   UNL A   1      31.464  30.467  26.214  1.00  0.00     0.117 C 
BRANCH   2   3
ATOM      3  N   UNL A   1      32.338  30.139  25.108  1.00  0.00    -0.356 N 
ATOM      4  C   UNL A   1      32.775  28.967  24.598  1.00  0.00     0.225 C 
ATOM      5  O   UNL A   1      33.555  29.057  23.640  1.00  0.00    -0.275 OA
ATOM      6  H   UNL A   1      32.682  30.929  24.632  1.00  0.00     0.163 HD
BRANCH   4   7
ATOM      7  C   UNL A   1      32.451  27.585  25.163  1.00  0.00     0.102 C 
ATOM      8  N   UNL A   1      32.739  25.795  23.589  1.00  0.00    -0.321 N 
ATOM      9  C   UNL A   1      31.385  26.296  23.497  1.00  0.00     0.122 C 
ATOM     10  C   UNL A   1      33.492  26.587  24.582  1.00  0.00     0.096 C 
ATOM     11  C   UNL A   1      31.141  26.862  24.874  1.00  0.00     0.037 C 
ATOM     12  C   UNL A   1      34.066  25.716  25.698  1.00  0.00     0.032 C 
BRANCH   8  13
ATOM     13  C   UNL A   1      33.315  25.371  22.421  1.00  0.00     0.318 C 
ATOM     14  N   UNL A   1      33.576  24.040  22.332  1.00  0.00    -0.331 N 
ATOM     15  H   UNL A   1      33.987  23.731  21.493  1.00  0.00     0.165 HD
ATOM     16  O   UNL A   1      33.482  26.096  21.444  1.00  0.00    -0.249 OA
BRANCH  14  17
ATOM     17  C   UNL A   1      33.318  23.024  23.334  1.00  0.00     0.112 C 
ATOM     18  C   UNL A   1      32.366  21.933  22.838  1.00  0.00     0.036 C 
BRANCH  17  19
ATOM     19  C   UNL A   1      34.601  22.421  23.862  1.00  0.00    -0.015 A 
ATOM     20  C   UNL A   1      35.886  23.002  23.564  1.00  0.00     0.017 A 
ATOM     21  C   UNL A   1      34.762  21.309  24.671  1.00  0.00     0.070 A 
ATOM     22  C   UNL A   1      36.932  22.344  24.166  1.00  0.00     0.065 A 
ATOM     23  S   UNL A   1      36.400  20.998  25.067  1.00  0.00    -0.152 S 
ENDBRANCH  17  19
ENDBRANCH  14  17
ENDBRANCH   8  13
ENDBRANCH   4   7
ENDBRANCH   2   3
ENDBRANCH   1   2
BRANCH   1  24
ATOM     24  C   UNL A   1      32.698  32.452  27.179  1.00  0.00     0.118 C 
BRANCH  24  25
ATOM     25  N   UNL A   1      32.585  33.854  27.561  1.00  0.00    -0.352 N 
ATOM     26  C   UNL A   1      33.179  34.528  28.595  1.00  0.00     0.251 C 
ATOM     27  H   UNL A   1      31.994  34.397  26.991  1.00  0.00     0.163 HD
ATOM     28  O   UNL A   1      32.707  35.607  28.961  1.00  0.00    -0.269 OA
BRANCH  26  29
ATOM     29  C   UNL A   1      34.369  33.966  29.264  1.00  0.00     0.039 A 
ATOM     30  C   UNL A   1      35.643  34.393  28.880  1.00  0.00     0.014 A 
ATOM     31  C   UNL A   1      34.227  32.983  30.247  1.00  0.00     0.014 A 
ATOM     32  C   UNL A   1      36.769  33.872  29.520  1.00  0.00     0.010 A 
ATOM     33  C   UNL A   1      35.339  32.541  30.950  1.00  0.00     0.010 A 
ATOM     34  C   UNL A   1      36.624  32.964  30.580  1.00  0.00    -0.014 A 
BRANCH  34  35
ATOM     35  C   UNL A   1      37.793  32.396  31.296  1.00  0.00     0.031 A 
ATOM     36  C   UNL A   1      38.551  31.250  30.678  1.00  0.00     0.074 A 
ATOM     37  C   UNL A   1      38.112  32.845  32.525  1.00  0.00     0.049 A 
ATOM     38  N   UNL A   1      39.494  30.505  31.191  1.00  0.00    -0.248 NA
ATOM     39  C   UNL A   1      38.160  30.867  29.311  1.00  0.00     0.031 C 
ATOM     40  C   UNL A   1      37.425  33.928  33.235  1.00  0.00     0.029 A 
ATOM     41  N   UNL A   1      39.084  32.438  33.403  1.00  0.00    -0.354 N 
ATOM     42  C   UNL A   1      39.790  29.550  30.224  1.00  0.00     0.074 A 
ATOM     43  C   UNL A   1      38.879  29.772  29.121  1.00  0.00     0.031 C 
ATOM     44  C   UNL A   1      38.010  34.111  34.429  1.00  0.00     0.029 A 
ATOM     45  C   UNL A   1      39.077  33.129  34.594  1.00  0.00     0.049 A 
ATOM     46  H   UNL A   1      39.726  31.721  33.201  1.00  0.00     0.167 HD
ATOM     47  C   UNL A   1      40.751  28.594  30.243  1.00  0.00     0.034 A 
ATOM     48  C   UNL A   1      39.834  32.972  35.697  1.00  0.00     0.034 A 
ATOM     49  C   UNL A   1      41.666  28.411  31.343  1.00  0.00     0.049 A 
ATOM     50  C   UNL A   1      40.889  31.895  35.702  1.00  0.00     0.074 A 
ATOM     51  C   UNL A   1      42.712  27.513  31.455  1.00  0.00     0.029 A 
ATOM     52  N   UNL A   1      41.644  29.145  32.523  1.00  0.00    -0.354 N 
ATOM     53  N   UNL A   1      41.181  31.021  34.765  1.00  0.00    -0.248 NA
ATOM     54  C   UNL A   1      41.722  31.787  36.906  1.00  0.00     0.031 C 
ATOM     55  C   UNL A   1      43.283  27.663  32.724  1.00  0.00     0.029 A 
ATOM     56  C   UNL A   1      42.642  28.704  33.376  1.00  0.00     0.049 A 
ATOM     57  H   UNL A   1      41.010  29.872  32.723  1.00  0.00     0.167 HD
ATOM     58  C   UNL A   1      42.255  30.285  35.255  1.00  0.00     0.074 A 
ATOM     59  C   UNL A   1      42.564  30.824  36.565  1.00  0.00     0.031 C 
ATOM     60  C   UNL A   1      42.930  29.259  34.677  1.00  0.00     0.034 A 
BRANCH  47  61
ATOM     61  C   UNL A   1      40.840  27.671  29.051  1.00  0.00     0.023 A 
ATOM     62  C   UNL A   1      41.783  27.877  28.028  1.00  0.00     0.031 A 
ATOM     63  C   UNL A   1      39.951  26.590  28.918  1.00  0.00     0.131 A 
ATOM     64  C   UNL A   1      41.761  27.068  26.882  1.00  0.00     0.055 A 
ATOM     65  C   UNL A   1      39.993  25.734  27.814  1.00  0.00     0.041 A 
ATOM     66  F   UNL A   1      39.015  26.354  29.850  1.00  0.00    -0.206 F 
ATOM     67  C   UNL A   1      40.890  25.980  26.780  1.00  0.00     0.022 A 
BRANCH  64  68
ATOM     68  S   UNL A   1      42.788  27.547  25.466  1.00  0.00     0.124 S 
ATOM     69  O   UNL A   1      42.717  26.347  24.633  1.00  0.00    -0.237 OA
ATOM     70  O   UNL A   1      42.092  28.721  24.954  1.00  0.00    -0.237 OA
ATOM     71  O   UNL A   1      44.097  27.805  26.063  1.00  0.00    -0.744 OA
ENDBRANCH  64  68
ENDBRANCH  47  61
BRANCH  48  72
ATOM     72  C   UNL A   1      39.626  33.845  36.889  1.00  0.00     0.023 A 
ATOM     73  C   UNL A   1      39.031  33.340  38.056  1.00  0.00     0.031 A 
ATOM     74  C   UNL A   1      39.980  35.206  36.866  1.00  0.00     0.131 A 
ATOM     75  C   UNL A   1      38.759  34.198  39.132  1.00  0.00     0.055 A 
ATOM     76  C   UNL A   1      39.757  36.044  37.960  1.00  0.00     0.041 A 
ATOM     77  F   UNL A   1      40.559  35.739  35.778  1.00  0.00    -0.206 F 
ATOM     78  C   UNL A   1      39.130  35.544  39.098  1.00  0.00     0.022 A 
BRANCH  75  79
ATOM     79  S   UNL A   1      37.828  33.548  40.546  1.00  0.00     0.124 S 
ATOM     80  O   UNL A   1      36.623  33.041  39.899  1.00  0.00    -0.237 OA
ATOM     81  O   UNL A   1      38.745  32.542  41.074  1.00  0.00    -0.237 OA
ATOM     82  O   UNL A   1      37.637  34.721  41.395  1.00  0.00    -0.744 OA
ENDBRANCH  75  79
ENDBRANCH  48  72
BRANCH  60  83
ATOM     83  C   UNL A   1      44.105  28.697  35.438  1.00  0.00     0.023 A 
ATOM     84  C   UNL A   1      43.956  27.646  36.357  1.00  0.00     0.031 A 
ATOM     85  C   UNL A   1      45.392  29.226  35.234  1.00  0.00     0.131 A 
ATOM     86  C   UNL A   1      45.070  27.188  37.076  1.00  0.00     0.055 A 
ATOM     87  C   UNL A   1      46.506  28.726  35.908  1.00  0.00     0.041 A 
ATOM     88  F   UNL A   1      45.588  30.232  34.366  1.00  0.00    -0.206 F 
ATOM     89  C   UNL A   1      46.345  27.709  36.844  1.00  0.00     0.022 A 
BRANCH  86  90
ATOM     90  S   UNL A   1      44.817  25.950  38.377  1.00  0.00     0.124 S 
ATOM     91  O   UNL A   1      43.968  24.972  37.704  1.00  0.00    -0.237 OA
ATOM     92  O   UNL A   1      46.180  25.518  38.668  1.00  0.00    -0.237 OA
ATOM     93  O   UNL A   1      44.166  26.705  39.447  1.00  0.00    -0.744 OA
ENDBRANCH  86  90
ENDBRANCH  60  83
ENDBRANCH  34  35
ENDBRANCH  26  29
ENDBRANCH  24  25
ENDBRANCH   1  24
TORSDOF 16
ENDMDL
MODEL 2
REMARK VINA RESULT:     -12.0      5.896     11.779
REMARK SMILES C[C@H](NC(=O)N1CC[C@H](C(=O)NCCCNC(=O)c2ccc(-c3c4nc(c(-c5cc(S(=O)(=O)[O-])ccc5F)c5ccc([nH]5)c(-c5cc(S(=O)(=O)[O-])ccc5F)c5nc(c(-c6cc(S(=O)(=O)[O-])ccc6F)c6ccc3[nH]6)C=C5)C=C4)cc2)[C@H]1C)c1ccsc1
REMARK SMILES IDX 14 1 13 2 12 3 10 4 11 5 9 7 6 8 7 9 82 10 8 11 83 12 4 13
REMARK SMILES IDX 3 14 5 16 2 17 1 18 84 19 85 20 88 21 86 22 87 23 15 24
REMARK SMILES IDX 16 25 17 26 18 28 19 29 20 30 81 31 21 32 80 33 22 34 23 35
REMARK SMILES IDX 24 36 74 37 25 38 79 39 73 40 75 41 26 42 78 43 72 44 71 45
REMARK SMILES IDX 27 47 59 48 39 49 58 50 40 51 43 52 57 53 76 54 41 55 42 56
REMARK SMILES IDX 56 58 77 59 44 60 28 61 29 62 37 63 30 64 36 65 38 66 35 67
REMARK SMILES IDX 31 68 32 69 33 70 34 71 60 72 61 73 69 74 62 75 68 76 70 77
REMARK SMILES IDX 67 78 63 79 64 80 65 81 66 82 45 83 46 84 54 85 47 86 53 87
REMARK SMILES IDX 55 88 52 89 48 90 49 91 50 92 51 93
REMARK H PARENT 12 6 3 15 16 27 75 46 43 57
REMARK Flexibility Score: inf
ROOT
ATOM      1  C   UNL A   1      38.124  19.825  25.011  1.00  0.00     0.042 C 
ENDROOT
BRANCH   1   2
ATOM      2  C   UNL A   1      37.076  20.891  24.723  1.00  0.00     0.117 C 
BRANCH   2   3
ATOM      3  N   UNL A   1      36.107  21.007  25.792  1.00  0.00    -0.356 N 
ATOM      4  C   UNL A   1      35.008  21.774  25.958  1.00  0.00     0.225 C 
ATOM      5  O   UNL A   1      34.411  21.631  27.034  1.00  0.00    -0.275 OA
ATOM      6  H   UNL A   1      36.285  20.405  26.550  1.00  0.00     0.163 HD
BRANCH   4   7
ATOM      7  C   UNL A   1      34.519  22.835  24.973  1.00  0.00     0.102 C 
ATOM      8  N   UNL A   1      32.434  23.855  25.593  1.00  0.00    -0.321 N 
ATOM      9  C   UNL A   1      32.170  22.689  24.777  1.00  0.00     0.122 C 
ATOM     10  C   UNL A   1      33.889  23.989  25.805  1.00  0.00     0.096 C 
ATOM     11  C   UNL A   1      33.424  22.567  23.947  1.00  0.00     0.037 C 
ATOM     12  C   UNL A   1      34.420  25.337  25.320  1.00  0.00     0.032 C 
BRANCH   8  13
ATOM     13  C   UNL A   1      31.535  24.120  26.591  1.00  0.00     0.318 C 
ATOM     14  N   UNL A   1      30.764  25.226  26.422  1.00  0.00    -0.331 N 
ATOM     15  H   UNL A   1      30.114  25.419  27.136  1.00  0.00     0.165 HD
ATOM     16  O   UNL A   1      31.319  23.359  27.530  1.00  0.00    -0.249 OA
BRANCH  14  17
ATOM     17  C   UNL A   1      30.792  26.157  25.311  1.00  0.00     0.112 C 
ATOM     18  C   UNL A   1      29.448  26.251  24.584  1.00  0.00     0.036 C 
BRANCH  17  19
ATOM     19  C   UNL A   1      31.270  27.526  25.739  1.00  0.00    -0.015 A 
ATOM     20  C   UNL A   1      31.541  27.832  27.122  1.00  0.00     0.017 A 
ATOM     21  C   UNL A   1      31.529  28.636  24.952  1.00  0.00     0.070 A 
ATOM     22  C   UNL A   1      32.009  29.110  27.314  1.00  0.00     0.065 A 
ATOM     23  S   UNL A   1      32.096  29.980  25.850  1.00  0.00    -0.152 S 
ENDBRANCH  17  19
ENDBRANCH  14  17
ENDBRANCH   8  13
ENDBRANCH   4   7
ENDBRANCH   2   3
ENDBRANCH   1   2
BRANCH   1  24
ATOM     24  C   UNL A   1      39.235  20.336  25.915  1.00  0.00     0.118 C 
BRANCH  24  25
ATOM     25  N   UNL A   1      40.303  19.352  26.048  1.00  0.00    -0.352 N 
ATOM     26  C   UNL A   1      41.660  19.534  26.079  1.00  0.00     0.251 C 
ATOM     27  H   UNL A   1      40.003  18.417  26.127  1.00  0.00     0.163 HD
ATOM     28  O   UNL A   1      42.402  18.575  25.855  1.00  0.00    -0.269 OA
BRANCH  26  29
ATOM     29  C   UNL A   1      42.226  20.865  26.375  1.00  0.00     0.039 A 
ATOM     30  C   UNL A   1      42.495  21.750  25.327  1.00  0.00     0.014 A 
ATOM     31  C   UNL A   1      42.530  21.225  27.690  1.00  0.00     0.014 A 
ATOM     32  C   UNL A   1      43.020  23.013  25.607  1.00  0.00     0.010 A 
ATOM     33  C   UNL A   1      42.956  22.515  27.975  1.00  0.00     0.010 A 
ATOM     34  C   UNL A   1      43.226  23.416  26.935  1.00  0.00    -0.014 A 
BRANCH  34  35
ATOM     35  C   UNL A   1      43.769  24.754  27.277  1.00  0.00     0.031 A 
ATOM     36  C   UNL A   1      42.840  25.813  27.809  1.00  0.00     0.074 A 
ATOM     37  C   UNL A   1      45.061  25.039  27.027  1.00  0.00     0.049 A 
ATOM     38  N   UNL A   1      43.063  27.083  28.023  1.00  0.00    -0.248 NA
ATOM     39  C   UNL A   1      41.459  25.389  28.098  1.00  0.00     0.031 C 
ATOM     40  C   UNL A   1      46.044  24.100  26.480  1.00  0.00     0.029 A 
ATOM     41  N   UNL A   1      45.768  26.204  27.183  1.00  0.00    -0.354 N 
ATOM     42  C   UNL A   1      41.849  27.615  28.444  1.00  0.00     0.074 A 
ATOM     43  C   UNL A   1      40.878  26.542  28.392  1.00  0.00     0.031 C 
ATOM     44  C   UNL A   1      47.229  24.720  26.366  1.00  0.00     0.029 A 
ATOM     45  C   UNL A   1      47.081  26.111  26.780  1.00  0.00     0.049 A 
ATOM     46  H   UNL A   1      45.374  27.027  27.549  1.00  0.00     0.167 HD
ATOM     47  C   UNL A   1      41.574  28.876  28.862  1.00  0.00     0.034 A 
ATOM     48  C   UNL A   1      48.047  27.049  26.734  1.00  0.00     0.034 A 
ATOM     49  C   UNL A   1      42.566  29.920  28.932  1.00  0.00     0.049 A 
ATOM     50  C   UNL A   1      47.718  28.448  27.192  1.00  0.00     0.074 A 
ATOM     51  C   UNL A   1      42.420  31.219  29.386  1.00  0.00     0.029 A 
ATOM     52  N   UNL A   1      43.891  29.784  28.537  1.00  0.00    -0.354 N 
ATOM     53  N   UNL A   1      46.572  28.928  27.621  1.00  0.00    -0.248 NA
ATOM     54  C   UNL A   1      48.810  29.429  27.168  1.00  0.00     0.031 C 
ATOM     55  C   UNL A   1      43.640  31.883  29.211  1.00  0.00     0.029 A 
ATOM     56  C   UNL A   1      44.566  30.979  28.716  1.00  0.00     0.049 A 
ATOM     57  H   UNL A   1      44.292  28.957  28.182  1.00  0.00     0.167 HD
ATOM     58  C   UNL A   1      46.819  30.257  27.952  1.00  0.00     0.074 A 
ATOM     59  C   UNL A   1      48.222  30.498  27.681  1.00  0.00     0.031 C 
ATOM     60  C   UNL A   1      45.967  31.195  28.439  1.00  0.00     0.034 A 
BRANCH  47  61
ATOM     61  C   UNL A   1      40.149  29.186  29.252  1.00  0.00     0.023 A 
ATOM     62  C   UNL A   1      39.749  29.249  30.598  1.00  0.00     0.031 A 
ATOM     63  C   UNL A   1      39.168  29.392  28.265  1.00  0.00     0.131 A 
ATOM     64  C   UNL A   1      38.395  29.427  30.921  1.00  0.00     0.055 A 
ATOM     65  C   UNL A   1      37.836  29.656  28.595  1.00  0.00     0.041 A 
ATOM     66  F   UNL A   1      39.483  29.324  26.962  1.00  0.00    -0.206 F 
ATOM     67  C   UNL A   1      37.440  29.658  29.928  1.00  0.00     0.022 A 
BRANCH  64  68
ATOM     68  S   UNL A   1      37.881  29.207  32.645  1.00  0.00     0.124 S 
ATOM     69  O   UNL A   1      37.774  27.752  32.736  1.00  0.00    -0.237 OA
ATOM     70  O   UNL A   1      38.982  29.813  33.383  1.00  0.00    -0.237 OA
ATOM     71  O   UNL A   1      36.609  29.924  32.719  1.00  0.00    -0.744 OA
ENDBRANCH  64  68
ENDBRANCH  47  61
BRANCH  48  72
ATOM     72  C   UNL A   1      49.411  26.709  26.235  1.00  0.00     0.023 A 
ATOM     73  C   UNL A   1      49.854  27.165  24.984  1.00  0.00     0.031 A 
ATOM     74  C   UNL A   1      50.276  25.888  26.981  1.00  0.00     0.131 A 
ATOM     75  C   UNL A   1      51.104  26.758  24.491  1.00  0.00     0.055 A 
ATOM     76  C   UNL A   1      51.541  25.530  26.511  1.00  0.00     0.041 A 
ATOM     77  F   UNL A   1      49.905  25.430  28.188  1.00  0.00    -0.206 F 
ATOM     78  C   UNL A   1      51.955  25.954  25.252  1.00  0.00     0.022 A 
BRANCH  75  79
ATOM     79  S   UNL A   1      51.561  27.221  22.799  1.00  0.00     0.124 S 
ATOM     80  O   UNL A   1      50.351  26.877  22.060  1.00  0.00    -0.237 OA
ATOM     81  O   UNL A   1      51.843  28.645  22.941  1.00  0.00    -0.237 OA
ATOM     82  O   UNL A   1      52.724  26.382  22.520  1.00  0.00    -0.744 OA
ENDBRANCH  75  79
ENDBRANCH  48  72
BRANCH  60  83
ATOM     83  C   UNL A   1      46.550  32.547  28.763  1.00  0.00     0.023 A 
ATOM     84  C   UNL A   1      46.562  33.592  27.825  1.00  0.00     0.031 A 
ATOM     85  C   UNL A   1      47.099  32.789  30.036  1.00  0.00     0.131 A 
ATOM     86  C   UNL A   1      47.157  34.818  28.157  1.00  0.00     0.055 A 
ATOM     87  C   UNL A   1      47.637  34.029  30.378  1.00  0.00     0.041 A 
ATOM     88  F   UNL A   1      47.113  31.823  30.969  1.00  0.00    -0.206 F 
ATOM     89  C   UNL A   1      47.678  35.048  29.432  1.00  0.00     0.022 A 
BRANCH  86  90
ATOM     90  S   UNL A   1      47.310  36.087  26.870  1.00  0.00     0.124 S 
ATOM     91  O   UNL A   1      45.918  36.469  26.654  1.00  0.00    -0.237 OA
ATOM     92  O   UNL A   1      48.153  37.088  27.516  1.00  0.00    -0.237 OA
ATOM     93  O   UNL A   1      47.937  35.374  25.758  1.00  0.00    -0.744 OA
ENDBRANCH  86  90
ENDBRANCH  60  83
ENDBRANCH  34  35
ENDBRANCH  26  29
ENDBRANCH  24  25
ENDBRANCH   1  24
TORSDOF 16
ENDMDL
MODEL 3
REMARK VINA RESULT:     -11.9      1.344      1.703
REMARK SMILES C[C@H](NC(=O)N1CC[C@H](C(=O)NCCCNC(=O)c2ccc(-c3c4nc(c(-c5cc(S(=O)(=O)[O-])ccc5F)c5ccc([nH]5)c(-c5cc(S(=O)(=O)[O-])ccc5F)c5nc(c(-c6cc(S(=O)(=O)[O-])ccc6F)c6ccc3[nH]6)C=C5)C=C4)cc2)[C@H]1C)c1ccsc1
REMARK SMILES IDX 14 1 13 2 12 3 10 4 11 5 9 7 6 8 7 9 82 10 8 11 83 12 4 13
REMARK SMILES IDX 3 14 5 16 2 17 1 18 84 19 85 20 88 21 86 22 87 23 15 24
REMARK SMILES IDX 16 25 17 26 18 28 19 29 20 30 81 31 21 32 80 33 22 34 23 35
REMARK SMILES IDX 24 36 74 37 25 38 79 39 73 40 75 41 26 42 78 43 72 44 71 45
REMARK SMILES IDX 27 47 59 48 39 49 58 50 40 51 43 52 57 53 76 54 41 55 42 56
REMARK SMILES IDX 56 58 77 59 44 60 28 61 29 62 37 63 30 64 36 65 38 66 35 67
REMARK SMILES IDX 31 68 32 69 33 70 34 71 60 72 61 73 69 74 62 75 68 76 70 77
REMARK SMILES IDX 67 78 63 79 64 80 65 81 66 82 45 83 46 84 54 85 47 86 53 87
REMARK SMILES IDX 55 88 52 89 48 90 49 91 50 92 51 93
REMARK H PARENT 12 6 3 15 16 27 75 46 43 57
REMARK Flexibility Score: inf
ROOT
ATOM      1  C   UNL A   1      31.547  31.869  26.632  1.00  0.00     0.042 C 
ENDROOT
BRANCH   1   2
ATOM      2  C   UNL A   1      31.617  30.370  26.369  1.00  0.00     0.117 C 
BRANCH   2   3
ATOM      3  N   UNL A   1      31.681  30.066  24.955  1.00  0.00    -0.356 N 
ATOM      4  C   UNL A   1      31.619  28.910  24.260  1.00  0.00     0.225 C 
ATOM      5  O   UNL A   1      31.737  29.016  23.031  1.00  0.00    -0.275 OA
ATOM      6  H   UNL A   1      31.791  30.863  24.387  1.00  0.00     0.163 HD
BRANCH   4   7
ATOM      7  C   UNL A   1      31.504  27.517  24.877  1.00  0.00     0.102 C 
ATOM      8  N   UNL A   1      32.505  25.780  23.555  1.00  0.00    -0.321 N 
ATOM      9  C   UNL A   1      31.121  25.938  23.164  1.00  0.00     0.122 C 
ATOM     10  C   UNL A   1      32.841  26.771  24.596  1.00  0.00     0.096 C 
ATOM     11  C   UNL A   1      30.479  26.490  24.412  1.00  0.00     0.037 C 
ATOM     12  C   UNL A   1      33.354  26.113  25.876  1.00  0.00     0.032 C 
BRANCH   8  13
ATOM     13  C   UNL A   1      33.389  25.454  22.561  1.00  0.00     0.318 C 
ATOM     14  N   UNL A   1      33.879  24.187  22.588  1.00  0.00    -0.331 N 
ATOM     15  H   UNL A   1      34.513  23.948  21.874  1.00  0.00     0.165 HD
ATOM     16  O   UNL A   1      33.647  26.192  21.614  1.00  0.00    -0.249 OA
BRANCH  14  17
ATOM     17  C   UNL A   1      33.576  23.147  23.552  1.00  0.00     0.112 C 
ATOM     18  C   UNL A   1      32.573  22.121  23.019  1.00  0.00     0.036 C 
BRANCH  17  19
ATOM     19  C   UNL A   1      34.830  22.466  24.053  1.00  0.00    -0.015 A 
ATOM     20  C   UNL A   1      34.779  21.189  24.721  1.00  0.00     0.017 A 
ATOM     21  C   UNL A   1      36.144  22.895  23.955  1.00  0.00     0.070 A 
ATOM     22  C   UNL A   1      36.020  20.705  25.062  1.00  0.00     0.065 A 
ATOM     23  S   UNL A   1      37.264  21.786  24.625  1.00  0.00    -0.152 S 
ENDBRANCH  17  19
ENDBRANCH  14  17
ENDBRANCH   8  13
ENDBRANCH   4   7
ENDBRANCH   2   3
ENDBRANCH   1   2
BRANCH   1  24
ATOM     24  C   UNL A   1      32.856  32.422  27.174  1.00  0.00     0.118 C 
BRANCH  24  25
ATOM     25  N   UNL A   1      32.701  33.800  27.624  1.00  0.00    -0.352 N 
ATOM     26  C   UNL A   1      33.259  34.435  28.702  1.00  0.00     0.251 C 
ATOM     27  H   UNL A   1      32.108  34.357  27.070  1.00  0.00     0.163 HD
ATOM     28  O   UNL A   1      32.753  35.483  29.111  1.00  0.00    -0.269 OA
BRANCH  26  29
ATOM     29  C   UNL A   1      34.450  33.870  29.365  1.00  0.00     0.039 A 
ATOM     30  C   UNL A   1      35.723  34.308  28.990  1.00  0.00     0.014 A 
ATOM     31  C   UNL A   1      34.311  32.872  30.334  1.00  0.00     0.014 A 
ATOM     32  C   UNL A   1      36.851  33.782  29.625  1.00  0.00     0.010 A 
ATOM     33  C   UNL A   1      35.423  32.424  31.033  1.00  0.00     0.010 A 
ATOM     34  C   UNL A   1      36.707  32.859  30.672  1.00  0.00    -0.014 A 
BRANCH  34  35
ATOM     35  C   UNL A   1      37.877  32.286  31.382  1.00  0.00     0.031 A 
ATOM     36  C   UNL A   1      38.647  31.159  30.745  1.00  0.00     0.074 A 
ATOM     37  C   UNL A   1      38.186  32.712  32.621  1.00  0.00     0.049 A 
ATOM     38  N   UNL A   1      39.594  30.411  31.248  1.00  0.00    -0.248 NA
ATOM     39  C   UNL A   1      38.266  30.800  29.369  1.00  0.00     0.031 C 
ATOM     40  C   UNL A   1      37.486  33.775  33.350  1.00  0.00     0.029 A 
ATOM     41  N   UNL A   1      39.156  32.296  33.497  1.00  0.00    -0.354 N 
ATOM     42  C   UNL A   1      39.903  29.479  30.263  1.00  0.00     0.074 A 
ATOM     43  C   UNL A   1      38.996  29.715  29.160  1.00  0.00     0.031 C 
ATOM     44  C   UNL A   1      38.064  33.938  34.550  1.00  0.00     0.029 A 
ATOM     45  C   UNL A   1      39.138  32.962  34.701  1.00  0.00     0.049 A 
ATOM     46  H   UNL A   1      39.805  31.588  33.283  1.00  0.00     0.167 HD
ATOM     47  C   UNL A   1      40.871  28.530  30.268  1.00  0.00     0.034 A 
ATOM     48  C   UNL A   1      39.890  32.789  35.804  1.00  0.00     0.034 A 
ATOM     49  C   UNL A   1      41.782  28.333  31.368  1.00  0.00     0.049 A 
ATOM     50  C   UNL A   1      40.954  31.720  35.793  1.00  0.00     0.074 A 
ATOM     51  C   UNL A   1      42.835  27.440  31.468  1.00  0.00     0.029 A 
ATOM     52  N   UNL A   1      41.748  29.042  32.563  1.00  0.00    -0.354 N 
ATOM     53  N   UNL A   1      41.258  30.868  34.840  1.00  0.00    -0.248 NA
ATOM     54  C   UNL A   1      41.782  31.595  36.999  1.00  0.00     0.031 C 
ATOM     55  C   UNL A   1      43.398  27.570  32.742  1.00  0.00     0.029 A 
ATOM     56  C   UNL A   1      42.745  28.592  33.412  1.00  0.00     0.049 A 
ATOM     57  H   UNL A   1      41.107  29.760  32.775  1.00  0.00     0.167 HD
ATOM     58  C   UNL A   1      42.336  30.131  35.321  1.00  0.00     0.074 A 
ATOM     59  C   UNL A   1      42.634  30.646  36.643  1.00  0.00     0.031 C 
ATOM     60  C   UNL A   1      43.023  29.123  34.725  1.00  0.00     0.034 A 
BRANCH  47  61
ATOM     61  C   UNL A   1      40.974  27.632  29.058  1.00  0.00     0.023 A 
ATOM     62  C   UNL A   1      41.980  27.809  28.091  1.00  0.00     0.031 A 
ATOM     63  C   UNL A   1      40.036  26.606  28.849  1.00  0.00     0.131 A 
ATOM     64  C   UNL A   1      41.976  27.030  26.924  1.00  0.00     0.055 A 
ATOM     65  C   UNL A   1      40.090  25.776  27.726  1.00  0.00     0.041 A 
ATOM     66  F   UNL A   1      39.040  26.400  29.725  1.00  0.00    -0.206 F 
ATOM     67  C   UNL A   1      41.054  25.996  26.748  1.00  0.00     0.022 A 
BRANCH  64  68
ATOM     68  S   UNL A   1      43.102  27.485  25.578  1.00  0.00     0.124 S 
ATOM     69  O   UNL A   1      44.123  28.247  26.294  1.00  0.00    -0.237 OA
ATOM     70  O   UNL A   1      43.520  26.186  25.064  1.00  0.00    -0.237 OA
ATOM     71  O   UNL A   1      42.263  28.273  24.678  1.00  0.00    -0.744 OA
ENDBRANCH  64  68
ENDBRANCH  47  61
BRANCH  48  72
ATOM     72  C   UNL A   1      39.669  33.635  37.013  1.00  0.00     0.023 A 
ATOM     73  C   UNL A   1      40.481  34.752  37.267  1.00  0.00     0.031 A 
ATOM     74  C   UNL A   1      38.673  33.317  37.953  1.00  0.00     0.131 A 
ATOM     75  C   UNL A   1      40.318  35.481  38.456  1.00  0.00     0.055 A 
ATOM     76  C   UNL A   1      38.478  34.078  39.107  1.00  0.00     0.041 A 
ATOM     77  F   UNL A   1      37.863  32.264  37.755  1.00  0.00    -0.206 F 
ATOM     78  C   UNL A   1      39.314  35.159  39.372  1.00  0.00     0.022 A 
BRANCH  75  79
ATOM     79  S   UNL A   1      41.501  36.802  38.832  1.00  0.00     0.124 S 
ATOM     80  O   UNL A   1      42.169  36.976  37.547  1.00  0.00    -0.237 OA
ATOM     81  O   UNL A   1      40.619  37.888  39.248  1.00  0.00    -0.237 OA
ATOM     82  O   UNL A   1      42.324  36.229  39.893  1.00  0.00    -0.744 OA
ENDBRANCH  75  79
ENDBRANCH  48  72
BRANCH  60  83
ATOM     83  C   UNL A   1      44.197  28.555  35.481  1.00  0.00     0.023 A 
ATOM     84  C   UNL A   1      44.046  27.514  36.410  1.00  0.00     0.031 A 
ATOM     85  C   UNL A   1      45.489  29.068  35.261  1.00  0.00     0.131 A 
ATOM     86  C   UNL A   1      45.162  27.049  37.123  1.00  0.00     0.055 A 
ATOM     87  C   UNL A   1      46.603  28.563  35.931  1.00  0.00     0.041 A 
ATOM     88  F   UNL A   1      45.687  30.065  34.383  1.00  0.00    -0.206 F 
ATOM     89  C   UNL A   1      46.440  27.555  36.876  1.00  0.00     0.022 A 
BRANCH  86  90
ATOM     90  S   UNL A   1      44.907  25.825  38.437  1.00  0.00     0.124 S 
ATOM     91  O   UNL A   1      44.243  26.619  39.466  1.00  0.00    -0.237 OA
ATOM     92  O   UNL A   1      44.081  24.821  37.774  1.00  0.00    -0.237 OA
ATOM     93  O   UNL A   1      46.263  25.390  38.769  1.00  0.00    -0.744 OA
ENDBRANCH  86  90
ENDBRANCH  60  83
ENDBRANCH  34  35
ENDBRANCH  26  29
ENDBRANCH  24  25
ENDBRANCH   1  24
TORSDOF 16
ENDMDL
