MODEL 1
REMARK VINA RESULT:     -12.1      0.000      0.000
REMARK SMILES CC(=O)Nc1ccc2sc(C(=O)NCCCNC(=O)c3ccc(-c4c5nc(c(-c6cc(S(=O)(=O)[O-])ccc6F)c6ccc([nH]6)c(-c6cc(S(=O)(=O)[O-])ccc6F)c6nc(c(-c7cc(S(=O)(=O)[O-])ccc7F)c7ccc4[nH]7)C=C6)C=C5)cc3)cc2c1
REMARK SMILES IDX 16 1 15 2 14 3 13 4 11 5 12 6 10 8 5 9 6 10 85 11 7 12 84 13
REMARK SMILES IDX 8 14 83 15 9 16 4 17 1 18 2 19 3 20 17 22 18 23 19 25 20 26
REMARK SMILES IDX 21 27 82 28 22 29 81 30 23 31 24 32 25 33 75 34 26 35 80 36
REMARK SMILES IDX 74 37 76 38 27 39 79 40 73 41 72 42 28 44 60 45 40 46 59 47
REMARK SMILES IDX 41 48 44 49 58 50 77 51 42 52 43 53 57 55 78 56 45 57 29 58
REMARK SMILES IDX 30 59 38 60 31 61 37 62 39 63 36 64 32 65 33 66 34 67 35 68
REMARK SMILES IDX 61 69 62 70 70 71 63 72 69 73 71 74 68 75 64 76 65 77 66 78
REMARK SMILES IDX 67 79 46 80 47 81 55 82 48 83 54 84 56 85 53 86 49 87 50 88
REMARK SMILES IDX 51 89 52 90
REMARK H PARENT 13 7 4 21 17 24 76 43 44 54
REMARK Flexibility Score: inf
ROOT
ATOM      1  C   UNL A   1      33.851  29.121  26.077  1.00  0.00     0.118 C 
ENDROOT
BRANCH   1   2
ATOM      2  C   UNL A   1      32.556  28.356  26.350  1.00  0.00     0.042 C 
BRANCH   2   3
ATOM      3  C   UNL A   1      32.763  26.848  26.470  1.00  0.00     0.118 C 
BRANCH   3   4
ATOM      4  N   UNL A   1      33.245  26.271  25.228  1.00  0.00    -0.351 N 
ATOM      5  C   UNL A   1      32.781  26.300  23.936  1.00  0.00     0.261 C 
ATOM      6  O   UNL A   1      33.522  25.755  23.110  1.00  0.00    -0.268 OA
ATOM      7  H   UNL A   1      34.075  25.752  25.334  1.00  0.00     0.163 HD
BRANCH   5   8
ATOM      8  C   UNL A   1      31.556  26.968  23.517  1.00  0.00     0.093 A 
ATOM      9  C   UNL A   1      28.442  30.189  21.875  1.00  0.00     0.041 A 
ATOM     10  C   UNL A   1      27.524  29.435  22.597  1.00  0.00     0.027 A 
ATOM     11  C   UNL A   1      29.768  29.749  21.769  1.00  0.00     0.035 A 
ATOM     12  C   UNL A   1      27.911  28.258  23.246  1.00  0.00     0.022 A 
ATOM     13  C   UNL A   1      30.204  28.607  22.483  1.00  0.00    -0.005 A 
ATOM     14  C   UNL A   1      29.259  27.870  23.192  1.00  0.00     0.035 A 
ATOM     15  C   UNL A   1      31.513  28.053  22.655  1.00  0.00     0.034 A 
ATOM     16  S   UNL A   1      29.972  26.488  23.914  1.00  0.00    -0.130 S 
BRANCH   9  17
ATOM     17  N   UNL A   1      28.100  31.368  21.196  1.00  0.00    -0.326 N 
ATOM     18  C   UNL A   1      28.785  33.029  22.913  1.00  0.00     0.114 C 
ATOM     19  C   UNL A   1      28.080  32.663  21.633  1.00  0.00     0.221 C 
ATOM     20  O   UNL A   1      27.562  33.530  20.928  1.00  0.00    -0.275 OA
ATOM     21  H   UNL A   1      27.830  31.243  20.258  1.00  0.00     0.169 HD
ENDBRANCH   9  17
ENDBRANCH   5   8
ENDBRANCH   3   4
ENDBRANCH   2   3
ENDBRANCH   1   2
BRANCH   1  22
ATOM     22  N   UNL A   1      33.809  30.476  26.615  1.00  0.00    -0.352 N 
ATOM     23  C   UNL A   1      34.547  31.056  27.614  1.00  0.00     0.251 C 
ATOM     24  H   UNL A   1      33.145  31.068  26.194  1.00  0.00     0.163 HD
ATOM     25  O   UNL A   1      34.173  32.134  28.079  1.00  0.00    -0.269 OA
BRANCH  23  26
ATOM     26  C   UNL A   1      35.766  30.405  28.137  1.00  0.00     0.039 A 
ATOM     27  C   UNL A   1      36.945  30.476  27.389  1.00  0.00     0.014 A 
ATOM     28  C   UNL A   1      35.745  29.684  29.334  1.00  0.00     0.014 A 
ATOM     29  C   UNL A   1      38.112  29.877  27.869  1.00  0.00     0.010 A 
ATOM     30  C   UNL A   1      36.925  29.148  29.847  1.00  0.00     0.010 A 
ATOM     31  C   UNL A   1      38.121  29.237  29.118  1.00  0.00    -0.014 A 
BRANCH  31  32
ATOM     32  C   UNL A   1      39.367  28.650  29.678  1.00  0.00     0.031 A 
ATOM     33  C   UNL A   1      40.004  29.259  30.900  1.00  0.00     0.074 A 
ATOM     34  C   UNL A   1      39.956  27.612  29.052  1.00  0.00     0.049 A 
ATOM     35  N   UNL A   1      41.145  28.968  31.471  1.00  0.00    -0.248 NA
ATOM     36  C   UNL A   1      39.272  30.358  31.547  1.00  0.00     0.031 C 
ATOM     37  C   UNL A   1      39.448  26.958  27.844  1.00  0.00     0.029 A 
ATOM     38  N   UNL A   1      41.115  26.932  29.333  1.00  0.00    -0.354 N 
ATOM     39  C   UNL A   1      41.269  29.847  32.541  1.00  0.00     0.074 A 
ATOM     40  C   UNL A   1      40.118  30.725  32.497  1.00  0.00     0.031 C 
ATOM     41  C   UNL A   1      40.285  25.967  27.495  1.00  0.00     0.029 A 
ATOM     42  C   UNL A   1      41.412  25.945  28.421  1.00  0.00     0.049 A 
ATOM     43  H   UNL A   1      41.681  27.133  30.114  1.00  0.00     0.167 HD
ATOM     44  C   UNL A   1      42.237  29.900  33.490  1.00  0.00     0.034 A 
ATOM     45  C   UNL A   1      42.484  25.131  28.328  1.00  0.00     0.034 A 
ATOM     46  C   UNL A   1      43.377  29.017  33.523  1.00  0.00     0.049 A 
ATOM     47  C   UNL A   1      43.568  25.236  29.373  1.00  0.00     0.074 A 
ATOM     48  C   UNL A   1      44.408  28.971  34.445  1.00  0.00     0.029 A 
ATOM     49  N   UNL A   1      43.636  28.019  32.591  1.00  0.00    -0.354 N 
ATOM     50  N   UNL A   1      43.654  26.056  30.395  1.00  0.00    -0.248 NA
ATOM     51  C   UNL A   1      44.692  24.298  29.259  1.00  0.00     0.031 C 
ATOM     52  C   UNL A   1      45.318  27.988  34.041  1.00  0.00     0.029 A 
ATOM     53  C   UNL A   1      44.818  27.367  32.908  1.00  0.00     0.049 A 
ATOM     54  H   UNL A   1      43.064  27.806  31.820  1.00  0.00     0.167 HD
ATOM     55  C   UNL A   1      44.824  25.707  31.064  1.00  0.00     0.074 A 
ATOM     56  C   UNL A   1      45.398  24.591  30.341  1.00  0.00     0.031 C 
ATOM     57  C   UNL A   1      45.376  26.256  32.175  1.00  0.00     0.034 A 
BRANCH  44  58
ATOM     58  C   UNL A   1      42.105  30.957  34.559  1.00  0.00     0.023 A 
ATOM     59  C   UNL A   1      42.655  32.241  34.393  1.00  0.00     0.031 A 
ATOM     60  C   UNL A   1      41.434  30.682  35.764  1.00  0.00     0.131 A 
ATOM     61  C   UNL A   1      42.585  33.176  35.436  1.00  0.00     0.055 A 
ATOM     62  C   UNL A   1      41.297  31.644  36.767  1.00  0.00     0.041 A 
ATOM     63  F   UNL A   1      40.905  29.469  35.990  1.00  0.00    -0.206 F 
ATOM     64  C   UNL A   1      41.886  32.895  36.613  1.00  0.00     0.022 A 
BRANCH  61  65
ATOM     65  S   UNL A   1      43.530  34.716  35.282  1.00  0.00     0.124 S 
ATOM     66  O   UNL A   1      44.819  34.223  34.805  1.00  0.00    -0.237 OA
ATOM     67  O   UNL A   1      42.741  35.476  34.320  1.00  0.00    -0.237 OA
ATOM     68  O   UNL A   1      43.539  35.249  36.643  1.00  0.00    -0.744 OA
ENDBRANCH  61  65
ENDBRANCH  44  58
BRANCH  45  69
ATOM     69  C   UNL A   1      42.609  24.163  27.199  1.00  0.00     0.023 A 
ATOM     70  C   UNL A   1      41.990  22.905  27.251  1.00  0.00     0.031 A 
ATOM     71  C   UNL A   1      43.408  24.456  26.080  1.00  0.00     0.131 A 
ATOM     72  C   UNL A   1      42.232  21.962  26.240  1.00  0.00     0.055 A 
ATOM     73  C   UNL A   1      43.594  23.539  25.043  1.00  0.00     0.041 A 
ATOM     74  F   UNL A   1      44.021  25.646  25.974  1.00  0.00    -0.206 F 
ATOM     75  C   UNL A   1      43.019  22.275  25.130  1.00  0.00     0.022 A 
BRANCH  72  76
ATOM     76  S   UNL A   1      41.600  20.276  26.459  1.00  0.00     0.124 S 
ATOM     77  O   UNL A   1      42.261  19.568  25.368  1.00  0.00    -0.237 OA
ATOM     78  O   UNL A   1      42.060  19.953  27.805  1.00  0.00    -0.237 OA
ATOM     79  O   UNL A   1      40.155  20.434  26.316  1.00  0.00    -0.744 OA
ENDBRANCH  72  76
ENDBRANCH  45  69
BRANCH  57  80
ATOM     80  C   UNL A   1      46.637  25.616  32.702  1.00  0.00     0.023 A 
ATOM     81  C   UNL A   1      47.895  25.880  32.133  1.00  0.00     0.031 A 
ATOM     82  C   UNL A   1      46.574  24.718  33.782  1.00  0.00     0.131 A 
ATOM     83  C   UNL A   1      49.031  25.209  32.610  1.00  0.00     0.055 A 
ATOM     84  C   UNL A   1      47.716  24.101  34.292  1.00  0.00     0.041 A 
ATOM     85  F   UNL A   1      45.398  24.430  34.362  1.00  0.00    -0.206 F 
ATOM     86  C   UNL A   1      48.953  24.335  33.697  1.00  0.00     0.022 A 
BRANCH  83  87
ATOM     87  S   UNL A   1      50.605  25.429  31.734  1.00  0.00     0.124 S 
ATOM     88  O   UNL A   1      50.971  24.052  31.419  1.00  0.00    -0.237 OA
ATOM     89  O   UNL A   1      50.217  26.261  30.600  1.00  0.00    -0.237 OA
ATOM     90  O   UNL A   1      51.458  26.087  32.722  1.00  0.00    -0.744 OA
ENDBRANCH  83  87
ENDBRANCH  57  80
ENDBRANCH  31  32
ENDBRANCH  23  26
ENDBRANCH   1  22
TORSDOF 14
ENDMDL
MODEL 2
REMARK VINA RESULT:     -12.1      1.744      2.040
REMARK SMILES CC(=O)Nc1ccc2sc(C(=O)NCCCNC(=O)c3ccc(-c4c5nc(c(-c6cc(S(=O)(=O)[O-])ccc6F)c6ccc([nH]6)c(-c6cc(S(=O)(=O)[O-])ccc6F)c6nc(c(-c7cc(S(=O)(=O)[O-])ccc7F)c7ccc4[nH]7)C=C6)C=C5)cc3)cc2c1
REMARK SMILES IDX 16 1 15 2 14 3 13 4 11 5 12 6 10 8 5 9 6 10 85 11 7 12 84 13
REMARK SMILES IDX 8 14 83 15 9 16 4 17 1 18 2 19 3 20 17 22 18 23 19 25 20 26
REMARK SMILES IDX 21 27 82 28 22 29 81 30 23 31 24 32 25 33 75 34 26 35 80 36
REMARK SMILES IDX 74 37 76 38 27 39 79 40 73 41 72 42 28 44 60 45 40 46 59 47
REMARK SMILES IDX 41 48 44 49 58 50 77 51 42 52 43 53 57 55 78 56 45 57 29 58
REMARK SMILES IDX 30 59 38 60 31 61 37 62 39 63 36 64 32 65 33 66 34 67 35 68
REMARK SMILES IDX 61 69 62 70 70 71 63 72 69 73 71 74 68 75 64 76 65 77 66 78
REMARK SMILES IDX 67 79 46 80 47 81 55 82 48 83 54 84 56 85 53 86 49 87 50 88
REMARK SMILES IDX 51 89 52 90
REMARK H PARENT 13 7 4 21 17 24 76 43 44 54
REMARK Flexibility Score: inf
ROOT
ATOM      1  C   UNL A   1      33.807  28.974  26.176  1.00  0.00     0.118 C 
ENDROOT
BRANCH   1   2
ATOM      2  C   UNL A   1      32.514  28.212  26.466  1.00  0.00     0.042 C 
BRANCH   2   3
ATOM      3  C   UNL A   1      32.705  26.697  26.500  1.00  0.00     0.118 C 
BRANCH   3   4
ATOM      4  N   UNL A   1      33.228  26.193  25.242  1.00  0.00    -0.351 N 
ATOM      5  C   UNL A   1      32.799  26.285  23.942  1.00  0.00     0.261 C 
ATOM      6  O   UNL A   1      33.570  25.793  23.109  1.00  0.00    -0.268 OA
ATOM      7  H   UNL A   1      34.062  25.680  25.344  1.00  0.00     0.163 HD
BRANCH   5   8
ATOM      8  C   UNL A   1      31.577  26.958  23.524  1.00  0.00     0.093 A 
ATOM      9  C   UNL A   1      28.475  30.198  21.896  1.00  0.00     0.041 A 
ATOM     10  C   UNL A   1      27.554  29.443  22.611  1.00  0.00     0.027 A 
ATOM     11  C   UNL A   1      29.800  29.755  21.791  1.00  0.00     0.035 A 
ATOM     12  C   UNL A   1      27.936  28.260  23.254  1.00  0.00     0.022 A 
ATOM     13  C   UNL A   1      30.232  28.608  22.498  1.00  0.00    -0.005 A 
ATOM     14  C   UNL A   1      29.284  27.868  23.200  1.00  0.00     0.035 A 
ATOM     15  C   UNL A   1      31.539  28.050  22.669  1.00  0.00     0.034 A 
ATOM     16  S   UNL A   1      29.991  26.480  23.914  1.00  0.00    -0.130 S 
BRANCH   9  17
ATOM     17  N   UNL A   1      28.138  31.383  21.225  1.00  0.00    -0.326 N 
ATOM     18  C   UNL A   1      28.761  33.028  22.980  1.00  0.00     0.114 C 
ATOM     19  C   UNL A   1      28.093  32.672  21.678  1.00  0.00     0.221 C 
ATOM     20  O   UNL A   1      27.583  33.543  20.971  1.00  0.00    -0.275 OA
ATOM     21  H   UNL A   1      27.893  31.268  20.278  1.00  0.00     0.169 HD
ENDBRANCH   9  17
ENDBRANCH   5   8
ENDBRANCH   3   4
ENDBRANCH   2   3
ENDBRANCH   1   2
BRANCH   1  22
ATOM     22  N   UNL A   1      33.757  30.343  26.676  1.00  0.00    -0.352 N 
ATOM     23  C   UNL A   1      34.524  30.971  27.623  1.00  0.00     0.251 C 
ATOM     24  H   UNL A   1      33.061  30.908  26.267  1.00  0.00     0.163 HD
ATOM     25  O   UNL A   1      34.146  32.054  28.072  1.00  0.00    -0.269 OA
BRANCH  23  26
ATOM     26  C   UNL A   1      35.781  30.363  28.110  1.00  0.00     0.039 A 
ATOM     27  C   UNL A   1      36.921  30.429  27.303  1.00  0.00     0.014 A 
ATOM     28  C   UNL A   1      35.832  29.687  29.332  1.00  0.00     0.014 A 
ATOM     29  C   UNL A   1      38.121  29.870  27.748  1.00  0.00     0.010 A 
ATOM     30  C   UNL A   1      37.046  29.194  29.805  1.00  0.00     0.010 A 
ATOM     31  C   UNL A   1      38.204  29.278  29.018  1.00  0.00    -0.014 A 
BRANCH  31  32
ATOM     32  C   UNL A   1      39.487  28.737  29.538  1.00  0.00     0.031 A 
ATOM     33  C   UNL A   1      40.223  29.464  30.632  1.00  0.00     0.074 A 
ATOM     34  C   UNL A   1      40.018  27.629  28.983  1.00  0.00     0.049 A 
ATOM     35  N   UNL A   1      41.404  29.219  31.140  1.00  0.00    -0.248 NA
ATOM     36  C   UNL A   1      39.552  30.637  31.212  1.00  0.00     0.031 C 
ATOM     37  C   UNL A   1      39.411  26.856  27.897  1.00  0.00     0.029 A 
ATOM     38  N   UNL A   1      41.192  26.966  29.244  1.00  0.00    -0.354 N 
ATOM     39  C   UNL A   1      41.619  30.207  32.095  1.00  0.00     0.074 A 
ATOM     40  C   UNL A   1      40.473  31.091  32.047  1.00  0.00     0.031 C 
ATOM     41  C   UNL A   1      40.211  25.821  27.592  1.00  0.00     0.029 A 
ATOM     42  C   UNL A   1      41.409  25.883  28.423  1.00  0.00     0.049 A 
ATOM     43  H   UNL A   1      41.819  27.241  29.951  1.00  0.00     0.167 HD
ATOM     44  C   UNL A   1      42.661  30.347  32.953  1.00  0.00     0.034 A 
ATOM     45  C   UNL A   1      42.465  25.048  28.335  1.00  0.00     0.034 A 
ATOM     46  C   UNL A   1      43.794  29.456  32.991  1.00  0.00     0.049 A 
ATOM     47  C   UNL A   1      43.629  25.248  29.273  1.00  0.00     0.074 A 
ATOM     48  C   UNL A   1      44.895  29.495  33.828  1.00  0.00     0.029 A 
ATOM     49  N   UNL A   1      43.972  28.360  32.155  1.00  0.00    -0.354 N 
ATOM     50  N   UNL A   1      43.802  26.173  30.191  1.00  0.00    -0.248 NA
ATOM     51  C   UNL A   1      44.736  24.287  29.173  1.00  0.00     0.031 C 
ATOM     52  C   UNL A   1      45.764  28.461  33.463  1.00  0.00     0.029 A 
ATOM     53  C   UNL A   1      45.172  27.729  32.446  1.00  0.00     0.049 A 
ATOM     54  H   UNL A   1      43.339  28.074  31.459  1.00  0.00     0.167 HD
ATOM     55  C   UNL A   1      45.020  25.881  30.799  1.00  0.00     0.074 A 
ATOM     56  C   UNL A   1      45.527  24.685  30.157  1.00  0.00     0.031 C 
ATOM     57  C   UNL A   1      45.663  26.537  31.797  1.00  0.00     0.034 A 
BRANCH  44  58
ATOM     58  C   UNL A   1      42.621  31.515  33.908  1.00  0.00     0.023 A 
ATOM     59  C   UNL A   1      41.896  31.453  35.112  1.00  0.00     0.031 A 
ATOM     60  C   UNL A   1      43.302  32.709  33.614  1.00  0.00     0.131 A 
ATOM     61  C   UNL A   1      41.811  32.581  35.940  1.00  0.00     0.055 A 
ATOM     62  C   UNL A   1      43.281  33.803  34.483  1.00  0.00     0.041 A 
ATOM     63  F   UNL A   1      43.995  32.837  32.471  1.00  0.00    -0.206 F 
ATOM     64  C   UNL A   1      42.521  33.748  35.647  1.00  0.00     0.022 A 
BRANCH  61  65
ATOM     65  S   UNL A   1      40.658  32.543  37.339  1.00  0.00     0.124 S 
ATOM     66  O   UNL A   1      39.657  31.589  36.869  1.00  0.00    -0.237 OA
ATOM     67  O   UNL A   1      41.507  32.091  38.436  1.00  0.00    -0.237 OA
ATOM     68  O   UNL A   1      40.194  33.926  37.438  1.00  0.00    -0.744 OA
ENDBRANCH  61  65
ENDBRANCH  44  58
BRANCH  45  69
ATOM     69  C   UNL A   1      42.493  23.963  27.311  1.00  0.00     0.023 A 
ATOM     70  C   UNL A   1      41.882  22.722  27.552  1.00  0.00     0.031 A 
ATOM     71  C   UNL A   1      43.193  24.126  26.102  1.00  0.00     0.131 A 
ATOM     72  C   UNL A   1      42.038  21.673  26.632  1.00  0.00     0.055 A 
ATOM     73  C   UNL A   1      43.290  23.101  25.159  1.00  0.00     0.041 A 
ATOM     74  F   UNL A   1      43.792  25.292  25.815  1.00  0.00    -0.206 F 
ATOM     75  C   UNL A   1      42.726  21.859  25.431  1.00  0.00     0.022 A 
BRANCH  72  76
ATOM     76  S   UNL A   1      41.430  20.026  27.086  1.00  0.00     0.124 S 
ATOM     77  O   UNL A   1      42.673  19.274  27.210  1.00  0.00    -0.237 OA
ATOM     78  O   UNL A   1      40.718  20.299  28.330  1.00  0.00    -0.237 OA
ATOM     79  O   UNL A   1      40.585  19.653  25.954  1.00  0.00    -0.744 OA
ENDBRANCH  72  76
ENDBRANCH  45  69
BRANCH  57  80
ATOM     80  C   UNL A   1      46.958  25.940  32.288  1.00  0.00     0.023 A 
ATOM     81  C   UNL A   1      46.993  25.018  33.349  1.00  0.00     0.031 A 
ATOM     82  C   UNL A   1      48.176  26.311  31.693  1.00  0.00     0.131 A 
ATOM     83  C   UNL A   1      48.226  24.541  33.818  1.00  0.00     0.055 A 
ATOM     84  C   UNL A   1      49.394  25.786  32.125  1.00  0.00     0.041 A 
ATOM     85  F   UNL A   1      48.201  27.188  30.677  1.00  0.00    -0.206 F 
ATOM     86  C   UNL A   1      49.425  24.906  33.202  1.00  0.00     0.022 A 
BRANCH  83  87
ATOM     87  S   UNL A   1      48.248  23.501  35.305  1.00  0.00     0.124 S 
ATOM     88  O   UNL A   1      49.660  23.530  35.673  1.00  0.00    -0.237 OA
ATOM     89  O   UNL A   1      47.342  24.214  36.199  1.00  0.00    -0.237 OA
ATOM     90  O   UNL A   1      47.759  22.209  34.828  1.00  0.00    -0.744 OA
ENDBRANCH  83  87
ENDBRANCH  57  80
ENDBRANCH  31  32
ENDBRANCH  23  26
ENDBRANCH   1  22
TORSDOF 14
ENDMDL
MODEL 3
REMARK VINA RESULT:     -12.1      5.516     10.566
REMARK SMILES CC(=O)Nc1ccc2sc(C(=O)NCCCNC(=O)c3ccc(-c4c5nc(c(-c6cc(S(=O)(=O)[O-])ccc6F)c6ccc([nH]6)c(-c6cc(S(=O)(=O)[O-])ccc6F)c6nc(c(-c7cc(S(=O)(=O)[O-])ccc7F)c7ccc4[nH]7)C=C6)C=C5)cc3)cc2c1
REMARK SMILES IDX 16 1 15 2 14 3 13 4 11 5 12 6 10 8 5 9 6 10 85 11 7 12 84 13
REMARK SMILES IDX 8 14 83 15 9 16 4 17 1 18 2 19 3 20 17 22 18 23 19 25 20 26
REMARK SMILES IDX 21 27 82 28 22 29 81 30 23 31 24 32 25 33 75 34 26 35 80 36
REMARK SMILES IDX 74 37 76 38 27 39 79 40 73 41 72 42 28 44 60 45 40 46 59 47
REMARK SMILES IDX 41 48 44 49 58 50 77 51 42 52 43 53 57 55 78 56 45 57 29 58
REMARK SMILES IDX 30 59 38 60 31 61 37 62 39 63 36 64 32 65 33 66 34 67 35 68
REMARK SMILES IDX 61 69 62 70 70 71 63 72 69 73 71 74 68 75 64 76 65 77 66 78
REMARK SMILES IDX 67 79 46 80 47 81 55 82 48 83 54 84 56 85 53 86 49 87 50 88
REMARK SMILES IDX 51 89 52 90
REMARK H PARENT 13 7 4 21 17 24 76 43 44 54
REMARK Flexibility Score: inf
ROOT
ATOM      1  C   UNL A   1      37.625  22.152  24.901  1.00  0.00     0.118 C 
ENDROOT
BRANCH   1   2
ATOM      2  C   UNL A   1      36.329  22.580  25.590  1.00  0.00     0.042 C 
BRANCH   2   3
ATOM      3  C   UNL A   1      35.756  23.883  25.035  1.00  0.00     0.118 C 
BRANCH   3   4
ATOM      4  N   UNL A   1      34.523  24.255  25.705  1.00  0.00    -0.351 N 
ATOM      5  C   UNL A   1      33.314  23.626  25.865  1.00  0.00     0.261 C 
ATOM      6  O   UNL A   1      32.512  24.228  26.590  1.00  0.00    -0.268 OA
ATOM      7  H   UNL A   1      34.562  25.142  26.132  1.00  0.00     0.163 HD
BRANCH   5   8
ATOM      8  C   UNL A   1      32.983  22.323  25.305  1.00  0.00     0.093 A 
ATOM      9  C   UNL A   1      32.535  17.621  24.631  1.00  0.00     0.041 A 
ATOM     10  C   UNL A   1      32.401  17.985  23.297  1.00  0.00     0.027 A 
ATOM     11  C   UNL A   1      32.615  18.615  25.615  1.00  0.00     0.035 A 
ATOM     12  C   UNL A   1      32.374  19.331  22.917  1.00  0.00     0.022 A 
ATOM     13  C   UNL A   1      32.672  19.981  25.252  1.00  0.00    -0.005 A 
ATOM     14  C   UNL A   1      32.529  20.315  23.907  1.00  0.00     0.035 A 
ATOM     15  C   UNL A   1      32.899  21.153  26.043  1.00  0.00     0.034 A 
ATOM     16  S   UNL A   1      32.544  22.015  23.689  1.00  0.00    -0.130 S 
BRANCH   9  17
ATOM     17  N   UNL A   1      32.555  16.286  25.062  1.00  0.00    -0.326 N 
ATOM     18  C   UNL A   1      35.013  15.952  25.215  1.00  0.00     0.114 C 
ATOM     19  C   UNL A   1      33.603  15.420  25.207  1.00  0.00     0.221 C 
ATOM     20  O   UNL A   1      33.377  14.228  25.417  1.00  0.00    -0.275 OA
ATOM     21  H   UNL A   1      31.675  15.913  25.297  1.00  0.00     0.169 HD
ENDBRANCH   9  17
ENDBRANCH   5   8
ENDBRANCH   3   4
ENDBRANCH   2   3
ENDBRANCH   1   2
BRANCH   1  22
ATOM     22  N   UNL A   1      38.384  21.202  25.707  1.00  0.00    -0.352 N 
ATOM     23  C   UNL A   1      39.489  21.392  26.496  1.00  0.00     0.251 C 
ATOM     24  H   UNL A   1      38.049  20.277  25.680  1.00  0.00     0.163 HD
ATOM     25  O   UNL A   1      40.118  20.407  26.884  1.00  0.00    -0.269 OA
BRANCH  23  26
ATOM     26  C   UNL A   1      39.931  22.751  26.873  1.00  0.00     0.039 A 
ATOM     27  C   UNL A   1      40.845  22.899  27.921  1.00  0.00     0.014 A 
ATOM     28  C   UNL A   1      39.415  23.883  26.235  1.00  0.00     0.014 A 
ATOM     29  C   UNL A   1      41.284  24.174  28.286  1.00  0.00     0.010 A 
ATOM     30  C   UNL A   1      39.908  25.147  26.553  1.00  0.00     0.010 A 
ATOM     31  C   UNL A   1      40.846  25.307  27.583  1.00  0.00    -0.014 A 
BRANCH  31  32
ATOM     32  C   UNL A   1      41.351  26.666  27.913  1.00  0.00     0.031 A 
ATOM     33  C   UNL A   1      42.780  27.033  27.608  1.00  0.00     0.074 A 
ATOM     34  C   UNL A   1      40.544  27.544  28.541  1.00  0.00     0.049 A 
ATOM     35  N   UNL A   1      43.440  28.119  27.920  1.00  0.00    -0.248 NA
ATOM     36  C   UNL A   1      43.576  26.033  26.881  1.00  0.00     0.031 C 
ATOM     37  C   UNL A   1      39.151  27.291  28.914  1.00  0.00     0.029 A 
ATOM     38  N   UNL A   1      40.779  28.820  28.990  1.00  0.00    -0.354 N 
ATOM     39  C   UNL A   1      44.728  27.933  27.429  1.00  0.00     0.074 A 
ATOM     40  C   UNL A   1      44.772  26.603  26.860  1.00  0.00     0.031 C 
ATOM     41  C   UNL A   1      38.653  28.379  29.525  1.00  0.00     0.029 A 
ATOM     42  C   UNL A   1      39.702  29.387  29.632  1.00  0.00     0.049 A 
ATOM     43  H   UNL A   1      41.638  29.284  28.864  1.00  0.00     0.167 HD
ATOM     44  C   UNL A   1      45.770  28.803  27.428  1.00  0.00     0.034 A 
ATOM     45  C   UNL A   1      39.582  30.576  30.257  1.00  0.00     0.034 A 
ATOM     46  C   UNL A   1      45.711  30.127  27.996  1.00  0.00     0.049 A 
ATOM     47  C   UNL A   1      40.767  31.510  30.277  1.00  0.00     0.074 A 
ATOM     48  C   UNL A   1      46.699  31.095  28.037  1.00  0.00     0.029 A 
ATOM     49  N   UNL A   1      44.598  30.673  28.625  1.00  0.00    -0.354 N 
ATOM     50  N   UNL A   1      41.971  31.328  29.783  1.00  0.00    -0.248 NA
ATOM     51  C   UNL A   1      40.575  32.813  30.927  1.00  0.00     0.031 C 
ATOM     52  C   UNL A   1      46.206  32.201  28.737  1.00  0.00     0.029 A 
ATOM     53  C   UNL A   1      44.884  31.955  29.070  1.00  0.00     0.049 A 
ATOM     54  H   UNL A   1      43.734  30.217  28.738  1.00  0.00     0.167 HD
ATOM     55  C   UNL A   1      42.665  32.508  30.033  1.00  0.00     0.074 A 
ATOM     56  C   UNL A   1      41.741  33.400  30.704  1.00  0.00     0.031 C 
ATOM     57  C   UNL A   1      43.950  32.830  29.737  1.00  0.00     0.034 A 
BRANCH  44  58
ATOM     58  C   UNL A   1      47.062  28.337  26.801  1.00  0.00     0.023 A 
ATOM     59  C   UNL A   1      47.224  28.291  25.405  1.00  0.00     0.031 A 
ATOM     60  C   UNL A   1      48.141  27.922  27.601  1.00  0.00     0.131 A 
ATOM     61  C   UNL A   1      48.406  27.778  24.852  1.00  0.00     0.055 A 
ATOM     62  C   UNL A   1      49.347  27.488  27.045  1.00  0.00     0.041 A 
ATOM     63  F   UNL A   1      48.040  27.924  28.940  1.00  0.00    -0.206 F 
ATOM     64  C   UNL A   1      49.480  27.401  25.663  1.00  0.00     0.022 A 
BRANCH  61  65
ATOM     65  S   UNL A   1      48.471  27.493  23.062  1.00  0.00     0.124 S 
ATOM     66  O   UNL A   1      48.455  26.034  22.998  1.00  0.00    -0.237 OA
ATOM     67  O   UNL A   1      47.267  28.166  22.591  1.00  0.00    -0.237 OA
ATOM     68  O   UNL A   1      49.733  28.114  22.662  1.00  0.00    -0.744 OA
ENDBRANCH  61  65
ENDBRANCH  44  58
BRANCH  45  69
ATOM     69  C   UNL A   1      38.309  30.952  30.939  1.00  0.00     0.023 A 
ATOM     70  C   UNL A   1      37.269  31.582  30.239  1.00  0.00     0.031 A 
ATOM     71  C   UNL A   1      38.140  30.747  32.321  1.00  0.00     0.131 A 
ATOM     72  C   UNL A   1      36.138  32.047  30.929  1.00  0.00     0.055 A 
ATOM     73  C   UNL A   1      36.985  31.152  32.993  1.00  0.00     0.041 A 
ATOM     74  F   UNL A   1      39.099  30.144  33.041  1.00  0.00    -0.206 F 
ATOM     75  C   UNL A   1      35.983  31.824  32.299  1.00  0.00     0.022 A 
BRANCH  72  76
ATOM     76  S   UNL A   1      34.928  33.055  30.031  1.00  0.00     0.124 S 
ATOM     77  O   UNL A   1      35.772  34.103  29.469  1.00  0.00    -0.237 OA
ATOM     78  O   UNL A   1      34.381  32.093  29.080  1.00  0.00    -0.237 OA
ATOM     79  O   UNL A   1      34.005  33.490  31.077  1.00  0.00    -0.744 OA
ENDBRANCH  72  76
ENDBRANCH  45  69
BRANCH  57  80
ATOM     80  C   UNL A   1      44.406  34.224  30.089  1.00  0.00     0.023 A 
ATOM     81  C   UNL A   1      44.195  35.314  29.226  1.00  0.00     0.031 A 
ATOM     82  C   UNL A   1      45.075  34.461  31.303  1.00  0.00     0.131 A 
ATOM     83  C   UNL A   1      44.698  36.579  29.564  1.00  0.00     0.055 A 
ATOM     84  C   UNL A   1      45.520  35.734  31.660  1.00  0.00     0.041 A 
ATOM     85  F   UNL A   1      45.305  33.457  32.164  1.00  0.00    -0.206 F 
ATOM     86  C   UNL A   1      45.344  36.800  30.783  1.00  0.00     0.022 A 
BRANCH  83  87
ATOM     87  S   UNL A   1      44.573  37.919  28.347  1.00  0.00     0.124 S 
ATOM     88  O   UNL A   1      44.240  37.189  27.127  1.00  0.00    -0.237 OA
ATOM     89  O   UNL A   1      43.510  38.749  28.903  1.00  0.00    -0.237 OA
ATOM     90  O   UNL A   1      45.904  38.523  28.364  1.00  0.00    -0.744 OA
ENDBRANCH  83  87
ENDBRANCH  57  80
ENDBRANCH  31  32
ENDBRANCH  23  26
ENDBRANCH   1  22
TORSDOF 14
ENDMDL
