MODEL 1
REMARK VINA RESULT:     -11.7      0.000      0.000
REMARK SMILES CCc1cc(C(=O)N[C@@H]2C=C[C@H](C(=O)NCCCNC(=O)c3ccc(-c4c5nc(c(-c6cc(S(=O)(=O)[O-])ccc6F)c6ccc([nH]6)c(-c6cc(S(=O)(=O)[O-])ccc6F)c6nc(c(-c7cc(S(=O)(=O)[O-])ccc7F)c7ccc4[nH]7)C=C6)C=C5)cc3)C2)n(C)n1
REMARK SMILES IDX 17 1 16 2 15 3 13 4 14 5 12 7 9 8 10 9 85 10 11 11 8 12 6 13
REMARK SMILES IDX 7 14 5 16 3 17 4 18 88 19 86 20 87 21 2 22 1 23 18 24 19 25
REMARK SMILES IDX 20 26 21 28 22 29 23 30 84 31 24 32 83 33 25 34 26 35 27 36
REMARK SMILES IDX 77 37 28 38 82 39 76 40 78 41 29 42 81 43 75 44 74 45 30 47
REMARK SMILES IDX 62 48 42 49 61 50 43 51 46 52 60 53 79 54 44 55 45 56 59 58
REMARK SMILES IDX 80 59 47 60 31 61 32 62 40 63 33 64 39 65 41 66 38 67 34 68
REMARK SMILES IDX 35 69 36 70 37 71 63 72 64 73 72 74 65 75 71 76 73 77 70 78
REMARK SMILES IDX 66 79 67 80 68 81 69 82 48 83 49 84 57 85 50 86 56 87 58 88
REMARK SMILES IDX 55 89 51 90 52 91 53 92 54 93
REMARK H PARENT 15 6 8 15 19 27 78 46 46 57
REMARK Flexibility Score: inf
ROOT
ATOM      1  C   UNL A   1      31.563  29.315  26.987  1.00  0.00     0.042 C 
ENDROOT
BRANCH   1   2
ATOM      2  C   UNL A   1      31.923  27.897  27.376  1.00  0.00     0.117 C 
BRANCH   2   3
ATOM      3  N   UNL A   1      31.028  26.937  26.766  1.00  0.00    -0.356 N 
ATOM      4  C   UNL A   1      31.229  25.785  26.090  1.00  0.00     0.227 C 
ATOM      5  O   UNL A   1      30.224  25.311  25.537  1.00  0.00    -0.274 OA
ATOM      6  H   UNL A   1      30.077  27.173  26.864  1.00  0.00     0.163 HD
BRANCH   4   7
ATOM      7  C   UNL A   1      32.556  25.030  25.959  1.00  0.00     0.103 C 
ATOM      8  C   UNL A   1      34.002  24.373  24.066  1.00  0.00     0.106 C 
ATOM      9  C   UNL A   1      33.199  23.244  24.568  1.00  0.00    -0.006 C 
ATOM     10  C   UNL A   1      33.745  25.485  25.106  1.00  0.00     0.047 C 
ATOM     11  C   UNL A   1      32.369  23.599  25.552  1.00  0.00    -0.016 C 
BRANCH   8  12
ATOM     12  N   UNL A   1      33.794  24.714  22.667  1.00  0.00    -0.344 N 
ATOM     13  C   UNL A   1      33.133  25.598  21.854  1.00  0.00     0.270 C 
ATOM     14  O   UNL A   1      33.280  25.347  20.652  1.00  0.00    -0.268 OA
ATOM     15  H   UNL A   1      34.310  24.091  22.107  1.00  0.00     0.164 HD
BRANCH  13  16
ATOM     16  C   UNL A   1      32.421  26.785  22.263  1.00  0.00     0.126 A 
ATOM     17  C   UNL A   1      30.762  28.166  22.908  1.00  0.00     0.063 A 
ATOM     18  C   UNL A   1      31.093  26.812  22.697  1.00  0.00     0.059 A 
ATOM     19  N   UNL A   1      31.835  28.938  22.709  1.00  0.00    -0.178 NA
ATOM     20  N   UNL A   1      32.846  28.050  22.591  1.00  0.00    -0.263 N 
ATOM     21  C   UNL A   1      34.079  28.415  23.253  1.00  0.00     0.174 C 
BRANCH  17  22
ATOM     22  C   UNL A   1      29.463  28.761  23.336  1.00  0.00     0.055 C 
ATOM     23  C   UNL A   1      29.518  30.272  23.495  1.00  0.00     0.011 C 
ENDBRANCH  17  22
ENDBRANCH  13  16
ENDBRANCH   8  12
ENDBRANCH   4   7
ENDBRANCH   2   3
ENDBRANCH   1   2
BRANCH   1  24
ATOM     24  C   UNL A   1      32.626  30.027  26.170  1.00  0.00     0.118 C 
BRANCH  24  25
ATOM     25  N   UNL A   1      32.671  31.446  26.488  1.00  0.00    -0.352 N 
ATOM     26  C   UNL A   1      33.469  32.150  27.357  1.00  0.00     0.251 C 
ATOM     27  H   UNL A   1      32.018  31.995  25.996  1.00  0.00     0.163 HD
ATOM     28  O   UNL A   1      33.112  33.284  27.675  1.00  0.00    -0.269 OA
BRANCH  26  29
ATOM     29  C   UNL A   1      34.733  31.594  27.913  1.00  0.00     0.039 A 
ATOM     30  C   UNL A   1      34.751  30.255  28.325  1.00  0.00     0.014 A 
ATOM     31  C   UNL A   1      35.864  32.381  28.138  1.00  0.00     0.014 A 
ATOM     32  C   UNL A   1      35.890  29.714  28.938  1.00  0.00     0.010 A 
ATOM     33  C   UNL A   1      37.034  31.814  28.652  1.00  0.00     0.010 A 
ATOM     34  C   UNL A   1      37.051  30.484  29.095  1.00  0.00    -0.014 A 
BRANCH  34  35
ATOM     35  C   UNL A   1      38.260  29.950  29.788  1.00  0.00     0.031 A 
ATOM     36  C   UNL A   1      38.597  30.417  31.186  1.00  0.00     0.074 A 
ATOM     37  C   UNL A   1      39.081  29.083  29.162  1.00  0.00     0.049 A 
ATOM     38  N   UNL A   1      39.650  30.160  31.919  1.00  0.00    -0.248 NA
ATOM     39  C   UNL A   1      37.633  31.325  31.826  1.00  0.00     0.031 C 
ATOM     40  C   UNL A   1      38.893  28.568  27.804  1.00  0.00     0.029 A 
ATOM     41  N   UNL A   1      40.246  28.487  29.581  1.00  0.00    -0.354 N 
ATOM     42  C   UNL A   1      39.489  30.896  33.090  1.00  0.00     0.074 A 
ATOM     43  C   UNL A   1      38.270  31.659  32.937  1.00  0.00     0.031 C 
ATOM     44  C   UNL A   1      39.889  27.716  27.514  1.00  0.00     0.029 A 
ATOM     45  C   UNL A   1      40.816  27.659  28.641  1.00  0.00     0.049 A 
ATOM     46  H   UNL A   1      40.636  28.638  30.473  1.00  0.00     0.167 HD
ATOM     47  C   UNL A   1      40.269  30.916  34.203  1.00  0.00     0.034 A 
ATOM     48  C   UNL A   1      41.961  26.946  28.674  1.00  0.00     0.034 A 
ATOM     49  C   UNL A   1      41.465  30.125  34.359  1.00  0.00     0.049 A 
ATOM     50  C   UNL A   1      42.817  26.989  29.916  1.00  0.00     0.074 A 
ATOM     51  C   UNL A   1      42.298  30.030  35.461  1.00  0.00     0.029 A 
ATOM     52  N   UNL A   1      42.000  29.290  33.387  1.00  0.00    -0.354 N 
ATOM     53  N   UNL A   1      42.634  27.668  31.025  1.00  0.00    -0.248 NA
ATOM     54  C   UNL A   1      44.027  26.156  29.914  1.00  0.00     0.031 C 
ATOM     55  C   UNL A   1      43.368  29.191  35.134  1.00  0.00     0.029 A 
ATOM     56  C   UNL A   1      43.164  28.696  33.856  1.00  0.00     0.049 A 
ATOM     57  H   UNL A   1      41.611  29.140  32.495  1.00  0.00     0.167 HD
ATOM     58  C   UNL A   1      43.689  27.316  31.863  1.00  0.00     0.074 A 
ATOM     59  C   UNL A   1      44.495  26.356  31.137  1.00  0.00     0.031 C 
ATOM     60  C   UNL A   1      43.963  27.743  33.123  1.00  0.00     0.034 A 
BRANCH  47  61
ATOM     61  C   UNL A   1      39.856  31.843  35.325  1.00  0.00     0.023 A 
ATOM     62  C   UNL A   1      39.067  31.398  36.400  1.00  0.00     0.031 A 
ATOM     63  C   UNL A   1      40.231  33.198  35.304  1.00  0.00     0.131 A 
ATOM     64  C   UNL A   1      38.607  32.313  37.359  1.00  0.00     0.055 A 
ATOM     65  C   UNL A   1      39.844  34.085  36.311  1.00  0.00     0.041 A 
ATOM     66  F   UNL A   1      40.968  33.689  34.296  1.00  0.00    -0.206 F 
ATOM     67  C   UNL A   1      39.013  33.650  37.338  1.00  0.00     0.022 A 
BRANCH  64  68
ATOM     68  S   UNL A   1      37.345  31.765  38.542  1.00  0.00     0.124 S 
ATOM     69  O   UNL A   1      38.067  31.866  39.809  1.00  0.00    -0.237 OA
ATOM     70  O   UNL A   1      36.277  32.735  38.336  1.00  0.00    -0.237 OA
ATOM     71  O   UNL A   1      37.043  30.400  38.113  1.00  0.00    -0.744 OA
ENDBRANCH  64  68
ENDBRANCH  47  61
BRANCH  48  72
ATOM     72  C   UNL A   1      42.379  26.137  27.493  1.00  0.00     0.023 A 
ATOM     73  C   UNL A   1      42.017  24.787  27.374  1.00  0.00     0.031 A 
ATOM     74  C   UNL A   1      43.186  26.695  26.484  1.00  0.00     0.131 A 
ATOM     75  C   UNL A   1      42.499  24.024  26.298  1.00  0.00     0.055 A 
ATOM     76  C   UNL A   1      43.617  25.947  25.387  1.00  0.00     0.041 A 
ATOM     77  F   UNL A   1      43.557  27.983  26.546  1.00  0.00    -0.206 F 
ATOM     78  C   UNL A   1      43.284  24.599  25.297  1.00  0.00     0.022 A 
BRANCH  75  79
ATOM     79  S   UNL A   1      42.153  22.244  26.271  1.00  0.00     0.124 S 
ATOM     80  O   UNL A   1      42.678  21.819  27.564  1.00  0.00    -0.237 OA
ATOM     81  O   UNL A   1      40.701  22.219  26.128  1.00  0.00    -0.237 OA
ATOM     82  O   UNL A   1      42.899  21.770  25.107  1.00  0.00    -0.744 OA
ENDBRANCH  75  79
ENDBRANCH  48  72
BRANCH  60  83
ATOM     83  C   UNL A   1      45.155  27.127  33.816  1.00  0.00     0.023 A 
ATOM     84  C   UNL A   1      45.044  25.965  34.600  1.00  0.00     0.031 A 
ATOM     85  C   UNL A   1      46.424  27.723  33.693  1.00  0.00     0.131 A 
ATOM     86  C   UNL A   1      46.168  25.468  35.277  1.00  0.00     0.055 A 
ATOM     87  C   UNL A   1      47.551  27.189  34.319  1.00  0.00     0.041 A 
ATOM     88  F   UNL A   1      46.589  28.834  32.959  1.00  0.00    -0.206 F 
ATOM     89  C   UNL A   1      47.424  26.063  35.128  1.00  0.00     0.022 A 
BRANCH  86  90
ATOM     90  S   UNL A   1      45.952  24.086  36.431  1.00  0.00     0.124 S 
ATOM     91  O   UNL A   1      47.252  23.424  36.360  1.00  0.00    -0.237 OA
ATOM     92  O   UNL A   1      45.654  24.771  37.685  1.00  0.00    -0.237 OA
ATOM     93  O   UNL A   1      44.839  23.330  35.859  1.00  0.00    -0.744 OA
ENDBRANCH  86  90
ENDBRANCH  60  83
ENDBRANCH  34  35
ENDBRANCH  26  29
ENDBRANCH  24  25
ENDBRANCH   1  24
TORSDOF 16
ENDMDL
MODEL 2
REMARK VINA RESULT:     -11.6      2.230      2.653
REMARK SMILES CCc1cc(C(=O)N[C@@H]2C=C[C@H](C(=O)NCCCNC(=O)c3ccc(-c4c5nc(c(-c6cc(S(=O)(=O)[O-])ccc6F)c6ccc([nH]6)c(-c6cc(S(=O)(=O)[O-])ccc6F)c6nc(c(-c7cc(S(=O)(=O)[O-])ccc7F)c7ccc4[nH]7)C=C6)C=C5)cc3)C2)n(C)n1
REMARK SMILES IDX 17 1 16 2 15 3 13 4 14 5 12 7 9 8 10 9 85 10 11 11 8 12 6 13
REMARK SMILES IDX 7 14 5 16 3 17 4 18 88 19 86 20 87 21 2 22 1 23 18 24 19 25
REMARK SMILES IDX 20 26 21 28 22 29 23 30 84 31 24 32 83 33 25 34 26 35 27 36
REMARK SMILES IDX 77 37 28 38 82 39 76 40 78 41 29 42 81 43 75 44 74 45 30 47
REMARK SMILES IDX 62 48 42 49 61 50 43 51 46 52 60 53 79 54 44 55 45 56 59 58
REMARK SMILES IDX 80 59 47 60 31 61 32 62 40 63 33 64 39 65 41 66 38 67 34 68
REMARK SMILES IDX 35 69 36 70 37 71 63 72 64 73 72 74 65 75 71 76 73 77 70 78
REMARK SMILES IDX 66 79 67 80 68 81 69 82 48 83 49 84 57 85 50 86 56 87 58 88
REMARK SMILES IDX 55 89 51 90 52 91 53 92 54 93
REMARK H PARENT 15 6 8 15 19 27 78 46 46 57
REMARK Flexibility Score: inf
ROOT
ATOM      1  C   UNL A   1      32.345  29.456  27.028  1.00  0.00     0.042 C 
ENDROOT
BRANCH   1   2
ATOM      2  C   UNL A   1      31.782  28.618  25.900  1.00  0.00     0.117 C 
BRANCH   2   3
ATOM      3  N   UNL A   1      31.148  27.416  26.399  1.00  0.00    -0.356 N 
ATOM      4  C   UNL A   1      31.551  26.130  26.496  1.00  0.00     0.227 C 
ATOM      5  O   UNL A   1      30.665  25.318  26.804  1.00  0.00    -0.274 OA
ATOM      6  H   UNL A   1      30.236  27.568  26.736  1.00  0.00     0.163 HD
BRANCH   4   7
ATOM      7  C   UNL A   1      32.974  25.607  26.274  1.00  0.00     0.103 C 
ATOM      8  C   UNL A   1      34.374  25.173  24.285  1.00  0.00     0.106 C 
ATOM      9  C   UNL A   1      33.810  23.934  24.846  1.00  0.00    -0.006 C 
ATOM     10  C   UNL A   1      34.007  26.242  25.337  1.00  0.00     0.047 C 
ATOM     11  C   UNL A   1      33.003  24.159  25.885  1.00  0.00    -0.016 C 
BRANCH   8  12
ATOM     12  N   UNL A   1      34.015  25.455  22.903  1.00  0.00    -0.344 N 
ATOM     13  C   UNL A   1      32.969  25.864  22.117  1.00  0.00     0.270 C 
ATOM     14  O   UNL A   1      33.241  25.851  20.911  1.00  0.00    -0.268 OA
ATOM     15  H   UNL A   1      34.800  25.294  22.331  1.00  0.00     0.164 HD
BRANCH  13  16
ATOM     16  C   UNL A   1      31.699  26.383  22.567  1.00  0.00     0.126 A 
ATOM     17  C   UNL A   1      29.928  27.744  22.850  1.00  0.00     0.063 A 
ATOM     18  C   UNL A   1      31.097  27.549  22.087  1.00  0.00     0.059 A 
ATOM     19  N   UNL A   1      29.753  26.724  23.694  1.00  0.00    -0.178 NA
ATOM     20  N   UNL A   1      30.681  25.824  23.300  1.00  0.00    -0.263 N 
ATOM     21  C   UNL A   1      30.248  24.445  23.285  1.00  0.00     0.174 C 
BRANCH  17  22
ATOM     22  C   UNL A   1      28.933  28.855  22.781  1.00  0.00     0.055 C 
ATOM     23  C   UNL A   1      27.525  28.424  23.156  1.00  0.00     0.011 C 
ENDBRANCH  17  22
ENDBRANCH  13  16
ENDBRANCH   8  12
ENDBRANCH   4   7
ENDBRANCH   2   3
ENDBRANCH   1   2
BRANCH   1  24
ATOM     24  C   UNL A   1      33.618  30.204  26.675  1.00  0.00     0.118 C 
BRANCH  24  25
ATOM     25  N   UNL A   1      33.696  31.473  27.382  1.00  0.00    -0.352 N 
ATOM     26  C   UNL A   1      34.520  31.887  28.401  1.00  0.00     0.251 C 
ATOM     27  H   UNL A   1      33.049  32.150  27.078  1.00  0.00     0.163 HD
ATOM     28  O   UNL A   1      34.190  32.890  29.034  1.00  0.00    -0.269 OA
BRANCH  26  29
ATOM     29  C   UNL A   1      35.779  31.175  28.753  1.00  0.00     0.039 A 
ATOM     30  C   UNL A   1      35.700  30.045  29.578  1.00  0.00     0.014 A 
ATOM     31  C   UNL A   1      37.038  31.649  28.382  1.00  0.00     0.014 A 
ATOM     32  C   UNL A   1      36.866  29.397  30.010  1.00  0.00     0.010 A 
ATOM     33  C   UNL A   1      38.194  30.942  28.725  1.00  0.00     0.010 A 
ATOM     34  C   UNL A   1      38.128  29.829  29.575  1.00  0.00    -0.014 A 
BRANCH  34  35
ATOM     35  C   UNL A   1      39.387  29.189  30.057  1.00  0.00     0.031 A 
ATOM     36  C   UNL A   1      40.094  29.739  31.275  1.00  0.00     0.074 A 
ATOM     37  C   UNL A   1      39.924  28.148  29.391  1.00  0.00     0.049 A 
ATOM     38  N   UNL A   1      41.247  29.400  31.792  1.00  0.00    -0.248 NA
ATOM     39  C   UNL A   1      39.427  30.846  31.979  1.00  0.00     0.031 C 
ATOM     40  C   UNL A   1      39.363  27.532  28.188  1.00  0.00     0.029 A 
ATOM     41  N   UNL A   1      41.068  27.425  29.627  1.00  0.00    -0.354 N 
ATOM     42  C   UNL A   1      41.457  30.267  32.862  1.00  0.00     0.074 A 
ATOM     43  C   UNL A   1      40.342  31.189  32.873  1.00  0.00     0.031 C 
ATOM     44  C   UNL A   1      40.148  26.512  27.807  1.00  0.00     0.029 A 
ATOM     45  C   UNL A   1      41.296  26.428  28.706  1.00  0.00     0.049 A 
ATOM     46  H   UNL A   1      41.670  27.605  30.386  1.00  0.00     0.167 HD
ATOM     47  C   UNL A   1      42.469  30.281  33.768  1.00  0.00     0.034 A 
ATOM     48  C   UNL A   1      42.318  25.555  28.587  1.00  0.00     0.034 A 
ATOM     49  C   UNL A   1      43.558  29.336  33.768  1.00  0.00     0.049 A 
ATOM     50  C   UNL A   1      43.436  25.592  29.599  1.00  0.00     0.074 A 
ATOM     51  C   UNL A   1      44.606  29.227  34.668  1.00  0.00     0.029 A 
ATOM     52  N   UNL A   1      43.744  28.334  32.825  1.00  0.00    -0.354 N 
ATOM     53  N   UNL A   1      43.603  26.401  30.621  1.00  0.00    -0.248 NA
ATOM     54  C   UNL A   1      44.497  24.588  29.450  1.00  0.00     0.031 C 
ATOM     55  C   UNL A   1      45.455  28.205  34.234  1.00  0.00     0.029 A 
ATOM     56  C   UNL A   1      44.899  27.619  33.108  1.00  0.00     0.049 A 
ATOM     57  H   UNL A   1      43.143  28.155  32.065  1.00  0.00     0.167 HD
ATOM     58  C   UNL A   1      44.769  25.979  31.252  1.00  0.00     0.074 A 
ATOM     59  C   UNL A   1      45.257  24.838  30.506  1.00  0.00     0.031 C 
ATOM     60  C   UNL A   1      45.380  26.485  32.355  1.00  0.00     0.034 A 
BRANCH  47  61
ATOM     61  C   UNL A   1      42.448  31.370  34.817  1.00  0.00     0.023 A 
ATOM     62  C   UNL A   1      41.437  31.439  35.792  1.00  0.00     0.031 A 
ATOM     63  C   UNL A   1      43.436  32.371  34.826  1.00  0.00     0.131 A 
ATOM     64  C   UNL A   1      41.386  32.530  36.674  1.00  0.00     0.055 A 
ATOM     65  C   UNL A   1      43.430  33.405  35.765  1.00  0.00     0.041 A 
ATOM     66  F   UNL A   1      44.417  32.371  33.910  1.00  0.00    -0.206 F 
ATOM     67  C   UNL A   1      42.392  33.499  36.686  1.00  0.00     0.022 A 
BRANCH  64  68
ATOM     68  S   UNL A   1      39.904  32.745  37.698  1.00  0.00     0.124 S 
ATOM     69  O   UNL A   1      40.458  32.626  39.045  1.00  0.00    -0.237 OA
ATOM     70  O   UNL A   1      39.443  34.072  37.312  1.00  0.00    -0.237 OA
ATOM     71  O   UNL A   1      39.040  31.638  37.288  1.00  0.00    -0.744 OA
ENDBRANCH  64  68
ENDBRANCH  47  61
BRANCH  48  72
ATOM     72  C   UNL A   1      42.345  24.576  27.463  1.00  0.00     0.023 A 
ATOM     73  C   UNL A   1      41.620  23.376  27.530  1.00  0.00     0.031 A 
ATOM     74  C   UNL A   1      43.133  24.807  26.322  1.00  0.00     0.131 A 
ATOM     75  C   UNL A   1      41.735  22.430  26.498  1.00  0.00     0.055 A 
ATOM     76  C   UNL A   1      43.200  23.888  25.273  1.00  0.00     0.041 A 
ATOM     77  F   UNL A   1      43.843  25.941  26.205  1.00  0.00    -0.206 F 
ATOM     78  C   UNL A   1      42.507  22.685  25.364  1.00  0.00     0.022 A 
BRANCH  75  79
ATOM     79  S   UNL A   1      40.921  20.821  26.700  1.00  0.00     0.124 S 
ATOM     80  O   UNL A   1      41.892  19.919  26.091  1.00  0.00    -0.237 OA
ATOM     81  O   UNL A   1      40.781  20.731  28.149  1.00  0.00    -0.237 OA
ATOM     82  O   UNL A   1      39.668  20.980  25.964  1.00  0.00    -0.744 OA
ENDBRANCH  75  79
ENDBRANCH  48  72
BRANCH  60  83
ATOM     83  C   UNL A   1      46.613  25.768  32.852  1.00  0.00     0.023 A 
ATOM     84  C   UNL A   1      47.867  25.927  32.236  1.00  0.00     0.031 A 
ATOM     85  C   UNL A   1      46.525  24.903  33.958  1.00  0.00     0.131 A 
ATOM     86  C   UNL A   1      48.969  25.189  32.694  1.00  0.00     0.055 A 
ATOM     87  C   UNL A   1      47.638  24.219  34.448  1.00  0.00     0.041 A 
ATOM     88  F   UNL A   1      45.353  24.712  34.584  1.00  0.00    -0.206 F 
ATOM     89  C   UNL A   1      48.866  24.349  33.806  1.00  0.00     0.022 A 
BRANCH  86  90
ATOM     90  S   UNL A   1      50.523  25.269  31.760  1.00  0.00     0.124 S 
ATOM     91  O   UNL A   1      50.085  25.845  30.492  1.00  0.00    -0.237 OA
ATOM     92  O   UNL A   1      51.347  26.131  32.602  1.00  0.00    -0.237 OA
ATOM     93  O   UNL A   1      50.955  23.875  31.692  1.00  0.00    -0.744 OA
ENDBRANCH  86  90
ENDBRANCH  60  83
ENDBRANCH  34  35
ENDBRANCH  26  29
ENDBRANCH  24  25
ENDBRANCH   1  24
TORSDOF 16
ENDMDL
MODEL 3
REMARK VINA RESULT:     -11.6      2.259      2.634
REMARK SMILES CCc1cc(C(=O)N[C@@H]2C=C[C@H](C(=O)NCCCNC(=O)c3ccc(-c4c5nc(c(-c6cc(S(=O)(=O)[O-])ccc6F)c6ccc([nH]6)c(-c6cc(S(=O)(=O)[O-])ccc6F)c6nc(c(-c7cc(S(=O)(=O)[O-])ccc7F)c7ccc4[nH]7)C=C6)C=C5)cc3)C2)n(C)n1
REMARK SMILES IDX 17 1 16 2 15 3 13 4 14 5 12 7 9 8 10 9 85 10 11 11 8 12 6 13
REMARK SMILES IDX 7 14 5 16 3 17 4 18 88 19 86 20 87 21 2 22 1 23 18 24 19 25
REMARK SMILES IDX 20 26 21 28 22 29 23 30 84 31 24 32 83 33 25 34 26 35 27 36
REMARK SMILES IDX 77 37 28 38 82 39 76 40 78 41 29 42 81 43 75 44 74 45 30 47
REMARK SMILES IDX 62 48 42 49 61 50 43 51 46 52 60 53 79 54 44 55 45 56 59 58
REMARK SMILES IDX 80 59 47 60 31 61 32 62 40 63 33 64 39 65 41 66 38 67 34 68
REMARK SMILES IDX 35 69 36 70 37 71 63 72 64 73 72 74 65 75 71 76 73 77 70 78
REMARK SMILES IDX 66 79 67 80 68 81 69 82 48 83 49 84 57 85 50 86 56 87 58 88
REMARK SMILES IDX 55 89 51 90 52 91 53 92 54 93
REMARK H PARENT 15 6 8 15 19 27 78 46 46 57
REMARK Flexibility Score: inf
ROOT
ATOM      1  C   UNL A   1      32.262  28.745  26.195  1.00  0.00     0.042 C 
ENDROOT
BRANCH   1   2
ATOM      2  C   UNL A   1      31.734  27.898  27.334  1.00  0.00     0.117 C 
BRANCH   2   3
ATOM      3  N   UNL A   1      31.028  26.734  26.844  1.00  0.00    -0.356 N 
ATOM      4  C   UNL A   1      31.428  25.603  26.223  1.00  0.00     0.227 C 
ATOM      5  O   UNL A   1      30.516  24.895  25.770  1.00  0.00    -0.274 OA
ATOM      6  H   UNL A   1      30.056  26.775  26.995  1.00  0.00     0.163 HD
BRANCH   4   7
ATOM      7  C   UNL A   1      32.875  25.131  26.044  1.00  0.00     0.103 C 
ATOM      8  C   UNL A   1      34.320  24.659  24.096  1.00  0.00     0.106 C 
ATOM      9  C   UNL A   1      33.802  23.426  24.713  1.00  0.00    -0.006 C 
ATOM     10  C   UNL A   1      33.893  25.762  25.089  1.00  0.00     0.047 C 
ATOM     11  C   UNL A   1      32.971  23.668  25.730  1.00  0.00    -0.016 C 
BRANCH   8  12
ATOM     12  N   UNL A   1      33.969  24.855  22.698  1.00  0.00    -0.344 N 
ATOM     13  C   UNL A   1      33.176  25.613  21.875  1.00  0.00     0.270 C 
ATOM     14  O   UNL A   1      33.239  25.262  20.691  1.00  0.00    -0.268 OA
ATOM     15  H   UNL A   1      34.481  24.219  22.148  1.00  0.00     0.164 HD
BRANCH  13  16
ATOM     16  C   UNL A   1      32.414  26.782  22.245  1.00  0.00     0.126 A 
ATOM     17  C   UNL A   1      30.724  28.099  22.937  1.00  0.00     0.063 A 
ATOM     18  C   UNL A   1      31.144  26.758  22.825  1.00  0.00     0.059 A 
ATOM     19  N   UNL A   1      31.698  28.922  22.539  1.00  0.00    -0.178 NA
ATOM     20  N   UNL A   1      32.763  28.103  22.393  1.00  0.00    -0.263 N 
ATOM     21  C   UNL A   1      34.025  28.627  22.867  1.00  0.00     0.174 C 
BRANCH  17  22
ATOM     22  C   UNL A   1      29.432  28.641  23.452  1.00  0.00     0.055 C 
ATOM     23  C   UNL A   1      29.243  30.121  23.162  1.00  0.00     0.011 C 
ENDBRANCH  17  22
ENDBRANCH  13  16
ENDBRANCH   8  12
ENDBRANCH   4   7
ENDBRANCH   2   3
ENDBRANCH   1   2
BRANCH   1  24
ATOM     24  C   UNL A   1      33.666  29.280  26.415  1.00  0.00     0.118 C 
BRANCH  24  25
ATOM     25  N   UNL A   1      33.640  30.685  26.792  1.00  0.00    -0.352 N 
ATOM     26  C   UNL A   1      34.351  31.375  27.744  1.00  0.00     0.251 C 
ATOM     27  H   UNL A   1      33.007  31.234  26.276  1.00  0.00     0.163 HD
ATOM     28  O   UNL A   1      33.934  32.484  28.080  1.00  0.00    -0.269 OA
BRANCH  26  29
ATOM     29  C   UNL A   1      35.588  30.835  28.369  1.00  0.00     0.039 A 
ATOM     30  C   UNL A   1      36.827  31.336  27.945  1.00  0.00     0.014 A 
ATOM     31  C   UNL A   1      35.569  29.776  29.279  1.00  0.00     0.014 A 
ATOM     32  C   UNL A   1      38.021  30.793  28.439  1.00  0.00     0.010 A 
ATOM     33  C   UNL A   1      36.755  29.306  29.850  1.00  0.00     0.010 A 
ATOM     34  C   UNL A   1      37.999  29.781  29.410  1.00  0.00    -0.014 A 
BRANCH  34  35
ATOM     35  C   UNL A   1      39.254  29.151  29.916  1.00  0.00     0.031 A 
ATOM     36  C   UNL A   1      39.930  29.702  31.151  1.00  0.00     0.074 A 
ATOM     37  C   UNL A   1      39.814  28.117  29.258  1.00  0.00     0.049 A 
ATOM     38  N   UNL A   1      41.075  29.371  31.691  1.00  0.00    -0.248 NA
ATOM     39  C   UNL A   1      39.238  30.799  31.845  1.00  0.00     0.031 C 
ATOM     40  C   UNL A   1      39.284  27.501  28.040  1.00  0.00     0.029 A 
ATOM     41  N   UNL A   1      40.960  27.404  29.515  1.00  0.00    -0.354 N 
ATOM     42  C   UNL A   1      41.254  30.236  32.768  1.00  0.00     0.074 A 
ATOM     43  C   UNL A   1      40.130  31.147  32.760  1.00  0.00     0.031 C 
ATOM     44  C   UNL A   1      40.087  26.489  27.673  1.00  0.00     0.029 A 
ATOM     45  C   UNL A   1      41.216  26.413  28.595  1.00  0.00     0.049 A 
ATOM     46  H   UNL A   1      41.544  27.586  30.287  1.00  0.00     0.167 HD
ATOM     47  C   UNL A   1      42.245  30.255  33.696  1.00  0.00     0.034 A 
ATOM     48  C   UNL A   1      42.248  25.549  28.495  1.00  0.00     0.034 A 
ATOM     49  C   UNL A   1      43.344  29.319  33.716  1.00  0.00     0.049 A 
ATOM     50  C   UNL A   1      43.344  25.592  29.531  1.00  0.00     0.074 A 
ATOM     51  C   UNL A   1      44.372  29.217  34.638  1.00  0.00     0.029 A 
ATOM     52  N   UNL A   1      43.558  28.323  32.773  1.00  0.00    -0.354 N 
ATOM     53  N   UNL A   1      43.482  26.398  30.559  1.00  0.00    -0.248 NA
ATOM     54  C   UNL A   1      44.418  24.598  29.400  1.00  0.00     0.031 C 
ATOM     55  C   UNL A   1      45.240  28.203  34.218  1.00  0.00     0.029 A 
ATOM     56  C   UNL A   1      44.714  27.618  33.078  1.00  0.00     0.049 A 
ATOM     57  H   UNL A   1      42.976  28.142  32.000  1.00  0.00     0.167 HD
ATOM     58  C   UNL A   1      44.638  25.983  31.214  1.00  0.00     0.074 A 
ATOM     59  C   UNL A   1      45.153  24.850  30.473  1.00  0.00     0.031 C 
ATOM     60  C   UNL A   1      45.220  26.490  32.331  1.00  0.00     0.034 A 
BRANCH  47  61
ATOM     61  C   UNL A   1      42.193  31.339  34.749  1.00  0.00     0.023 A 
ATOM     62  C   UNL A   1      42.832  32.579  34.568  1.00  0.00     0.031 A 
ATOM     63  C   UNL A   1      41.522  31.120  35.965  1.00  0.00     0.131 A 
ATOM     64  C   UNL A   1      42.860  33.514  35.614  1.00  0.00     0.055 A 
ATOM     65  C   UNL A   1      41.477  32.091  36.968  1.00  0.00     0.041 A 
ATOM     66  F   UNL A   1      40.908  29.951  36.208  1.00  0.00    -0.206 F 
ATOM     67  C   UNL A   1      42.164  33.290  36.804  1.00  0.00     0.022 A 
BRANCH  64  68
ATOM     68  S   UNL A   1      43.951  34.955  35.456  1.00  0.00     0.124 S 
ATOM     69  O   UNL A   1      44.699  34.896  36.710  1.00  0.00    -0.237 OA
ATOM     70  O   UNL A   1      44.705  34.650  34.247  1.00  0.00    -0.237 OA
ATOM     71  O   UNL A   1      43.020  36.078  35.347  1.00  0.00    -0.744 OA
ENDBRANCH  64  68
ENDBRANCH  47  61
BRANCH  48  72
ATOM     72  C   UNL A   1      42.308  24.574  27.368  1.00  0.00     0.023 A 
ATOM     73  C   UNL A   1      41.553  23.391  27.392  1.00  0.00     0.031 A 
ATOM     74  C   UNL A   1      43.157  24.793  26.268  1.00  0.00     0.131 A 
ATOM     75  C   UNL A   1      41.697  22.448  26.362  1.00  0.00     0.055 A 
ATOM     76  C   UNL A   1      43.254  23.877  25.218  1.00  0.00     0.041 A 
ATOM     77  F   UNL A   1      43.897  25.910  26.193  1.00  0.00    -0.206 F 
ATOM     78  C   UNL A   1      42.530  22.690  25.268  1.00  0.00     0.022 A 
BRANCH  75  79
ATOM     79  S   UNL A   1      40.837  20.858  26.513  1.00  0.00     0.124 S 
ATOM     80  O   UNL A   1      41.723  19.969  25.769  1.00  0.00    -0.237 OA
ATOM     81  O   UNL A   1      40.804  20.667  27.959  1.00  0.00    -0.237 OA
ATOM     82  O   UNL A   1      39.540  21.112  25.891  1.00  0.00    -0.744 OA
ENDBRANCH  75  79
ENDBRANCH  48  72
BRANCH  60  83
ATOM     83  C   UNL A   1      46.449  25.782  32.851  1.00  0.00     0.023 A 
ATOM     84  C   UNL A   1      46.363  24.699  33.744  1.00  0.00     0.031 A 
ATOM     85  C   UNL A   1      47.728  26.207  32.450  1.00  0.00     0.131 A 
ATOM     86  C   UNL A   1      47.534  24.115  34.250  1.00  0.00     0.055 A 
ATOM     87  C   UNL A   1      48.889  25.583  32.909  1.00  0.00     0.041 A 
ATOM     88  F   UNL A   1      47.871  27.237  31.600  1.00  0.00    -0.206 F 
ATOM     89  C   UNL A   1      48.796  24.540  33.825  1.00  0.00     0.022 A 
BRANCH  86  90
ATOM     90  S   UNL A   1      47.392  22.852  35.545  1.00  0.00     0.124 S 
ATOM     91  O   UNL A   1      48.413  23.277  36.497  1.00  0.00    -0.237 OA
ATOM     92  O   UNL A   1      46.008  23.009  35.981  1.00  0.00    -0.237 OA
ATOM     93  O   UNL A   1      47.681  21.605  34.840  1.00  0.00    -0.744 OA
ENDBRANCH  86  90
ENDBRANCH  60  83
ENDBRANCH  34  35
ENDBRANCH  26  29
ENDBRANCH  24  25
ENDBRANCH   1  24
TORSDOF 16
ENDMDL
