MODEL 1
REMARK VINA RESULT:     -13.2      0.000      0.000
REMARK SMILES CC(C)n1c2c(c3ccccc31)[C@@H](c1ccccc1)N(CC(=O)NCCCNC(=O)c1ccc(-c3c4nc(c(-c5cc(S(=O)(=O)[O-])ccc5F)c5ccc([nH]5)c(-c5cc(S(=O)(=O)[O-])ccc5F)c5nc(c(-c6cc(S(=O)(=O)[O-])ccc6F)c6ccc3[nH]6)C=C5)C=C4)cc1)C2=O
REMARK SMILES IDX 26 1 25 2 24 3 22 4 23 5 21 7 20 8 4 9 5 10 12 11 6 12 94 13
REMARK SMILES IDX 7 14 11 15 13 16 95 17 8 18 10 19 9 20 2 21 1 22 3 23 14 24
REMARK SMILES IDX 15 25 19 26 16 27 18 28 17 29 27 30 28 31 29 32 30 34 31 35
REMARK SMILES IDX 32 36 93 37 33 38 92 39 34 40 35 41 36 42 86 43 37 44 91 45
REMARK SMILES IDX 85 46 87 47 38 48 90 49 84 50 83 51 39 53 71 54 51 55 70 56
REMARK SMILES IDX 52 57 55 58 69 59 88 60 53 61 54 62 68 64 89 65 56 66 40 67
REMARK SMILES IDX 41 68 49 69 42 70 48 71 50 72 47 73 43 74 44 75 45 76 46 77
REMARK SMILES IDX 72 78 73 79 81 80 74 81 80 82 82 83 79 84 75 85 76 86 77 87
REMARK SMILES IDX 78 88 57 89 58 90 66 91 59 92 65 93 67 94 64 95 60 96 61 97
REMARK SMILES IDX 62 98 63 99
REMARK H PARENT 24 6 28 33 87 52 55 63
REMARK Flexibility Score: inf
ROOT
ATOM      1  C   UNL A   1      37.070  21.836  24.238  1.00  0.00     0.042 C 
ENDROOT
BRANCH   1   2
ATOM      2  C   UNL A   1      36.204  22.893  23.547  1.00  0.00     0.117 C 
BRANCH   2   3
ATOM      3  N   UNL A   1      34.859  22.410  23.269  1.00  0.00    -0.354 N 
ATOM      4  C   UNL A   1      33.781  23.081  22.770  1.00  0.00     0.239 C 
ATOM      5  O   UNL A   1      32.712  22.471  22.663  1.00  0.00    -0.273 OA
ATOM      6  H   UNL A   1      34.705  21.459  23.473  1.00  0.00     0.163 HD
BRANCH   4   7
ATOM      7  C   UNL A   1      33.883  24.561  22.387  1.00  0.00     0.220 C 
BRANCH   7   8
ATOM      8  N   UNL A   1      33.190  25.409  23.338  1.00  0.00    -0.317 N 
ATOM      9  N   UNL A   1      31.362  28.352  24.240  1.00  0.00    -0.334 N 
ATOM     10  C   UNL A   1      32.024  27.194  23.978  1.00  0.00     0.114 A 
ATOM     11  C   UNL A   1      32.013  28.972  25.317  1.00  0.00     0.049 A 
ATOM     12  C   UNL A   1      33.013  27.008  24.909  1.00  0.00     0.018 A 
ATOM     13  C   UNL A   1      32.083  26.181  22.978  1.00  0.00     0.272 C 
ATOM     14  C   UNL A   1      33.064  28.135  25.738  1.00  0.00     0.006 A 
ATOM     15  C   UNL A   1      31.781  30.205  25.949  1.00  0.00     0.027 A 
ATOM     16  C   UNL A   1      33.758  25.748  24.667  1.00  0.00     0.150 C 
ATOM     17  O   UNL A   1      31.425  26.072  21.951  1.00  0.00    -0.267 OA
ATOM     18  C   UNL A   1      33.896  28.535  26.799  1.00  0.00     0.011 A 
ATOM     19  C   UNL A   1      32.617  30.579  27.007  1.00  0.00     0.002 A 
ATOM     20  C   UNL A   1      33.661  29.759  27.428  1.00  0.00     0.001 A 
BRANCH   9  21
ATOM     21  C   UNL A   1      30.226  28.923  23.512  1.00  0.00     0.082 C 
ATOM     22  C   UNL A   1      30.648  29.466  22.148  1.00  0.00     0.031 C 
ATOM     23  C   UNL A   1      29.022  27.988  23.396  1.00  0.00     0.031 C 
ENDBRANCH   9  21
BRANCH  16  24
ATOM     24  C   UNL A   1      33.388  24.717  25.728  1.00  0.00    -0.021 A 
ATOM     25  C   UNL A   1      34.425  23.988  26.342  1.00  0.00     0.006 A 
ATOM     26  C   UNL A   1      32.070  24.410  26.122  1.00  0.00     0.006 A 
ATOM     27  C   UNL A   1      34.155  22.972  27.266  1.00  0.00     0.000 A 
ATOM     28  C   UNL A   1      31.799  23.411  27.061  1.00  0.00     0.000 A 
ATOM     29  C   UNL A   1      32.841  22.682  27.622  1.00  0.00     0.000 A 
ENDBRANCH  16  24
ENDBRANCH   7   8
ENDBRANCH   4   7
ENDBRANCH   2   3
ENDBRANCH   1   2
BRANCH   1  30
ATOM     30  C   UNL A   1      37.673  22.300  25.561  1.00  0.00     0.118 C 
BRANCH  30  31
ATOM     31  N   UNL A   1      39.106  22.116  25.630  1.00  0.00    -0.352 N 
ATOM     32  C   UNL A   1      40.128  22.682  26.333  1.00  0.00     0.251 C 
ATOM     33  H   UNL A   1      39.419  21.409  25.020  1.00  0.00     0.163 HD
ATOM     34  O   UNL A   1      41.233  22.163  26.154  1.00  0.00    -0.269 OA
BRANCH  32  35
ATOM     35  C   UNL A   1      40.027  23.886  27.199  1.00  0.00     0.039 A 
ATOM     36  C   UNL A   1      39.008  24.839  27.171  1.00  0.00     0.014 A 
ATOM     37  C   UNL A   1      41.142  24.111  28.032  1.00  0.00     0.014 A 
ATOM     38  C   UNL A   1      39.186  26.062  27.813  1.00  0.00     0.010 A 
ATOM     39  C   UNL A   1      41.307  25.313  28.697  1.00  0.00     0.010 A 
ATOM     40  C   UNL A   1      40.376  26.322  28.497  1.00  0.00    -0.014 A 
BRANCH  40  41
ATOM     41  C   UNL A   1      40.622  27.668  29.002  1.00  0.00     0.031 A 
ATOM     42  C   UNL A   1      41.831  28.330  28.442  1.00  0.00     0.074 A 
ATOM     43  C   UNL A   1      39.759  28.289  29.835  1.00  0.00     0.049 A 
ATOM     44  N   UNL A   1      42.921  28.665  29.055  1.00  0.00    -0.248 NA
ATOM     45  C   UNL A   1      41.892  28.496  26.982  1.00  0.00     0.031 C 
ATOM     46  C   UNL A   1      38.414  27.865  30.247  1.00  0.00     0.029 A 
ATOM     47  N   UNL A   1      39.879  29.500  30.440  1.00  0.00    -0.354 N 
ATOM     48  C   UNL A   1      43.730  29.271  28.092  1.00  0.00     0.074 A 
ATOM     49  C   UNL A   1      43.120  28.986  26.818  1.00  0.00     0.031 C 
ATOM     50  C   UNL A   1      37.765  28.906  30.822  1.00  0.00     0.029 A 
ATOM     51  C   UNL A   1      38.700  30.004  30.974  1.00  0.00     0.049 A 
ATOM     52  H   UNL A   1      40.736  29.981  30.497  1.00  0.00     0.167 HD
ATOM     53  C   UNL A   1      44.732  30.136  28.423  1.00  0.00     0.034 A 
ATOM     54  C   UNL A   1      38.498  31.258  31.461  1.00  0.00     0.034 A 
ATOM     55  C   UNL A   1      45.069  30.039  29.816  1.00  0.00     0.049 A 
ATOM     56  C   UNL A   1      39.834  31.831  31.761  1.00  0.00     0.074 A 
ATOM     57  C   UNL A   1      45.651  29.077  30.614  1.00  0.00     0.029 A 
ATOM     58  N   UNL A   1      44.464  30.924  30.673  1.00  0.00    -0.354 N 
ATOM     59  N   UNL A   1      40.618  31.385  32.703  1.00  0.00    -0.248 NA
ATOM     60  C   UNL A   1      40.487  32.581  30.698  1.00  0.00     0.031 C 
ATOM     61  C   UNL A   1      44.965  29.167  31.858  1.00  0.00     0.029 A 
ATOM     62  C   UNL A   1      44.050  30.220  31.775  1.00  0.00     0.049 A 
ATOM     63  H   UNL A   1      44.349  31.889  30.525  1.00  0.00     0.167 HD
ATOM     64  C   UNL A   1      41.885  31.404  32.138  1.00  0.00     0.074 A 
ATOM     65  C   UNL A   1      41.750  32.214  30.927  1.00  0.00     0.031 C 
ATOM     66  C   UNL A   1      42.857  30.534  32.540  1.00  0.00     0.034 A 
BRANCH  53  67
ATOM     67  C   UNL A   1      45.164  31.296  27.559  1.00  0.00     0.023 A 
ATOM     68  C   UNL A   1      44.374  32.448  27.379  1.00  0.00     0.031 A 
ATOM     69  C   UNL A   1      46.487  31.379  27.075  1.00  0.00     0.131 A 
ATOM     70  C   UNL A   1      44.870  33.592  26.743  1.00  0.00     0.055 A 
ATOM     71  C   UNL A   1      47.005  32.547  26.500  1.00  0.00     0.041 A 
ATOM     72  F   UNL A   1      47.333  30.344  27.195  1.00  0.00    -0.206 F 
ATOM     73  C   UNL A   1      46.196  33.663  26.331  1.00  0.00     0.022 A 
BRANCH  70  74
ATOM     74  S   UNL A   1      43.789  35.019  26.449  1.00  0.00     0.124 S 
ATOM     75  O   UNL A   1      44.740  36.124  26.467  1.00  0.00    -0.237 OA
ATOM     76  O   UNL A   1      43.222  34.693  25.142  1.00  0.00    -0.237 OA
ATOM     77  O   UNL A   1      42.845  34.966  27.560  1.00  0.00    -0.744 OA
ENDBRANCH  70  74
ENDBRANCH  53  67
BRANCH  54  78
ATOM     78  C   UNL A   1      37.362  32.140  31.085  1.00  0.00     0.023 A 
ATOM     79  C   UNL A   1      36.589  32.739  32.099  1.00  0.00     0.031 A 
ATOM     80  C   UNL A   1      36.822  32.125  29.787  1.00  0.00     0.131 A 
ATOM     81  C   UNL A   1      35.312  33.246  31.818  1.00  0.00     0.055 A 
ATOM     82  C   UNL A   1      35.555  32.654  29.503  1.00  0.00     0.041 A 
ATOM     83  F   UNL A   1      37.484  31.527  28.784  1.00  0.00    -0.206 F 
ATOM     84  C   UNL A   1      34.787  33.204  30.526  1.00  0.00     0.022 A 
BRANCH  81  85
ATOM     85  S   UNL A   1      34.258  33.869  33.156  1.00  0.00     0.124 S 
ATOM     86  O   UNL A   1      33.192  32.871  33.196  1.00  0.00    -0.237 OA
ATOM     87  O   UNL A   1      35.177  33.853  34.288  1.00  0.00    -0.237 OA
ATOM     88  O   UNL A   1      33.850  35.189  32.683  1.00  0.00    -0.744 OA
ENDBRANCH  81  85
ENDBRANCH  54  78
BRANCH  66  89
ATOM     89  C   UNL A   1      42.595  29.661  33.751  1.00  0.00     0.023 A 
ATOM     90  C   UNL A   1      43.258  30.002  34.940  1.00  0.00     0.031 A 
ATOM     91  C   UNL A   1      41.936  28.416  33.712  1.00  0.00     0.131 A 
ATOM     92  C   UNL A   1      43.300  29.101  36.011  1.00  0.00     0.055 A 
ATOM     93  C   UNL A   1      41.916  27.549  34.812  1.00  0.00     0.041 A 
ATOM     94  F   UNL A   1      41.369  27.960  32.589  1.00  0.00    -0.206 F 
ATOM     95  C   UNL A   1      42.618  27.884  35.964  1.00  0.00     0.022 A 
BRANCH  92  96
ATOM     96  S   UNL A   1      44.390  29.421  37.420  1.00  0.00     0.124 S 
ATOM     97  O   UNL A   1      43.670  30.470  38.137  1.00  0.00    -0.237 OA
ATOM     98  O   UNL A   1      44.423  28.117  38.081  1.00  0.00    -0.237 OA
ATOM     99  O   UNL A   1      45.649  29.834  36.808  1.00  0.00    -0.744 OA
ENDBRANCH  92  96
ENDBRANCH  66  89
ENDBRANCH  40  41
ENDBRANCH  32  35
ENDBRANCH  30  31
ENDBRANCH   1  30
TORSDOF 16
ENDMDL
MODEL 2
REMARK VINA RESULT:     -13.1      3.245      8.687
REMARK SMILES CC(C)n1c2c(c3ccccc31)[C@@H](c1ccccc1)N(CC(=O)NCCCNC(=O)c1ccc(-c3c4nc(c(-c5cc(S(=O)(=O)[O-])ccc5F)c5ccc([nH]5)c(-c5cc(S(=O)(=O)[O-])ccc5F)c5nc(c(-c6cc(S(=O)(=O)[O-])ccc6F)c6ccc3[nH]6)C=C5)C=C4)cc1)C2=O
REMARK SMILES IDX 26 1 25 2 24 3 22 4 23 5 21 7 20 8 4 9 5 10 12 11 6 12 94 13
REMARK SMILES IDX 7 14 11 15 13 16 95 17 8 18 10 19 9 20 2 21 1 22 3 23 14 24
REMARK SMILES IDX 15 25 19 26 16 27 18 28 17 29 27 30 28 31 29 32 30 34 31 35
REMARK SMILES IDX 32 36 93 37 33 38 92 39 34 40 35 41 36 42 86 43 37 44 91 45
REMARK SMILES IDX 85 46 87 47 38 48 90 49 84 50 83 51 39 53 71 54 51 55 70 56
REMARK SMILES IDX 52 57 55 58 69 59 88 60 53 61 54 62 68 64 89 65 56 66 40 67
REMARK SMILES IDX 41 68 49 69 42 70 48 71 50 72 47 73 43 74 44 75 45 76 46 77
REMARK SMILES IDX 72 78 73 79 81 80 74 81 80 82 82 83 79 84 75 85 76 86 77 87
REMARK SMILES IDX 78 88 57 89 58 90 66 91 59 92 65 93 67 94 64 95 60 96 61 97
REMARK SMILES IDX 62 98 63 99
REMARK H PARENT 24 6 28 33 87 52 55 63
REMARK Flexibility Score: inf
ROOT
ATOM      1  C   UNL A   1      32.039  29.421  27.028  1.00  0.00     0.042 C 
ENDROOT
BRANCH   1   2
ATOM      2  C   UNL A   1      31.574  27.978  27.241  1.00  0.00     0.117 C 
BRANCH   2   3
ATOM      3  N   UNL A   1      30.776  27.485  26.128  1.00  0.00    -0.354 N 
ATOM      4  C   UNL A   1      30.531  26.201  25.737  1.00  0.00     0.239 C 
ATOM      5  O   UNL A   1      29.855  26.020  24.719  1.00  0.00    -0.273 OA
ATOM      6  H   UNL A   1      30.352  28.181  25.576  1.00  0.00     0.163 HD
BRANCH   4   7
ATOM      7  C   UNL A   1      31.109  25.016  26.517  1.00  0.00     0.220 C 
BRANCH   7   8
ATOM      8  N   UNL A   1      32.135  24.325  25.759  1.00  0.00    -0.317 N 
ATOM      9  N   UNL A   1      34.042  21.423  24.888  1.00  0.00    -0.334 N 
ATOM     10  C   UNL A   1      33.346  22.564  25.136  1.00  0.00     0.114 A 
ATOM     11  C   UNL A   1      35.406  21.731  25.003  1.00  0.00     0.049 A 
ATOM     12  C   UNL A   1      34.218  23.608  25.311  1.00  0.00     0.018 A 
ATOM     13  C   UNL A   1      32.008  22.986  25.383  1.00  0.00     0.272 C 
ATOM     14  C   UNL A   1      35.525  23.106  25.281  1.00  0.00     0.006 A 
ATOM     15  C   UNL A   1      36.547  20.918  24.904  1.00  0.00     0.027 A 
ATOM     16  C   UNL A   1      33.501  24.879  25.575  1.00  0.00     0.150 C 
ATOM     17  O   UNL A   1      30.982  22.319  25.411  1.00  0.00    -0.267 OA
ATOM     18  C   UNL A   1      36.798  23.676  25.467  1.00  0.00     0.011 A 
ATOM     19  C   UNL A   1      37.803  21.508  25.086  1.00  0.00     0.002 A 
ATOM     20  C   UNL A   1      37.930  22.866  25.364  1.00  0.00     0.001 A 
BRANCH   9  21
ATOM     21  C   UNL A   1      33.510  20.084  24.624  1.00  0.00     0.082 C 
ATOM     22  C   UNL A   1      32.920  19.453  25.884  1.00  0.00     0.031 C 
ATOM     23  C   UNL A   1      32.528  20.021  23.453  1.00  0.00     0.031 C 
ENDBRANCH   9  21
BRANCH  16  24
ATOM     24  C   UNL A   1      33.591  25.787  24.354  1.00  0.00    -0.021 A 
ATOM     25  C   UNL A   1      33.963  27.131  24.547  1.00  0.00     0.006 A 
ATOM     26  C   UNL A   1      33.294  25.388  23.035  1.00  0.00     0.006 A 
ATOM     27  C   UNL A   1      33.990  28.041  23.483  1.00  0.00     0.000 A 
ATOM     28  C   UNL A   1      33.342  26.290  21.968  1.00  0.00     0.000 A 
ATOM     29  C   UNL A   1      33.676  27.619  22.195  1.00  0.00     0.000 A 
ENDBRANCH  16  24
ENDBRANCH   7   8
ENDBRANCH   4   7
ENDBRANCH   2   3
ENDBRANCH   1   2
BRANCH   1  30
ATOM     30  C   UNL A   1      33.536  29.627  27.246  1.00  0.00     0.118 C 
BRANCH  30  31
ATOM     31  N   UNL A   1      33.911  31.020  27.354  1.00  0.00    -0.352 N 
ATOM     32  C   UNL A   1      35.014  31.701  27.776  1.00  0.00     0.251 C 
ATOM     33  H   UNL A   1      33.195  31.621  27.047  1.00  0.00     0.163 HD
ATOM     34  O   UNL A   1      34.960  32.925  27.621  1.00  0.00    -0.269 OA
BRANCH  32  35
ATOM     35  C   UNL A   1      36.194  31.111  28.460  1.00  0.00     0.039 A 
ATOM     36  C   UNL A   1      37.279  31.814  28.986  1.00  0.00     0.014 A 
ATOM     37  C   UNL A   1      36.238  29.703  28.454  1.00  0.00     0.014 A 
ATOM     38  C   UNL A   1      38.447  31.134  29.324  1.00  0.00     0.010 A 
ATOM     39  C   UNL A   1      37.386  29.022  28.819  1.00  0.00     0.010 A 
ATOM     40  C   UNL A   1      38.520  29.749  29.153  1.00  0.00    -0.014 A 
BRANCH  40  41
ATOM     41  C   UNL A   1      39.803  29.082  29.333  1.00  0.00     0.031 A 
ATOM     42  C   UNL A   1      40.136  28.747  30.745  1.00  0.00     0.074 A 
ATOM     43  C   UNL A   1      40.572  28.713  28.286  1.00  0.00     0.049 A 
ATOM     44  N   UNL A   1      41.083  29.229  31.483  1.00  0.00    -0.248 NA
ATOM     45  C   UNL A   1      39.195  27.882  31.471  1.00  0.00     0.031 C 
ATOM     46  C   UNL A   1      40.247  28.737  26.854  1.00  0.00     0.029 A 
ATOM     47  N   UNL A   1      41.811  28.153  28.293  1.00  0.00    -0.354 N 
ATOM     48  C   UNL A   1      40.982  28.574  32.711  1.00  0.00     0.074 A 
ATOM     49  C   UNL A   1      39.712  27.892  32.699  1.00  0.00     0.031 C 
ATOM     50  C   UNL A   1      41.150  27.996  26.169  1.00  0.00     0.029 A 
ATOM     51  C   UNL A   1      42.204  27.596  27.082  1.00  0.00     0.049 A 
ATOM     52  H   UNL A   1      42.384  28.144  29.092  1.00  0.00     0.167 HD
ATOM     53  C   UNL A   1      42.036  28.471  33.571  1.00  0.00     0.034 A 
ATOM     54  C   UNL A   1      43.298  26.818  26.862  1.00  0.00     0.034 A 
ATOM     55  C   UNL A   1      43.078  29.402  33.237  1.00  0.00     0.049 A 
ATOM     56  C   UNL A   1      44.233  27.049  27.990  1.00  0.00     0.074 A 
ATOM     57  C   UNL A   1      43.204  30.775  33.263  1.00  0.00     0.029 A 
ATOM     58  N   UNL A   1      44.100  28.945  32.444  1.00  0.00    -0.354 N 
ATOM     59  N   UNL A   1      44.845  28.181  28.203  1.00  0.00    -0.248 NA
ATOM     60  C   UNL A   1      44.109  26.173  29.145  1.00  0.00     0.031 C 
ATOM     61  C   UNL A   1      43.984  31.093  32.115  1.00  0.00     0.029 A 
ATOM     62  C   UNL A   1      44.346  29.898  31.489  1.00  0.00     0.049 A 
ATOM     63  H   UNL A   1      44.572  28.087  32.543  1.00  0.00     0.167 HD
ATOM     64  C   UNL A   1      44.783  28.357  29.578  1.00  0.00     0.074 A 
ATOM     65  C   UNL A   1      44.378  27.055  30.110  1.00  0.00     0.031 C 
ATOM     66  C   UNL A   1      44.784  29.602  30.138  1.00  0.00     0.034 A 
BRANCH  53  67
ATOM     67  C   UNL A   1      42.256  27.302  34.501  1.00  0.00     0.023 A 
ATOM     68  C   UNL A   1      43.035  26.184  34.145  1.00  0.00     0.031 A 
ATOM     69  C   UNL A   1      41.880  27.379  35.858  1.00  0.00     0.131 A 
ATOM     70  C   UNL A   1      43.394  25.207  35.081  1.00  0.00     0.055 A 
ATOM     71  C   UNL A   1      42.296  26.439  36.809  1.00  0.00     0.041 A 
ATOM     72  F   UNL A   1      41.141  28.404  36.312  1.00  0.00    -0.206 F 
ATOM     73  C   UNL A   1      43.058  25.343  36.423  1.00  0.00     0.022 A 
BRANCH  70  74
ATOM     74  S   UNL A   1      44.318  23.734  34.561  1.00  0.00     0.124 S 
ATOM     75  O   UNL A   1      43.380  23.099  33.644  1.00  0.00    -0.237 OA
ATOM     76  O   UNL A   1      45.500  24.332  33.944  1.00  0.00    -0.237 OA
ATOM     77  O   UNL A   1      44.568  23.030  35.815  1.00  0.00    -0.744 OA
ENDBRANCH  70  74
ENDBRANCH  53  67
BRANCH  54  78
ATOM     78  C   UNL A   1      43.280  25.515  26.147  1.00  0.00     0.023 A 
ATOM     79  C   UNL A   1      42.418  24.495  26.593  1.00  0.00     0.031 A 
ATOM     80  C   UNL A   1      44.318  25.145  25.272  1.00  0.00     0.131 A 
ATOM     81  C   UNL A   1      42.634  23.162  26.215  1.00  0.00     0.055 A 
ATOM     82  C   UNL A   1      44.518  23.815  24.877  1.00  0.00     0.041 A 
ATOM     83  F   UNL A   1      45.205  26.059  24.848  1.00  0.00    -0.206 F 
ATOM     84  C   UNL A   1      43.681  22.813  25.363  1.00  0.00     0.022 A 
BRANCH  81  85
ATOM     85  S   UNL A   1      41.619  21.833  26.921  1.00  0.00     0.124 S 
ATOM     86  O   UNL A   1      40.523  22.578  27.534  1.00  0.00    -0.237 OA
ATOM     87  O   UNL A   1      41.268  21.066  25.731  1.00  0.00    -0.237 OA
ATOM     88  O   UNL A   1      42.522  21.176  27.861  1.00  0.00    -0.744 OA
ENDBRANCH  81  85
ENDBRANCH  54  78
BRANCH  66  89
ATOM     89  C   UNL A   1      45.043  30.799  29.246  1.00  0.00     0.023 A 
ATOM     90  C   UNL A   1      46.344  31.327  29.246  1.00  0.00     0.031 A 
ATOM     91  C   UNL A   1      44.038  31.556  28.611  1.00  0.00     0.131 A 
ATOM     92  C   UNL A   1      46.599  32.584  28.684  1.00  0.00     0.055 A 
ATOM     93  C   UNL A   1      44.312  32.779  27.984  1.00  0.00     0.041 A 
ATOM     94  F   UNL A   1      42.753  31.187  28.652  1.00  0.00    -0.206 F 
ATOM     95  C   UNL A   1      45.596  33.307  28.035  1.00  0.00     0.022 A 
BRANCH  92  96
ATOM     96  S   UNL A   1      48.203  33.381  28.941  1.00  0.00     0.124 S 
ATOM     97  O   UNL A   1      47.922  34.767  28.575  1.00  0.00    -0.237 OA
ATOM     98  O   UNL A   1      48.437  33.142  30.365  1.00  0.00    -0.237 OA
ATOM     99  O   UNL A   1      49.103  32.666  28.041  1.00  0.00    -0.744 OA
ENDBRANCH  92  96
ENDBRANCH  66  89
ENDBRANCH  40  41
ENDBRANCH  32  35
ENDBRANCH  30  31
ENDBRANCH   1  30
TORSDOF 16
ENDMDL
MODEL 3
REMARK VINA RESULT:     -12.8      2.296      3.573
REMARK SMILES CC(C)n1c2c(c3ccccc31)[C@@H](c1ccccc1)N(CC(=O)NCCCNC(=O)c1ccc(-c3c4nc(c(-c5cc(S(=O)(=O)[O-])ccc5F)c5ccc([nH]5)c(-c5cc(S(=O)(=O)[O-])ccc5F)c5nc(c(-c6cc(S(=O)(=O)[O-])ccc6F)c6ccc3[nH]6)C=C5)C=C4)cc1)C2=O
REMARK SMILES IDX 26 1 25 2 24 3 22 4 23 5 21 7 20 8 4 9 5 10 12 11 6 12 94 13
REMARK SMILES IDX 7 14 11 15 13 16 95 17 8 18 10 19 9 20 2 21 1 22 3 23 14 24
REMARK SMILES IDX 15 25 19 26 16 27 18 28 17 29 27 30 28 31 29 32 30 34 31 35
REMARK SMILES IDX 32 36 93 37 33 38 92 39 34 40 35 41 36 42 86 43 37 44 91 45
REMARK SMILES IDX 85 46 87 47 38 48 90 49 84 50 83 51 39 53 71 54 51 55 70 56
REMARK SMILES IDX 52 57 55 58 69 59 88 60 53 61 54 62 68 64 89 65 56 66 40 67
REMARK SMILES IDX 41 68 49 69 42 70 48 71 50 72 47 73 43 74 44 75 45 76 46 77
REMARK SMILES IDX 72 78 73 79 81 80 74 81 80 82 82 83 79 84 75 85 76 86 77 87
REMARK SMILES IDX 78 88 57 89 58 90 66 91 59 92 65 93 67 94 64 95 60 96 61 97
REMARK SMILES IDX 62 98 63 99
REMARK H PARENT 24 6 28 33 87 52 55 63
REMARK Flexibility Score: inf
ROOT
ATOM      1  C   UNL A   1      40.838  20.584  27.368  1.00  0.00     0.042 C 
ENDROOT
BRANCH   1   2
ATOM      2  C   UNL A   1      40.058  21.003  26.119  1.00  0.00     0.117 C 
BRANCH   2   3
ATOM      3  N   UNL A   1      39.138  22.099  26.384  1.00  0.00    -0.354 N 
ATOM      4  C   UNL A   1      37.921  22.366  25.828  1.00  0.00     0.239 C 
ATOM      5  O   UNL A   1      37.332  23.394  26.177  1.00  0.00    -0.273 OA
ATOM      6  H   UNL A   1      39.439  22.744  27.064  1.00  0.00     0.163 HD
BRANCH   4   7
ATOM      7  C   UNL A   1      37.317  21.435  24.771  1.00  0.00     0.220 C 
BRANCH   7   8
ATOM      8  N   UNL A   1      35.958  21.815  24.436  1.00  0.00    -0.317 N 
ATOM      9  N   UNL A   1      33.430  24.216  23.618  1.00  0.00    -0.334 N 
ATOM     10  C   UNL A   1      34.332  23.236  23.893  1.00  0.00     0.114 A 
ATOM     11  C   UNL A   1      32.359  24.061  24.510  1.00  0.00     0.049 A 
ATOM     12  C   UNL A   1      33.831  22.407  24.863  1.00  0.00     0.018 A 
ATOM     13  C   UNL A   1      35.672  22.875  23.572  1.00  0.00     0.272 C 
ATOM     14  C   UNL A   1      32.609  22.928  25.308  1.00  0.00     0.006 A 
ATOM     15  C   UNL A   1      31.197  24.828  24.699  1.00  0.00     0.027 A 
ATOM     16  C   UNL A   1      34.780  21.315  25.190  1.00  0.00     0.150 C 
ATOM     17  O   UNL A   1      36.464  23.435  22.825  1.00  0.00    -0.267 OA
ATOM     18  C   UNL A   1      31.692  22.558  26.308  1.00  0.00     0.011 A 
ATOM     19  C   UNL A   1      30.295  24.437  25.696  1.00  0.00     0.002 A 
ATOM     20  C   UNL A   1      30.537  23.320  26.490  1.00  0.00     0.001 A 
BRANCH   9  21
ATOM     21  C   UNL A   1      33.549  25.298  22.638  1.00  0.00     0.082 C 
ATOM     22  C   UNL A   1      32.477  25.194  21.553  1.00  0.00     0.031 C 
ATOM     23  C   UNL A   1      33.592  26.698  23.252  1.00  0.00     0.031 C 
ENDBRANCH   9  21
BRANCH  16  24
ATOM     24  C   UNL A   1      34.261  19.995  24.631  1.00  0.00    -0.021 A 
ATOM     25  C   UNL A   1      32.976  19.972  24.055  1.00  0.00     0.006 A 
ATOM     26  C   UNL A   1      34.962  18.773  24.678  1.00  0.00     0.006 A 
ATOM     27  C   UNL A   1      32.403  18.781  23.595  1.00  0.00     0.000 A 
ATOM     28  C   UNL A   1      34.401  17.587  24.198  1.00  0.00     0.000 A 
ATOM     29  C   UNL A   1      33.116  17.588  23.670  1.00  0.00     0.000 A 
ENDBRANCH  16  24
ENDBRANCH   7   8
ENDBRANCH   4   7
ENDBRANCH   2   3
ENDBRANCH   1   2
BRANCH   1  30
ATOM     30  C   UNL A   1      42.296  21.037  27.367  1.00  0.00     0.118 C 
BRANCH  30  31
ATOM     31  N   UNL A   1      42.647  21.826  26.206  1.00  0.00    -0.352 N 
ATOM     32  C   UNL A   1      42.639  23.153  25.893  1.00  0.00     0.251 C 
ATOM     33  H   UNL A   1      42.970  21.268  25.462  1.00  0.00     0.163 HD
ATOM     34  O   UNL A   1      43.111  23.429  24.786  1.00  0.00    -0.269 OA
BRANCH  32  35
ATOM     35  C   UNL A   1      42.047  24.239  26.716  1.00  0.00     0.039 A 
ATOM     36  C   UNL A   1      40.985  25.068  26.350  1.00  0.00     0.014 A 
ATOM     37  C   UNL A   1      42.723  24.501  27.925  1.00  0.00     0.014 A 
ATOM     38  C   UNL A   1      40.729  26.229  27.075  1.00  0.00     0.010 A 
ATOM     39  C   UNL A   1      42.451  25.638  28.665  1.00  0.00     0.010 A 
ATOM     40  C   UNL A   1      41.526  26.549  28.178  1.00  0.00    -0.014 A 
BRANCH  40  41
ATOM     41  C   UNL A   1      41.366  27.854  28.809  1.00  0.00     0.031 A 
ATOM     42  C   UNL A   1      42.287  28.907  28.303  1.00  0.00     0.074 A 
ATOM     43  C   UNL A   1      40.389  28.098  29.710  1.00  0.00     0.049 A 
ATOM     44  N   UNL A   1      43.246  29.507  28.932  1.00  0.00    -0.248 NA
ATOM     45  C   UNL A   1      42.233  29.214  26.865  1.00  0.00     0.031 C 
ATOM     46  C   UNL A   1      39.259  27.242  30.095  1.00  0.00     0.029 A 
ATOM     47  N   UNL A   1      40.156  29.227  30.430  1.00  0.00    -0.354 N 
ATOM     48  C   UNL A   1      43.787  30.418  28.024  1.00  0.00     0.074 A 
ATOM     49  C   UNL A   1      43.242  30.074  26.735  1.00  0.00     0.031 C 
ATOM     50  C   UNL A   1      38.346  27.974  30.777  1.00  0.00     0.029 A 
ATOM     51  C   UNL A   1      38.902  29.290  31.025  1.00  0.00     0.049 A 
ATOM     52  H   UNL A   1      40.824  29.944  30.523  1.00  0.00     0.167 HD
ATOM     53  C   UNL A   1      44.486  31.519  28.426  1.00  0.00     0.034 A 
ATOM     54  C   UNL A   1      38.345  30.370  31.635  1.00  0.00     0.034 A 
ATOM     55  C   UNL A   1      44.896  31.407  29.798  1.00  0.00     0.049 A 
ATOM     56  C   UNL A   1      39.450  31.300  31.974  1.00  0.00     0.074 A 
ATOM     57  C   UNL A   1      45.779  30.605  30.491  1.00  0.00     0.029 A 
ATOM     58  N   UNL A   1      44.084  31.979  30.746  1.00  0.00    -0.354 N 
ATOM     59  N   UNL A   1      40.372  31.037  32.858  1.00  0.00    -0.248 NA
ATOM     60  C   UNL A   1      39.794  32.308  30.983  1.00  0.00     0.031 C 
ATOM     61  C   UNL A   1      45.151  30.366  31.746  1.00  0.00     0.029 A 
ATOM     62  C   UNL A   1      43.954  31.085  31.779  1.00  0.00     0.049 A 
ATOM     63  H   UNL A   1      43.670  32.870  30.695  1.00  0.00     0.167 HD
ATOM     64  C   UNL A   1      41.547  31.500  32.282  1.00  0.00     0.074 A 
ATOM     65  C   UNL A   1      41.117  32.333  31.158  1.00  0.00     0.031 C 
ATOM     66  C   UNL A   1      42.756  30.943  32.585  1.00  0.00     0.034 A 
BRANCH  53  67
ATOM     67  C   UNL A   1      44.504  32.829  27.675  1.00  0.00     0.023 A 
ATOM     68  C   UNL A   1      43.688  33.920  28.030  1.00  0.00     0.031 A 
ATOM     69  C   UNL A   1      45.508  33.099  26.723  1.00  0.00     0.131 A 
ATOM     70  C   UNL A   1      43.857  35.185  27.456  1.00  0.00     0.055 A 
ATOM     71  C   UNL A   1      45.723  34.381  26.199  1.00  0.00     0.041 A 
ATOM     72  F   UNL A   1      46.349  32.136  26.313  1.00  0.00    -0.206 F 
ATOM     73  C   UNL A   1      44.895  35.434  26.565  1.00  0.00     0.022 A 
BRANCH  70  74
ATOM     74  S   UNL A   1      42.724  36.540  27.872  1.00  0.00     0.124 S 
ATOM     75  O   UNL A   1      43.572  37.401  28.687  1.00  0.00    -0.237 OA
ATOM     76  O   UNL A   1      42.384  37.056  26.547  1.00  0.00    -0.237 OA
ATOM     77  O   UNL A   1      41.632  35.869  28.569  1.00  0.00    -0.744 OA
ENDBRANCH  70  74
ENDBRANCH  53  67
BRANCH  54  78
ATOM     78  C   UNL A   1      36.977  30.885  31.362  1.00  0.00     0.023 A 
ATOM     79  C   UNL A   1      36.536  30.997  30.029  1.00  0.00     0.031 A 
ATOM     80  C   UNL A   1      36.245  31.576  32.344  1.00  0.00     0.131 A 
ATOM     81  C   UNL A   1      35.443  31.815  29.706  1.00  0.00     0.055 A 
ATOM     82  C   UNL A   1      35.138  32.374  32.022  1.00  0.00     0.041 A 
ATOM     83  F   UNL A   1      36.640  31.551  33.627  1.00  0.00    -0.206 F 
ATOM     84  C   UNL A   1      34.743  32.508  30.693  1.00  0.00     0.022 A 
BRANCH  81  85
ATOM     85  S   UNL A   1      34.980  32.083  27.972  1.00  0.00     0.124 S 
ATOM     86  O   UNL A   1      35.890  33.155  27.575  1.00  0.00    -0.237 OA
ATOM     87  O   UNL A   1      35.256  30.776  27.387  1.00  0.00    -0.237 OA
ATOM     88  O   UNL A   1      33.573  32.465  28.050  1.00  0.00    -0.744 OA
ENDBRANCH  81  85
ENDBRANCH  54  78
BRANCH  66  89
ATOM     89  C   UNL A   1      42.827  29.926  33.707  1.00  0.00     0.023 A 
ATOM     90  C   UNL A   1      43.305  30.376  34.947  1.00  0.00     0.031 A 
ATOM     91  C   UNL A   1      42.678  28.535  33.537  1.00  0.00     0.131 A 
ATOM     92  C   UNL A   1      43.669  29.460  35.941  1.00  0.00     0.055 A 
ATOM     93  C   UNL A   1      42.973  27.625  34.560  1.00  0.00     0.041 A 
ATOM     94  F   UNL A   1      42.331  28.008  32.357  1.00  0.00    -0.206 F 
ATOM     95  C   UNL A   1      43.489  28.087  35.765  1.00  0.00     0.022 A 
BRANCH  92  96
ATOM     96  S   UNL A   1      44.550  30.028  37.417  1.00  0.00     0.124 S 
ATOM     97  O   UNL A   1      45.564  30.915  36.850  1.00  0.00    -0.237 OA
ATOM     98  O   UNL A   1      43.486  30.690  38.170  1.00  0.00    -0.237 OA
ATOM     99  O   UNL A   1      45.060  28.800  38.020  1.00  0.00    -0.744 OA
ENDBRANCH  92  96
ENDBRANCH  66  89
ENDBRANCH  40  41
ENDBRANCH  32  35
ENDBRANCH  30  31
ENDBRANCH   1  30
TORSDOF 16
ENDMDL
