MODEL 1
REMARK VINA RESULT:     -12.9      0.000      0.000
REMARK SMILES Cc1ccc(C)c(S(=O)(=O)N[C@H](CC2=c3ccccc3=NC2)C(=O)NCCCNC(=O)c2ccc(-c3c4nc(c(-c5cc(S(=O)(=O)[O-])ccc5F)c5ccc([nH]5)c(-c5cc(S(=O)(=O)[O-])ccc5F)c5nc(c(-c6cc(S(=O)(=O)[O-])ccc6F)c6ccc3[nH]6)C=C5)C=C4)cc2)c1
REMARK SMILES IDX 27 1 26 2 25 3 23 4 24 5 12 7 11 8 8 10 9 11 10 12 7 13 1 14
REMARK SMILES IDX 2 15 3 16 95 17 4 18 5 19 6 20 13 21 14 22 15 23 22 24 16 25
REMARK SMILES IDX 20 26 21 27 17 28 19 29 18 30 28 31 29 32 30 33 31 35 32 36
REMARK SMILES IDX 33 37 94 38 34 39 93 40 35 41 36 42 37 43 87 44 38 45 92 46
REMARK SMILES IDX 86 47 88 48 39 49 91 50 85 51 84 52 40 54 72 55 52 56 71 57
REMARK SMILES IDX 53 58 56 59 70 60 89 61 54 62 55 63 69 65 90 66 57 67 41 68
REMARK SMILES IDX 42 69 50 70 43 71 49 72 51 73 48 74 44 75 45 76 46 77 47 78
REMARK SMILES IDX 73 79 74 80 82 81 75 82 81 83 83 84 80 85 76 86 77 87 78 88
REMARK SMILES IDX 79 89 58 90 59 91 67 92 60 93 66 94 68 95 65 96 61 97 62 98
REMARK SMILES IDX 63 99 64 100
REMARK H PARENT 25 6 11 9 29 34 88 53 56 64
REMARK Flexibility Score: inf
ROOT
ATOM      1  C   UNL A   1      32.311  30.417  26.761  1.00  0.00     0.042 C 
ENDROOT
BRANCH   1   2
ATOM      2  C   UNL A   1      32.302  29.814  25.356  1.00  0.00     0.117 C 
BRANCH   2   3
ATOM      3  N   UNL A   1      31.152  30.066  24.494  1.00  0.00    -0.355 N 
ATOM      4  C   UNL A   1      30.225  29.307  23.828  1.00  0.00     0.238 C 
ATOM      5  O   UNL A   1      29.335  29.936  23.247  1.00  0.00    -0.273 OA
ATOM      6  H   UNL A   1      31.004  31.029  24.354  1.00  0.00     0.163 HD
BRANCH   4   7
ATOM      7  C   UNL A   1      30.256  27.772  23.766  1.00  0.00     0.163 C 
BRANCH   7   8
ATOM      8  N   UNL A   1      31.180  27.289  24.848  1.00  0.00    -0.198 NA
ATOM      9  H   UNL A   1      31.927  26.773  24.384  1.00  0.00     0.142 HD
BRANCH   8  10
ATOM     10  S   UNL A   1      30.614  26.303  26.085  1.00  0.00     0.241 S 
ATOM     11  O   UNL A   1      29.359  25.728  25.683  1.00  0.00    -0.207 OA
ATOM     12  O   UNL A   1      30.732  27.137  27.270  1.00  0.00    -0.207 OA
BRANCH  10  13
ATOM     13  C   UNL A   1      31.831  25.028  26.243  1.00  0.00     0.085 A 
ATOM     14  C   UNL A   1      35.502  24.638  25.337  1.00  0.00     0.044 C 
ATOM     15  C   UNL A   1      34.121  24.320  25.830  1.00  0.00    -0.050 A 
ATOM     16  C   UNL A   1      33.764  23.025  26.200  1.00  0.00     0.004 A 
ATOM     17  C   UNL A   1      33.155  25.323  25.894  1.00  0.00     0.025 A 
ATOM     18  C   UNL A   1      32.461  22.741  26.626  1.00  0.00     0.005 A 
ATOM     19  C   UNL A   1      31.470  23.736  26.654  1.00  0.00    -0.031 A 
ATOM     20  C   UNL A   1      30.097  23.351  27.130  1.00  0.00     0.046 C 
ENDBRANCH  10  13
ENDBRANCH   8  10
ENDBRANCH   7   8
BRANCH   7  21
ATOM     21  C   UNL A   1      30.634  27.117  22.390  1.00  0.00     0.063 C 
BRANCH  21  22
ATOM     22  C   UNL A   1      31.726  26.079  22.252  1.00  0.00    -0.037 C 
ATOM     23  C   UNL A   1      31.772  24.772  22.534  1.00  0.00     0.001 A 
ATOM     24  C   UNL A   1      33.097  26.533  21.887  1.00  0.00     0.174 C 
ATOM     25  C   UNL A   1      30.877  23.774  23.032  1.00  0.00     0.010 A 
ATOM     26  C   UNL A   1      33.192  24.427  22.285  1.00  0.00     0.065 A 
ATOM     27  N   UNL A   1      34.009  25.389  21.982  1.00  0.00    -0.280 NA
ATOM     28  C   UNL A   1      31.330  22.517  23.195  1.00  0.00     0.001 A 
ATOM     29  C   UNL A   1      33.600  23.020  22.424  1.00  0.00     0.028 A 
ATOM     30  C   UNL A   1      32.690  22.135  22.852  1.00  0.00     0.002 A 
ENDBRANCH  21  22
ENDBRANCH   7  21
ENDBRANCH   4   7
ENDBRANCH   2   3
ENDBRANCH   1   2
BRANCH   1  31
ATOM     31  C   UNL A   1      33.510  30.148  27.649  1.00  0.00     0.118 C 
BRANCH  31  32
ATOM     32  N   UNL A   1      34.038  31.340  28.289  1.00  0.00    -0.352 N 
ATOM     33  C   UNL A   1      35.234  31.479  28.965  1.00  0.00     0.251 C 
ATOM     34  H   UNL A   1      33.475  32.146  28.235  1.00  0.00     0.163 HD
ATOM     35  O   UNL A   1      35.481  32.528  29.555  1.00  0.00    -0.269 OA
BRANCH  33  36
ATOM     36  C   UNL A   1      36.273  30.439  28.796  1.00  0.00     0.039 A 
ATOM     37  C   UNL A   1      36.364  29.483  29.811  1.00  0.00     0.014 A 
ATOM     38  C   UNL A   1      37.283  30.550  27.840  1.00  0.00     0.014 A 
ATOM     39  C   UNL A   1      37.571  28.834  30.018  1.00  0.00     0.010 A 
ATOM     40  C   UNL A   1      38.508  29.966  28.090  1.00  0.00     0.010 A 
ATOM     41  C   UNL A   1      38.672  29.172  29.225  1.00  0.00    -0.014 A 
BRANCH  41  42
ATOM     42  C   UNL A   1      39.944  28.494  29.430  1.00  0.00     0.031 A 
ATOM     43  C   UNL A   1      40.371  28.596  30.843  1.00  0.00     0.074 A 
ATOM     44  C   UNL A   1      40.583  27.712  28.538  1.00  0.00     0.049 A 
ATOM     45  N   UNL A   1      41.050  29.560  31.379  1.00  0.00    -0.248 NA
ATOM     46  C   UNL A   1      39.705  27.715  31.820  1.00  0.00     0.031 C 
ATOM     47  C   UNL A   1      40.101  27.205  27.254  1.00  0.00     0.029 A 
ATOM     48  N   UNL A   1      41.813  27.134  28.651  1.00  0.00    -0.354 N 
ATOM     49  C   UNL A   1      41.100  29.237  32.730  1.00  0.00     0.074 A 
ATOM     50  C   UNL A   1      39.985  28.358  32.954  1.00  0.00     0.031 C 
ATOM     51  C   UNL A   1      40.932  26.225  26.818  1.00  0.00     0.029 A 
ATOM     52  C   UNL A   1      42.080  26.147  27.707  1.00  0.00     0.049 A 
ATOM     53  H   UNL A   1      42.461  27.394  29.345  1.00  0.00     0.167 HD
ATOM     54  C   UNL A   1      42.254  29.362  33.448  1.00  0.00     0.034 A 
ATOM     55  C   UNL A   1      43.150  25.309  27.710  1.00  0.00     0.034 A 
ATOM     56  C   UNL A   1      43.264  30.005  32.648  1.00  0.00     0.049 A 
ATOM     57  C   UNL A   1      44.193  25.915  28.573  1.00  0.00     0.074 A 
ATOM     58  C   UNL A   1      43.515  31.276  32.184  1.00  0.00     0.029 A 
ATOM     59  N   UNL A   1      43.975  29.128  31.864  1.00  0.00    -0.354 N 
ATOM     60  N   UNL A   1      44.828  27.015  28.279  1.00  0.00    -0.248 NA
ATOM     61  C   UNL A   1      44.272  25.504  29.970  1.00  0.00     0.031 C 
ATOM     62  C   UNL A   1      44.243  31.111  30.971  1.00  0.00     0.029 A 
ATOM     63  C   UNL A   1      44.476  29.751  30.754  1.00  0.00     0.049 A 
ATOM     64  H   UNL A   1      44.108  28.176  32.074  1.00  0.00     0.167 HD
ATOM     65  C   UNL A   1      44.976  27.654  29.495  1.00  0.00     0.074 A 
ATOM     66  C   UNL A   1      44.786  26.616  30.502  1.00  0.00     0.031 C 
ATOM     67  C   UNL A   1      44.908  29.013  29.578  1.00  0.00     0.034 A 
BRANCH  54  68
ATOM     68  C   UNL A   1      42.639  28.487  34.629  1.00  0.00     0.023 A 
ATOM     69  C   UNL A   1      42.702  27.082  34.577  1.00  0.00     0.031 A 
ATOM     70  C   UNL A   1      43.162  29.069  35.801  1.00  0.00     0.131 A 
ATOM     71  C   UNL A   1      43.233  26.316  35.621  1.00  0.00     0.055 A 
ATOM     72  C   UNL A   1      43.754  28.311  36.822  1.00  0.00     0.041 A 
ATOM     73  F   UNL A   1      43.157  30.401  35.973  1.00  0.00    -0.206 F 
ATOM     74  C   UNL A   1      43.793  26.925  36.736  1.00  0.00     0.022 A 
BRANCH  71  75
ATOM     75  S   UNL A   1      43.207  24.503  35.520  1.00  0.00     0.124 S 
ATOM     76  O   UNL A   1      44.190  24.128  36.530  1.00  0.00    -0.237 OA
ATOM     77  O   UNL A   1      41.815  24.210  35.848  1.00  0.00    -0.237 OA
ATOM     78  O   UNL A   1      43.584  24.229  34.135  1.00  0.00    -0.744 OA
ENDBRANCH  71  75
ENDBRANCH  54  68
BRANCH  55  79
ATOM     79  C   UNL A   1      43.161  23.848  27.436  1.00  0.00     0.023 A 
ATOM     80  C   UNL A   1      44.067  23.337  26.490  1.00  0.00     0.031 A 
ATOM     81  C   UNL A   1      42.071  23.030  27.795  1.00  0.00     0.131 A 
ATOM     82  C   UNL A   1      43.831  22.097  25.878  1.00  0.00     0.055 A 
ATOM     83  C   UNL A   1      41.853  21.778  27.203  1.00  0.00     0.041 A 
ATOM     84  F   UNL A   1      41.144  23.468  28.662  1.00  0.00    -0.206 F 
ATOM     85  C   UNL A   1      42.725  21.315  26.221  1.00  0.00     0.022 A 
BRANCH  82  86
ATOM     86  S   UNL A   1      44.888  21.531  24.516  1.00  0.00     0.124 S 
ATOM     87  O   UNL A   1      44.390  20.180  24.274  1.00  0.00    -0.237 OA
ATOM     88  O   UNL A   1      44.583  22.506  23.475  1.00  0.00    -0.237 OA
ATOM     89  O   UNL A   1      46.236  21.599  25.072  1.00  0.00    -0.744 OA
ENDBRANCH  82  86
ENDBRANCH  55  79
BRANCH  67  90
ATOM     90  C   UNL A   1      45.144  29.823  28.331  1.00  0.00     0.023 A 
ATOM     91  C   UNL A   1      46.467  30.233  28.109  1.00  0.00     0.031 A 
ATOM     92  C   UNL A   1      44.142  30.364  27.508  1.00  0.00     0.131 A 
ATOM     93  C   UNL A   1      46.754  31.216  27.161  1.00  0.00     0.055 A 
ATOM     94  C   UNL A   1      44.443  31.288  26.499  1.00  0.00     0.041 A 
ATOM     95  F   UNL A   1      42.846  30.086  27.703  1.00  0.00    -0.206 F 
ATOM     96  C   UNL A   1      45.752  31.737  26.340  1.00  0.00     0.022 A 
BRANCH  93  97
ATOM     97  S   UNL A   1      48.402  31.962  27.112  1.00  0.00     0.124 S 
ATOM     98  O   UNL A   1      48.539  32.501  28.461  1.00  0.00    -0.237 OA
ATOM     99  O   UNL A   1      49.250  30.812  26.805  1.00  0.00    -0.237 OA
ATOM    100  O   UNL A   1      48.308  32.958  26.049  1.00  0.00    -0.744 OA
ENDBRANCH  93  97
ENDBRANCH  67  90
ENDBRANCH  41  42
ENDBRANCH  33  36
ENDBRANCH  31  32
ENDBRANCH   1  31
TORSDOF 18
ENDMDL
MODEL 2
REMARK VINA RESULT:     -12.8      3.291      8.494
REMARK SMILES Cc1ccc(C)c(S(=O)(=O)N[C@H](CC2=c3ccccc3=NC2)C(=O)NCCCNC(=O)c2ccc(-c3c4nc(c(-c5cc(S(=O)(=O)[O-])ccc5F)c5ccc([nH]5)c(-c5cc(S(=O)(=O)[O-])ccc5F)c5nc(c(-c6cc(S(=O)(=O)[O-])ccc6F)c6ccc3[nH]6)C=C5)C=C4)cc2)c1
REMARK SMILES IDX 27 1 26 2 25 3 23 4 24 5 12 7 11 8 8 10 9 11 10 12 7 13 1 14
REMARK SMILES IDX 2 15 3 16 95 17 4 18 5 19 6 20 13 21 14 22 15 23 22 24 16 25
REMARK SMILES IDX 20 26 21 27 17 28 19 29 18 30 28 31 29 32 30 33 31 35 32 36
REMARK SMILES IDX 33 37 94 38 34 39 93 40 35 41 36 42 37 43 87 44 38 45 92 46
REMARK SMILES IDX 86 47 88 48 39 49 91 50 85 51 84 52 40 54 72 55 52 56 71 57
REMARK SMILES IDX 53 58 56 59 70 60 89 61 54 62 55 63 69 65 90 66 57 67 41 68
REMARK SMILES IDX 42 69 50 70 43 71 49 72 51 73 48 74 44 75 45 76 46 77 47 78
REMARK SMILES IDX 73 79 74 80 82 81 75 82 81 83 83 84 80 85 76 86 77 87 78 88
REMARK SMILES IDX 79 89 58 90 59 91 67 92 60 93 66 94 68 95 65 96 61 97 62 98
REMARK SMILES IDX 63 99 64 100
REMARK H PARENT 25 6 11 9 29 34 88 53 56 64
REMARK Flexibility Score: inf
ROOT
ATOM      1  C   UNL A   1      38.190  22.528  25.731  1.00  0.00     0.042 C 
ENDROOT
BRANCH   1   2
ATOM      2  C   UNL A   1      36.807  22.945  26.233  1.00  0.00     0.117 C 
BRANCH   2   3
ATOM      3  N   UNL A   1      35.783  21.917  26.397  1.00  0.00    -0.355 N 
ATOM      4  C   UNL A   1      34.496  21.722  25.970  1.00  0.00     0.238 C 
ATOM      5  O   UNL A   1      33.986  20.641  26.282  1.00  0.00    -0.273 OA
ATOM      6  H   UNL A   1      36.100  21.174  26.959  1.00  0.00     0.163 HD
BRANCH   4   7
ATOM      7  C   UNL A   1      33.690  22.755  25.167  1.00  0.00     0.163 C 
BRANCH   7   8
ATOM      8  N   UNL A   1      32.237  22.394  25.287  1.00  0.00    -0.198 NA
ATOM      9  H   UNL A   1      31.816  22.573  24.375  1.00  0.00     0.142 HD
BRANCH   8  10
ATOM     10  S   UNL A   1      31.254  23.147  26.423  1.00  0.00     0.241 S 
ATOM     11  O   UNL A   1      31.912  23.111  27.701  1.00  0.00    -0.207 OA
ATOM     12  O   UNL A   1      29.953  22.535  26.212  1.00  0.00    -0.207 OA
BRANCH  10  13
ATOM     13  C   UNL A   1      31.119  24.822  25.869  1.00  0.00     0.085 A 
ATOM     14  C   UNL A   1      31.505  28.256  27.454  1.00  0.00     0.044 C 
ATOM     15  C   UNL A   1      31.228  27.184  26.442  1.00  0.00    -0.050 A 
ATOM     16  C   UNL A   1      30.691  27.489  25.192  1.00  0.00     0.004 A 
ATOM     17  C   UNL A   1      31.475  25.849  26.754  1.00  0.00     0.025 A 
ATOM     18  C   UNL A   1      30.407  26.472  24.273  1.00  0.00     0.005 A 
ATOM     19  C   UNL A   1      30.614  25.121  24.594  1.00  0.00    -0.031 A 
ATOM     20  C   UNL A   1      30.290  24.089  23.549  1.00  0.00     0.046 C 
ENDBRANCH  10  13
ENDBRANCH   8  10
ENDBRANCH   7   8
BRANCH   7  21
ATOM     21  C   UNL A   1      34.082  22.958  23.660  1.00  0.00     0.063 C 
BRANCH  21  22
ATOM     22  C   UNL A   1      33.865  24.264  22.929  1.00  0.00    -0.037 C 
ATOM     23  C   UNL A   1      33.915  25.541  23.323  1.00  0.00     0.001 A 
ATOM     24  C   UNL A   1      33.340  24.219  21.535  1.00  0.00     0.174 C 
ATOM     25  C   UNL A   1      34.208  26.256  24.526  1.00  0.00     0.010 A 
ATOM     26  C   UNL A   1      33.454  26.279  22.122  1.00  0.00     0.065 A 
ATOM     27  N   UNL A   1      33.050  25.589  21.100  1.00  0.00    -0.280 NA
ATOM     28  C   UNL A   1      34.130  27.601  24.519  1.00  0.00     0.001 A 
ATOM     29  C   UNL A   1      33.455  27.750  22.169  1.00  0.00     0.028 A 
ATOM     30  C   UNL A   1      33.787  28.349  23.320  1.00  0.00     0.002 A 
ENDBRANCH  21  22
ENDBRANCH   7  21
ENDBRANCH   4   7
ENDBRANCH   2   3
ENDBRANCH   1   2
BRANCH   1  31
ATOM     31  C   UNL A   1      39.387  22.795  26.622  1.00  0.00     0.118 C 
BRANCH  31  32
ATOM     32  N   UNL A   1      40.608  22.160  26.162  1.00  0.00    -0.352 N 
ATOM     33  C   UNL A   1      41.820  22.757  25.879  1.00  0.00     0.251 C 
ATOM     34  H   UNL A   1      40.567  21.184  26.036  1.00  0.00     0.163 HD
ATOM     35  O   UNL A   1      42.726  22.092  25.382  1.00  0.00    -0.269 OA
BRANCH  33  36
ATOM     36  C   UNL A   1      42.066  24.133  26.365  1.00  0.00     0.039 A 
ATOM     37  C   UNL A   1      42.590  24.250  27.655  1.00  0.00     0.014 A 
ATOM     38  C   UNL A   1      41.558  25.252  25.705  1.00  0.00     0.014 A 
ATOM     39  C   UNL A   1      42.361  25.415  28.371  1.00  0.00     0.010 A 
ATOM     40  C   UNL A   1      41.260  26.383  26.439  1.00  0.00     0.010 A 
ATOM     41  C   UNL A   1      41.591  26.430  27.793  1.00  0.00    -0.014 A 
BRANCH  41  42
ATOM     42  C   UNL A   1      41.347  27.660  28.534  1.00  0.00     0.031 A 
ATOM     43  C   UNL A   1      42.252  28.737  28.074  1.00  0.00     0.074 A 
ATOM     44  C   UNL A   1      40.330  27.888  29.387  1.00  0.00     0.049 A 
ATOM     45  N   UNL A   1      43.450  28.978  28.502  1.00  0.00    -0.248 NA
ATOM     46  C   UNL A   1      41.926  29.400  26.798  1.00  0.00     0.031 C 
ATOM     47  C   UNL A   1      39.148  27.066  29.643  1.00  0.00     0.029 A 
ATOM     48  N   UNL A   1      40.113  28.985  30.169  1.00  0.00    -0.354 N 
ATOM     49  C   UNL A   1      43.905  30.011  27.692  1.00  0.00     0.074 A 
ATOM     50  C   UNL A   1      43.108  29.939  26.498  1.00  0.00     0.031 C 
ATOM     51  C   UNL A   1      38.240  27.792  30.343  1.00  0.00     0.029 A 
ATOM     52  C   UNL A   1      38.836  29.065  30.716  1.00  0.00     0.049 A 
ATOM     53  H   UNL A   1      40.804  29.666  30.333  1.00  0.00     0.167 HD
ATOM     54  C   UNL A   1      44.581  31.076  28.212  1.00  0.00     0.034 A 
ATOM     55  C   UNL A   1      38.318  30.131  31.381  1.00  0.00     0.034 A 
ATOM     56  C   UNL A   1      44.860  30.849  29.607  1.00  0.00     0.049 A 
ATOM     57  C   UNL A   1      39.453  30.973  31.831  1.00  0.00     0.074 A 
ATOM     58  C   UNL A   1      45.712  30.058  30.341  1.00  0.00     0.029 A 
ATOM     59  N   UNL A   1      43.833  31.235  30.435  1.00  0.00    -0.354 N 
ATOM     60  N   UNL A   1      40.317  30.603  32.734  1.00  0.00    -0.248 NA
ATOM     61  C   UNL A   1      39.865  32.098  30.998  1.00  0.00     0.031 C 
ATOM     62  C   UNL A   1      45.053  29.822  31.582  1.00  0.00     0.029 A 
ATOM     63  C   UNL A   1      43.846  30.524  31.603  1.00  0.00     0.049 A 
ATOM     64  H   UNL A   1      43.174  31.933  30.216  1.00  0.00     0.167 HD
ATOM     65  C   UNL A   1      41.518  31.117  32.282  1.00  0.00     0.074 A 
ATOM     66  C   UNL A   1      41.156  32.162  31.330  1.00  0.00     0.031 C 
ATOM     67  C   UNL A   1      42.681  30.430  32.468  1.00  0.00     0.034 A 
BRANCH  54  68
ATOM     68  C   UNL A   1      44.543  32.486  27.647  1.00  0.00     0.023 A 
ATOM     69  C   UNL A   1      43.705  33.505  28.136  1.00  0.00     0.031 A 
ATOM     70  C   UNL A   1      45.518  32.903  26.719  1.00  0.00     0.131 A 
ATOM     71  C   UNL A   1      43.820  34.836  27.720  1.00  0.00     0.055 A 
ATOM     72  C   UNL A   1      45.681  34.247  26.347  1.00  0.00     0.041 A 
ATOM     73  F   UNL A   1      46.377  32.026  26.176  1.00  0.00    -0.206 F 
ATOM     74  C   UNL A   1      44.829  35.223  26.848  1.00  0.00     0.022 A 
BRANCH  71  75
ATOM     75  S   UNL A   1      42.651  36.083  28.331  1.00  0.00     0.124 S 
ATOM     76  O   UNL A   1      43.376  36.653  29.461  1.00  0.00    -0.237 OA
ATOM     77  O   UNL A   1      42.508  36.950  27.165  1.00  0.00    -0.237 OA
ATOM     78  O   UNL A   1      41.461  35.304  28.669  1.00  0.00    -0.744 OA
ENDBRANCH  71  75
ENDBRANCH  54  68
BRANCH  55  79
ATOM     79  C   UNL A   1      36.960  30.718  31.238  1.00  0.00     0.023 A 
ATOM     80  C   UNL A   1      36.448  30.950  29.950  1.00  0.00     0.031 A 
ATOM     81  C   UNL A   1      36.337  31.385  32.312  1.00  0.00     0.131 A 
ATOM     82  C   UNL A   1      35.414  31.877  29.753  1.00  0.00     0.055 A 
ATOM     83  C   UNL A   1      35.284  32.289  32.115  1.00  0.00     0.041 A 
ATOM     84  F   UNL A   1      36.797  31.242  33.565  1.00  0.00    -0.206 F 
ATOM     85  C   UNL A   1      34.832  32.556  30.826  1.00  0.00     0.022 A 
BRANCH  82  86
ATOM     86  S   UNL A   1      34.892  32.324  28.073  1.00  0.00     0.124 S 
ATOM     87  O   UNL A   1      36.006  33.148  27.609  1.00  0.00    -0.237 OA
ATOM     88  O   UNL A   1      34.775  31.017  27.438  1.00  0.00    -0.237 OA
ATOM     89  O   UNL A   1      33.639  33.044  28.279  1.00  0.00    -0.744 OA
ENDBRANCH  82  86
ENDBRANCH  55  79
BRANCH  67  90
ATOM     90  C   UNL A   1      42.732  29.381  33.546  1.00  0.00     0.023 A 
ATOM     91  C   UNL A   1      43.186  29.816  34.801  1.00  0.00     0.031 A 
ATOM     92  C   UNL A   1      42.569  27.999  33.349  1.00  0.00     0.131 A 
ATOM     93  C   UNL A   1      43.549  28.891  35.781  1.00  0.00     0.055 A 
ATOM     94  C   UNL A   1      42.854  27.077  34.364  1.00  0.00     0.041 A 
ATOM     95  F   UNL A   1      42.216  27.496  32.159  1.00  0.00    -0.206 F 
ATOM     96  C   UNL A   1      43.370  27.521  35.579  1.00  0.00     0.022 A 
BRANCH  93  97
ATOM     97  S   UNL A   1      44.429  29.450  37.260  1.00  0.00     0.124 S 
ATOM     98  O   UNL A   1      44.515  28.226  38.051  1.00  0.00    -0.237 OA
ATOM     99  O   UNL A   1      45.693  29.928  36.703  1.00  0.00    -0.237 OA
ATOM    100  O   UNL A   1      43.568  30.491  37.813  1.00  0.00    -0.744 OA
ENDBRANCH  93  97
ENDBRANCH  67  90
ENDBRANCH  41  42
ENDBRANCH  33  36
ENDBRANCH  31  32
ENDBRANCH   1  31
TORSDOF 18
ENDMDL
MODEL 3
REMARK VINA RESULT:     -12.8      2.121      2.891
REMARK SMILES Cc1ccc(C)c(S(=O)(=O)N[C@H](CC2=c3ccccc3=NC2)C(=O)NCCCNC(=O)c2ccc(-c3c4nc(c(-c5cc(S(=O)(=O)[O-])ccc5F)c5ccc([nH]5)c(-c5cc(S(=O)(=O)[O-])ccc5F)c5nc(c(-c6cc(S(=O)(=O)[O-])ccc6F)c6ccc3[nH]6)C=C5)C=C4)cc2)c1
REMARK SMILES IDX 27 1 26 2 25 3 23 4 24 5 12 7 11 8 8 10 9 11 10 12 7 13 1 14
REMARK SMILES IDX 2 15 3 16 95 17 4 18 5 19 6 20 13 21 14 22 15 23 22 24 16 25
REMARK SMILES IDX 20 26 21 27 17 28 19 29 18 30 28 31 29 32 30 33 31 35 32 36
REMARK SMILES IDX 33 37 94 38 34 39 93 40 35 41 36 42 37 43 87 44 38 45 92 46
REMARK SMILES IDX 86 47 88 48 39 49 91 50 85 51 84 52 40 54 72 55 52 56 71 57
REMARK SMILES IDX 53 58 56 59 70 60 89 61 54 62 55 63 69 65 90 66 57 67 41 68
REMARK SMILES IDX 42 69 50 70 43 71 49 72 51 73 48 74 44 75 45 76 46 77 47 78
REMARK SMILES IDX 73 79 74 80 82 81 75 82 81 83 83 84 80 85 76 86 77 87 78 88
REMARK SMILES IDX 79 89 58 90 59 91 67 92 60 93 66 94 68 95 65 96 61 97 62 98
REMARK SMILES IDX 63 99 64 100
REMARK H PARENT 25 6 11 9 29 34 88 53 56 64
REMARK Flexibility Score: inf
ROOT
ATOM      1  C   UNL A   1      34.778  29.934  26.539  1.00  0.00     0.042 C 
ENDROOT
BRANCH   1   2
ATOM      2  C   UNL A   1      33.396  29.627  25.960  1.00  0.00     0.117 C 
BRANCH   2   3
ATOM      3  N   UNL A   1      32.390  29.027  26.831  1.00  0.00    -0.355 N 
ATOM      4  C   UNL A   1      31.877  27.774  27.038  1.00  0.00     0.238 C 
ATOM      5  O   UNL A   1      31.060  27.675  27.959  1.00  0.00    -0.273 OA
ATOM      6  H   UNL A   1      31.973  29.696  27.420  1.00  0.00     0.163 HD
BRANCH   4   7
ATOM      7  C   UNL A   1      32.251  26.542  26.198  1.00  0.00     0.163 C 
BRANCH   7   8
ATOM      8  N   UNL A   1      31.752  25.325  26.925  1.00  0.00    -0.198 NA
ATOM      9  H   UNL A   1      32.576  24.789  27.195  1.00  0.00     0.142 HD
BRANCH   8  10
ATOM     10  S   UNL A   1      30.703  24.246  26.177  1.00  0.00     0.241 S 
ATOM     11  O   UNL A   1      30.034  24.923  25.099  1.00  0.00    -0.207 OA
ATOM     12  O   UNL A   1      29.971  23.655  27.284  1.00  0.00    -0.207 OA
BRANCH  10  13
ATOM     13  C   UNL A   1      31.747  22.975  25.526  1.00  0.00     0.085 A 
ATOM     14  C   UNL A   1      32.058  21.135  22.214  1.00  0.00     0.044 C 
ATOM     15  C   UNL A   1      32.294  21.540  23.639  1.00  0.00    -0.050 A 
ATOM     16  C   UNL A   1      33.147  20.813  24.468  1.00  0.00     0.004 A 
ATOM     17  C   UNL A   1      31.629  22.644  24.169  1.00  0.00     0.025 A 
ATOM     18  C   UNL A   1      33.329  21.187  25.803  1.00  0.00     0.005 A 
ATOM     19  C   UNL A   1      32.632  22.273  26.359  1.00  0.00    -0.031 A 
ATOM     20  C   UNL A   1      32.889  22.614  27.800  1.00  0.00     0.046 C 
ENDBRANCH  10  13
ENDBRANCH   8  10
ENDBRANCH   7   8
BRANCH   7  21
ATOM     21  C   UNL A   1      33.762  26.368  25.812  1.00  0.00     0.063 C 
BRANCH  21  22
ATOM     22  C   UNL A   1      34.237  25.333  24.816  1.00  0.00    -0.037 C 
ATOM     23  C   UNL A   1      35.169  24.376  24.880  1.00  0.00     0.001 A 
ATOM     24  C   UNL A   1      33.738  25.414  23.415  1.00  0.00     0.174 C 
ATOM     25  C   UNL A   1      36.086  23.870  25.853  1.00  0.00     0.010 A 
ATOM     26  C   UNL A   1      35.194  23.841  23.498  1.00  0.00     0.065 A 
ATOM     27  N   UNL A   1      34.458  24.428  22.603  1.00  0.00    -0.280 NA
ATOM     28  C   UNL A   1      36.908  22.860  25.509  1.00  0.00     0.001 A 
ATOM     29  C   UNL A   1      36.073  22.695  23.212  1.00  0.00     0.028 A 
ATOM     30  C   UNL A   1      36.870  22.248  24.191  1.00  0.00     0.002 A 
ENDBRANCH  21  22
ENDBRANCH   7  21
ENDBRANCH   4   7
ENDBRANCH   2   3
ENDBRANCH   1   2
BRANCH   1  31
ATOM     31  C   UNL A   1      34.966  29.831  28.039  1.00  0.00     0.118 C 
BRANCH  31  32
ATOM     32  N   UNL A   1      34.612  31.043  28.755  1.00  0.00    -0.352 N 
ATOM     33  C   UNL A   1      35.266  31.617  29.827  1.00  0.00     0.251 C 
ATOM     34  H   UNL A   1      33.808  31.514  28.437  1.00  0.00     0.163 HD
ATOM     35  O   UNL A   1      34.768  32.583  30.398  1.00  0.00    -0.269 OA
BRANCH  33  36
ATOM     36  C   UNL A   1      36.646  31.178  30.137  1.00  0.00     0.039 A 
ATOM     37  C   UNL A   1      37.671  31.820  29.437  1.00  0.00     0.014 A 
ATOM     38  C   UNL A   1      36.908  30.018  30.865  1.00  0.00     0.014 A 
ATOM     39  C   UNL A   1      38.876  31.160  29.253  1.00  0.00     0.010 A 
ATOM     40  C   UNL A   1      38.075  29.323  30.619  1.00  0.00     0.010 A 
ATOM     41  C   UNL A   1      39.024  29.861  29.749  1.00  0.00    -0.014 A 
BRANCH  41  42
ATOM     42  C   UNL A   1      40.286  29.158  29.566  1.00  0.00     0.031 A 
ATOM     43  C   UNL A   1      40.952  28.928  30.868  1.00  0.00     0.074 A 
ATOM     44  C   UNL A   1      40.733  28.609  28.420  1.00  0.00     0.049 A 
ATOM     45  N   UNL A   1      41.748  29.741  31.485  1.00  0.00    -0.248 NA
ATOM     46  C   UNL A   1      40.430  27.839  31.715  1.00  0.00     0.031 C 
ATOM     47  C   UNL A   1      40.021  28.416  27.158  1.00  0.00     0.029 A 
ATOM     48  N   UNL A   1      41.942  28.025  28.179  1.00  0.00    -0.354 N 
ATOM     49  C   UNL A   1      42.016  29.111  32.694  1.00  0.00     0.074 A 
ATOM     50  C   UNL A   1      40.924  28.200  32.900  1.00  0.00     0.031 C 
ATOM     51  C   UNL A   1      40.727  27.568  26.369  1.00  0.00     0.029 A 
ATOM     52  C   UNL A   1      42.007  27.288  27.001  1.00  0.00     0.049 A 
ATOM     53  H   UNL A   1      42.708  28.117  28.790  1.00  0.00     0.167 HD
ATOM     54  C   UNL A   1      43.280  29.068  33.208  1.00  0.00     0.034 A 
ATOM     55  C   UNL A   1      43.029  26.477  26.622  1.00  0.00     0.034 A 
ATOM     56  C   UNL A   1      44.162  29.885  32.414  1.00  0.00     0.049 A 
ATOM     57  C   UNL A   1      44.226  26.867  27.405  1.00  0.00     0.074 A 
ATOM     58  C   UNL A   1      44.377  31.230  32.221  1.00  0.00     0.029 A 
ATOM     59  N   UNL A   1      44.695  29.219  31.337  1.00  0.00    -0.354 N 
ATOM     60  N   UNL A   1      44.843  28.008  27.268  1.00  0.00    -0.248 NA
ATOM     61  C   UNL A   1      44.527  26.141  28.634  1.00  0.00     0.031 C 
ATOM     62  C   UNL A   1      44.880  31.356  30.894  1.00  0.00     0.029 A 
ATOM     63  C   UNL A   1      45.021  30.086  30.331  1.00  0.00     0.049 A 
ATOM     64  H   UNL A   1      44.825  28.244  31.295  1.00  0.00     0.167 HD
ATOM     65  C   UNL A   1      45.220  28.345  28.553  1.00  0.00     0.074 A 
ATOM     66  C   UNL A   1      45.166  27.098  29.310  1.00  0.00     0.031 C 
ATOM     67  C   UNL A   1      45.218  29.646  28.960  1.00  0.00     0.034 A 
BRANCH  54  68
ATOM     68  C   UNL A   1      43.828  27.942  34.068  1.00  0.00     0.023 A 
ATOM     69  C   UNL A   1      44.082  28.060  35.447  1.00  0.00     0.031 A 
ATOM     70  C   UNL A   1      43.915  26.634  33.551  1.00  0.00     0.131 A 
ATOM     71  C   UNL A   1      44.413  26.960  36.246  1.00  0.00     0.055 A 
ATOM     72  C   UNL A   1      44.183  25.518  34.358  1.00  0.00     0.041 A 
ATOM     73  F   UNL A   1      43.698  26.390  32.248  1.00  0.00    -0.206 F 
ATOM     74  C   UNL A   1      44.433  25.677  35.715  1.00  0.00     0.022 A 
BRANCH  71  75
ATOM     75  S   UNL A   1      44.809  27.199  38.002  1.00  0.00     0.124 S 
ATOM     76  O   UNL A   1      46.177  26.702  38.077  1.00  0.00    -0.237 OA
ATOM     77  O   UNL A   1      44.649  28.643  38.145  1.00  0.00    -0.237 OA
ATOM     78  O   UNL A   1      43.803  26.396  38.694  1.00  0.00    -0.744 OA
ENDBRANCH  71  75
ENDBRANCH  54  68
BRANCH  55  79
ATOM     79  C   UNL A   1      42.938  25.121  26.020  1.00  0.00     0.023 A 
ATOM     80  C   UNL A   1      42.061  24.179  26.586  1.00  0.00     0.031 A 
ATOM     81  C   UNL A   1      43.946  24.632  25.165  1.00  0.00     0.131 A 
ATOM     82  C   UNL A   1      42.251  22.808  26.365  1.00  0.00     0.055 A 
ATOM     83  C   UNL A   1      44.116  23.262  24.921  1.00  0.00     0.041 A 
ATOM     84  F   UNL A   1      44.844  25.468  24.619  1.00  0.00    -0.206 F 
ATOM     85  C   UNL A   1      43.278  22.339  25.542  1.00  0.00     0.022 A 
BRANCH  82  86
ATOM     86  S   UNL A   1      41.245  21.587  27.255  1.00  0.00     0.124 S 
ATOM     87  O   UNL A   1      40.063  21.476  26.404  1.00  0.00    -0.237 OA
ATOM     88  O   UNL A   1      42.123  20.422  27.261  1.00  0.00    -0.237 OA
ATOM     89  O   UNL A   1      41.011  22.212  28.553  1.00  0.00    -0.744 OA
ENDBRANCH  82  86
ENDBRANCH  55  79
BRANCH  67  90
ATOM     90  C   UNL A   1      45.267  30.726  27.912  1.00  0.00     0.023 A 
ATOM     91  C   UNL A   1      46.547  31.198  27.580  1.00  0.00     0.031 A 
ATOM     92  C   UNL A   1      44.158  31.427  27.410  1.00  0.00     0.131 A 
ATOM     93  C   UNL A   1      46.698  32.378  26.852  1.00  0.00     0.055 A 
ATOM     94  C   UNL A   1      44.313  32.564  26.607  1.00  0.00     0.041 A 
ATOM     95  F   UNL A   1      42.905  31.090  27.742  1.00  0.00    -0.206 F 
ATOM     96  C   UNL A   1      45.589  33.059  26.346  1.00  0.00     0.022 A 
BRANCH  93  97
ATOM     97  S   UNL A   1      48.333  33.143  26.710  1.00  0.00     0.124 S 
ATOM     98  O   UNL A   1      48.141  34.082  25.610  1.00  0.00    -0.237 OA
ATOM     99  O   UNL A   1      48.504  33.746  28.030  1.00  0.00    -0.237 OA
ATOM    100  O   UNL A   1      49.224  32.022  26.426  1.00  0.00    -0.744 OA
ENDBRANCH  93  97
ENDBRANCH  67  90
ENDBRANCH  41  42
ENDBRANCH  33  36
ENDBRANCH  31  32
ENDBRANCH   1  31
TORSDOF 18
ENDMDL
