MODEL 1
REMARK VINA RESULT:     -10.7      0.000      0.000
REMARK SMILES O=C(NCCCNC(=O)[C@@H](O)c1cscc1Br)c1ccc(-c2c3nc(c(-c4cc(S(=O)(=O)[O-])ccc4F)c4ccc([nH]4)c(-c4cc(S(=O)(=O)[O-])ccc4F)c4nc(c(-c5cc(S(=O)(=O)[O-])ccc5F)c5ccc2[nH]5)C=C4)C=C3)cc1
REMARK SMILES IDX 4 1 3 2 1 3 2 4 18 6 19 7 80 8 20 9 79 10 21 11 22 12 23 13
REMARK SMILES IDX 73 14 24 15 78 16 72 17 74 18 25 19 77 20 71 21 70 22 26 24
REMARK SMILES IDX 58 25 38 26 57 27 39 28 42 29 56 30 75 31 40 32 41 33 55 35
REMARK SMILES IDX 76 36 43 37 27 38 28 39 36 40 29 41 35 42 37 43 34 44 30 45
REMARK SMILES IDX 31 46 32 47 33 48 59 49 60 50 68 51 61 52 67 53 69 54 66 55
REMARK SMILES IDX 62 56 63 57 64 58 65 59 44 60 45 61 53 62 46 63 52 64 54 65
REMARK SMILES IDX 51 66 47 67 48 68 49 69 50 70 5 71 6 72 7 73 8 74 9 76 10 77
REMARK SMILES IDX 11 78 12 80 13 81 16 82 14 83 15 84 17 85
REMARK H PARENT 3 5 74 23 42 34 7 75 11 79
REMARK Flexibility Score: inf
ROOT
ATOM      1  C   UNL A   1      32.519  32.033  26.983  1.00  0.00     0.118 C 
ENDROOT
BRANCH   1   2
ATOM      2  N   UNL A   1      32.437  33.435  27.371  1.00  0.00    -0.352 N 
ATOM      3  O   UNL A   1      32.821  35.267  28.619  1.00  0.00    -0.269 OA
ATOM      4  C   UNL A   1      33.173  34.133  28.296  1.00  0.00     0.251 C 
ATOM      5  H   UNL A   1      31.753  33.961  26.899  1.00  0.00     0.163 HD
BRANCH   4   6
ATOM      6  C   UNL A   1      34.373  33.525  28.908  1.00  0.00     0.039 A 
ATOM      7  C   UNL A   1      34.280  32.341  29.645  1.00  0.00     0.014 A 
ATOM      8  C   UNL A   1      35.616  34.134  28.716  1.00  0.00     0.014 A 
ATOM      9  C   UNL A   1      35.397  31.843  30.303  1.00  0.00     0.010 A 
ATOM     10  C   UNL A   1      36.754  33.580  29.305  1.00  0.00     0.010 A 
ATOM     11  C   UNL A   1      36.651  32.443  30.123  1.00  0.00    -0.014 A 
BRANCH  11  12
ATOM     12  C   UNL A   1      37.860  31.845  30.742  1.00  0.00     0.031 A 
ATOM     13  C   UNL A   1      38.659  30.803  30.013  1.00  0.00     0.074 A 
ATOM     14  C   UNL A   1      38.213  32.224  31.985  1.00  0.00     0.049 A 
ATOM     15  N   UNL A   1      39.674  30.094  30.435  1.00  0.00    -0.248 NA
ATOM     16  C   UNL A   1      38.250  30.512  28.633  1.00  0.00     0.031 C 
ATOM     17  C   UNL A   1      37.512  33.231  32.787  1.00  0.00     0.029 A 
ATOM     18  N   UNL A   1      39.232  31.801  32.800  1.00  0.00    -0.354 N 
ATOM     19  C   UNL A   1      40.015  29.252  29.382  1.00  0.00     0.074 A 
ATOM     20  C   UNL A   1      39.069  29.519  28.317  1.00  0.00     0.031 C 
ATOM     21  C   UNL A   1      38.123  33.350  33.973  1.00  0.00     0.029 A 
ATOM     22  C   UNL A   1      39.206  32.376  34.048  1.00  0.00     0.049 A 
ATOM     23  H   UNL A   1      39.915  31.151  32.519  1.00  0.00     0.167 HD
ATOM     24  C   UNL A   1      41.025  28.349  29.315  1.00  0.00     0.034 A 
ATOM     25  C   UNL A   1      39.932  32.115  35.153  1.00  0.00     0.034 A 
ATOM     26  C   UNL A   1      41.944  28.095  30.401  1.00  0.00     0.049 A 
ATOM     27  C   UNL A   1      40.999  31.059  35.087  1.00  0.00     0.074 A 
ATOM     28  C   UNL A   1      43.027  27.234  30.432  1.00  0.00     0.029 A 
ATOM     29  N   UNL A   1      41.872  28.684  31.661  1.00  0.00    -0.354 N 
ATOM     30  N   UNL A   1      41.328  30.286  34.078  1.00  0.00    -0.248 NA
ATOM     31  C   UNL A   1      41.795  30.840  36.300  1.00  0.00     0.031 C 
ATOM     32  C   UNL A   1      43.552  27.235  31.729  1.00  0.00     0.029 A 
ATOM     33  C   UNL A   1      42.863  28.170  32.485  1.00  0.00     0.049 A 
ATOM     34  H   UNL A   1      41.214  29.365  31.927  1.00  0.00     0.167 HD
ATOM     35  C   UNL A   1      42.392  29.508  34.527  1.00  0.00     0.074 A 
ATOM     36  C   UNL A   1      42.645  29.905  35.898  1.00  0.00     0.031 C 
ATOM     37  C   UNL A   1      43.101  28.564  33.857  1.00  0.00     0.034 A 
BRANCH  24  38
ATOM     38  C   UNL A   1      41.139  27.528  28.049  1.00  0.00     0.023 A 
ATOM     39  C   UNL A   1      40.760  26.175  28.003  1.00  0.00     0.031 A 
ATOM     40  C   UNL A   1      41.693  28.091  26.884  1.00  0.00     0.131 A 
ATOM     41  C   UNL A   1      41.035  25.407  26.862  1.00  0.00     0.055 A 
ATOM     42  C   UNL A   1      41.872  27.345  25.716  1.00  0.00     0.041 A 
ATOM     43  F   UNL A   1      42.093  29.372  26.866  1.00  0.00    -0.206 F 
ATOM     44  C   UNL A   1      41.565  25.989  25.708  1.00  0.00     0.022 A 
BRANCH  41  45
ATOM     45  S   UNL A   1      40.879  23.603  26.979  1.00  0.00     0.124 S 
ATOM     46  O   UNL A   1      41.786  23.157  25.922  1.00  0.00    -0.237 OA
ATOM     47  O   UNL A   1      41.312  23.337  28.346  1.00  0.00    -0.237 OA
ATOM     48  O   UNL A   1      39.462  23.363  26.712  1.00  0.00    -0.744 OA
ENDBRANCH  41  45
ENDBRANCH  24  38
BRANCH  25  49
ATOM     49  C   UNL A   1      39.618  32.834  36.418  1.00  0.00     0.023 A 
ATOM     50  C   UNL A   1      38.663  32.345  37.321  1.00  0.00     0.031 A 
ATOM     51  C   UNL A   1      40.306  34.015  36.757  1.00  0.00     0.131 A 
ATOM     52  C   UNL A   1      38.407  33.045  38.511  1.00  0.00     0.055 A 
ATOM     53  C   UNL A   1      40.085  34.680  37.963  1.00  0.00     0.041 A 
ATOM     54  F   UNL A   1      41.237  34.519  35.930  1.00  0.00    -0.206 F 
ATOM     55  C   UNL A   1      39.124  34.197  38.846  1.00  0.00     0.022 A 
BRANCH  52  56
ATOM     56  S   UNL A   1      37.085  32.453  39.600  1.00  0.00     0.124 S 
ATOM     57  O   UNL A   1      37.214  33.354  40.740  1.00  0.00    -0.237 OA
ATOM     58  O   UNL A   1      35.901  32.634  38.768  1.00  0.00    -0.237 OA
ATOM     59  O   UNL A   1      37.455  31.062  39.858  1.00  0.00    -0.744 OA
ENDBRANCH  52  56
ENDBRANCH  25  49
BRANCH  37  60
ATOM     60  C   UNL A   1      44.268  27.932  34.576  1.00  0.00     0.023 A 
ATOM     61  C   UNL A   1      44.149  26.724  35.282  1.00  0.00     0.031 A 
ATOM     62  C   UNL A   1      45.534  28.542  34.512  1.00  0.00     0.131 A 
ATOM     63  C   UNL A   1      45.273  26.177  35.922  1.00  0.00     0.055 A 
ATOM     64  C   UNL A   1      46.659  27.964  35.103  1.00  0.00     0.041 A 
ATOM     65  F   UNL A   1      45.703  29.701  33.856  1.00  0.00    -0.206 F 
ATOM     66  C   UNL A   1      46.531  26.779  35.817  1.00  0.00     0.022 A 
BRANCH  63  67
ATOM     67  S   UNL A   1      45.066  24.692  36.944  1.00  0.00     0.124 S 
ATOM     68  O   UNL A   1      44.242  25.192  38.039  1.00  0.00    -0.237 OA
ATOM     69  O   UNL A   1      44.413  23.766  36.024  1.00  0.00    -0.237 OA
ATOM     70  O   UNL A   1      46.435  24.335  37.311  1.00  0.00    -0.744 OA
ENDBRANCH  63  67
ENDBRANCH  37  60
ENDBRANCH  11  12
ENDBRANCH   4   6
ENDBRANCH   1   2
BRANCH   1  71
ATOM     71  C   UNL A   1      31.276  31.557  26.245  1.00  0.00     0.042 C 
BRANCH  71  72
ATOM     72  C   UNL A   1      31.472  30.258  25.480  1.00  0.00     0.117 C 
BRANCH  72  73
ATOM     73  N   UNL A   1      30.709  30.228  24.244  1.00  0.00    -0.353 N 
ATOM     74  C   UNL A   1      30.234  29.152  23.550  1.00  0.00     0.253 C 
ATOM     75  H   UNL A   1      30.506  31.107  23.851  1.00  0.00     0.163 HD
ATOM     76  O   UNL A   1      29.680  29.364  22.467  1.00  0.00    -0.272 OA
BRANCH  74  77
ATOM     77  C   UNL A   1      30.427  27.710  24.077  1.00  0.00     0.235 C 
BRANCH  77  78
ATOM     78  O   UNL A   1      29.178  27.012  24.036  1.00  0.00    -0.378 OA
ATOM     79  H   UNL A   1      29.344  26.061  23.943  1.00  0.00     0.212 HD
ENDBRANCH  77  78
BRANCH  77  80
ATOM     80  C   UNL A   1      31.521  26.960  23.345  1.00  0.00     0.015 A 
ATOM     81  C   UNL A   1      31.402  26.494  22.041  1.00  0.00     0.073 A 
ATOM     82  C   UNL A   1      32.816  26.614  23.852  1.00  0.00     0.035 A 
ATOM     83  S   UNL A   1      32.830  25.779  21.438  1.00  0.00    -0.151 S 
ATOM     84  C   UNL A   1      33.631  26.008  22.927  1.00  0.00     0.080 A 
ATOM     85  Br  UNL A   1      33.389  26.958  25.623  1.00  0.00    -0.050 Br
ENDBRANCH  77  80
ENDBRANCH  74  77
ENDBRANCH  72  73
ENDBRANCH  71  72
ENDBRANCH   1  71
TORSDOF 15
ENDMDL
MODEL 2
REMARK VINA RESULT:     -10.6      1.863      2.217
REMARK SMILES O=C(NCCCNC(=O)[C@@H](O)c1cscc1Br)c1ccc(-c2c3nc(c(-c4cc(S(=O)(=O)[O-])ccc4F)c4ccc([nH]4)c(-c4cc(S(=O)(=O)[O-])ccc4F)c4nc(c(-c5cc(S(=O)(=O)[O-])ccc5F)c5ccc2[nH]5)C=C4)C=C3)cc1
REMARK SMILES IDX 4 1 3 2 1 3 2 4 18 6 19 7 80 8 20 9 79 10 21 11 22 12 23 13
REMARK SMILES IDX 73 14 24 15 78 16 72 17 74 18 25 19 77 20 71 21 70 22 26 24
REMARK SMILES IDX 58 25 38 26 57 27 39 28 42 29 56 30 75 31 40 32 41 33 55 35
REMARK SMILES IDX 76 36 43 37 27 38 28 39 36 40 29 41 35 42 37 43 34 44 30 45
REMARK SMILES IDX 31 46 32 47 33 48 59 49 60 50 68 51 61 52 67 53 69 54 66 55
REMARK SMILES IDX 62 56 63 57 64 58 65 59 44 60 45 61 53 62 46 63 52 64 54 65
REMARK SMILES IDX 51 66 47 67 48 68 49 69 50 70 5 71 6 72 7 73 8 74 9 76 10 77
REMARK SMILES IDX 11 78 12 80 13 81 16 82 14 83 15 84 17 85
REMARK H PARENT 3 5 74 23 42 34 7 75 11 79
REMARK Flexibility Score: inf
ROOT
ATOM      1  C   UNL A   1      32.708  32.543  27.161  1.00  0.00     0.118 C 
ENDROOT
BRANCH   1   2
ATOM      2  N   UNL A   1      32.527  33.920  27.602  1.00  0.00    -0.352 N 
ATOM      3  O   UNL A   1      32.726  35.708  28.951  1.00  0.00    -0.269 OA
ATOM      4  C   UNL A   1      33.158  34.609  28.607  1.00  0.00     0.251 C 
ATOM      5  H   UNL A   1      31.851  34.433  27.103  1.00  0.00     0.163 HD
BRANCH   4   6
ATOM      6  C   UNL A   1      34.341  34.032  29.279  1.00  0.00     0.039 A 
ATOM      7  C   UNL A   1      34.195  33.124  30.332  1.00  0.00     0.014 A 
ATOM      8  C   UNL A   1      35.616  34.383  28.829  1.00  0.00     0.014 A 
ATOM      9  C   UNL A   1      35.314  32.676  31.023  1.00  0.00     0.010 A 
ATOM     10  C   UNL A   1      36.742  33.859  29.468  1.00  0.00     0.010 A 
ATOM     11  C   UNL A   1      36.601  33.020  30.585  1.00  0.00    -0.014 A 
BRANCH  11  12
ATOM     12  C   UNL A   1      37.794  32.453  31.261  1.00  0.00     0.031 A 
ATOM     13  C   UNL A   1      38.546  31.304  30.653  1.00  0.00     0.074 A 
ATOM     14  C   UNL A   1      38.176  32.961  32.448  1.00  0.00     0.049 A 
ATOM     15  N   UNL A   1      39.539  30.611  31.147  1.00  0.00    -0.248 NA
ATOM     16  C   UNL A   1      38.110  30.869  29.319  1.00  0.00     0.031 C 
ATOM     17  C   UNL A   1      37.522  34.081  33.131  1.00  0.00     0.029 A 
ATOM     18  N   UNL A   1      39.189  32.598  33.299  1.00  0.00    -0.354 N 
ATOM     19  C   UNL A   1      39.836  29.640  30.197  1.00  0.00     0.074 A 
ATOM     20  C   UNL A   1      38.888  29.816  29.116  1.00  0.00     0.031 C 
ATOM     21  C   UNL A   1      38.152  34.315  34.290  1.00  0.00     0.029 A 
ATOM     22  C   UNL A   1      39.199  33.316  34.471  1.00  0.00     0.049 A 
ATOM     23  H   UNL A   1      39.844  31.895  33.090  1.00  0.00     0.167 HD
ATOM     24  C   UNL A   1      40.812  28.697  30.229  1.00  0.00     0.034 A 
ATOM     25  C   UNL A   1      39.928  33.159  35.593  1.00  0.00     0.034 A 
ATOM     26  C   UNL A   1      41.734  28.538  31.330  1.00  0.00     0.049 A 
ATOM     27  C   UNL A   1      40.955  32.062  35.643  1.00  0.00     0.074 A 
ATOM     28  C   UNL A   1      42.785  27.646  31.454  1.00  0.00     0.029 A 
ATOM     29  N   UNL A   1      41.699  29.272  32.512  1.00  0.00    -0.354 N 
ATOM     30  N   UNL A   1      41.244  31.165  34.729  1.00  0.00    -0.248 NA
ATOM     31  C   UNL A   1      41.757  31.957  36.867  1.00  0.00     0.031 C 
ATOM     32  C   UNL A   1      43.325  27.778  32.738  1.00  0.00     0.029 A 
ATOM     33  C   UNL A   1      42.680  28.820  33.384  1.00  0.00     0.049 A 
ATOM     34  H   UNL A   1      41.070  30.004  32.702  1.00  0.00     0.167 HD
ATOM     35  C   UNL A   1      42.283  30.405  35.258  1.00  0.00     0.074 A 
ATOM     36  C   UNL A   1      42.568  30.950  36.571  1.00  0.00     0.031 C 
ATOM     37  C   UNL A   1      42.950  29.363  34.698  1.00  0.00     0.034 A 
BRANCH  24  38
ATOM     38  C   UNL A   1      40.881  27.730  29.067  1.00  0.00     0.023 A 
ATOM     39  C   UNL A   1      41.837  27.864  28.046  1.00  0.00     0.031 A 
ATOM     40  C   UNL A   1      39.937  26.694  28.947  1.00  0.00     0.131 A 
ATOM     41  C   UNL A   1      41.764  27.050  26.904  1.00  0.00     0.055 A 
ATOM     42  C   UNL A   1      39.932  25.822  27.855  1.00  0.00     0.041 A 
ATOM     43  F   UNL A   1      38.985  26.523  29.878  1.00  0.00    -0.206 F 
ATOM     44  C   UNL A   1      40.834  26.013  26.814  1.00  0.00     0.022 A 
BRANCH  41  45
ATOM     45  S   UNL A   1      42.768  27.498  25.460  1.00  0.00     0.124 S 
ATOM     46  O   UNL A   1      41.977  28.579  24.873  1.00  0.00    -0.237 OA
ATOM     47  O   UNL A   1      44.034  27.891  26.067  1.00  0.00    -0.237 OA
ATOM     48  O   UNL A   1      42.804  26.268  24.672  1.00  0.00    -0.744 OA
ENDBRANCH  41  45
ENDBRANCH  24  38
BRANCH  25  49
ATOM     49  C   UNL A   1      39.657  34.032  36.768  1.00  0.00     0.023 A 
ATOM     50  C   UNL A   1      39.074  33.525  37.938  1.00  0.00     0.031 A 
ATOM     51  C   UNL A   1      40.014  35.394  36.743  1.00  0.00     0.131 A 
ATOM     52  C   UNL A   1      38.848  34.378  39.030  1.00  0.00     0.055 A 
ATOM     53  C   UNL A   1      39.834  36.226  37.847  1.00  0.00     0.041 A 
ATOM     54  F   UNL A   1      40.583  35.925  35.648  1.00  0.00    -0.206 F 
ATOM     55  C   UNL A   1      39.240  35.720  38.998  1.00  0.00     0.022 A 
BRANCH  52  56
ATOM     56  S   UNL A   1      37.987  33.721  40.483  1.00  0.00     0.124 S 
ATOM     57  O   UNL A   1      37.734  34.934  41.251  1.00  0.00    -0.237 OA
ATOM     58  O   UNL A   1      36.820  33.084  39.883  1.00  0.00    -0.237 OA
ATOM     59  O   UNL A   1      38.962  32.803  41.068  1.00  0.00    -0.744 OA
ENDBRANCH  52  56
ENDBRANCH  25  49
BRANCH  37  60
ATOM     60  C   UNL A   1      44.101  28.776  35.477  1.00  0.00     0.023 A 
ATOM     61  C   UNL A   1      43.932  27.711  36.377  1.00  0.00     0.031 A 
ATOM     62  C   UNL A   1      45.401  29.276  35.276  1.00  0.00     0.131 A 
ATOM     63  C   UNL A   1      45.044  27.198  37.065  1.00  0.00     0.055 A 
ATOM     64  C   UNL A   1      46.509  28.724  35.921  1.00  0.00     0.041 A 
ATOM     65  F   UNL A   1      45.618  30.298  34.432  1.00  0.00    -0.206 F 
ATOM     66  C   UNL A   1      46.332  27.683  36.825  1.00  0.00     0.022 A 
BRANCH  63  67
ATOM     67  S   UNL A   1      44.782  25.918  38.325  1.00  0.00     0.124 S 
ATOM     68  O   UNL A   1      43.819  25.040  37.667  1.00  0.00    -0.237 OA
ATOM     69  O   UNL A   1      46.124  25.374  38.503  1.00  0.00    -0.237 OA
ATOM     70  O   UNL A   1      44.260  26.664  39.468  1.00  0.00    -0.744 OA
ENDBRANCH  63  67
ENDBRANCH  37  60
ENDBRANCH  11  12
ENDBRANCH   4   6
ENDBRANCH   1   2
BRANCH   1  71
ATOM     71  C   UNL A   1      31.397  31.876  26.772  1.00  0.00     0.042 C 
BRANCH  71  72
ATOM     72  C   UNL A   1      31.555  30.738  25.777  1.00  0.00     0.117 C 
BRANCH  72  73
ATOM     73  N   UNL A   1      32.067  29.529  26.402  1.00  0.00    -0.353 N 
ATOM     74  C   UNL A   1      32.683  28.456  25.826  1.00  0.00     0.253 C 
ATOM     75  H   UNL A   1      31.953  29.477  27.378  1.00  0.00     0.163 HD
ATOM     76  O   UNL A   1      32.958  27.494  26.549  1.00  0.00    -0.272 OA
BRANCH  74  77
ATOM     77  C   UNL A   1      32.982  28.423  24.308  1.00  0.00     0.235 C 
BRANCH  77  78
ATOM     78  O   UNL A   1      34.343  28.801  24.077  1.00  0.00    -0.378 OA
ATOM     79  H   UNL A   1      34.844  28.029  23.771  1.00  0.00     0.212 HD
ENDBRANCH  77  78
BRANCH  77  80
ATOM     80  C   UNL A   1      32.648  27.087  23.673  1.00  0.00     0.015 A 
ATOM     81  C   UNL A   1      33.591  26.105  23.395  1.00  0.00     0.073 A 
ATOM     82  C   UNL A   1      31.353  26.627  23.266  1.00  0.00     0.035 A 
ATOM     83  S   UNL A   1      32.913  24.663  22.779  1.00  0.00    -0.151 S 
ATOM     84  C   UNL A   1      31.345  25.335  22.801  1.00  0.00     0.080 A 
ATOM     85  Br  UNL A   1      29.778  27.671  23.361  1.00  0.00    -0.050 Br
ENDBRANCH  77  80
ENDBRANCH  74  77
ENDBRANCH  72  73
ENDBRANCH  71  72
ENDBRANCH   1  71
TORSDOF 15
ENDMDL
MODEL 3
REMARK VINA RESULT:     -10.6      6.369     11.571
REMARK SMILES O=C(NCCCNC(=O)[C@@H](O)c1cscc1Br)c1ccc(-c2c3nc(c(-c4cc(S(=O)(=O)[O-])ccc4F)c4ccc([nH]4)c(-c4cc(S(=O)(=O)[O-])ccc4F)c4nc(c(-c5cc(S(=O)(=O)[O-])ccc5F)c5ccc2[nH]5)C=C4)C=C3)cc1
REMARK SMILES IDX 4 1 3 2 1 3 2 4 18 6 19 7 80 8 20 9 79 10 21 11 22 12 23 13
REMARK SMILES IDX 73 14 24 15 78 16 72 17 74 18 25 19 77 20 71 21 70 22 26 24
REMARK SMILES IDX 58 25 38 26 57 27 39 28 42 29 56 30 75 31 40 32 41 33 55 35
REMARK SMILES IDX 76 36 43 37 27 38 28 39 36 40 29 41 35 42 37 43 34 44 30 45
REMARK SMILES IDX 31 46 32 47 33 48 59 49 60 50 68 51 61 52 67 53 69 54 66 55
REMARK SMILES IDX 62 56 63 57 64 58 65 59 44 60 45 61 53 62 46 63 52 64 54 65
REMARK SMILES IDX 51 66 47 67 48 68 49 69 50 70 5 71 6 72 7 73 8 74 9 76 10 77
REMARK SMILES IDX 11 78 12 80 13 81 16 82 14 83 15 84 17 85
REMARK H PARENT 3 5 74 23 42 34 7 75 11 79
REMARK Flexibility Score: inf
ROOT
ATOM      1  C   UNL A   1      38.672  20.402  25.663  1.00  0.00     0.118 C 
ENDROOT
BRANCH   1   2
ATOM      2  N   UNL A   1      39.755  19.444  25.844  1.00  0.00    -0.352 N 
ATOM      3  O   UNL A   1      41.878  18.728  26.038  1.00  0.00    -0.269 OA
ATOM      4  C   UNL A   1      41.082  19.663  26.115  1.00  0.00     0.251 C 
ATOM      5  H   UNL A   1      39.496  18.499  25.759  1.00  0.00     0.163 HD
BRANCH   4   6
ATOM      6  C   UNL A   1      41.556  21.012  26.487  1.00  0.00     0.039 A 
ATOM      7  C   UNL A   1      41.742  21.363  27.828  1.00  0.00     0.014 A 
ATOM      8  C   UNL A   1      41.847  21.933  25.477  1.00  0.00     0.014 A 
ATOM      9  C   UNL A   1      42.083  22.667  28.164  1.00  0.00     0.010 A 
ATOM     10  C   UNL A   1      42.277  23.217  25.815  1.00  0.00     0.010 A 
ATOM     11  C   UNL A   1      42.376  23.602  27.162  1.00  0.00    -0.014 A 
BRANCH  11  12
ATOM     12  C   UNL A   1      42.843  24.963  27.528  1.00  0.00     0.031 A 
ATOM     13  C   UNL A   1      41.908  25.948  28.168  1.00  0.00     0.074 A 
ATOM     14  C   UNL A   1      44.111  25.316  27.245  1.00  0.00     0.049 A 
ATOM     15  N   UNL A   1      42.106  27.209  28.456  1.00  0.00    -0.248 NA
ATOM     16  C   UNL A   1      40.570  25.451  28.515  1.00  0.00     0.031 C 
ATOM     17  C   UNL A   1      45.110  24.439  26.628  1.00  0.00     0.029 A 
ATOM     18  N   UNL A   1      44.776  26.503  27.421  1.00  0.00    -0.354 N 
ATOM     19  C   UNL A   1      40.909  27.668  28.997  1.00  0.00     0.074 A 
ATOM     20  C   UNL A   1      39.984  26.553  28.960  1.00  0.00     0.031 C 
ATOM     21  C   UNL A   1      46.257  25.115  26.481  1.00  0.00     0.029 A 
ATOM     22  C   UNL A   1      46.055  26.491  26.917  1.00  0.00     0.049 A 
ATOM     23  H   UNL A   1      44.377  27.286  27.865  1.00  0.00     0.167 HD
ATOM     24  C   UNL A   1      40.619  28.902  29.482  1.00  0.00     0.034 A 
ATOM     25  C   UNL A   1      46.951  27.486  26.769  1.00  0.00     0.034 A 
ATOM     26  C   UNL A   1      41.561  29.998  29.492  1.00  0.00     0.049 A 
ATOM     27  C   UNL A   1      46.589  28.866  27.242  1.00  0.00     0.074 A 
ATOM     28  C   UNL A   1      41.391  31.277  29.993  1.00  0.00     0.029 A 
ATOM     29  N   UNL A   1      42.843  29.953  28.952  1.00  0.00    -0.354 N 
ATOM     30  N   UNL A   1      45.464  29.283  27.775  1.00  0.00    -0.248 NA
ATOM     31  C   UNL A   1      47.613  29.908  27.101  1.00  0.00     0.031 C 
ATOM     32  C   UNL A   1      42.529  32.027  29.678  1.00  0.00     0.029 A 
ATOM     33  C   UNL A   1      43.453  31.194  29.069  1.00  0.00     0.049 A 
ATOM     34  H   UNL A   1      43.255  29.158  28.546  1.00  0.00     0.167 HD
ATOM     35  C   UNL A   1      45.655  30.631  28.060  1.00  0.00     0.074 A 
ATOM     36  C   UNL A   1      47.003  30.957  27.638  1.00  0.00     0.031 C 
ATOM     37  C   UNL A   1      44.797  31.513  28.634  1.00  0.00     0.034 A 
BRANCH  24  38
ATOM     38  C   UNL A   1      39.209  29.139  29.976  1.00  0.00     0.023 A 
ATOM     39  C   UNL A   1      38.261  29.839  29.209  1.00  0.00     0.031 A 
ATOM     40  C   UNL A   1      38.823  28.710  31.259  1.00  0.00     0.131 A 
ATOM     41  C   UNL A   1      37.020  30.182  29.769  1.00  0.00     0.055 A 
ATOM     42  C   UNL A   1      37.550  28.968  31.773  1.00  0.00     0.041 A 
ATOM     43  F   UNL A   1      39.686  28.053  32.051  1.00  0.00    -0.206 F 
ATOM     44  C   UNL A   1      36.648  29.729  31.036  1.00  0.00     0.022 A 
BRANCH  41  45
ATOM     45  S   UNL A   1      35.988  31.394  28.898  1.00  0.00     0.124 S 
ATOM     46  O   UNL A   1      35.511  30.613  27.758  1.00  0.00    -0.237 OA
ATOM     47  O   UNL A   1      34.986  31.734  29.902  1.00  0.00    -0.237 OA
ATOM     48  O   UNL A   1      36.925  32.463  28.560  1.00  0.00    -0.744 OA
ENDBRANCH  41  45
ENDBRANCH  24  38
BRANCH  25  49
ATOM     49  C   UNL A   1      48.245  27.206  26.088  1.00  0.00     0.023 A 
ATOM     50  C   UNL A   1      48.397  27.376  24.705  1.00  0.00     0.031 A 
ATOM     51  C   UNL A   1      49.368  26.793  26.831  1.00  0.00     0.131 A 
ATOM     52  C   UNL A   1      49.639  27.115  24.103  1.00  0.00     0.055 A 
ATOM     53  C   UNL A   1      50.612  26.584  26.237  1.00  0.00     0.041 A 
ATOM     54  F   UNL A   1      49.276  26.624  28.161  1.00  0.00    -0.206 F 
ATOM     55  C   UNL A   1      50.750  26.738  24.862  1.00  0.00     0.022 A 
BRANCH  52  56
ATOM     56  S   UNL A   1      49.772  27.231  22.299  1.00  0.00     0.124 S 
ATOM     57  O   UNL A   1      51.157  26.831  22.078  1.00  0.00    -0.237 OA
ATOM     58  O   UNL A   1      48.751  26.286  21.858  1.00  0.00    -0.237 OA
ATOM     59  O   UNL A   1      49.475  28.636  22.026  1.00  0.00    -0.744 OA
ENDBRANCH  52  56
ENDBRANCH  25  49
BRANCH  37  60
ATOM     60  C   UNL A   1      45.308  32.907  28.901  1.00  0.00     0.023 A 
ATOM     61  C   UNL A   1      45.055  33.979  28.029  1.00  0.00     0.031 A 
ATOM     62  C   UNL A   1      46.031  33.167  30.079  1.00  0.00     0.131 A 
ATOM     63  C   UNL A   1      45.546  35.258  28.336  1.00  0.00     0.055 A 
ATOM     64  C   UNL A   1      46.469  34.451  30.406  1.00  0.00     0.041 A 
ATOM     65  F   UNL A   1      46.308  32.177  30.944  1.00  0.00    -0.206 F 
ATOM     66  C   UNL A   1      46.232  35.504  29.529  1.00  0.00     0.022 A 
BRANCH  63  67
ATOM     67  S   UNL A   1      45.327  36.596  27.130  1.00  0.00     0.124 S 
ATOM     68  O   UNL A   1      43.963  36.363  26.666  1.00  0.00    -0.237 OA
ATOM     69  O   UNL A   1      45.531  37.790  27.943  1.00  0.00    -0.237 OA
ATOM     70  O   UNL A   1      46.371  36.337  26.139  1.00  0.00    -0.744 OA
ENDBRANCH  63  67
ENDBRANCH  37  60
ENDBRANCH  11  12
ENDBRANCH   4   6
ENDBRANCH   1   2
BRANCH   1  71
ATOM     71  C   UNL A   1      37.483  19.807  24.923  1.00  0.00     0.042 C 
BRANCH  71  72
ATOM     72  C   UNL A   1      36.221  20.652  25.003  1.00  0.00     0.117 C 
BRANCH  72  73
ATOM     73  N   UNL A   1      35.047  19.857  25.325  1.00  0.00    -0.353 N 
ATOM     74  C   UNL A   1      33.733  20.114  25.059  1.00  0.00     0.253 C 
ATOM     75  H   UNL A   1      35.225  19.015  25.802  1.00  0.00     0.163 HD
ATOM     76  O   UNL A   1      32.891  19.331  25.508  1.00  0.00    -0.272 OA
BRANCH  74  77
ATOM     77  C   UNL A   1      33.308  21.372  24.265  1.00  0.00     0.235 C 
BRANCH  77  78
ATOM     78  O   UNL A   1      32.518  20.984  23.136  1.00  0.00    -0.378 OA
ATOM     79  H   UNL A   1      32.318  21.767  22.599  1.00  0.00     0.212 HD
ENDBRANCH  77  78
BRANCH  77  80
ATOM     80  C   UNL A   1      32.599  22.398  25.128  1.00  0.00     0.015 A 
ATOM     81  C   UNL A   1      31.263  22.308  25.498  1.00  0.00     0.073 A 
ATOM     82  C   UNL A   1      33.165  23.591  25.686  1.00  0.00     0.035 A 
ATOM     83  S   UNL A   1      30.764  23.550  26.559  1.00  0.00    -0.151 S 
ATOM     84  C   UNL A   1      32.302  24.284  26.501  1.00  0.00     0.080 A 
ATOM     85  Br  UNL A   1      34.935  24.178  25.365  1.00  0.00    -0.050 Br
ENDBRANCH  77  80
ENDBRANCH  74  77
ENDBRANCH  72  73
ENDBRANCH  71  72
ENDBRANCH   1  71
TORSDOF 15
ENDMDL
