MODEL 1
REMARK VINA RESULT:     -13.6      0.000      0.000
REMARK SMILES C[N@@H+]1CC2(CCN(C(=O)c3cc(-c4ccncc4)n[nH]3)CC2)C[C@H]1C(=O)NCCCNC(=O)c1ccc(-c2c3nc(c(-c4cc(S(=O)(=O)[O-])ccc4F)c4ccc([nH]4)c(-c4cc(S(=O)(=O)[O-])ccc4F)c4nc(c(-c5cc(S(=O)(=O)[O-])ccc5F)c5ccc2[nH]5)C=C4)C=C3)cc1
REMARK SMILES IDX 29 1 28 2 27 3 25 4 26 5 24 7 1 8 2 9 3 10 4 12 23 13 5 14
REMARK SMILES IDX 22 15 6 16 21 17 7 18 8 19 9 20 10 21 11 22 20 23 12 24
REMARK SMILES IDX 19 25 13 27 14 28 18 29 15 30 17 31 16 32 30 33 31 34 32 35
REMARK SMILES IDX 33 37 34 38 35 39 96 40 36 41 95 42 37 43 38 44 39 45 89 46
REMARK SMILES IDX 40 47 94 48 88 49 90 50 41 51 93 52 87 53 86 54 42 56 74 57
REMARK SMILES IDX 54 58 73 59 55 60 58 61 72 62 91 63 56 64 57 65 71 67 92 68
REMARK SMILES IDX 59 69 43 70 44 71 52 72 45 73 51 74 53 75 50 76 46 77 47 78
REMARK SMILES IDX 48 79 49 80 75 81 76 82 84 83 77 84 83 85 85 86 82 87 78 88
REMARK SMILES IDX 79 89 80 90 81 91 60 92 61 93 69 94 62 95 68 96 70 97 67 98
REMARK SMILES IDX 63 99 64 100 65 101 66 102
REMARK H PARENT 27 6 2 11 20 26 31 36 90 55 58 66
REMARK Flexibility Score: inf
ROOT
ATOM      1  C   UNL A   1      31.425  31.817  26.597  1.00  0.00     0.042 C 
ENDROOT
BRANCH   1   2
ATOM      2  C   UNL A   1      31.538  30.377  26.119  1.00  0.00     0.118 C 
BRANCH   2   3
ATOM      3  N   UNL A   1      32.409  30.159  24.994  1.00  0.00    -0.351 N 
ATOM      4  C   UNL A   1      32.590  29.031  24.243  1.00  0.00     0.278 C 
ATOM      5  O   UNL A   1      33.232  29.172  23.194  1.00  0.00    -0.268 OA
ATOM      6  H   UNL A   1      32.954  30.933  24.727  1.00  0.00     0.163 HD
BRANCH   4   7
ATOM      7  C   UNL A   1      32.041  27.623  24.624  1.00  0.00     0.274 C 
ATOM      8  C   UNL A   1      30.516  26.423  23.180  1.00  0.00     0.333 C 
ATOM      9  N   UNL A   1      31.916  26.765  23.432  1.00  0.00    -0.327 N 
ATOM     10  C   UNL A   1      32.759  25.580  23.603  1.00  0.00     0.269 C 
ATOM     11  H   UNL A   1      32.240  27.269  22.607  1.00  0.00     0.348 HD
ATOM     12  C   UNL A   1      33.218  25.485  25.075  1.00  0.00     0.029 C 
ATOM     13  C   UNL A   1      32.775  26.825  25.702  1.00  0.00     0.088 C 
ATOM     14  C   UNL A   1      34.746  25.306  25.274  1.00  0.00     0.034 C 
ATOM     15  C   UNL A   1      32.571  24.234  25.740  1.00  0.00     0.034 C 
ATOM     16  C   UNL A   1      35.240  24.060  24.577  1.00  0.00     0.120 C 
ATOM     17  C   UNL A   1      33.164  22.897  25.221  1.00  0.00     0.120 C 
ATOM     18  N   UNL A   1      34.629  22.903  25.210  1.00  0.00    -0.337 N 
ATOM     19  C   UNL A   1      35.353  21.760  25.546  1.00  0.00     0.271 C 
ATOM     20  O   UNL A   1      34.817  20.657  25.654  1.00  0.00    -0.267 OA
BRANCH  19  21
ATOM     21  C   UNL A   1      36.768  21.927  25.764  1.00  0.00     0.123 A 
ATOM     22  C   UNL A   1      37.841  21.104  25.474  1.00  0.00     0.064 A 
ATOM     23  N   UNL A   1      37.328  23.039  26.326  1.00  0.00    -0.272 N 
ATOM     24  C   UNL A   1      38.983  21.746  26.012  1.00  0.00     0.093 A 
ATOM     25  N   UNL A   1      38.652  22.930  26.545  1.00  0.00    -0.175 NA
ATOM     26  H   UNL A   1      36.810  23.846  26.551  1.00  0.00     0.190 HD
BRANCH  24  27
ATOM     27  C   UNL A   1      40.347  21.233  26.038  1.00  0.00     0.005 A 
ATOM     28  C   UNL A   1      41.431  22.113  26.014  1.00  0.00     0.030 A 
ATOM     29  C   UNL A   1      40.588  19.859  26.055  1.00  0.00     0.030 A 
ATOM     30  C   UNL A   1      42.708  21.580  26.012  1.00  0.00     0.111 A 
ATOM     31  C   UNL A   1      41.904  19.426  26.037  1.00  0.00     0.111 A 
ATOM     32  N   UNL A   1      42.970  20.256  26.018  1.00  0.00    -0.265 NA
ENDBRANCH  24  27
ENDBRANCH  19  21
ENDBRANCH   4   7
ENDBRANCH   2   3
ENDBRANCH   1   2
BRANCH   1  33
ATOM     33  C   UNL A   1      32.743  32.402  27.086  1.00  0.00     0.118 C 
BRANCH  33  34
ATOM     34  N   UNL A   1      32.593  33.743  27.651  1.00  0.00    -0.352 N 
ATOM     35  C   UNL A   1      33.270  34.382  28.665  1.00  0.00     0.251 C 
ATOM     36  H   UNL A   1      31.882  34.282  27.235  1.00  0.00     0.163 HD
ATOM     37  O   UNL A   1      32.843  35.464  29.063  1.00  0.00    -0.269 OA
BRANCH  35  38
ATOM     38  C   UNL A   1      34.469  33.781  29.296  1.00  0.00     0.039 A 
ATOM     39  C   UNL A   1      35.736  34.262  28.943  1.00  0.00     0.014 A 
ATOM     40  C   UNL A   1      34.365  32.733  30.211  1.00  0.00     0.014 A 
ATOM     41  C   UNL A   1      36.880  33.751  29.567  1.00  0.00     0.010 A 
ATOM     42  C   UNL A   1      35.490  32.297  30.903  1.00  0.00     0.010 A 
ATOM     43  C   UNL A   1      36.762  32.795  30.585  1.00  0.00    -0.014 A 
BRANCH  43  44
ATOM     44  C   UNL A   1      37.943  32.265  31.318  1.00  0.00     0.031 A 
ATOM     45  C   UNL A   1      38.765  31.162  30.707  1.00  0.00     0.074 A 
ATOM     46  C   UNL A   1      38.213  32.695  32.565  1.00  0.00     0.049 A 
ATOM     47  N   UNL A   1      39.711  30.432  31.240  1.00  0.00    -0.248 NA
ATOM     48  C   UNL A   1      38.437  30.801  29.320  1.00  0.00     0.031 C 
ATOM     49  C   UNL A   1      37.470  33.731  33.286  1.00  0.00     0.029 A 
ATOM     50  N   UNL A   1      39.180  32.301  33.455  1.00  0.00    -0.354 N 
ATOM     51  C   UNL A   1      40.062  29.499  30.270  1.00  0.00     0.074 A 
ATOM     52  C   UNL A   1      39.178  29.720  29.143  1.00  0.00     0.031 C 
ATOM     53  C   UNL A   1      38.026  33.910  34.496  1.00  0.00     0.029 A 
ATOM     54  C   UNL A   1      39.131  32.970  34.656  1.00  0.00     0.049 A 
ATOM     55  H   UNL A   1      39.847  31.606  33.254  1.00  0.00     0.167 HD
ATOM     56  C   UNL A   1      41.045  28.563  30.303  1.00  0.00     0.034 A 
ATOM     57  C   UNL A   1      39.884  32.833  35.763  1.00  0.00     0.034 A 
ATOM     58  C   UNL A   1      41.939  28.383  31.421  1.00  0.00     0.049 A 
ATOM     59  C   UNL A   1      40.974  31.795  35.782  1.00  0.00     0.074 A 
ATOM     60  C   UNL A   1      43.004  27.509  31.548  1.00  0.00     0.029 A 
ATOM     61  N   UNL A   1      41.872  29.098  32.611  1.00  0.00    -0.354 N 
ATOM     62  N   UNL A   1      41.306  30.930  34.853  1.00  0.00    -0.248 NA
ATOM     63  C   UNL A   1      41.792  31.721  36.999  1.00  0.00     0.031 C 
ATOM     64  C   UNL A   1      43.553  27.663  32.827  1.00  0.00     0.029 A 
ATOM     65  C   UNL A   1      42.866  28.674  33.481  1.00  0.00     0.049 A 
ATOM     66  H   UNL A   1      41.214  29.803  32.807  1.00  0.00     0.167 HD
ATOM     67  C   UNL A   1      42.390  30.224  35.364  1.00  0.00     0.074 A 
ATOM     68  C   UNL A   1      42.657  30.769  36.680  1.00  0.00     0.031 C 
ATOM     69  C   UNL A   1      43.105  29.221  34.794  1.00  0.00     0.034 A 
BRANCH  56  70
ATOM     70  C   UNL A   1      41.169  27.658  29.098  1.00  0.00     0.023 A 
ATOM     71  C   UNL A   1      42.189  27.840  28.146  1.00  0.00     0.031 A 
ATOM     72  C   UNL A   1      40.212  26.660  28.849  1.00  0.00     0.131 A 
ATOM     73  C   UNL A   1      42.159  27.123  26.941  1.00  0.00     0.055 A 
ATOM     74  C   UNL A   1      40.246  25.878  27.692  1.00  0.00     0.041 A 
ATOM     75  F   UNL A   1      39.205  26.448  29.710  1.00  0.00    -0.206 F 
ATOM     76  C   UNL A   1      41.209  26.124  26.717  1.00  0.00     0.022 A 
BRANCH  73  77
ATOM     77  S   UNL A   1      43.255  27.655  25.596  1.00  0.00     0.124 S 
ATOM     78  O   UNL A   1      44.075  28.661  26.268  1.00  0.00    -0.237 OA
ATOM     79  O   UNL A   1      43.931  26.417  25.232  1.00  0.00    -0.237 OA
ATOM     80  O   UNL A   1      42.334  28.185  24.592  1.00  0.00    -0.744 OA
ENDBRANCH  73  77
ENDBRANCH  56  70
BRANCH  57  81
ATOM     81  C   UNL A   1      39.642  33.703  36.944  1.00  0.00     0.023 A 
ATOM     82  C   UNL A   1      38.951  33.211  38.063  1.00  0.00     0.031 A 
ATOM     83  C   UNL A   1      40.089  35.035  36.973  1.00  0.00     0.131 A 
ATOM     84  C   UNL A   1      38.699  34.055  39.154  1.00  0.00     0.055 A 
ATOM     85  C   UNL A   1      39.866  35.861  38.077  1.00  0.00     0.041 A 
ATOM     86  F   UNL A   1      40.766  35.546  35.932  1.00  0.00    -0.206 F 
ATOM     87  C   UNL A   1      39.160  35.374  39.173  1.00  0.00     0.022 A 
BRANCH  84  88
ATOM     88  S   UNL A   1      37.724  33.411  40.541  1.00  0.00     0.124 S 
ATOM     89  O   UNL A   1      36.567  32.847  39.854  1.00  0.00    -0.237 OA
ATOM     90  O   UNL A   1      38.646  32.452  41.141  1.00  0.00    -0.237 OA
ATOM     91  O   UNL A   1      37.455  34.599  41.348  1.00  0.00    -0.744 OA
ENDBRANCH  84  88
ENDBRANCH  57  81
BRANCH  69  92
ATOM     92  C   UNL A   1      44.272  28.690  35.585  1.00  0.00     0.023 A 
ATOM     93  C   UNL A   1      44.113  27.672  36.542  1.00  0.00     0.031 A 
ATOM     94  C   UNL A   1      45.556  29.227  35.391  1.00  0.00     0.131 A 
ATOM     95  C   UNL A   1      45.214  27.256  37.304  1.00  0.00     0.055 A 
ATOM     96  C   UNL A   1      46.657  28.776  36.119  1.00  0.00     0.041 A 
ATOM     97  F   UNL A   1      45.759  30.202  34.490  1.00  0.00    -0.206 F 
ATOM     98  C   UNL A   1      46.487  27.792  37.089  1.00  0.00     0.022 A 
BRANCH  95  99
ATOM     99  S   UNL A   1      44.949  26.051  38.634  1.00  0.00     0.124 S 
ATOM    100  O   UNL A   1      44.584  24.851  37.888  1.00  0.00    -0.237 OA
ATOM    101  O   UNL A   1      46.251  26.020  39.291  1.00  0.00    -0.237 OA
ATOM    102  O   UNL A   1      43.871  26.642  39.424  1.00  0.00    -0.744 OA
ENDBRANCH  95  99
ENDBRANCH  69  92
ENDBRANCH  43  44
ENDBRANCH  35  38
ENDBRANCH  33  34
ENDBRANCH   1  33
TORSDOF 15
ENDMDL
MODEL 2
REMARK VINA RESULT:     -12.6      2.353      3.124
REMARK SMILES C[N@@H+]1CC2(CCN(C(=O)c3cc(-c4ccncc4)n[nH]3)CC2)C[C@H]1C(=O)NCCCNC(=O)c1ccc(-c2c3nc(c(-c4cc(S(=O)(=O)[O-])ccc4F)c4ccc([nH]4)c(-c4cc(S(=O)(=O)[O-])ccc4F)c4nc(c(-c5cc(S(=O)(=O)[O-])ccc5F)c5ccc2[nH]5)C=C4)C=C3)cc1
REMARK SMILES IDX 29 1 28 2 27 3 25 4 26 5 24 7 1 8 2 9 3 10 4 12 23 13 5 14
REMARK SMILES IDX 22 15 6 16 21 17 7 18 8 19 9 20 10 21 11 22 20 23 12 24
REMARK SMILES IDX 19 25 13 27 14 28 18 29 15 30 17 31 16 32 30 33 31 34 32 35
REMARK SMILES IDX 33 37 34 38 35 39 96 40 36 41 95 42 37 43 38 44 39 45 89 46
REMARK SMILES IDX 40 47 94 48 88 49 90 50 41 51 93 52 87 53 86 54 42 56 74 57
REMARK SMILES IDX 54 58 73 59 55 60 58 61 72 62 91 63 56 64 57 65 71 67 92 68
REMARK SMILES IDX 59 69 43 70 44 71 52 72 45 73 51 74 53 75 50 76 46 77 47 78
REMARK SMILES IDX 48 79 49 80 75 81 76 82 84 83 77 84 83 85 85 86 82 87 78 88
REMARK SMILES IDX 79 89 80 90 81 91 60 92 61 93 69 94 62 95 68 96 70 97 67 98
REMARK SMILES IDX 63 99 64 100 65 101 66 102
REMARK H PARENT 27 6 2 11 20 26 31 36 90 55 58 66
REMARK Flexibility Score: inf
ROOT
ATOM      1  C   UNL A   1      31.488  32.262  27.038  1.00  0.00     0.042 C 
ENDROOT
BRANCH   1   2
ATOM      2  C   UNL A   1      31.576  30.969  26.241  1.00  0.00     0.118 C 
BRANCH   2   3
ATOM      3  N   UNL A   1      31.889  29.787  27.002  1.00  0.00    -0.351 N 
ATOM      4  C   UNL A   1      32.030  28.495  26.577  1.00  0.00     0.278 C 
ATOM      5  O   UNL A   1      32.522  27.704  27.394  1.00  0.00    -0.268 OA
ATOM      6  H   UNL A   1      32.021  29.930  27.966  1.00  0.00     0.163 HD
BRANCH   4   7
ATOM      7  C   UNL A   1      31.624  27.984  25.162  1.00  0.00     0.274 C 
ATOM      8  C   UNL A   1      32.643  28.866  23.154  1.00  0.00     0.333 C 
ATOM      9  N   UNL A   1      32.793  27.928  24.266  1.00  0.00    -0.327 N 
ATOM     10  C   UNL A   1      32.981  26.548  23.811  1.00  0.00     0.269 C 
ATOM     11  H   UNL A   1      33.631  28.214  24.771  1.00  0.00     0.348 HD
ATOM     12  C   UNL A   1      31.728  25.716  24.159  1.00  0.00     0.029 C 
ATOM     13  C   UNL A   1      30.886  26.649  25.057  1.00  0.00     0.088 C 
ATOM     14  C   UNL A   1      32.009  24.393  24.917  1.00  0.00     0.034 C 
ATOM     15  C   UNL A   1      31.008  25.289  22.846  1.00  0.00     0.034 C 
ATOM     16  C   UNL A   1      32.925  23.496  24.117  1.00  0.00     0.120 C 
ATOM     17  C   UNL A   1      31.792  24.212  22.049  1.00  0.00     0.120 C 
ATOM     18  N   UNL A   1      32.238  23.105  22.897  1.00  0.00    -0.337 N 
ATOM     19  C   UNL A   1      32.232  21.793  22.426  1.00  0.00     0.271 C 
ATOM     20  O   UNL A   1      32.063  21.528  21.235  1.00  0.00    -0.267 OA
BRANCH  19  21
ATOM     21  C   UNL A   1      32.433  20.751  23.401  1.00  0.00     0.123 A 
ATOM     22  C   UNL A   1      33.085  19.533  23.317  1.00  0.00     0.064 A 
ATOM     23  N   UNL A   1      31.986  20.815  24.690  1.00  0.00    -0.272 N 
ATOM     24  C   UNL A   1      32.867  18.887  24.558  1.00  0.00     0.093 A 
ATOM     25  N   UNL A   1      32.178  19.680  25.390  1.00  0.00    -0.175 NA
ATOM     26  H   UNL A   1      31.562  21.617  25.073  1.00  0.00     0.190 HD
BRANCH  24  27
ATOM     27  C   UNL A   1      33.283  17.541  24.930  1.00  0.00     0.005 A 
ATOM     28  C   UNL A   1      34.603  17.131  24.732  1.00  0.00     0.030 A 
ATOM     29  C   UNL A   1      32.364  16.634  25.460  1.00  0.00     0.030 A 
ATOM     30  C   UNL A   1      34.946  15.835  25.076  1.00  0.00     0.111 A 
ATOM     31  C   UNL A   1      32.803  15.356  25.759  1.00  0.00     0.111 A 
ATOM     32  N   UNL A   1      34.075  14.936  25.579  1.00  0.00    -0.265 NA
ENDBRANCH  24  27
ENDBRANCH  19  21
ENDBRANCH   4   7
ENDBRANCH   2   3
ENDBRANCH   1   2
BRANCH   1  33
ATOM     33  C   UNL A   1      32.838  32.924  27.276  1.00  0.00     0.118 C 
BRANCH  33  34
ATOM     34  N   UNL A   1      32.722  34.227  27.932  1.00  0.00    -0.352 N 
ATOM     35  C   UNL A   1      33.413  34.775  28.988  1.00  0.00     0.251 C 
ATOM     36  H   UNL A   1      32.028  34.812  27.553  1.00  0.00     0.163 HD
ATOM     37  O   UNL A   1      33.015  35.838  29.460  1.00  0.00    -0.269 OA
BRANCH  35  38
ATOM     38  C   UNL A   1      34.595  34.100  29.577  1.00  0.00     0.039 A 
ATOM     39  C   UNL A   1      35.873  34.450  29.125  1.00  0.00     0.014 A 
ATOM     40  C   UNL A   1      34.460  33.110  30.550  1.00  0.00     0.014 A 
ATOM     41  C   UNL A   1      37.006  33.869  29.705  1.00  0.00     0.010 A 
ATOM     42  C   UNL A   1      35.585  32.608  31.196  1.00  0.00     0.010 A 
ATOM     43  C   UNL A   1      36.872  32.975  30.777  1.00  0.00    -0.014 A 
BRANCH  43  44
ATOM     44  C   UNL A   1      38.047  32.377  31.464  1.00  0.00     0.031 A 
ATOM     45  C   UNL A   1      38.786  31.235  30.819  1.00  0.00     0.074 A 
ATOM     46  C   UNL A   1      38.384  32.784  32.704  1.00  0.00     0.049 A 
ATOM     47  N   UNL A   1      39.709  30.451  31.315  1.00  0.00    -0.248 NA
ATOM     48  C   UNL A   1      38.390  30.902  29.443  1.00  0.00     0.031 C 
ATOM     49  C   UNL A   1      37.725  33.854  33.456  1.00  0.00     0.029 A 
ATOM     50  N   UNL A   1      39.360  32.332  33.556  1.00  0.00    -0.354 N 
ATOM     51  C   UNL A   1      39.975  29.508  30.328  1.00  0.00     0.074 A 
ATOM     52  C   UNL A   1      39.064  29.783  29.235  1.00  0.00     0.031 C 
ATOM     53  C   UNL A   1      38.332  33.994  34.645  1.00  0.00     0.029 A 
ATOM     54  C   UNL A   1      39.389  32.995  34.761  1.00  0.00     0.049 A 
ATOM     55  H   UNL A   1      39.980  31.603  33.328  1.00  0.00     0.167 HD
ATOM     56  C   UNL A   1      40.905  28.520  30.322  1.00  0.00     0.034 A 
ATOM     57  C   UNL A   1      40.173  32.809  35.840  1.00  0.00     0.034 A 
ATOM     58  C   UNL A   1      41.827  28.283  31.406  1.00  0.00     0.049 A 
ATOM     59  C   UNL A   1      41.204  31.713  35.815  1.00  0.00     0.074 A 
ATOM     60  C   UNL A   1      42.847  27.352  31.491  1.00  0.00     0.029 A 
ATOM     61  N   UNL A   1      41.841  28.993  32.602  1.00  0.00    -0.354 N 
ATOM     62  N   UNL A   1      41.456  30.838  34.871  1.00  0.00    -0.248 NA
ATOM     63  C   UNL A   1      42.059  31.587  37.002  1.00  0.00     0.031 C 
ATOM     64  C   UNL A   1      43.448  27.468  32.751  1.00  0.00     0.029 A 
ATOM     65  C   UNL A   1      42.840  28.510  33.433  1.00  0.00     0.049 A 
ATOM     66  H   UNL A   1      41.230  29.731  32.825  1.00  0.00     0.167 HD
ATOM     67  C   UNL A   1      42.516  30.070  35.340  1.00  0.00     0.074 A 
ATOM     68  C   UNL A   1      42.859  30.591  36.648  1.00  0.00     0.031 C 
ATOM     69  C   UNL A   1      43.155  29.034  34.740  1.00  0.00     0.034 A 
BRANCH  56  70
ATOM     70  C   UNL A   1      40.937  27.617  29.109  1.00  0.00     0.023 A 
ATOM     71  C   UNL A   1      41.890  27.792  28.089  1.00  0.00     0.031 A 
ATOM     72  C   UNL A   1      39.956  26.629  28.924  1.00  0.00     0.131 A 
ATOM     73  C   UNL A   1      41.770  27.079  26.888  1.00  0.00     0.055 A 
ATOM     74  C   UNL A   1      39.902  25.850  27.765  1.00  0.00     0.041 A 
ATOM     75  F   UNL A   1      39.008  26.423  29.853  1.00  0.00    -0.206 F 
ATOM     76  C   UNL A   1      40.798  26.090  26.728  1.00  0.00     0.022 A 
BRANCH  73  77
ATOM     77  S   UNL A   1      42.776  27.606  25.471  1.00  0.00     0.124 S 
ATOM     78  O   UNL A   1      42.675  26.443  24.593  1.00  0.00    -0.237 OA
ATOM     79  O   UNL A   1      42.084  28.808  25.024  1.00  0.00    -0.237 OA
ATOM     80  O   UNL A   1      44.099  27.824  26.052  1.00  0.00    -0.744 OA
ENDBRANCH  73  77
ENDBRANCH  56  70
BRANCH  57  81
ATOM     81  C   UNL A   1      40.020  33.683  37.034  1.00  0.00     0.023 A 
ATOM     82  C   UNL A   1      39.419  33.194  38.204  1.00  0.00     0.031 A 
ATOM     83  C   UNL A   1      40.464  35.016  37.022  1.00  0.00     0.131 A 
ATOM     84  C   UNL A   1      39.250  34.041  39.308  1.00  0.00     0.055 A 
ATOM     85  C   UNL A   1      40.325  35.846  38.137  1.00  0.00     0.041 A 
ATOM     86  F   UNL A   1      41.058  35.525  35.931  1.00  0.00    -0.206 F 
ATOM     87  C   UNL A   1      39.708  35.361  39.287  1.00  0.00     0.022 A 
BRANCH  84  88
ATOM     88  S   UNL A   1      38.387  33.401  40.769  1.00  0.00     0.124 S 
ATOM     89  O   UNL A   1      38.661  34.440  41.756  1.00  0.00    -0.237 OA
ATOM     90  O   UNL A   1      37.010  33.313  40.294  1.00  0.00    -0.237 OA
ATOM     91  O   UNL A   1      39.041  32.117  41.014  1.00  0.00    -0.744 OA
ENDBRANCH  84  88
ENDBRANCH  57  81
BRANCH  69  92
ATOM     92  C   UNL A   1      44.319  28.435  35.487  1.00  0.00     0.023 A 
ATOM     93  C   UNL A   1      44.135  27.446  36.469  1.00  0.00     0.031 A 
ATOM     94  C   UNL A   1      45.627  28.878  35.223  1.00  0.00     0.131 A 
ATOM     95  C   UNL A   1      45.240  26.966  37.186  1.00  0.00     0.055 A 
ATOM     96  C   UNL A   1      46.727  28.363  35.908  1.00  0.00     0.041 A 
ATOM     97  F   UNL A   1      45.853  29.822  34.295  1.00  0.00    -0.206 F 
ATOM     98  C   UNL A   1      46.535  27.408  36.904  1.00  0.00     0.022 A 
BRANCH  95  99
ATOM     99  S   UNL A   1      44.955  25.803  38.550  1.00  0.00     0.124 S 
ATOM    100  O   UNL A   1      46.233  25.843  39.254  1.00  0.00    -0.237 OA
ATOM    101  O   UNL A   1      43.825  26.409  39.246  1.00  0.00    -0.237 OA
ATOM    102  O   UNL A   1      44.660  24.543  37.871  1.00  0.00    -0.744 OA
ENDBRANCH  95  99
ENDBRANCH  69  92
ENDBRANCH  43  44
ENDBRANCH  35  38
ENDBRANCH  33  34
ENDBRANCH   1  33
TORSDOF 15
ENDMDL
MODEL 3
REMARK VINA RESULT:     -12.6      1.403      7.678
REMARK SMILES C[N@@H+]1CC2(CCN(C(=O)c3cc(-c4ccncc4)n[nH]3)CC2)C[C@H]1C(=O)NCCCNC(=O)c1ccc(-c2c3nc(c(-c4cc(S(=O)(=O)[O-])ccc4F)c4ccc([nH]4)c(-c4cc(S(=O)(=O)[O-])ccc4F)c4nc(c(-c5cc(S(=O)(=O)[O-])ccc5F)c5ccc2[nH]5)C=C4)C=C3)cc1
REMARK SMILES IDX 29 1 28 2 27 3 25 4 26 5 24 7 1 8 2 9 3 10 4 12 23 13 5 14
REMARK SMILES IDX 22 15 6 16 21 17 7 18 8 19 9 20 10 21 11 22 20 23 12 24
REMARK SMILES IDX 19 25 13 27 14 28 18 29 15 30 17 31 16 32 30 33 31 34 32 35
REMARK SMILES IDX 33 37 34 38 35 39 96 40 36 41 95 42 37 43 38 44 39 45 89 46
REMARK SMILES IDX 40 47 94 48 88 49 90 50 41 51 93 52 87 53 86 54 42 56 74 57
REMARK SMILES IDX 54 58 73 59 55 60 58 61 72 62 91 63 56 64 57 65 71 67 92 68
REMARK SMILES IDX 59 69 43 70 44 71 52 72 45 73 51 74 53 75 50 76 46 77 47 78
REMARK SMILES IDX 48 79 49 80 75 81 76 82 84 83 77 84 83 85 85 86 82 87 78 88
REMARK SMILES IDX 79 89 80 90 81 91 60 92 61 93 69 94 62 95 68 96 70 97 67 98
REMARK SMILES IDX 63 99 64 100 65 101 66 102
REMARK H PARENT 27 6 2 11 20 26 31 36 90 55 58 66
REMARK Flexibility Score: inf
ROOT
ATOM      1  C   UNL A   1      31.469  33.016  26.678  1.00  0.00     0.042 C 
ENDROOT
BRANCH   1   2
ATOM      2  C   UNL A   1      31.371  31.542  26.313  1.00  0.00     0.118 C 
BRANCH   2   3
ATOM      3  N   UNL A   1      32.290  30.668  26.994  1.00  0.00    -0.351 N 
ATOM      4  C   UNL A   1      32.493  29.326  26.830  1.00  0.00     0.278 C 
ATOM      5  O   UNL A   1      33.498  28.856  27.381  1.00  0.00    -0.268 OA
ATOM      6  H   UNL A   1      32.853  31.099  27.676  1.00  0.00     0.163 HD
BRANCH   4   7
ATOM      7  C   UNL A   1      31.559  28.389  26.007  1.00  0.00     0.274 C 
ATOM      8  C   UNL A   1      30.731  29.022  23.824  1.00  0.00     0.333 C 
ATOM      9  N   UNL A   1      31.864  28.472  24.567  1.00  0.00    -0.327 N 
ATOM     10  C   UNL A   1      32.259  27.146  24.083  1.00  0.00     0.269 C 
ATOM     11  H   UNL A   1      32.644  29.111  24.414  1.00  0.00     0.348 HD
ATOM     12  C   UNL A   1      31.910  26.086  25.150  1.00  0.00     0.029 C 
ATOM     13  C   UNL A   1      31.496  26.910  26.389  1.00  0.00     0.088 C 
ATOM     14  C   UNL A   1      33.074  25.135  25.534  1.00  0.00     0.034 C 
ATOM     15  C   UNL A   1      30.785  25.155  24.608  1.00  0.00     0.034 C 
ATOM     16  C   UNL A   1      33.585  24.390  24.322  1.00  0.00     0.120 C 
ATOM     17  C   UNL A   1      31.275  24.206  23.482  1.00  0.00     0.120 C 
ATOM     18  N   UNL A   1      32.524  23.526  23.830  1.00  0.00    -0.337 N 
ATOM     19  C   UNL A   1      32.746  22.200  23.460  1.00  0.00     0.271 C 
ATOM     20  O   UNL A   1      32.018  21.616  22.658  1.00  0.00    -0.267 OA
BRANCH  19  21
ATOM     21  C   UNL A   1      33.874  21.537  24.064  1.00  0.00     0.123 A 
ATOM     22  C   UNL A   1      35.148  21.987  24.363  1.00  0.00     0.064 A 
ATOM     23  N   UNL A   1      33.856  20.241  24.495  1.00  0.00    -0.272 N 
ATOM     24  C   UNL A   1      35.856  20.861  24.850  1.00  0.00     0.093 A 
ATOM     25  N   UNL A   1      35.054  19.789  24.914  1.00  0.00    -0.175 NA
ATOM     26  H   UNL A   1      33.042  19.687  24.499  1.00  0.00     0.190 HD
BRANCH  24  27
ATOM     27  C   UNL A   1      37.265  20.804  25.220  1.00  0.00     0.005 A 
ATOM     28  C   UNL A   1      37.994  19.629  25.036  1.00  0.00     0.030 A 
ATOM     29  C   UNL A   1      37.894  21.911  25.792  1.00  0.00     0.030 A 
ATOM     30  C   UNL A   1      39.322  19.613  25.427  1.00  0.00     0.111 A 
ATOM     31  C   UNL A   1      39.222  21.790  26.162  1.00  0.00     0.111 A 
ATOM     32  N   UNL A   1      39.952  20.665  25.991  1.00  0.00    -0.265 NA
ENDBRANCH  24  27
ENDBRANCH  19  21
ENDBRANCH   4   7
ENDBRANCH   2   3
ENDBRANCH   1   2
BRANCH   1  33
ATOM     33  C   UNL A   1      32.826  33.415  27.244  1.00  0.00     0.118 C 
BRANCH  33  34
ATOM     34  N   UNL A   1      32.748  34.567  28.143  1.00  0.00    -0.352 N 
ATOM     35  C   UNL A   1      33.404  34.845  29.320  1.00  0.00     0.251 C 
ATOM     36  H   UNL A   1      32.114  35.263  27.856  1.00  0.00     0.163 HD
ATOM     37  O   UNL A   1      33.041  35.820  29.976  1.00  0.00    -0.269 OA
BRANCH  35  38
ATOM     38  C   UNL A   1      34.504  33.985  29.817  1.00  0.00     0.039 A 
ATOM     39  C   UNL A   1      35.785  34.138  29.273  1.00  0.00     0.014 A 
ATOM     40  C   UNL A   1      34.286  33.013  30.794  1.00  0.00     0.014 A 
ATOM     41  C   UNL A   1      36.853  33.378  29.766  1.00  0.00     0.010 A 
ATOM     42  C   UNL A   1      35.363  32.332  31.352  1.00  0.00     0.010 A 
ATOM     43  C   UNL A   1      36.657  32.500  30.842  1.00  0.00    -0.014 A 
BRANCH  43  44
ATOM     44  C   UNL A   1      37.771  31.715  31.438  1.00  0.00     0.031 A 
ATOM     45  C   UNL A   1      38.294  32.081  32.801  1.00  0.00     0.074 A 
ATOM     46  C   UNL A   1      38.378  30.750  30.720  1.00  0.00     0.049 A 
ATOM     47  N   UNL A   1      39.363  31.659  33.426  1.00  0.00    -0.248 NA
ATOM     48  C   UNL A   1      37.531  33.100  33.536  1.00  0.00     0.031 C 
ATOM     49  C   UNL A   1      37.993  30.325  29.372  1.00  0.00     0.029 A 
ATOM     50  N   UNL A   1      39.460  29.962  31.020  1.00  0.00    -0.354 N 
ATOM     51  C   UNL A   1      39.425  32.391  34.607  1.00  0.00     0.074 A 
ATOM     52  C   UNL A   1      38.319  33.327  34.574  1.00  0.00     0.031 C 
ATOM     53  C   UNL A   1      38.809  29.335  28.974  1.00  0.00     0.029 A 
ATOM     54  C   UNL A   1      39.802  29.089  30.013  1.00  0.00     0.049 A 
ATOM     55  H   UNL A   1      39.946  30.015  31.874  1.00  0.00     0.167 HD
ATOM     56  C   UNL A   1      40.304  32.278  35.636  1.00  0.00     0.034 A 
ATOM     57  C   UNL A   1      40.809  28.199  29.935  1.00  0.00     0.034 A 
ATOM     58  C   UNL A   1      41.377  31.315  35.667  1.00  0.00     0.049 A 
ATOM     59  C   UNL A   1      41.772  28.082  31.086  1.00  0.00     0.074 A 
ATOM     60  C   UNL A   1      42.295  31.069  36.674  1.00  0.00     0.029 A 
ATOM     61  N   UNL A   1      41.677  30.430  34.637  1.00  0.00    -0.354 N 
ATOM     62  N   UNL A   1      41.811  28.768  32.204  1.00  0.00    -0.248 NA
ATOM     63  C   UNL A   1      42.824  27.064  30.964  1.00  0.00     0.031 C 
ATOM     64  C   UNL A   1      43.173  30.070  36.237  1.00  0.00     0.029 A 
ATOM     65  C   UNL A   1      42.771  29.650  34.979  1.00  0.00     0.049 A 
ATOM     66  H   UNL A   1      41.183  30.367  33.788  1.00  0.00     0.167 HD
ATOM     67  C   UNL A   1      42.876  28.248  32.930  1.00  0.00     0.074 A 
ATOM     68  C   UNL A   1      43.449  27.188  32.125  1.00  0.00     0.031 C 
ATOM     69  C   UNL A   1      43.336  28.609  34.155  1.00  0.00     0.034 A 
BRANCH  56  70
ATOM     70  C   UNL A   1      40.139  33.246  36.786  1.00  0.00     0.023 A 
ATOM     71  C   UNL A   1      39.543  32.850  37.998  1.00  0.00     0.031 A 
ATOM     72  C   UNL A   1      40.500  34.596  36.645  1.00  0.00     0.131 A 
ATOM     73  C   UNL A   1      39.218  33.811  38.966  1.00  0.00     0.055 A 
ATOM     74  C   UNL A   1      40.264  35.531  37.656  1.00  0.00     0.041 A 
ATOM     75  F   UNL A   1      41.058  35.040  35.508  1.00  0.00    -0.206 F 
ATOM     76  C   UNL A   1      39.598  35.146  38.815  1.00  0.00     0.022 A 
BRANCH  73  77
ATOM     77  S   UNL A   1      38.119  33.324  40.325  1.00  0.00     0.124 S 
ATOM     78  O   UNL A   1      36.880  33.028  39.609  1.00  0.00    -0.237 OA
ATOM     79  O   UNL A   1      38.815  32.179  40.899  1.00  0.00    -0.237 OA
ATOM     80  O   UNL A   1      38.070  34.515  41.171  1.00  0.00    -0.744 OA
ENDBRANCH  73  77
ENDBRANCH  56  70
BRANCH  57  81
ATOM     81  C   UNL A   1      40.958  27.343  28.728  1.00  0.00     0.023 A 
ATOM     82  C   UNL A   1      41.963  27.608  27.786  1.00  0.00     0.031 A 
ATOM     83  C   UNL A   1      40.099  26.256  28.495  1.00  0.00     0.131 A 
ATOM     84  C   UNL A   1      42.068  26.814  26.634  1.00  0.00     0.055 A 
ATOM     85  C   UNL A   1      40.230  25.445  27.365  1.00  0.00     0.041 A 
ATOM     86  F   UNL A   1      39.132  25.954  29.376  1.00  0.00    -0.206 F 
ATOM     87  C   UNL A   1      41.214  25.728  26.423  1.00  0.00     0.022 A 
BRANCH  84  88
ATOM     88  S   UNL A   1      43.320  27.243  25.394  1.00  0.00     0.124 S 
ATOM     89  O   UNL A   1      42.530  27.992  24.423  1.00  0.00    -0.237 OA
ATOM     90  O   UNL A   1      44.273  28.018  26.182  1.00  0.00    -0.237 OA
ATOM     91  O   UNL A   1      43.806  25.943  24.938  1.00  0.00    -0.744 OA
ENDBRANCH  84  88
ENDBRANCH  57  81
BRANCH  69  92
ATOM     92  C   UNL A   1      44.487  27.809  34.707  1.00  0.00     0.023 A 
ATOM     93  C   UNL A   1      44.283  26.613  35.415  1.00  0.00     0.031 A 
ATOM     94  C   UNL A   1      45.806  28.267  34.537  1.00  0.00     0.131 A 
ATOM     95  C   UNL A   1      45.380  25.937  35.970  1.00  0.00     0.055 A 
ATOM     96  C   UNL A   1      46.897  27.566  35.051  1.00  0.00     0.041 A 
ATOM     97  F   UNL A   1      46.053  29.406  33.869  1.00  0.00    -0.206 F 
ATOM     98  C   UNL A   1      46.686  26.399  35.781  1.00  0.00     0.022 A 
BRANCH  95  99
ATOM     99  S   UNL A   1      45.073  24.480  37.006  1.00  0.00     0.124 S 
ATOM    100  O   UNL A   1      44.350  25.057  38.135  1.00  0.00    -0.237 OA
ATOM    101  O   UNL A   1      44.292  23.625  36.119  1.00  0.00    -0.237 OA
ATOM    102  O   UNL A   1      46.415  23.989  37.314  1.00  0.00    -0.744 OA
ENDBRANCH  95  99
ENDBRANCH  69  92
ENDBRANCH  43  44
ENDBRANCH  35  38
ENDBRANCH  33  34
ENDBRANCH   1  33
TORSDOF 15
ENDMDL
