MODEL 1
REMARK VINA RESULT:     -11.9      0.000      0.000
REMARK SMILES O=C(C[C@@H]1C(=O)NC(=S)N1c1ccccc1)NCCCNC(=O)c1ccc(-c2c3nc(c(-c4cc(S(=O)(=O)[O-])ccc4F)c4ccc([nH]4)c(-c4cc(S(=O)(=O)[O-])ccc4F)c4nc(c(-c5cc(S(=O)(=O)[O-])ccc5F)c5ccc2[nH]5)C=C4)C=C3)cc1
REMARK SMILES IDX 19 1 18 2 17 3 1 4 2 5 3 7 4 8 5 9 10 10 6 11 7 12 8 13 9 15
REMARK SMILES IDX 11 16 12 17 16 18 13 19 15 20 14 21 20 22 21 23 22 24 23 26
REMARK SMILES IDX 24 27 25 28 86 29 26 30 85 31 27 32 28 33 29 34 79 35 30 36
REMARK SMILES IDX 84 37 78 38 80 39 31 40 83 41 77 42 76 43 32 45 64 46 44 47
REMARK SMILES IDX 63 48 45 49 48 50 62 51 81 52 46 53 47 54 61 56 82 57 49 58
REMARK SMILES IDX 33 59 34 60 42 61 35 62 41 63 43 64 40 65 36 66 37 67 38 68
REMARK SMILES IDX 39 69 65 70 66 71 74 72 67 73 73 74 75 75 72 76 68 77 69 78
REMARK SMILES IDX 70 79 71 80 50 81 51 82 59 83 52 84 58 85 60 86 57 87 53 88
REMARK SMILES IDX 54 89 55 90 56 91
REMARK H PARENT 17 6 7 14 21 25 80 44 48 55
REMARK Flexibility Score: inf
ROOT
ATOM      1  C   UNL A   1      36.770  22.521  23.969  1.00  0.00     0.042 C 
ENDROOT
BRANCH   1   2
ATOM      2  C   UNL A   1      35.380  23.035  23.626  1.00  0.00     0.117 C 
BRANCH   2   3
ATOM      3  N   UNL A   1      34.662  23.519  24.792  1.00  0.00    -0.356 N 
ATOM      4  O   UNL A   1      33.449  21.598  25.112  1.00  0.00    -0.275 OA
ATOM      5  C   UNL A   1      33.776  22.725  25.476  1.00  0.00     0.222 C 
ATOM      6  H   UNL A   1      34.814  24.442  25.099  1.00  0.00     0.163 HD
BRANCH   5   7
ATOM      7  C   UNL A   1      33.154  23.347  26.705  1.00  0.00     0.135 C 
BRANCH   7   8
ATOM      8  C   UNL A   1      31.777  23.989  26.558  1.00  0.00     0.188 C 
ATOM      9  C   UNL A   1      30.763  23.125  25.803  1.00  0.00     0.249 C 
ATOM     10  N   UNL A   1      31.741  25.199  25.720  1.00  0.00    -0.306 N 
ATOM     11  O   UNL A   1      30.294  22.066  26.184  1.00  0.00    -0.272 OA
ATOM     12  N   UNL A   1      30.447  23.730  24.631  1.00  0.00    -0.301 N 
ATOM     13  C   UNL A   1      30.988  24.974  24.555  1.00  0.00     0.180 C 
ATOM     14  H   UNL A   1      29.896  23.320  23.925  1.00  0.00     0.172 HD
ATOM     15  S   UNL A   1      30.746  25.932  23.217  1.00  0.00    -0.040 S 
BRANCH  10  16
ATOM     16  C   UNL A   1      32.232  26.454  26.174  1.00  0.00     0.044 A 
ATOM     17  C   UNL A   1      33.545  26.849  25.885  1.00  0.00     0.026 A 
ATOM     18  C   UNL A   1      31.438  27.320  26.934  1.00  0.00     0.026 A 
ATOM     19  C   UNL A   1      34.069  28.045  26.388  1.00  0.00     0.002 A 
ATOM     20  C   UNL A   1      31.967  28.504  27.460  1.00  0.00     0.002 A 
ATOM     21  C   UNL A   1      33.284  28.862  27.194  1.00  0.00     0.000 A 
ENDBRANCH  10  16
ENDBRANCH   7   8
ENDBRANCH   5   7
ENDBRANCH   2   3
ENDBRANCH   1   2
BRANCH   1  22
ATOM     22  C   UNL A   1      37.112  22.550  25.455  1.00  0.00     0.118 C 
BRANCH  22  23
ATOM     23  N   UNL A   1      38.054  21.513  25.844  1.00  0.00    -0.352 N 
ATOM     24  C   UNL A   1      39.315  21.614  26.381  1.00  0.00     0.251 C 
ATOM     25  H   UNL A   1      37.737  20.591  25.702  1.00  0.00     0.163 HD
ATOM     26  O   UNL A   1      40.000  20.599  26.477  1.00  0.00    -0.269 OA
BRANCH  24  27
ATOM     27  C   UNL A   1      39.863  22.920  26.819  1.00  0.00     0.039 A 
ATOM     28  C   UNL A   1      39.506  24.067  26.104  1.00  0.00     0.014 A 
ATOM     29  C   UNL A   1      40.756  23.028  27.889  1.00  0.00     0.014 A 
ATOM     30  C   UNL A   1      40.009  25.314  26.484  1.00  0.00     0.010 A 
ATOM     31  C   UNL A   1      41.184  24.283  28.324  1.00  0.00     0.010 A 
ATOM     32  C   UNL A   1      40.834  25.440  27.613  1.00  0.00    -0.014 A 
BRANCH  32  33
ATOM     33  C   UNL A   1      41.365  26.769  28.024  1.00  0.00     0.031 A 
ATOM     34  C   UNL A   1      42.787  27.154  27.702  1.00  0.00     0.074 A 
ATOM     35  C   UNL A   1      40.573  27.628  28.697  1.00  0.00     0.049 A 
ATOM     36  N   UNL A   1      43.427  28.265  27.968  1.00  0.00    -0.248 NA
ATOM     37  C   UNL A   1      43.607  26.144  27.016  1.00  0.00     0.031 C 
ATOM     38  C   UNL A   1      39.194  27.359  29.108  1.00  0.00     0.029 A 
ATOM     39  N   UNL A   1      40.807  28.904  29.148  1.00  0.00    -0.354 N 
ATOM     40  C   UNL A   1      44.720  28.086  27.487  1.00  0.00     0.074 A 
ATOM     41  C   UNL A   1      44.793  26.731  26.985  1.00  0.00     0.031 C 
ATOM     42  C   UNL A   1      38.692  28.449  29.710  1.00  0.00     0.029 A 
ATOM     43  C   UNL A   1      39.723  29.480  29.771  1.00  0.00     0.049 A 
ATOM     44  H   UNL A   1      41.671  29.363  29.037  1.00  0.00     0.167 HD
ATOM     45  C   UNL A   1      45.744  28.976  27.439  1.00  0.00     0.034 A 
ATOM     46  C   UNL A   1      39.576  30.699  30.327  1.00  0.00     0.034 A 
ATOM     47  C   UNL A   1      45.655  30.327  27.939  1.00  0.00     0.049 A 
ATOM     48  C   UNL A   1      40.732  31.667  30.278  1.00  0.00     0.074 A 
ATOM     49  C   UNL A   1      46.615  31.323  27.910  1.00  0.00     0.029 A 
ATOM     50  N   UNL A   1      44.541  30.873  28.566  1.00  0.00    -0.354 N 
ATOM     51  N   UNL A   1      41.933  31.497  29.773  1.00  0.00    -0.248 NA
ATOM     52  C   UNL A   1      40.503  32.997  30.851  1.00  0.00     0.031 C 
ATOM     53  C   UNL A   1      46.112  32.442  28.584  1.00  0.00     0.029 A 
ATOM     54  C   UNL A   1      44.802  32.181  28.950  1.00  0.00     0.049 A 
ATOM     55  H   UNL A   1      43.690  30.401  28.716  1.00  0.00     0.167 HD
ATOM     56  C   UNL A   1      42.587  32.718  29.933  1.00  0.00     0.074 A 
ATOM     57  C   UNL A   1      41.638  33.613  30.560  1.00  0.00     0.031 C 
ATOM     58  C   UNL A   1      43.853  33.067  29.584  1.00  0.00     0.034 A 
BRANCH  45  59
ATOM     59  C   UNL A   1      47.054  28.500  26.850  1.00  0.00     0.023 A 
ATOM     60  C   UNL A   1      47.242  28.383  25.460  1.00  0.00     0.031 A 
ATOM     61  C   UNL A   1      48.121  28.129  27.687  1.00  0.00     0.131 A 
ATOM     62  C   UNL A   1      48.430  27.833  24.955  1.00  0.00     0.055 A 
ATOM     63  C   UNL A   1      49.336  27.669  27.174  1.00  0.00     0.041 A 
ATOM     64  F   UNL A   1      47.998  28.194  29.022  1.00  0.00    -0.206 F 
ATOM     65  C   UNL A   1      49.490  27.502  25.801  1.00  0.00     0.022 A 
BRANCH  62  66
ATOM     66  S   UNL A   1      48.506  27.405  23.194  1.00  0.00     0.124 S 
ATOM     67  O   UNL A   1      49.827  27.910  22.826  1.00  0.00    -0.237 OA
ATOM     68  O   UNL A   1      48.359  25.954  23.214  1.00  0.00    -0.237 OA
ATOM     69  O   UNL A   1      47.384  28.140  22.614  1.00  0.00    -0.744 OA
ENDBRANCH  62  66
ENDBRANCH  45  59
BRANCH  46  70
ATOM     70  C   UNL A   1      38.288  31.087  30.976  1.00  0.00     0.023 A 
ATOM     71  C   UNL A   1      37.257  31.695  30.242  1.00  0.00     0.031 A 
ATOM     72  C   UNL A   1      38.090  30.902  32.357  1.00  0.00     0.131 A 
ATOM     73  C   UNL A   1      36.102  32.150  30.899  1.00  0.00     0.055 A 
ATOM     74  C   UNL A   1      36.914  31.298  32.995  1.00  0.00     0.041 A 
ATOM     75  F   UNL A   1      39.041  30.322  33.107  1.00  0.00    -0.206 F 
ATOM     76  C   UNL A   1      35.918  31.942  32.268  1.00  0.00     0.022 A 
BRANCH  73  77
ATOM     77  S   UNL A   1      34.887  33.111  29.955  1.00  0.00     0.124 S 
ATOM     78  O   UNL A   1      35.729  34.125  29.333  1.00  0.00    -0.237 OA
ATOM     79  O   UNL A   1      34.330  32.101  29.062  1.00  0.00    -0.237 OA
ATOM     80  O   UNL A   1      33.972  33.603  30.984  1.00  0.00    -0.744 OA
ENDBRANCH  73  77
ENDBRANCH  46  70
BRANCH  58  81
ATOM     81  C   UNL A   1      44.257  34.506  29.821  1.00  0.00     0.023 A 
ATOM     82  C   UNL A   1      43.978  35.523  28.890  1.00  0.00     0.031 A 
ATOM     83  C   UNL A   1      44.973  34.855  30.980  1.00  0.00     0.131 A 
ATOM     84  C   UNL A   1      44.487  36.815  29.091  1.00  0.00     0.055 A 
ATOM     85  C   UNL A   1      45.407  36.161  31.214  1.00  0.00     0.041 A 
ATOM     86  F   UNL A   1      45.273  33.929  31.905  1.00  0.00    -0.206 F 
ATOM     87  C   UNL A   1      45.184  37.145  30.256  1.00  0.00     0.022 A 
BRANCH  84  88
ATOM     88  S   UNL A   1      44.355  38.020  27.742  1.00  0.00     0.124 S 
ATOM     89  O   UNL A   1      43.998  39.240  28.458  1.00  0.00    -0.237 OA
ATOM     90  O   UNL A   1      45.696  37.989  27.166  1.00  0.00    -0.237 OA
ATOM     91  O   UNL A   1      43.303  37.469  26.890  1.00  0.00    -0.744 OA
ENDBRANCH  84  88
ENDBRANCH  58  81
ENDBRANCH  32  33
ENDBRANCH  24  27
ENDBRANCH  22  23
ENDBRANCH   1  22
TORSDOF 15
ENDMDL
MODEL 2
REMARK VINA RESULT:     -11.9      4.704      9.633
REMARK SMILES O=C(C[C@@H]1C(=O)NC(=S)N1c1ccccc1)NCCCNC(=O)c1ccc(-c2c3nc(c(-c4cc(S(=O)(=O)[O-])ccc4F)c4ccc([nH]4)c(-c4cc(S(=O)(=O)[O-])ccc4F)c4nc(c(-c5cc(S(=O)(=O)[O-])ccc5F)c5ccc2[nH]5)C=C4)C=C3)cc1
REMARK SMILES IDX 19 1 18 2 17 3 1 4 2 5 3 7 4 8 5 9 10 10 6 11 7 12 8 13 9 15
REMARK SMILES IDX 11 16 12 17 16 18 13 19 15 20 14 21 20 22 21 23 22 24 23 26
REMARK SMILES IDX 24 27 25 28 86 29 26 30 85 31 27 32 28 33 29 34 79 35 30 36
REMARK SMILES IDX 84 37 78 38 80 39 31 40 83 41 77 42 76 43 32 45 64 46 44 47
REMARK SMILES IDX 63 48 45 49 48 50 62 51 81 52 46 53 47 54 61 56 82 57 49 58
REMARK SMILES IDX 33 59 34 60 42 61 35 62 41 63 43 64 40 65 36 66 37 67 38 68
REMARK SMILES IDX 39 69 65 70 66 71 74 72 67 73 73 74 75 75 72 76 68 77 69 78
REMARK SMILES IDX 70 79 71 80 50 81 51 82 59 83 52 84 58 85 60 86 57 87 53 88
REMARK SMILES IDX 54 89 55 90 56 91
REMARK H PARENT 17 6 7 14 21 25 80 44 48 55
REMARK Flexibility Score: inf
ROOT
ATOM      1  C   UNL A   1      31.814  28.240  27.511  1.00  0.00     0.042 C 
ENDROOT
BRANCH   1   2
ATOM      2  C   UNL A   1      31.467  27.067  26.607  1.00  0.00     0.117 C 
BRANCH   2   3
ATOM      3  N   UNL A   1      32.505  26.791  25.630  1.00  0.00    -0.356 N 
ATOM      4  O   UNL A   1      31.380  27.712  23.855  1.00  0.00    -0.275 OA
ATOM      5  C   UNL A   1      32.388  27.189  24.322  1.00  0.00     0.222 C 
ATOM      6  H   UNL A   1      33.313  26.305  25.913  1.00  0.00     0.163 HD
BRANCH   5   7
ATOM      7  C   UNL A   1      33.576  26.886  23.438  1.00  0.00     0.135 C 
BRANCH   7   8
ATOM      8  C   UNL A   1      33.557  25.586  22.639  1.00  0.00     0.188 C 
ATOM      9  C   UNL A   1      32.242  25.330  21.897  1.00  0.00     0.249 C 
ATOM     10  N   UNL A   1      33.625  24.358  23.448  1.00  0.00    -0.306 N 
ATOM     11  O   UNL A   1      31.804  25.980  20.963  1.00  0.00    -0.272 OA
ATOM     12  N   UNL A   1      31.631  24.244  22.433  1.00  0.00    -0.301 N 
ATOM     13  C   UNL A   1      32.431  23.624  23.340  1.00  0.00     0.180 C 
ATOM     14  H   UNL A   1      30.724  23.943  22.195  1.00  0.00     0.172 HD
ATOM     15  S   UNL A   1      31.919  22.260  24.141  1.00  0.00    -0.040 S 
BRANCH  10  16
ATOM     16  C   UNL A   1      34.830  23.915  24.059  1.00  0.00     0.044 A 
ATOM     17  C   UNL A   1      35.149  24.307  25.366  1.00  0.00     0.026 A 
ATOM     18  C   UNL A   1      35.740  23.099  23.378  1.00  0.00     0.026 A 
ATOM     19  C   UNL A   1      36.365  23.944  25.955  1.00  0.00     0.002 A 
ATOM     20  C   UNL A   1      36.969  22.757  23.955  1.00  0.00     0.002 A 
ATOM     21  C   UNL A   1      37.284  23.186  25.238  1.00  0.00     0.000 A 
ENDBRANCH  10  16
ENDBRANCH   7   8
ENDBRANCH   5   7
ENDBRANCH   2   3
ENDBRANCH   1   2
BRANCH   1  22
ATOM     22  C   UNL A   1      33.226  28.787  27.331  1.00  0.00     0.118 C 
BRANCH  22  23
ATOM     23  N   UNL A   1      33.286  30.239  27.382  1.00  0.00    -0.352 N 
ATOM     24  C   UNL A   1      34.246  31.071  27.907  1.00  0.00     0.251 C 
ATOM     25  H   UNL A   1      32.517  30.700  26.975  1.00  0.00     0.163 HD
ATOM     26  O   UNL A   1      34.007  32.273  27.987  1.00  0.00    -0.269 OA
BRANCH  24  27
ATOM     27  C   UNL A   1      35.542  30.540  28.394  1.00  0.00     0.039 A 
ATOM     28  C   UNL A   1      36.695  30.813  27.653  1.00  0.00     0.014 A 
ATOM     29  C   UNL A   1      35.634  29.743  29.538  1.00  0.00     0.014 A 
ATOM     30  C   UNL A   1      37.934  30.324  28.077  1.00  0.00     0.010 A 
ATOM     31  C   UNL A   1      36.881  29.333  30.011  1.00  0.00     0.010 A 
ATOM     32  C   UNL A   1      38.045  29.599  29.274  1.00  0.00    -0.014 A 
BRANCH  32  33
ATOM     33  C   UNL A   1      39.364  29.083  29.733  1.00  0.00     0.031 A 
ATOM     34  C   UNL A   1      40.077  29.736  30.890  1.00  0.00     0.074 A 
ATOM     35  C   UNL A   1      39.930  28.034  29.102  1.00  0.00     0.049 A 
ATOM     36  N   UNL A   1      41.225  29.428  31.438  1.00  0.00    -0.248 NA
ATOM     37  C   UNL A   1      39.426  30.909  31.492  1.00  0.00     0.031 C 
ATOM     38  C   UNL A   1      39.364  27.342  27.942  1.00  0.00     0.029 A 
ATOM     39  N   UNL A   1      41.100  27.359  29.348  1.00  0.00    -0.354 N 
ATOM     40  C   UNL A   1      41.434  30.368  32.443  1.00  0.00     0.074 A 
ATOM     41  C   UNL A   1      40.331  31.302  32.373  1.00  0.00     0.031 C 
ATOM     42  C   UNL A   1      40.164  26.318  27.606  1.00  0.00     0.029 A 
ATOM     43  C   UNL A   1      41.322  26.303  28.495  1.00  0.00     0.049 A 
ATOM     44  H   UNL A   1      41.723  27.609  30.069  1.00  0.00     0.167 HD
ATOM     45  C   UNL A   1      42.434  30.431  33.358  1.00  0.00     0.034 A 
ATOM     46  C   UNL A   1      42.341  25.423  28.433  1.00  0.00     0.034 A 
ATOM     47  C   UNL A   1      43.525  29.489  33.419  1.00  0.00     0.049 A 
ATOM     48  C   UNL A   1      43.451  25.522  29.450  1.00  0.00     0.074 A 
ATOM     49  C   UNL A   1      44.571  29.436  34.324  1.00  0.00     0.029 A 
ATOM     50  N   UNL A   1      43.718  28.434  32.535  1.00  0.00    -0.354 N 
ATOM     51  N   UNL A   1      43.606  26.388  30.426  1.00  0.00    -0.248 NA
ATOM     52  C   UNL A   1      44.509  24.508  29.371  1.00  0.00     0.031 C 
ATOM     53  C   UNL A   1      45.433  28.401  33.944  1.00  0.00     0.029 A 
ATOM     54  C   UNL A   1      44.877  27.744  32.858  1.00  0.00     0.049 A 
ATOM     55  H   UNL A   1      43.118  28.208  31.787  1.00  0.00     0.167 HD
ATOM     56  C   UNL A   1      44.759  25.995  31.101  1.00  0.00     0.074 A 
ATOM     57  C   UNL A   1      45.243  24.805  30.433  1.00  0.00     0.031 C 
ATOM     58  C   UNL A   1      45.359  26.561  32.181  1.00  0.00     0.034 A 
BRANCH  45  59
ATOM     59  C   UNL A   1      42.402  31.577  34.346  1.00  0.00     0.023 A 
ATOM     60  C   UNL A   1      41.598  31.538  35.501  1.00  0.00     0.031 A 
ATOM     61  C   UNL A   1      43.163  32.738  34.119  1.00  0.00     0.131 A 
ATOM     62  C   UNL A   1      41.510  32.663  36.334  1.00  0.00     0.055 A 
ATOM     63  C   UNL A   1      43.141  33.819  35.002  1.00  0.00     0.041 A 
ATOM     64  F   UNL A   1      43.932  32.848  33.024  1.00  0.00    -0.206 F 
ATOM     65  C   UNL A   1      42.298  33.793  36.109  1.00  0.00     0.022 A 
BRANCH  62  66
ATOM     66  S   UNL A   1      40.231  32.690  37.621  1.00  0.00     0.124 S 
ATOM     67  O   UNL A   1      39.286  31.697  37.116  1.00  0.00    -0.237 OA
ATOM     68  O   UNL A   1      40.977  32.314  38.815  1.00  0.00    -0.237 OA
ATOM     69  O   UNL A   1      39.746  34.069  37.593  1.00  0.00    -0.744 OA
ENDBRANCH  62  66
ENDBRANCH  45  59
BRANCH  46  70
ATOM     70  C   UNL A   1      42.367  24.364  27.380  1.00  0.00     0.023 A 
ATOM     71  C   UNL A   1      41.707  23.138  27.563  1.00  0.00     0.031 A 
ATOM     72  C   UNL A   1      43.101  24.544  26.193  1.00  0.00     0.131 A 
ATOM     73  C   UNL A   1      41.842  22.119  26.606  1.00  0.00     0.055 A 
ATOM     74  C   UNL A   1      43.179  23.551  25.215  1.00  0.00     0.041 A 
ATOM     75  F   UNL A   1      43.749  25.697  25.964  1.00  0.00    -0.206 F 
ATOM     76  C   UNL A   1      42.561  22.324  25.426  1.00  0.00     0.022 A 
BRANCH  73  77
ATOM     77  S   UNL A   1      41.145  20.484  26.973  1.00  0.00     0.124 S 
ATOM     78  O   UNL A   1      42.270  19.608  26.665  1.00  0.00    -0.237 OA
ATOM     79  O   UNL A   1      40.798  20.613  28.384  1.00  0.00    -0.237 OA
ATOM     80  O   UNL A   1      40.009  20.387  26.059  1.00  0.00    -0.744 OA
ENDBRANCH  73  77
ENDBRANCH  46  70
BRANCH  58  81
ATOM     81  C   UNL A   1      46.573  25.854  32.742  1.00  0.00     0.023 A 
ATOM     82  C   UNL A   1      47.845  25.972  32.154  1.00  0.00     0.031 A 
ATOM     83  C   UNL A   1      46.442  25.009  33.860  1.00  0.00     0.131 A 
ATOM     84  C   UNL A   1      48.911  25.195  32.629  1.00  0.00     0.055 A 
ATOM     85  C   UNL A   1      47.527  24.300  34.379  1.00  0.00     0.041 A 
ATOM     86  F   UNL A   1      45.253  24.852  34.464  1.00  0.00    -0.206 F 
ATOM     87  C   UNL A   1      48.765  24.373  33.750  1.00  0.00     0.022 A 
BRANCH  84  88
ATOM     88  S   UNL A   1      50.453  25.157  31.673  1.00  0.00     0.124 S 
ATOM     89  O   UNL A   1      51.257  26.164  32.355  1.00  0.00    -0.237 OA
ATOM     90  O   UNL A   1      50.887  23.773  31.841  1.00  0.00    -0.237 OA
ATOM     91  O   UNL A   1      50.027  25.513  30.321  1.00  0.00    -0.744 OA
ENDBRANCH  84  88
ENDBRANCH  58  81
ENDBRANCH  32  33
ENDBRANCH  24  27
ENDBRANCH  22  23
ENDBRANCH   1  22
TORSDOF 15
ENDMDL
MODEL 3
REMARK VINA RESULT:     -11.8      5.795      8.691
REMARK SMILES O=C(C[C@@H]1C(=O)NC(=S)N1c1ccccc1)NCCCNC(=O)c1ccc(-c2c3nc(c(-c4cc(S(=O)(=O)[O-])ccc4F)c4ccc([nH]4)c(-c4cc(S(=O)(=O)[O-])ccc4F)c4nc(c(-c5cc(S(=O)(=O)[O-])ccc5F)c5ccc2[nH]5)C=C4)C=C3)cc1
REMARK SMILES IDX 19 1 18 2 17 3 1 4 2 5 3 7 4 8 5 9 10 10 6 11 7 12 8 13 9 15
REMARK SMILES IDX 11 16 12 17 16 18 13 19 15 20 14 21 20 22 21 23 22 24 23 26
REMARK SMILES IDX 24 27 25 28 86 29 26 30 85 31 27 32 28 33 29 34 79 35 30 36
REMARK SMILES IDX 84 37 78 38 80 39 31 40 83 41 77 42 76 43 32 45 64 46 44 47
REMARK SMILES IDX 63 48 45 49 48 50 62 51 81 52 46 53 47 54 61 56 82 57 49 58
REMARK SMILES IDX 33 59 34 60 42 61 35 62 41 63 43 64 40 65 36 66 37 67 38 68
REMARK SMILES IDX 39 69 65 70 66 71 74 72 67 73 73 74 75 75 72 76 68 77 69 78
REMARK SMILES IDX 70 79 71 80 50 81 51 82 59 83 52 84 58 85 60 86 57 87 53 88
REMARK SMILES IDX 54 89 55 90 56 91
REMARK H PARENT 17 6 7 14 21 25 80 44 48 55
REMARK Flexibility Score: inf
ROOT
ATOM      1  C   UNL A   1      31.431  32.107  26.442  1.00  0.00     0.042 C 
ENDROOT
BRANCH   1   2
ATOM      2  C   UNL A   1      31.374  30.589  26.352  1.00  0.00     0.117 C 
BRANCH   2   3
ATOM      3  N   UNL A   1      31.617  30.101  25.006  1.00  0.00    -0.356 N 
ATOM      4  O   UNL A   1      33.627  29.110  25.496  1.00  0.00    -0.275 OA
ATOM      5  C   UNL A   1      32.722  29.348  24.701  1.00  0.00     0.222 C 
ATOM      6  H   UNL A   1      30.973  30.318  24.295  1.00  0.00     0.163 HD
BRANCH   5   7
ATOM      7  C   UNL A   1      32.806  28.860  23.273  1.00  0.00     0.135 C 
BRANCH   7   8
ATOM      8  C   UNL A   1      31.964  27.648  22.883  1.00  0.00     0.188 C 
ATOM      9  C   UNL A   1      30.461  27.931  22.810  1.00  0.00     0.249 C 
ATOM     10  N   UNL A   1      31.959  26.552  23.866  1.00  0.00    -0.306 N 
ATOM     11  O   UNL A   1      29.903  28.654  22.002  1.00  0.00    -0.272 OA
ATOM     12  N   UNL A   1      29.827  27.236  23.787  1.00  0.00    -0.301 N 
ATOM     13  C   UNL A   1      30.678  26.386  24.421  1.00  0.00     0.180 C 
ATOM     14  H   UNL A   1      28.873  27.334  24.010  1.00  0.00     0.172 HD
ATOM     15  S   UNL A   1      30.150  25.411  25.660  1.00  0.00    -0.040 S 
BRANCH  10  16
ATOM     16  C   UNL A   1      33.066  25.675  24.033  1.00  0.00     0.044 A 
ATOM     17  C   UNL A   1      33.374  24.725  23.050  1.00  0.00     0.026 A 
ATOM     18  C   UNL A   1      33.868  25.716  25.180  1.00  0.00     0.026 A 
ATOM     19  C   UNL A   1      34.411  23.804  23.231  1.00  0.00     0.002 A 
ATOM     20  C   UNL A   1      34.889  24.780  25.375  1.00  0.00     0.002 A 
ATOM     21  C   UNL A   1      35.155  23.819  24.406  1.00  0.00     0.000 A 
ENDBRANCH  10  16
ENDBRANCH   7   8
ENDBRANCH   5   7
ENDBRANCH   2   3
ENDBRANCH   1   2
BRANCH   1  22
ATOM     22  C   UNL A   1      32.721  32.661  27.040  1.00  0.00     0.118 C 
BRANCH  22  23
ATOM     23  N   UNL A   1      32.574  34.011  27.560  1.00  0.00    -0.352 N 
ATOM     24  C   UNL A   1      33.195  34.626  28.621  1.00  0.00     0.251 C 
ATOM     25  H   UNL A   1      31.929  34.574  27.075  1.00  0.00     0.163 HD
ATOM     26  O   UNL A   1      32.790  35.728  28.984  1.00  0.00    -0.269 OA
BRANCH  24  27
ATOM     27  C   UNL A   1      34.316  33.976  29.341  1.00  0.00     0.039 A 
ATOM     28  C   UNL A   1      34.018  33.035  30.329  1.00  0.00     0.014 A 
ATOM     29  C   UNL A   1      35.650  34.311  29.091  1.00  0.00     0.014 A 
ATOM     30  C   UNL A   1      35.049  32.407  31.034  1.00  0.00     0.010 A 
ATOM     31  C   UNL A   1      36.680  33.618  29.728  1.00  0.00     0.010 A 
ATOM     32  C   UNL A   1      36.393  32.673  30.724  1.00  0.00    -0.014 A 
BRANCH  32  33
ATOM     33  C   UNL A   1      37.493  31.999  31.467  1.00  0.00     0.031 A 
ATOM     34  C   UNL A   1      38.277  30.885  30.821  1.00  0.00     0.074 A 
ATOM     35  C   UNL A   1      37.782  32.380  32.728  1.00  0.00     0.049 A 
ATOM     36  N   UNL A   1      39.273  30.184  31.302  1.00  0.00    -0.248 NA
ATOM     37  C   UNL A   1      37.869  30.487  29.465  1.00  0.00     0.031 C 
ATOM     38  C   UNL A   1      37.069  33.414  33.481  1.00  0.00     0.029 A 
ATOM     39  N   UNL A   1      38.753  31.950  33.598  1.00  0.00    -0.354 N 
ATOM     40  C   UNL A   1      39.606  29.263  30.312  1.00  0.00     0.074 A 
ATOM     41  C   UNL A   1      38.653  29.445  29.239  1.00  0.00     0.031 C 
ATOM     42  C   UNL A   1      37.653  33.567  34.680  1.00  0.00     0.029 A 
ATOM     43  C   UNL A   1      38.753  32.616  34.803  1.00  0.00     0.049 A 
ATOM     44  H   UNL A   1      39.391  31.232  33.380  1.00  0.00     0.167 HD
ATOM     45  C   UNL A   1      40.627  28.370  30.286  1.00  0.00     0.034 A 
ATOM     46  C   UNL A   1      39.547  32.476  35.883  1.00  0.00     0.034 A 
ATOM     47  C   UNL A   1      41.573  28.203  31.363  1.00  0.00     0.049 A 
ATOM     48  C   UNL A   1      40.665  31.465  35.839  1.00  0.00     0.074 A 
ATOM     49  C   UNL A   1      42.666  27.356  31.429  1.00  0.00     0.029 A 
ATOM     50  N   UNL A   1      41.538  28.893  32.570  1.00  0.00    -0.354 N 
ATOM     51  N   UNL A   1      40.996  30.637  34.874  1.00  0.00    -0.248 NA
ATOM     52  C   UNL A   1      41.532  31.389  37.021  1.00  0.00     0.031 C 
ATOM     53  C   UNL A   1      43.244  27.478  32.697  1.00  0.00     0.029 A 
ATOM     54  C   UNL A   1      42.573  28.472  33.392  1.00  0.00     0.049 A 
ATOM     55  H   UNL A   1      40.876  29.583  32.806  1.00  0.00     0.167 HD
ATOM     56  C   UNL A   1      42.137  29.973  35.320  1.00  0.00     0.074 A 
ATOM     57  C   UNL A   1      42.443  30.513  36.628  1.00  0.00     0.031 C 
ATOM     58  C   UNL A   1      42.868  29.009  34.701  1.00  0.00     0.034 A 
BRANCH  45  59
ATOM     59  C   UNL A   1      40.750  27.488  29.063  1.00  0.00     0.023 A 
ATOM     60  C   UNL A   1      41.687  27.755  28.048  1.00  0.00     0.031 A 
ATOM     61  C   UNL A   1      39.900  26.380  28.892  1.00  0.00     0.131 A 
ATOM     62  C   UNL A   1      41.695  26.981  26.877  1.00  0.00     0.055 A 
ATOM     63  C   UNL A   1      39.976  25.558  27.766  1.00  0.00     0.041 A 
ATOM     64  F   UNL A   1      38.968  26.085  29.813  1.00  0.00    -0.206 F 
ATOM     65  C   UNL A   1      40.866  25.867  26.742  1.00  0.00     0.022 A 
BRANCH  62  66
ATOM     66  S   UNL A   1      42.690  27.549  25.470  1.00  0.00     0.124 S 
ATOM     67  O   UNL A   1      42.711  26.357  24.626  1.00  0.00    -0.237 OA
ATOM     68  O   UNL A   1      41.912  28.675  24.968  1.00  0.00    -0.237 OA
ATOM     69  O   UNL A   1      43.974  27.897  26.077  1.00  0.00    -0.744 OA
ENDBRANCH  62  66
ENDBRANCH  45  59
BRANCH  46  70
ATOM     70  C   UNL A   1      39.326  33.312  37.101  1.00  0.00     0.023 A 
ATOM     71  C   UNL A   1      40.004  34.529  37.282  1.00  0.00     0.031 A 
ATOM     72  C   UNL A   1      38.469  32.878  38.129  1.00  0.00     0.131 A 
ATOM     73  C   UNL A   1      39.862  35.238  38.485  1.00  0.00     0.055 A 
ATOM     74  C   UNL A   1      38.282  33.619  39.297  1.00  0.00     0.041 A 
ATOM     75  F   UNL A   1      37.792  31.725  38.008  1.00  0.00    -0.206 F 
ATOM     76  C   UNL A   1      38.994  34.799  39.487  1.00  0.00     0.022 A 
BRANCH  73  77
ATOM     77  S   UNL A   1      40.908  36.694  38.765  1.00  0.00     0.124 S 
ATOM     78  O   UNL A   1      41.654  36.767  37.514  1.00  0.00    -0.237 OA
ATOM     79  O   UNL A   1      39.917  37.741  38.985  1.00  0.00    -0.237 OA
ATOM     80  O   UNL A   1      41.694  36.326  39.941  1.00  0.00    -0.744 OA
ENDBRANCH  73  77
ENDBRANCH  46  70
BRANCH  58  81
ATOM     81  C   UNL A   1      44.112  28.528  35.414  1.00  0.00     0.023 A 
ATOM     82  C   UNL A   1      44.077  27.486  36.358  1.00  0.00     0.031 A 
ATOM     83  C   UNL A   1      45.349  29.155  35.175  1.00  0.00     0.131 A 
ATOM     84  C   UNL A   1      45.230  27.163  37.089  1.00  0.00     0.055 A 
ATOM     85  C   UNL A   1      46.512  28.775  35.848  1.00  0.00     0.041 A 
ATOM     86  F   UNL A   1      45.448  30.159  34.288  1.00  0.00    -0.206 F 
ATOM     87  C   UNL A   1      46.452  27.788  36.827  1.00  0.00     0.022 A 
BRANCH  84  88
ATOM     88  S   UNL A   1      45.079  26.021  38.490  1.00  0.00     0.124 S 
ATOM     89  O   UNL A   1      44.546  24.824  37.850  1.00  0.00    -0.237 OA
ATOM     90  O   UNL A   1      46.456  25.930  38.966  1.00  0.00    -0.237 OA
ATOM     91  O   UNL A   1      44.156  26.705  39.394  1.00  0.00    -0.744 OA
ENDBRANCH  84  88
ENDBRANCH  58  81
ENDBRANCH  32  33
ENDBRANCH  24  27
ENDBRANCH  22  23
ENDBRANCH   1  22
TORSDOF 15
ENDMDL
