MODEL 1
REMARK VINA RESULT:     -11.8      0.000      0.000
REMARK SMILES O=Cc1ccc2c(c1)C=C(C(=O)NCCCNC(=O)c1ccc(-c3c4nc(c(-c5cc(S(=O)(=O)[O-])ccc5F)c5ccc([nH]5)c(-c5cc(S(=O)(=O)[O-])ccc5F)c5nc(c(-c6cc(S(=O)(=O)[O-])ccc6F)c6ccc3[nH]6)C=C5)C=C4)cc1)[C@H](C(F)(F)F)O2
REMARK SMILES IDX 16 1 15 2 14 3 13 4 11 5 12 6 10 8 3 9 4 10 8 11 5 12 7 13
REMARK SMILES IDX 6 14 9 15 88 16 83 17 2 18 1 19 84 20 85 21 86 22 87 23
REMARK SMILES IDX 17 24 18 25 19 27 20 28 21 29 82 30 22 31 81 32 23 33 24 34
REMARK SMILES IDX 25 35 75 36 26 37 80 38 74 39 76 40 27 41 79 42 73 43 72 44
REMARK SMILES IDX 28 46 60 47 40 48 59 49 41 50 44 51 58 52 77 53 42 54 43 55
REMARK SMILES IDX 57 57 78 58 45 59 29 60 30 61 38 62 31 63 37 64 39 65 36 66
REMARK SMILES IDX 32 67 33 68 34 69 35 70 61 71 62 72 70 73 63 74 69 75 71 76
REMARK SMILES IDX 68 77 64 78 65 79 66 80 67 81 46 82 47 83 55 84 48 85 54 86
REMARK SMILES IDX 56 87 53 88 49 89 50 90 51 91 52 92
REMARK H PARENT 13 7 17 26 76 45 44 56
REMARK Flexibility Score: inf
ROOT
ATOM      1  C   UNL A   1      33.878  28.898  26.085  1.00  0.00     0.118 C 
ENDROOT
BRANCH   1   2
ATOM      2  C   UNL A   1      33.056  27.902  26.903  1.00  0.00     0.042 C 
BRANCH   2   3
ATOM      3  C   UNL A   1      31.670  27.621  26.314  1.00  0.00     0.118 C 
BRANCH   3   4
ATOM      4  N   UNL A   1      31.123  26.382  26.845  1.00  0.00    -0.352 N 
ATOM      5  C   UNL A   1      31.382  25.073  26.594  1.00  0.00     0.251 C 
ATOM      6  O   UNL A   1      30.674  24.227  27.134  1.00  0.00    -0.270 OA
ATOM      7  H   UNL A   1      30.424  26.520  27.525  1.00  0.00     0.163 HD
BRANCH   5   8
ATOM      8  C   UNL A   1      32.523  24.619  25.755  1.00  0.00     0.067 C 
ATOM      9  C   UNL A   1      36.916  22.745  25.044  1.00  0.00     0.015 A 
ATOM     10  C   UNL A   1      36.709  22.766  23.663  1.00  0.00     0.015 A 
ATOM     11  C   UNL A   1      35.933  23.225  25.914  1.00  0.00     0.023 A 
ATOM     12  C   UNL A   1      35.508  23.257  23.151  1.00  0.00     0.048 A 
ATOM     13  C   UNL A   1      34.730  23.720  25.394  1.00  0.00     0.018 A 
ATOM     14  C   UNL A   1      34.522  23.731  24.017  1.00  0.00     0.128 A 
ATOM     15  C   UNL A   1      33.663  24.153  26.282  1.00  0.00     0.025 C 
ATOM     16  O   UNL A   1      33.352  24.130  23.443  1.00  0.00    -0.475 OA
ATOM     17  C   UNL A   1      32.401  24.880  24.255  1.00  0.00     0.314 C 
BRANCH   9  18
ATOM     18  C   UNL A   1      38.165  22.186  25.600  1.00  0.00     0.260 C 
ATOM     19  O   UNL A   1      38.840  22.800  26.418  1.00  0.00    -0.298 OA
ENDBRANCH   9  18
BRANCH  17  20
ATOM     20  C   UNL A   1      31.003  24.654  23.631  1.00  0.00     0.429 C 
ATOM     21  F   UNL A   1      31.018  24.658  22.281  1.00  0.00    -0.167 F 
ATOM     22  F   UNL A   1      30.509  23.435  23.982  1.00  0.00    -0.167 F 
ATOM     23  F   UNL A   1      30.099  25.571  24.049  1.00  0.00    -0.167 F 
ENDBRANCH  17  20
ENDBRANCH   5   8
ENDBRANCH   3   4
ENDBRANCH   2   3
ENDBRANCH   1   2
BRANCH   1  24
ATOM     24  N   UNL A   1      33.786  30.241  26.629  1.00  0.00    -0.352 N 
ATOM     25  C   UNL A   1      34.541  30.858  27.595  1.00  0.00     0.251 C 
ATOM     26  H   UNL A   1      33.068  30.796  26.245  1.00  0.00     0.163 HD
ATOM     27  O   UNL A   1      34.126  31.906  28.082  1.00  0.00    -0.269 OA
BRANCH  25  28
ATOM     28  C   UNL A   1      35.828  30.283  28.054  1.00  0.00     0.039 A 
ATOM     29  C   UNL A   1      35.870  29.669  29.311  1.00  0.00     0.014 A 
ATOM     30  C   UNL A   1      37.004  30.410  27.308  1.00  0.00     0.014 A 
ATOM     31  C   UNL A   1      37.076  29.162  29.804  1.00  0.00     0.010 A 
ATOM     32  C   UNL A   1      38.193  29.845  27.772  1.00  0.00     0.010 A 
ATOM     33  C   UNL A   1      38.246  29.231  29.032  1.00  0.00    -0.014 A 
BRANCH  33  34
ATOM     34  C   UNL A   1      39.536  28.702  29.553  1.00  0.00     0.031 A 
ATOM     35  C   UNL A   1      40.230  29.391  30.698  1.00  0.00     0.074 A 
ATOM     36  C   UNL A   1      40.096  27.623  28.974  1.00  0.00     0.049 A 
ATOM     37  N   UNL A   1      41.376  29.109  31.265  1.00  0.00    -0.248 NA
ATOM     38  C   UNL A   1      39.558  30.573  31.259  1.00  0.00     0.031 C 
ATOM     39  C   UNL A   1      39.538  26.892  27.834  1.00  0.00     0.029 A 
ATOM     40  N   UNL A   1      41.260  26.954  29.258  1.00  0.00    -0.354 N 
ATOM     41  C   UNL A   1      41.570  30.084  32.239  1.00  0.00     0.074 A 
ATOM     42  C   UNL A   1      40.450  30.998  32.140  1.00  0.00     0.031 C 
ATOM     43  C   UNL A   1      40.347  25.863  27.533  1.00  0.00     0.029 A 
ATOM     44  C   UNL A   1      41.498  25.880  28.431  1.00  0.00     0.049 A 
ATOM     45  H   UNL A   1      41.867  27.216  29.987  1.00  0.00     0.167 HD
ATOM     46  C   UNL A   1      42.573  30.195  33.146  1.00  0.00     0.034 A 
ATOM     47  C   UNL A   1      42.527  25.012  28.398  1.00  0.00     0.034 A 
ATOM     48  C   UNL A   1      43.674  29.265  33.240  1.00  0.00     0.049 A 
ATOM     49  C   UNL A   1      43.630  25.150  29.416  1.00  0.00     0.074 A 
ATOM     50  C   UNL A   1      44.721  29.254  34.145  1.00  0.00     0.029 A 
ATOM     51  N   UNL A   1      43.874  28.180  32.394  1.00  0.00    -0.354 N 
ATOM     52  N   UNL A   1      43.775  26.053  30.359  1.00  0.00    -0.248 NA
ATOM     53  C   UNL A   1      44.696  24.143  29.376  1.00  0.00     0.031 C 
ATOM     54  C   UNL A   1      45.582  28.202  33.812  1.00  0.00     0.029 A 
ATOM     55  C   UNL A   1      45.036  27.508  32.743  1.00  0.00     0.049 A 
ATOM     56  H   UNL A   1      43.275  27.926  31.655  1.00  0.00     0.167 HD
ATOM     57  C   UNL A   1      44.935  25.699  31.045  1.00  0.00     0.074 A 
ATOM     58  C   UNL A   1      45.436  24.494  30.416  1.00  0.00     0.031 C 
ATOM     59  C   UNL A   1      45.530  26.313  32.100  1.00  0.00     0.034 A 
BRANCH  46  60
ATOM     60  C   UNL A   1      42.532  31.377  34.086  1.00  0.00     0.023 A 
ATOM     61  C   UNL A   1      41.728  31.376  35.241  1.00  0.00     0.031 A 
ATOM     62  C   UNL A   1      43.276  32.537  33.808  1.00  0.00     0.131 A 
ATOM     63  C   UNL A   1      41.621  32.535  36.023  1.00  0.00     0.055 A 
ATOM     64  C   UNL A   1      43.232  33.660  34.640  1.00  0.00     0.041 A 
ATOM     65  F   UNL A   1      44.048  32.609  32.712  1.00  0.00    -0.206 F 
ATOM     66  C   UNL A   1      42.388  33.669  35.747  1.00  0.00     0.022 A 
BRANCH  63  67
ATOM     67  S   UNL A   1      40.351  32.591  37.319  1.00  0.00     0.124 S 
ATOM     68  O   UNL A   1      39.859  33.960  37.188  1.00  0.00    -0.237 OA
ATOM     69  O   UNL A   1      39.433  31.537  36.905  1.00  0.00    -0.237 OA
ATOM     70  O   UNL A   1      41.101  32.322  38.544  1.00  0.00    -0.744 OA
ENDBRANCH  63  67
ENDBRANCH  46  60
BRANCH  47  71
ATOM     71  C   UNL A   1      42.568  23.930  27.372  1.00  0.00     0.023 A 
ATOM     72  C   UNL A   1      41.970  22.683  27.613  1.00  0.00     0.031 A 
ATOM     73  C   UNL A   1      43.240  24.116  26.151  1.00  0.00     0.131 A 
ATOM     74  C   UNL A   1      42.094  21.655  26.666  1.00  0.00     0.055 A 
ATOM     75  C   UNL A   1      43.318  23.106  25.192  1.00  0.00     0.041 A 
ATOM     76  F   UNL A   1      43.821  25.294  25.868  1.00  0.00    -0.206 F 
ATOM     77  C   UNL A   1      42.754  21.861  25.453  1.00  0.00     0.022 A 
BRANCH  74  78
ATOM     78  S   UNL A   1      41.445  20.012  27.079  1.00  0.00     0.124 S 
ATOM     79  O   UNL A   1      40.554  19.753  25.954  1.00  0.00    -0.237 OA
ATOM     80  O   UNL A   1      42.663  19.211  27.132  1.00  0.00    -0.237 OA
ATOM     81  O   UNL A   1      40.784  20.222  28.365  1.00  0.00    -0.744 OA
ENDBRANCH  74  78
ENDBRANCH  47  71
BRANCH  59  82
ATOM     82  C   UNL A   1      46.765  25.654  32.662  1.00  0.00     0.023 A 
ATOM     83  C   UNL A   1      46.696  24.732  33.722  1.00  0.00     0.031 A 
ATOM     84  C   UNL A   1      48.033  25.976  32.148  1.00  0.00     0.131 A 
ATOM     85  C   UNL A   1      47.877  24.216  34.278  1.00  0.00     0.055 A 
ATOM     86  C   UNL A   1      49.202  25.412  32.664  1.00  0.00     0.041 A 
ATOM     87  F   UNL A   1      48.159  26.851  31.137  1.00  0.00    -0.206 F 
ATOM     88  C   UNL A   1      49.128  24.539  33.746  1.00  0.00     0.022 A 
BRANCH  85  89
ATOM     89  S   UNL A   1      47.762  23.202  35.777  1.00  0.00     0.124 S 
ATOM     90  O   UNL A   1      47.490  24.205  36.802  1.00  0.00    -0.237 OA
ATOM     91  O   UNL A   1      46.658  22.301  35.459  1.00  0.00    -0.237 OA
ATOM     92  O   UNL A   1      49.075  22.567  35.864  1.00  0.00    -0.744 OA
ENDBRANCH  85  89
ENDBRANCH  59  82
ENDBRANCH  33  34
ENDBRANCH  25  28
ENDBRANCH   1  24
TORSDOF 15
ENDMDL
MODEL 2
REMARK VINA RESULT:     -11.8      1.291      1.596
REMARK SMILES O=Cc1ccc2c(c1)C=C(C(=O)NCCCNC(=O)c1ccc(-c3c4nc(c(-c5cc(S(=O)(=O)[O-])ccc5F)c5ccc([nH]5)c(-c5cc(S(=O)(=O)[O-])ccc5F)c5nc(c(-c6cc(S(=O)(=O)[O-])ccc6F)c6ccc3[nH]6)C=C5)C=C4)cc1)[C@H](C(F)(F)F)O2
REMARK SMILES IDX 16 1 15 2 14 3 13 4 11 5 12 6 10 8 3 9 4 10 8 11 5 12 7 13
REMARK SMILES IDX 6 14 9 15 88 16 83 17 2 18 1 19 84 20 85 21 86 22 87 23
REMARK SMILES IDX 17 24 18 25 19 27 20 28 21 29 82 30 22 31 81 32 23 33 24 34
REMARK SMILES IDX 25 35 75 36 26 37 80 38 74 39 76 40 27 41 79 42 73 43 72 44
REMARK SMILES IDX 28 46 60 47 40 48 59 49 41 50 44 51 58 52 77 53 42 54 43 55
REMARK SMILES IDX 57 57 78 58 45 59 29 60 30 61 38 62 31 63 37 64 39 65 36 66
REMARK SMILES IDX 32 67 33 68 34 69 35 70 61 71 62 72 70 73 63 74 69 75 71 76
REMARK SMILES IDX 68 77 64 78 65 79 66 80 67 81 46 82 47 83 55 84 48 85 54 86
REMARK SMILES IDX 56 87 53 88 49 89 50 90 51 91 52 92
REMARK H PARENT 13 7 17 26 76 45 44 56
REMARK Flexibility Score: inf
ROOT
ATOM      1  C   UNL A   1      33.965  28.670  26.188  1.00  0.00     0.118 C 
ENDROOT
BRANCH   1   2
ATOM      2  C   UNL A   1      32.989  27.808  26.986  1.00  0.00     0.042 C 
BRANCH   2   3
ATOM      3  C   UNL A   1      31.630  27.625  26.300  1.00  0.00     0.118 C 
BRANCH   3   4
ATOM      4  N   UNL A   1      31.006  26.377  26.713  1.00  0.00    -0.352 N 
ATOM      5  C   UNL A   1      31.240  25.077  26.400  1.00  0.00     0.251 C 
ATOM      6  O   UNL A   1      30.467  24.227  26.835  1.00  0.00    -0.270 OA
ATOM      7  H   UNL A   1      30.264  26.500  27.349  1.00  0.00     0.163 HD
BRANCH   5   8
ATOM      8  C   UNL A   1      32.424  24.632  25.618  1.00  0.00     0.067 C 
ATOM      9  C   UNL A   1      36.792  22.638  25.106  1.00  0.00     0.015 A 
ATOM     10  C   UNL A   1      36.689  22.751  23.718  1.00  0.00     0.015 A 
ATOM     11  C   UNL A   1      35.763  23.101  25.932  1.00  0.00     0.023 A 
ATOM     12  C   UNL A   1      35.546  23.319  23.154  1.00  0.00     0.048 A 
ATOM     13  C   UNL A   1      34.620  23.672  25.360  1.00  0.00     0.018 A 
ATOM     14  C   UNL A   1      34.515  23.777  23.975  1.00  0.00     0.128 A 
ATOM     15  C   UNL A   1      33.505  24.091  26.195  1.00  0.00     0.025 C 
ATOM     16  O   UNL A   1      33.406  24.255  23.346  1.00  0.00    -0.475 OA
ATOM     17  C   UNL A   1      32.422  24.989  24.133  1.00  0.00     0.314 C 
BRANCH   9  18
ATOM     18  C   UNL A   1      37.977  21.999  25.714  1.00  0.00     0.260 C 
ATOM     19  O   UNL A   1      38.910  22.656  26.157  1.00  0.00    -0.298 OA
ENDBRANCH   9  18
BRANCH  17  20
ATOM     20  C   UNL A   1      31.068  24.856  23.398  1.00  0.00     0.429 C 
ATOM     21  F   UNL A   1      30.200  25.844  23.702  1.00  0.00    -0.167 F 
ATOM     22  F   UNL A   1      31.240  24.932  22.049  1.00  0.00    -0.167 F 
ATOM     23  F   UNL A   1      30.463  23.670  23.643  1.00  0.00    -0.167 F 
ENDBRANCH  17  20
ENDBRANCH   5   8
ENDBRANCH   3   4
ENDBRANCH   2   3
ENDBRANCH   1   2
BRANCH   1  24
ATOM     24  N   UNL A   1      33.847  30.075  26.537  1.00  0.00    -0.352 N 
ATOM     25  C   UNL A   1      34.553  30.823  27.445  1.00  0.00     0.251 C 
ATOM     26  H   UNL A   1      33.150  30.567  26.044  1.00  0.00     0.163 HD
ATOM     27  O   UNL A   1      34.114  31.925  27.762  1.00  0.00    -0.269 OA
BRANCH  25  28
ATOM     28  C   UNL A   1      35.814  30.325  28.043  1.00  0.00     0.039 A 
ATOM     29  C   UNL A   1      36.995  30.443  27.300  1.00  0.00     0.014 A 
ATOM     30  C   UNL A   1      35.839  29.675  29.282  1.00  0.00     0.014 A 
ATOM     31  C   UNL A   1      38.195  29.937  27.806  1.00  0.00     0.010 A 
ATOM     32  C   UNL A   1      37.050  29.229  29.814  1.00  0.00     0.010 A 
ATOM     33  C   UNL A   1      38.238  29.339  29.075  1.00  0.00    -0.014 A 
BRANCH  33  34
ATOM     34  C   UNL A   1      39.510  28.790  29.618  1.00  0.00     0.031 A 
ATOM     35  C   UNL A   1      40.183  29.455  30.789  1.00  0.00     0.074 A 
ATOM     36  C   UNL A   1      40.075  27.716  29.034  1.00  0.00     0.049 A 
ATOM     37  N   UNL A   1      41.313  29.154  31.379  1.00  0.00    -0.248 NA
ATOM     38  C   UNL A   1      39.508  30.633  31.354  1.00  0.00     0.031 C 
ATOM     39  C   UNL A   1      39.538  27.007  27.870  1.00  0.00     0.029 A 
ATOM     40  N   UNL A   1      41.226  27.032  29.335  1.00  0.00    -0.354 N 
ATOM     41  C   UNL A   1      41.492  30.111  32.372  1.00  0.00     0.074 A 
ATOM     42  C   UNL A   1      40.383  31.037  32.263  1.00  0.00     0.031 C 
ATOM     43  C   UNL A   1      40.345  25.976  27.572  1.00  0.00     0.029 A 
ATOM     44  C   UNL A   1      41.475  25.969  28.497  1.00  0.00     0.049 A 
ATOM     45  H   UNL A   1      41.818  27.277  30.082  1.00  0.00     0.167 HD
ATOM     46  C   UNL A   1      42.474  30.198  33.305  1.00  0.00     0.034 A 
ATOM     47  C   UNL A   1      42.497  25.092  28.474  1.00  0.00     0.034 A 
ATOM     48  C   UNL A   1      43.565  29.258  33.410  1.00  0.00     0.049 A 
ATOM     49  C   UNL A   1      43.577  25.205  29.520  1.00  0.00     0.074 A 
ATOM     50  C   UNL A   1      44.590  29.223  34.339  1.00  0.00     0.029 A 
ATOM     51  N   UNL A   1      43.775  28.184  32.552  1.00  0.00    -0.354 N 
ATOM     52  N   UNL A   1      43.707  26.091  30.481  1.00  0.00    -0.248 NA
ATOM     53  C   UNL A   1      44.635  24.189  29.488  1.00  0.00     0.031 C 
ATOM     54  C   UNL A   1      45.450  28.169  34.009  1.00  0.00     0.029 A 
ATOM     55  C   UNL A   1      44.923  27.497  32.917  1.00  0.00     0.049 A 
ATOM     56  H   UNL A   1      43.192  27.947  31.794  1.00  0.00     0.167 HD
ATOM     57  C   UNL A   1      44.847  25.717  31.187  1.00  0.00     0.074 A 
ATOM     58  C   UNL A   1      45.353  24.517  30.552  1.00  0.00     0.031 C 
ATOM     59  C   UNL A   1      45.422  26.308  32.267  1.00  0.00     0.034 A 
BRANCH  46  60
ATOM     60  C   UNL A   1      42.420  31.366  34.263  1.00  0.00     0.023 A 
ATOM     61  C   UNL A   1      41.553  31.374  35.371  1.00  0.00     0.031 A 
ATOM     62  C   UNL A   1      43.218  32.504  34.048  1.00  0.00     0.131 A 
ATOM     63  C   UNL A   1      41.442  32.524  36.167  1.00  0.00     0.055 A 
ATOM     64  C   UNL A   1      43.166  33.613  34.897  1.00  0.00     0.041 A 
ATOM     65  F   UNL A   1      44.053  32.566  32.998  1.00  0.00    -0.206 F 
ATOM     66  C   UNL A   1      42.262  33.634  35.955  1.00  0.00     0.022 A 
BRANCH  63  67
ATOM     67  S   UNL A   1      40.104  32.602  37.390  1.00  0.00     0.124 S 
ATOM     68  O   UNL A   1      39.611  33.965  37.199  1.00  0.00    -0.237 OA
ATOM     69  O   UNL A   1      39.215  31.533  36.955  1.00  0.00    -0.237 OA
ATOM     70  O   UNL A   1      40.788  32.369  38.661  1.00  0.00    -0.744 OA
ENDBRANCH  63  67
ENDBRANCH  46  60
BRANCH  47  71
ATOM     71  C   UNL A   1      42.554  24.027  27.432  1.00  0.00     0.023 A 
ATOM     72  C   UNL A   1      42.009  22.755  27.669  1.00  0.00     0.031 A 
ATOM     73  C   UNL A   1      43.187  24.255  26.198  1.00  0.00     0.131 A 
ATOM     74  C   UNL A   1      42.149  21.745  26.705  1.00  0.00     0.055 A 
ATOM     75  C   UNL A   1      43.279  23.261  25.223  1.00  0.00     0.041 A 
ATOM     76  F   UNL A   1      43.716  25.458  25.917  1.00  0.00    -0.206 F 
ATOM     77  C   UNL A   1      42.770  21.993  25.479  1.00  0.00     0.022 A 
BRANCH  74  78
ATOM     78  S   UNL A   1      41.572  20.073  27.111  1.00  0.00     0.124 S 
ATOM     79  O   UNL A   1      41.175  19.570  25.801  1.00  0.00    -0.237 OA
ATOM     80  O   UNL A   1      42.769  19.475  27.692  1.00  0.00    -0.237 OA
ATOM     81  O   UNL A   1      40.478  20.310  28.049  1.00  0.00    -0.744 OA
ENDBRANCH  74  78
ENDBRANCH  47  71
BRANCH  59  82
ATOM     82  C   UNL A   1      46.638  25.629  32.847  1.00  0.00     0.023 A 
ATOM     83  C   UNL A   1      47.931  25.872  32.349  1.00  0.00     0.031 A 
ATOM     84  C   UNL A   1      46.497  24.702  33.894  1.00  0.00     0.131 A 
ATOM     85  C   UNL A   1      49.021  25.147  32.852  1.00  0.00     0.055 A 
ATOM     86  C   UNL A   1      47.594  24.028  34.434  1.00  0.00     0.041 A 
ATOM     87  F   UNL A   1      45.286  24.429  34.407  1.00  0.00    -0.206 F 
ATOM     88  C   UNL A   1      48.863  24.237  33.901  1.00  0.00     0.022 A 
BRANCH  85  89
ATOM     89  S   UNL A   1      50.635  25.327  32.042  1.00  0.00     0.124 S 
ATOM     90  O   UNL A   1      51.510  25.627  33.171  1.00  0.00    -0.237 OA
ATOM     91  O   UNL A   1      50.820  24.018  31.423  1.00  0.00    -0.237 OA
ATOM     92  O   UNL A   1      50.427  26.431  31.107  1.00  0.00    -0.744 OA
ENDBRANCH  85  89
ENDBRANCH  59  82
ENDBRANCH  33  34
ENDBRANCH  25  28
ENDBRANCH   1  24
TORSDOF 15
ENDMDL
MODEL 3
REMARK VINA RESULT:     -11.6      1.976      3.755
REMARK SMILES O=Cc1ccc2c(c1)C=C(C(=O)NCCCNC(=O)c1ccc(-c3c4nc(c(-c5cc(S(=O)(=O)[O-])ccc5F)c5ccc([nH]5)c(-c5cc(S(=O)(=O)[O-])ccc5F)c5nc(c(-c6cc(S(=O)(=O)[O-])ccc6F)c6ccc3[nH]6)C=C5)C=C4)cc1)[C@H](C(F)(F)F)O2
REMARK SMILES IDX 16 1 15 2 14 3 13 4 11 5 12 6 10 8 3 9 4 10 8 11 5 12 7 13
REMARK SMILES IDX 6 14 9 15 88 16 83 17 2 18 1 19 84 20 85 21 86 22 87 23
REMARK SMILES IDX 17 24 18 25 19 27 20 28 21 29 82 30 22 31 81 32 23 33 24 34
REMARK SMILES IDX 25 35 75 36 26 37 80 38 74 39 76 40 27 41 79 42 73 43 72 44
REMARK SMILES IDX 28 46 60 47 40 48 59 49 41 50 44 51 58 52 77 53 42 54 43 55
REMARK SMILES IDX 57 57 78 58 45 59 29 60 30 61 38 62 31 63 37 64 39 65 36 66
REMARK SMILES IDX 32 67 33 68 34 69 35 70 61 71 62 72 70 73 63 74 69 75 71 76
REMARK SMILES IDX 68 77 64 78 65 79 66 80 67 81 46 82 47 83 55 84 48 85 54 86
REMARK SMILES IDX 56 87 53 88 49 89 50 90 51 91 52 92
REMARK H PARENT 13 7 17 26 76 45 44 56
REMARK Flexibility Score: inf
ROOT
ATOM      1  C   UNL A   1      34.065  29.124  26.112  1.00  0.00     0.118 C 
ENDROOT
BRANCH   1   2
ATOM      2  C   UNL A   1      33.274  28.031  26.830  1.00  0.00     0.042 C 
BRANCH   2   3
ATOM      3  C   UNL A   1      33.406  26.650  26.179  1.00  0.00     0.118 C 
BRANCH   3   4
ATOM      4  N   UNL A   1      33.858  26.768  24.801  1.00  0.00    -0.352 N 
ATOM      5  C   UNL A   1      33.210  27.003  23.631  1.00  0.00     0.251 C 
ATOM      6  O   UNL A   1      33.856  26.945  22.588  1.00  0.00    -0.270 OA
ATOM      7  H   UNL A   1      34.830  26.654  24.695  1.00  0.00     0.163 HD
BRANCH   5   8
ATOM      8  C   UNL A   1      31.777  27.397  23.564  1.00  0.00     0.067 C 
ATOM      9  C   UNL A   1      28.159  30.571  23.181  1.00  0.00     0.015 A 
ATOM     10  C   UNL A   1      27.235  29.524  23.137  1.00  0.00     0.015 A 
ATOM     11  C   UNL A   1      29.523  30.305  23.324  1.00  0.00     0.023 A 
ATOM     12  C   UNL A   1      27.682  28.205  23.221  1.00  0.00     0.048 A 
ATOM     13  C   UNL A   1      29.965  28.980  23.412  1.00  0.00     0.018 A 
ATOM     14  C   UNL A   1      29.043  27.936  23.358  1.00  0.00     0.128 A 
ATOM     15  C   UNL A   1      31.385  28.675  23.484  1.00  0.00     0.025 C 
ATOM     16  O   UNL A   1      29.404  26.622  23.366  1.00  0.00    -0.475 OA
ATOM     17  C   UNL A   1      30.761  26.276  23.774  1.00  0.00     0.314 C 
BRANCH   9  18
ATOM     18  C   UNL A   1      27.703  31.970  23.048  1.00  0.00     0.260 C 
ATOM     19  O   UNL A   1      27.881  32.613  22.021  1.00  0.00    -0.298 OA
ENDBRANCH   9  18
BRANCH  17  20
ATOM     20  C   UNL A   1      31.095  24.916  23.116  1.00  0.00     0.429 C 
ATOM     21  F   UNL A   1      31.980  24.187  23.829  1.00  0.00    -0.167 F 
ATOM     22  F   UNL A   1      29.981  24.138  23.023  1.00  0.00    -0.167 F 
ATOM     23  F   UNL A   1      31.575  25.057  21.858  1.00  0.00    -0.167 F 
ENDBRANCH  17  20
ENDBRANCH   5   8
ENDBRANCH   3   4
ENDBRANCH   2   3
ENDBRANCH   1   2
BRANCH   1  24
ATOM     24  N   UNL A   1      33.832  30.429  26.705  1.00  0.00    -0.352 N 
ATOM     25  C   UNL A   1      34.453  31.043  27.764  1.00  0.00     0.251 C 
ATOM     26  H   UNL A   1      33.116  30.956  26.280  1.00  0.00     0.163 HD
ATOM     27  O   UNL A   1      33.925  32.035  28.256  1.00  0.00    -0.269 OA
BRANCH  25  28
ATOM     28  C   UNL A   1      35.729  30.528  28.316  1.00  0.00     0.039 A 
ATOM     29  C   UNL A   1      36.919  30.853  27.654  1.00  0.00     0.014 A 
ATOM     30  C   UNL A   1      35.765  29.671  29.420  1.00  0.00     0.014 A 
ATOM     31  C   UNL A   1      38.137  30.343  28.111  1.00  0.00     0.010 A 
ATOM     32  C   UNL A   1      36.988  29.217  29.915  1.00  0.00     0.010 A 
ATOM     33  C   UNL A   1      38.186  29.533  29.256  1.00  0.00    -0.014 A 
BRANCH  33  34
ATOM     34  C   UNL A   1      39.478  28.980  29.744  1.00  0.00     0.031 A 
ATOM     35  C   UNL A   1      40.184  29.621  30.910  1.00  0.00     0.074 A 
ATOM     36  C   UNL A   1      40.031  27.924  29.117  1.00  0.00     0.049 A 
ATOM     37  N   UNL A   1      41.334  29.313  31.456  1.00  0.00    -0.248 NA
ATOM     38  C   UNL A   1      39.520  30.781  31.524  1.00  0.00     0.031 C 
ATOM     39  C   UNL A   1      39.461  27.240  27.954  1.00  0.00     0.029 A 
ATOM     40  N   UNL A   1      41.195  27.240  29.365  1.00  0.00    -0.354 N 
ATOM     41  C   UNL A   1      41.538  30.248  32.467  1.00  0.00     0.074 A 
ATOM     42  C   UNL A   1      40.420  31.168  32.414  1.00  0.00     0.031 C 
ATOM     43  C   UNL A   1      40.264  26.222  27.605  1.00  0.00     0.029 A 
ATOM     44  C   UNL A   1      41.422  26.200  28.494  1.00  0.00     0.049 A 
ATOM     45  H   UNL A   1      41.808  27.472  30.099  1.00  0.00     0.167 HD
ATOM     46  C   UNL A   1      42.549  30.319  33.370  1.00  0.00     0.034 A 
ATOM     47  C   UNL A   1      42.449  25.331  28.418  1.00  0.00     0.034 A 
ATOM     48  C   UNL A   1      43.648  29.383  33.417  1.00  0.00     0.049 A 
ATOM     49  C   UNL A   1      43.560  25.425  29.432  1.00  0.00     0.074 A 
ATOM     50  C   UNL A   1      44.702  29.333  34.313  1.00  0.00     0.029 A 
ATOM     51  N   UNL A   1      43.837  28.332  32.527  1.00  0.00    -0.354 N 
ATOM     52  N   UNL A   1      43.715  26.289  30.409  1.00  0.00    -0.248 NA
ATOM     53  C   UNL A   1      44.624  24.418  29.342  1.00  0.00     0.031 C 
ATOM     54  C   UNL A   1      45.557  28.293  33.930  1.00  0.00     0.029 A 
ATOM     55  C   UNL A   1      45.000  27.644  32.839  1.00  0.00     0.049 A 
ATOM     56  H   UNL A   1      43.232  28.110  31.783  1.00  0.00     0.167 HD
ATOM     57  C   UNL A   1      44.880  25.905  31.070  1.00  0.00     0.074 A 
ATOM     58  C   UNL A   1      45.373  24.725  30.390  1.00  0.00     0.031 C 
ATOM     59  C   UNL A   1      45.485  26.475  32.145  1.00  0.00     0.034 A 
BRANCH  46  60
ATOM     60  C   UNL A   1      42.518  31.463  34.357  1.00  0.00     0.023 A 
ATOM     61  C   UNL A   1      41.653  31.459  35.466  1.00  0.00     0.031 A 
ATOM     62  C   UNL A   1      43.338  32.590  34.170  1.00  0.00     0.131 A 
ATOM     63  C   UNL A   1      41.565  32.590  36.291  1.00  0.00     0.055 A 
ATOM     64  C   UNL A   1      43.308  33.678  35.046  1.00  0.00     0.041 A 
ATOM     65  F   UNL A   1      44.172  32.663  33.120  1.00  0.00    -0.206 F 
ATOM     66  C   UNL A   1      42.405  33.689  36.106  1.00  0.00     0.022 A 
BRANCH  63  67
ATOM     67  S   UNL A   1      40.230  32.663  37.518  1.00  0.00     0.124 S 
ATOM     68  O   UNL A   1      40.950  32.364  38.754  1.00  0.00    -0.237 OA
ATOM     69  O   UNL A   1      39.744  34.030  37.376  1.00  0.00    -0.237 OA
ATOM     70  O   UNL A   1      39.303  31.622  37.079  1.00  0.00    -0.744 OA
ENDBRANCH  63  67
ENDBRANCH  46  60
BRANCH  47  71
ATOM     71  C   UNL A   1      42.479  24.292  27.349  1.00  0.00     0.023 A 
ATOM     72  C   UNL A   1      41.667  23.149  27.429  1.00  0.00     0.031 A 
ATOM     73  C   UNL A   1      43.348  24.408  26.250  1.00  0.00     0.131 A 
ATOM     74  C   UNL A   1      41.774  22.146  26.454  1.00  0.00     0.055 A 
ATOM     75  C   UNL A   1      43.414  23.430  25.257  1.00  0.00     0.041 A 
ATOM     76  F   UNL A   1      44.139  25.486  26.121  1.00  0.00    -0.206 F 
ATOM     77  C   UNL A   1      42.634  22.284  25.362  1.00  0.00     0.022 A 
BRANCH  74  78
ATOM     78  S   UNL A   1      40.825  20.616  26.675  1.00  0.00     0.124 S 
ATOM     79  O   UNL A   1      40.854  20.455  28.125  1.00  0.00    -0.237 OA
ATOM     80  O   UNL A   1      39.535  20.975  26.095  1.00  0.00    -0.237 OA
ATOM     81  O   UNL A   1      41.592  19.628  25.920  1.00  0.00    -0.744 OA
ENDBRANCH  74  78
ENDBRANCH  47  71
BRANCH  59  82
ATOM     82  C   UNL A   1      46.723  25.790  32.670  1.00  0.00     0.023 A 
ATOM     83  C   UNL A   1      46.658  24.814  33.680  1.00  0.00     0.031 A 
ATOM     84  C   UNL A   1      47.990  26.142  32.171  1.00  0.00     0.131 A 
ATOM     85  C   UNL A   1      47.841  24.273  34.206  1.00  0.00     0.055 A 
ATOM     86  C   UNL A   1      49.160  25.555  32.655  1.00  0.00     0.041 A 
ATOM     87  F   UNL A   1      48.112  27.068  31.207  1.00  0.00    -0.206 F 
ATOM     88  C   UNL A   1      49.090  24.626  33.690  1.00  0.00     0.022 A 
BRANCH  85  89
ATOM     89  S   UNL A   1      47.731  23.182  35.652  1.00  0.00     0.124 S 
ATOM     90  O   UNL A   1      47.491  24.133  36.733  1.00  0.00    -0.237 OA
ATOM     91  O   UNL A   1      46.607  22.317  35.303  1.00  0.00    -0.237 OA
ATOM     92  O   UNL A   1      49.034  22.522  35.683  1.00  0.00    -0.744 OA
ENDBRANCH  85  89
ENDBRANCH  59  82
ENDBRANCH  33  34
ENDBRANCH  25  28
ENDBRANCH   1  24
TORSDOF 15
ENDMDL
