MODEL 1
REMARK VINA RESULT:     -11.4      0.000      0.000
REMARK SMILES C[N@@H+]1CC[N@@H+](C)[C@H](C[NH2+]Cc2ccc(C(=O)NCCCNC(=O)c3ccc(-c4c5nc(c(-c6cc(S(=O)(=O)[O-])ccc6F)c6ccc([nH]6)c(-c6cc(S(=O)(=O)[O-])ccc6F)c6nc(c(-c7cc(S(=O)(=O)[O-])ccc7F)c7ccc4[nH]7)C=C6)C=C5)cc3)cn2)C1
REMARK SMILES IDX 18 1 17 2 15 3 16 4 14 6 11 7 12 8 88 9 13 10 87 11 10 12
REMARK SMILES IDX 9 13 8 16 7 17 1 18 2 19 3 20 89 21 4 23 5 24 6 25 19 27
REMARK SMILES IDX 20 28 21 29 22 30 23 32 24 33 25 34 86 35 26 36 85 37 27 38
REMARK SMILES IDX 28 39 29 40 79 41 30 42 84 43 78 44 80 45 31 46 83 47 77 48
REMARK SMILES IDX 76 49 32 51 64 52 44 53 63 54 45 55 48 56 62 57 81 58 46 59
REMARK SMILES IDX 47 60 61 62 82 63 49 64 33 65 34 66 42 67 35 68 41 69 43 70
REMARK SMILES IDX 40 71 36 72 37 73 38 74 39 75 65 76 66 77 74 78 67 79 73 80
REMARK SMILES IDX 75 81 72 82 68 83 69 84 70 85 71 86 50 87 51 88 59 89 52 90
REMARK SMILES IDX 58 91 60 92 57 93 53 94 54 95 55 96 56 97
REMARK H PARENT 17 5 9 14 9 15 2 22 5 26 21 31 80 50 48 61
REMARK Flexibility Score: inf
ROOT
ATOM      1  C   UNL A   1      31.557  30.816  26.067  1.00  0.00     0.118 C 
ENDROOT
BRANCH   1   2
ATOM      2  N   UNL A   1      32.899  30.307  26.288  1.00  0.00    -0.352 N 
ATOM      3  C   UNL A   1      33.445  29.056  26.171  1.00  0.00     0.252 C 
ATOM      4  O   UNL A   1      34.643  28.935  26.428  1.00  0.00    -0.269 OA
ATOM      5  H   UNL A   1      33.540  30.995  26.580  1.00  0.00     0.163 HD
BRANCH   3   6
ATOM      6  C   UNL A   1      32.693  27.875  25.685  1.00  0.00     0.058 A 
ATOM      7  C   UNL A   1      31.217  25.927  24.410  1.00  0.00     0.094 A 
ATOM      8  C   UNL A   1      30.983  26.180  25.756  1.00  0.00     0.030 A 
ATOM      9  N   UNL A   1      32.230  26.513  23.726  1.00  0.00    -0.255 NA
ATOM     10  C   UNL A   1      31.748  27.146  26.399  1.00  0.00     0.017 A 
ATOM     11  C   UNL A   1      32.930  27.476  24.372  1.00  0.00     0.125 A 
BRANCH   7  12
ATOM     12  C   UNL A   1      30.228  25.088  23.636  1.00  0.00     0.318 C 
BRANCH  12  13
ATOM     13  N   UNL A   1      30.810  23.789  23.280  1.00  0.00    -0.336 N 
ATOM     14  H   UNL A   1      30.089  23.206  22.857  1.00  0.00     0.346 HD
ATOM     15  H   UNL A   1      31.576  23.948  22.625  1.00  0.00     0.346 HD
BRANCH  13  16
ATOM     16  C   UNL A   1      31.349  23.101  24.468  1.00  0.00     0.332 C 
BRANCH  16  17
ATOM     17  C   UNL A   1      32.525  22.145  24.091  1.00  0.00     0.295 C 
ATOM     18  C   UNL A   1      32.776  18.360  24.501  1.00  0.00     0.333 C 
ATOM     19  N   UNL A   1      33.193  19.720  24.177  1.00  0.00    -0.328 N 
ATOM     20  C   UNL A   1      34.381  20.112  24.950  1.00  0.00     0.324 C 
ATOM     21  C   UNL A   1      32.117  20.689  24.472  1.00  0.00     0.334 C 
ATOM     22  H   UNL A   1      33.409  19.729  23.180  1.00  0.00     0.348 HD
ATOM     23  C   UNL A   1      34.849  21.529  24.556  1.00  0.00     0.324 C 
ATOM     24  N   UNL A   1      33.820  22.577  24.718  1.00  0.00    -0.321 N 
ATOM     25  C   UNL A   1      34.318  23.832  24.143  1.00  0.00     0.333 C 
ATOM     26  H   UNL A   1      33.633  22.729  25.710  1.00  0.00     0.348 HD
ENDBRANCH  16  17
ENDBRANCH  13  16
ENDBRANCH  12  13
ENDBRANCH   7  12
ENDBRANCH   3   6
ENDBRANCH   1   2
BRANCH   1  27
ATOM     27  C   UNL A   1      31.420  32.249  26.582  1.00  0.00     0.042 C 
BRANCH  27  28
ATOM     28  C   UNL A   1      32.696  32.776  27.227  1.00  0.00     0.118 C 
BRANCH  28  29
ATOM     29  N   UNL A   1      32.543  34.153  27.668  1.00  0.00    -0.352 N 
ATOM     30  C   UNL A   1      33.124  34.804  28.725  1.00  0.00     0.251 C 
ATOM     31  H   UNL A   1      31.929  34.699  27.125  1.00  0.00     0.163 HD
ATOM     32  O   UNL A   1      32.654  35.876  29.094  1.00  0.00    -0.269 OA
BRANCH  30  33
ATOM     33  C   UNL A   1      34.296  34.222  29.418  1.00  0.00     0.039 A 
ATOM     34  C   UNL A   1      34.080  33.379  30.511  1.00  0.00     0.014 A 
ATOM     35  C   UNL A   1      35.601  34.546  29.034  1.00  0.00     0.014 A 
ATOM     36  C   UNL A   1      35.169  32.830  31.192  1.00  0.00     0.010 A 
ATOM     37  C   UNL A   1      36.684  33.939  29.663  1.00  0.00     0.010 A 
ATOM     38  C   UNL A   1      36.481  33.087  30.759  1.00  0.00    -0.014 A 
BRANCH  38  39
ATOM     39  C   UNL A   1      37.651  32.495  31.456  1.00  0.00     0.031 A 
ATOM     40  C   UNL A   1      38.398  31.349  30.829  1.00  0.00     0.074 A 
ATOM     41  C   UNL A   1      37.999  32.950  32.675  1.00  0.00     0.049 A 
ATOM     42  N   UNL A   1      39.391  30.644  31.309  1.00  0.00    -0.248 NA
ATOM     43  C   UNL A   1      37.947  30.919  29.497  1.00  0.00     0.031 C 
ATOM     44  C   UNL A   1      37.324  34.032  33.397  1.00  0.00     0.029 A 
ATOM     45  N   UNL A   1      39.001  32.559  33.527  1.00  0.00    -0.354 N 
ATOM     46  C   UNL A   1      39.672  29.680  30.346  1.00  0.00     0.074 A 
ATOM     47  C   UNL A   1      38.703  29.854  29.285  1.00  0.00     0.031 C 
ATOM     48  C   UNL A   1      37.943  34.230  34.571  1.00  0.00     0.029 A 
ATOM     49  C   UNL A   1      39.030  33.265  34.707  1.00  0.00     0.049 A 
ATOM     50  H   UNL A   1      39.639  31.840  33.313  1.00  0.00     0.167 HD
ATOM     51  C   UNL A   1      40.660  28.750  30.340  1.00  0.00     0.034 A 
ATOM     52  C   UNL A   1      39.833  33.140  35.781  1.00  0.00     0.034 A 
ATOM     53  C   UNL A   1      41.624  28.603  31.403  1.00  0.00     0.049 A 
ATOM     54  C   UNL A   1      40.916  32.091  35.758  1.00  0.00     0.074 A 
ATOM     55  C   UNL A   1      42.698  27.732  31.481  1.00  0.00     0.029 A 
ATOM     56  N   UNL A   1      41.628  29.342  32.581  1.00  0.00    -0.354 N 
ATOM     57  N   UNL A   1      41.198  31.216  34.820  1.00  0.00    -0.248 NA
ATOM     58  C   UNL A   1      41.795  32.023  36.932  1.00  0.00     0.031 C 
ATOM     59  C   UNL A   1      43.310  27.901  32.729  1.00  0.00     0.029 A 
ATOM     60  C   UNL A   1      42.667  28.929  33.401  1.00  0.00     0.049 A 
ATOM     61  H   UNL A   1      40.987  30.055  32.801  1.00  0.00     0.167 HD
ATOM     62  C   UNL A   1      42.309  30.514  35.280  1.00  0.00     0.074 A 
ATOM     63  C   UNL A   1      42.651  31.079  36.569  1.00  0.00     0.031 C 
ATOM     64  C   UNL A   1      42.987  29.496  34.690  1.00  0.00     0.034 A 
BRANCH  51  65
ATOM     65  C   UNL A   1      40.723  27.811  29.157  1.00  0.00     0.023 A 
ATOM     66  C   UNL A   1      41.656  27.991  28.119  1.00  0.00     0.031 A 
ATOM     67  C   UNL A   1      39.820  26.740  29.047  1.00  0.00     0.131 A 
ATOM     68  C   UNL A   1      41.610  27.168  26.983  1.00  0.00     0.055 A 
ATOM     69  C   UNL A   1      39.835  25.872  27.953  1.00  0.00     0.041 A 
ATOM     70  F   UNL A   1      38.893  26.527  29.995  1.00  0.00    -0.206 F 
ATOM     71  C   UNL A   1      40.722  26.093  26.904  1.00  0.00     0.022 A 
BRANCH  68  72
ATOM     72  S   UNL A   1      42.623  27.617  25.548  1.00  0.00     0.124 S 
ATOM     73  O   UNL A   1      41.848  28.713  24.971  1.00  0.00    -0.237 OA
ATOM     74  O   UNL A   1      43.894  27.988  26.162  1.00  0.00    -0.237 OA
ATOM     75  O   UNL A   1      42.649  26.393  24.749  1.00  0.00    -0.744 OA
ENDBRANCH  68  72
ENDBRANCH  51  65
BRANCH  52  76
ATOM     76  C   UNL A   1      39.647  34.021  36.969  1.00  0.00     0.023 A 
ATOM     77  C   UNL A   1      39.052  33.535  38.144  1.00  0.00     0.031 A 
ATOM     78  C   UNL A   1      40.030  35.373  36.936  1.00  0.00     0.131 A 
ATOM     79  C   UNL A   1      38.814  34.404  39.219  1.00  0.00     0.055 A 
ATOM     80  C   UNL A   1      39.839  36.222  38.027  1.00  0.00     0.041 A 
ATOM     81  F   UNL A   1      40.611  35.888  35.839  1.00  0.00    -0.206 F 
ATOM     82  C   UNL A   1      39.215  35.741  39.175  1.00  0.00     0.022 A 
BRANCH  79  83
ATOM     83  S   UNL A   1      37.897  33.779  40.654  1.00  0.00     0.124 S 
ATOM     84  O   UNL A   1      36.790  33.076  40.017  1.00  0.00    -0.237 OA
ATOM     85  O   UNL A   1      38.896  32.942  41.310  1.00  0.00    -0.237 OA
ATOM     86  O   UNL A   1      37.532  34.994  41.380  1.00  0.00    -0.744 OA
ENDBRANCH  79  83
ENDBRANCH  52  76
BRANCH  64  87
ATOM     87  C   UNL A   1      44.196  28.968  35.423  1.00  0.00     0.023 A 
ATOM     88  C   UNL A   1      44.096  27.919  36.353  1.00  0.00     0.031 A 
ATOM     89  C   UNL A   1      45.462  29.537  35.200  1.00  0.00     0.131 A 
ATOM     90  C   UNL A   1      45.231  27.510  37.070  1.00  0.00     0.055 A 
ATOM     91  C   UNL A   1      46.599  29.085  35.869  1.00  0.00     0.041 A 
ATOM     92  F   UNL A   1      45.613  30.543  34.323  1.00  0.00    -0.206 F 
ATOM     93  C   UNL A   1      46.485  28.075  36.822  1.00  0.00     0.022 A 
BRANCH  90  94
ATOM     94  S   UNL A   1      45.029  26.298  38.404  1.00  0.00     0.124 S 
ATOM     95  O   UNL A   1      43.628  26.476  38.766  1.00  0.00    -0.237 OA
ATOM     96  O   UNL A   1      45.361  25.043  37.737  1.00  0.00    -0.237 OA
ATOM     97  O   UNL A   1      45.992  26.735  39.413  1.00  0.00    -0.744 OA
ENDBRANCH  90  94
ENDBRANCH  64  87
ENDBRANCH  38  39
ENDBRANCH  30  33
ENDBRANCH  28  29
ENDBRANCH  27  28
ENDBRANCH   1  27
TORSDOF 17
ENDMDL
MODEL 2
REMARK VINA RESULT:     -11.4      5.694     11.822
REMARK SMILES C[N@@H+]1CC[N@@H+](C)[C@H](C[NH2+]Cc2ccc(C(=O)NCCCNC(=O)c3ccc(-c4c5nc(c(-c6cc(S(=O)(=O)[O-])ccc6F)c6ccc([nH]6)c(-c6cc(S(=O)(=O)[O-])ccc6F)c6nc(c(-c7cc(S(=O)(=O)[O-])ccc7F)c7ccc4[nH]7)C=C6)C=C5)cc3)cn2)C1
REMARK SMILES IDX 18 1 17 2 15 3 16 4 14 6 11 7 12 8 88 9 13 10 87 11 10 12
REMARK SMILES IDX 9 13 8 16 7 17 1 18 2 19 3 20 89 21 4 23 5 24 6 25 19 27
REMARK SMILES IDX 20 28 21 29 22 30 23 32 24 33 25 34 86 35 26 36 85 37 27 38
REMARK SMILES IDX 28 39 29 40 79 41 30 42 84 43 78 44 80 45 31 46 83 47 77 48
REMARK SMILES IDX 76 49 32 51 64 52 44 53 63 54 45 55 48 56 62 57 81 58 46 59
REMARK SMILES IDX 47 60 61 62 82 63 49 64 33 65 34 66 42 67 35 68 41 69 43 70
REMARK SMILES IDX 40 71 36 72 37 73 38 74 39 75 65 76 66 77 74 78 67 79 73 80
REMARK SMILES IDX 75 81 72 82 68 83 69 84 70 85 71 86 50 87 51 88 59 89 52 90
REMARK SMILES IDX 58 91 60 92 57 93 53 94 54 95 55 96 56 97
REMARK H PARENT 17 5 9 14 9 15 2 22 5 26 21 31 80 50 48 61
REMARK Flexibility Score: inf
ROOT
ATOM      1  C   UNL A   1      36.877  20.383  25.074  1.00  0.00     0.118 C 
ENDROOT
BRANCH   1   2
ATOM      2  N   UNL A   1      36.878  21.521  24.173  1.00  0.00    -0.352 N 
ATOM      3  C   UNL A   1      35.975  22.528  23.952  1.00  0.00     0.252 C 
ATOM      4  O   UNL A   1      36.266  23.375  23.107  1.00  0.00    -0.269 OA
ATOM      5  H   UNL A   1      37.684  21.581  23.611  1.00  0.00     0.163 HD
BRANCH   3   6
ATOM      6  C   UNL A   1      34.718  22.686  24.722  1.00  0.00     0.058 A 
ATOM      7  C   UNL A   1      32.207  23.135  25.766  1.00  0.00     0.094 A 
ATOM      8  C   UNL A   1      33.322  23.528  26.496  1.00  0.00     0.030 A 
ATOM      9  N   UNL A   1      32.304  22.425  24.615  1.00  0.00    -0.255 NA
ATOM     10  C   UNL A   1      34.586  23.277  25.975  1.00  0.00     0.017 A 
ATOM     11  C   UNL A   1      33.550  22.231  24.117  1.00  0.00     0.125 A 
BRANCH   7  12
ATOM     12  C   UNL A   1      30.843  23.636  26.179  1.00  0.00     0.318 C 
BRANCH  12  13
ATOM     13  N   UNL A   1      30.917  25.020  26.659  1.00  0.00    -0.336 N 
ATOM     14  H   UNL A   1      30.431  25.088  27.553  1.00  0.00     0.346 HD
ATOM     15  H   UNL A   1      31.900  25.273  26.763  1.00  0.00     0.346 HD
BRANCH  13  16
ATOM     16  C   UNL A   1      30.296  25.953  25.701  1.00  0.00     0.332 C 
BRANCH  16  17
ATOM     17  C   UNL A   1      31.353  26.912  25.069  1.00  0.00     0.295 C 
ATOM     18  C   UNL A   1      34.318  28.653  26.724  1.00  0.00     0.333 C 
ATOM     19  N   UNL A   1      33.371  28.290  25.676  1.00  0.00    -0.328 N 
ATOM     20  C   UNL A   1      32.674  29.474  25.152  1.00  0.00     0.324 C 
ATOM     21  C   UNL A   1      32.351  27.350  26.185  1.00  0.00     0.334 C 
ATOM     22  H   UNL A   1      33.914  27.849  24.932  1.00  0.00     0.348 HD
ATOM     23  C   UNL A   1      31.719  29.087  24.003  1.00  0.00     0.324 C 
ATOM     24  N   UNL A   1      30.707  28.074  24.368  1.00  0.00    -0.321 N 
ATOM     25  C   UNL A   1      29.988  27.656  23.159  1.00  0.00     0.333 C 
ATOM     26  H   UNL A   1      30.034  28.476  25.021  1.00  0.00     0.348 HD
ENDBRANCH  16  17
ENDBRANCH  13  16
ENDBRANCH  12  13
ENDBRANCH   7  12
ENDBRANCH   3   6
ENDBRANCH   1   2
BRANCH   1  27
ATOM     27  C   UNL A   1      38.189  19.606  24.982  1.00  0.00     0.042 C 
BRANCH  27  28
ATOM     28  C   UNL A   1      39.294  20.196  25.850  1.00  0.00     0.118 C 
BRANCH  28  29
ATOM     29  N   UNL A   1      40.382  19.252  26.046  1.00  0.00    -0.352 N 
ATOM     30  C   UNL A   1      41.727  19.480  26.182  1.00  0.00     0.251 C 
ATOM     31  H   UNL A   1      40.111  18.306  26.087  1.00  0.00     0.163 HD
ATOM     32  O   UNL A   1      42.505  18.540  26.057  1.00  0.00    -0.269 OA
BRANCH  30  33
ATOM     33  C   UNL A   1      42.236  20.841  26.467  1.00  0.00     0.039 A 
ATOM     34  C   UNL A   1      42.461  21.712  25.398  1.00  0.00     0.014 A 
ATOM     35  C   UNL A   1      42.544  21.242  27.770  1.00  0.00     0.014 A 
ATOM     36  C   UNL A   1      42.956  22.996  25.639  1.00  0.00     0.010 A 
ATOM     37  C   UNL A   1      42.965  22.546  28.018  1.00  0.00     0.010 A 
ATOM     38  C   UNL A   1      43.191  23.432  26.953  1.00  0.00    -0.014 A 
BRANCH  38  39
ATOM     39  C   UNL A   1      43.696  24.801  27.231  1.00  0.00     0.031 A 
ATOM     40  C   UNL A   1      42.761  25.853  27.763  1.00  0.00     0.074 A 
ATOM     41  C   UNL A   1      44.978  25.107  26.948  1.00  0.00     0.049 A 
ATOM     42  N   UNL A   1      42.986  27.121  27.995  1.00  0.00    -0.248 NA
ATOM     43  C   UNL A   1      41.382  25.427  28.043  1.00  0.00     0.031 C 
ATOM     44  C   UNL A   1      45.965  24.177  26.394  1.00  0.00     0.029 A 
ATOM     45  N   UNL A   1      45.669  26.284  27.079  1.00  0.00    -0.354 N 
ATOM     46  C   UNL A   1      41.774  27.648  28.431  1.00  0.00     0.074 A 
ATOM     47  C   UNL A   1      40.806  26.573  28.371  1.00  0.00     0.031 C 
ATOM     48  C   UNL A   1      47.137  24.814  26.253  1.00  0.00     0.029 A 
ATOM     49  C   UNL A   1      46.977  26.206  26.664  1.00  0.00     0.049 A 
ATOM     50  H   UNL A   1      45.265  27.108  27.437  1.00  0.00     0.167 HD
ATOM     51  C   UNL A   1      41.500  28.905  28.862  1.00  0.00     0.034 A 
ATOM     52  C   UNL A   1      47.935  27.151  26.608  1.00  0.00     0.034 A 
ATOM     53  C   UNL A   1      42.485  29.958  28.926  1.00  0.00     0.049 A 
ATOM     54  C   UNL A   1      47.606  28.545  27.079  1.00  0.00     0.074 A 
ATOM     55  C   UNL A   1      42.335  31.253  29.392  1.00  0.00     0.029 A 
ATOM     56  N   UNL A   1      43.804  29.840  28.504  1.00  0.00    -0.354 N 
ATOM     57  N   UNL A   1      46.467  29.016  27.532  1.00  0.00    -0.248 NA
ATOM     58  C   UNL A   1      48.695  29.529  27.043  1.00  0.00     0.031 C 
ATOM     59  C   UNL A   1      43.542  31.934  29.193  1.00  0.00     0.029 A 
ATOM     60  C   UNL A   1      44.470  31.045  28.673  1.00  0.00     0.049 A 
ATOM     61  H   UNL A   1      44.208  29.020  28.138  1.00  0.00     0.167 HD
ATOM     62  C   UNL A   1      46.713  30.345  27.864  1.00  0.00     0.074 A 
ATOM     63  C   UNL A   1      48.110  30.593  27.573  1.00  0.00     0.031 C 
ATOM     64  C   UNL A   1      45.862  31.277  28.367  1.00  0.00     0.034 A 
BRANCH  51  65
ATOM     65  C   UNL A   1      40.077  29.206  29.269  1.00  0.00     0.023 A 
ATOM     66  C   UNL A   1      39.694  29.278  30.621  1.00  0.00     0.031 A 
ATOM     67  C   UNL A   1      39.080  29.393  28.296  1.00  0.00     0.131 A 
ATOM     68  C   UNL A   1      38.342  29.445  30.961  1.00  0.00     0.055 A 
ATOM     69  C   UNL A   1      37.750  29.645  28.641  1.00  0.00     0.041 A 
ATOM     70  F   UNL A   1      39.378  29.317  26.989  1.00  0.00    -0.206 F 
ATOM     71  C   UNL A   1      37.371  29.655  29.980  1.00  0.00     0.022 A 
BRANCH  68  72
ATOM     72  S   UNL A   1      37.853  29.234  32.694  1.00  0.00     0.124 S 
ATOM     73  O   UNL A   1      38.993  29.819  33.396  1.00  0.00    -0.237 OA
ATOM     74  O   UNL A   1      36.605  29.987  32.764  1.00  0.00    -0.237 OA
ATOM     75  O   UNL A   1      37.717  27.786  32.838  1.00  0.00    -0.744 OA
ENDBRANCH  68  72
ENDBRANCH  51  65
BRANCH  52  76
ATOM     76  C   UNL A   1      49.292  26.821  26.086  1.00  0.00     0.023 A 
ATOM     77  C   UNL A   1      49.692  27.227  24.803  1.00  0.00     0.031 A 
ATOM     78  C   UNL A   1      50.198  26.063  26.849  1.00  0.00     0.131 A 
ATOM     79  C   UNL A   1      50.943  26.836  24.303  1.00  0.00     0.055 A 
ATOM     80  C   UNL A   1      51.462  25.719  26.368  1.00  0.00     0.041 A 
ATOM     81  F   UNL A   1      49.869  25.655  28.086  1.00  0.00    -0.206 F 
ATOM     82  C   UNL A   1      51.836  26.096  25.081  1.00  0.00     0.022 A 
BRANCH  79  83
ATOM     83  S   UNL A   1      51.356  27.241  22.584  1.00  0.00     0.124 S 
ATOM     84  O   UNL A   1      52.592  26.492  22.391  1.00  0.00    -0.237 OA
ATOM     85  O   UNL A   1      50.185  26.745  21.868  1.00  0.00    -0.237 OA
ATOM     86  O   UNL A   1      51.502  28.695  22.603  1.00  0.00    -0.744 OA
ENDBRANCH  79  83
ENDBRANCH  52  76
BRANCH  64  87
ATOM     87  C   UNL A   1      46.444  32.635  28.674  1.00  0.00     0.023 A 
ATOM     88  C   UNL A   1      46.443  33.672  27.725  1.00  0.00     0.031 A 
ATOM     89  C   UNL A   1      47.025  32.887  29.930  1.00  0.00     0.131 A 
ATOM     90  C   UNL A   1      47.064  34.894  28.025  1.00  0.00     0.055 A 
ATOM     91  C   UNL A   1      47.585  34.124  30.245  1.00  0.00     0.041 A 
ATOM     92  F   UNL A   1      47.054  31.931  30.872  1.00  0.00    -0.206 F 
ATOM     93  C   UNL A   1      47.620  35.132  29.284  1.00  0.00     0.022 A 
BRANCH  90  94
ATOM     94  S   UNL A   1      47.223  36.135  26.712  1.00  0.00     0.124 S 
ATOM     95  O   UNL A   1      45.830  36.470  26.440  1.00  0.00    -0.237 OA
ATOM     96  O   UNL A   1      48.015  37.176  27.360  1.00  0.00    -0.237 OA
ATOM     97  O   UNL A   1      47.908  35.414  25.641  1.00  0.00    -0.744 OA
ENDBRANCH  90  94
ENDBRANCH  64  87
ENDBRANCH  38  39
ENDBRANCH  30  33
ENDBRANCH  28  29
ENDBRANCH  27  28
ENDBRANCH   1  27
TORSDOF 17
ENDMDL
MODEL 3
REMARK VINA RESULT:     -11.3      1.425      2.012
REMARK SMILES C[N@@H+]1CC[N@@H+](C)[C@H](C[NH2+]Cc2ccc(C(=O)NCCCNC(=O)c3ccc(-c4c5nc(c(-c6cc(S(=O)(=O)[O-])ccc6F)c6ccc([nH]6)c(-c6cc(S(=O)(=O)[O-])ccc6F)c6nc(c(-c7cc(S(=O)(=O)[O-])ccc7F)c7ccc4[nH]7)C=C6)C=C5)cc3)cn2)C1
REMARK SMILES IDX 18 1 17 2 15 3 16 4 14 6 11 7 12 8 88 9 13 10 87 11 10 12
REMARK SMILES IDX 9 13 8 16 7 17 1 18 2 19 3 20 89 21 4 23 5 24 6 25 19 27
REMARK SMILES IDX 20 28 21 29 22 30 23 32 24 33 25 34 86 35 26 36 85 37 27 38
REMARK SMILES IDX 28 39 29 40 79 41 30 42 84 43 78 44 80 45 31 46 83 47 77 48
REMARK SMILES IDX 76 49 32 51 64 52 44 53 63 54 45 55 48 56 62 57 81 58 46 59
REMARK SMILES IDX 47 60 61 62 82 63 49 64 33 65 34 66 42 67 35 68 41 69 43 70
REMARK SMILES IDX 40 71 36 72 37 73 38 74 39 75 65 76 66 77 74 78 67 79 73 80
REMARK SMILES IDX 75 81 72 82 68 83 69 84 70 85 71 86 50 87 51 88 59 89 52 90
REMARK SMILES IDX 58 91 60 92 57 93 53 94 54 95 55 96 56 97
REMARK H PARENT 17 5 9 14 9 15 2 22 5 26 21 31 80 50 48 61
REMARK Flexibility Score: inf
ROOT
ATOM      1  C   UNL A   1      31.768  30.748  26.470  1.00  0.00     0.118 C 
ENDROOT
BRANCH   1   2
ATOM      2  N   UNL A   1      33.075  30.252  26.857  1.00  0.00    -0.352 N 
ATOM      3  C   UNL A   1      33.681  29.030  26.715  1.00  0.00     0.252 C 
ATOM      4  O   UNL A   1      34.827  28.913  27.150  1.00  0.00    -0.269 OA
ATOM      5  H   UNL A   1      33.635  30.922  27.312  1.00  0.00     0.163 HD
BRANCH   3   6
ATOM      6  C   UNL A   1      33.062  27.885  26.006  1.00  0.00     0.058 A 
ATOM      7  C   UNL A   1      31.980  25.527  25.074  1.00  0.00     0.094 A 
ATOM      8  C   UNL A   1      32.846  26.243  24.257  1.00  0.00     0.030 A 
ATOM      9  N   UNL A   1      31.543  26.005  26.267  1.00  0.00    -0.255 NA
ATOM     10  C   UNL A   1      33.370  27.443  24.724  1.00  0.00     0.017 A 
ATOM     11  C   UNL A   1      32.103  27.159  26.706  1.00  0.00     0.125 A 
BRANCH   7  12
ATOM     12  C   UNL A   1      31.620  24.108  24.703  1.00  0.00     0.318 C 
BRANCH  12  13
ATOM     13  N   UNL A   1      31.631  23.930  23.247  1.00  0.00    -0.336 N 
ATOM     14  H   UNL A   1      30.697  23.664  22.938  1.00  0.00     0.346 HD
ATOM     15  H   UNL A   1      31.917  24.810  22.817  1.00  0.00     0.346 HD
BRANCH  13  16
ATOM     16  C   UNL A   1      32.588  22.882  22.844  1.00  0.00     0.332 C 
BRANCH  16  17
ATOM     17  C   UNL A   1      33.491  22.443  24.039  1.00  0.00     0.295 C 
ATOM     18  C   UNL A   1      37.125  23.348  24.770  1.00  0.00     0.333 C 
ATOM     19  N   UNL A   1      35.830  22.698  24.935  1.00  0.00    -0.328 N 
ATOM     20  C   UNL A   1      35.961  21.233  24.909  1.00  0.00     0.324 C 
ATOM     21  C   UNL A   1      34.898  23.091  23.858  1.00  0.00     0.334 C 
ATOM     22  H   UNL A   1      35.467  22.998  25.840  1.00  0.00     0.348 HD
ATOM     23  C   UNL A   1      34.594  20.556  25.145  1.00  0.00     0.324 C 
ATOM     24  N   UNL A   1      33.546  20.948  24.179  1.00  0.00    -0.321 N 
ATOM     25  C   UNL A   1      32.261  20.388  24.613  1.00  0.00     0.333 C 
ATOM     26  H   UNL A   1      33.766  20.572  23.256  1.00  0.00     0.348 HD
ENDBRANCH  16  17
ENDBRANCH  13  16
ENDBRANCH  12  13
ENDBRANCH   7  12
ENDBRANCH   3   6
ENDBRANCH   1   2
BRANCH   1  27
ATOM     27  C   UNL A   1      31.593  32.212  26.873  1.00  0.00     0.042 C 
BRANCH  27  28
ATOM     28  C   UNL A   1      32.915  32.911  27.168  1.00  0.00     0.118 C 
BRANCH  28  29
ATOM     29  N   UNL A   1      32.705  34.225  27.754  1.00  0.00    -0.352 N 
ATOM     30  C   UNL A   1      33.212  34.761  28.910  1.00  0.00     0.251 C 
ATOM     31  H   UNL A   1      32.109  34.820  27.243  1.00  0.00     0.163 HD
ATOM     32  O   UNL A   1      32.698  35.774  29.371  1.00  0.00    -0.269 OA
BRANCH  30  33
ATOM     33  C   UNL A   1      34.358  34.123  29.597  1.00  0.00     0.039 A 
ATOM     34  C   UNL A   1      35.653  34.456  29.194  1.00  0.00     0.014 A 
ATOM     35  C   UNL A   1      34.163  33.160  30.592  1.00  0.00     0.014 A 
ATOM     36  C   UNL A   1      36.751  33.856  29.815  1.00  0.00     0.010 A 
ATOM     37  C   UNL A   1      35.257  32.618  31.263  1.00  0.00     0.010 A 
ATOM     38  C   UNL A   1      36.562  32.949  30.871  1.00  0.00    -0.014 A 
BRANCH  38  39
ATOM     39  C   UNL A   1      37.718  32.317  31.558  1.00  0.00     0.031 A 
ATOM     40  C   UNL A   1      38.463  31.191  30.894  1.00  0.00     0.074 A 
ATOM     41  C   UNL A   1      38.055  32.720  32.799  1.00  0.00     0.049 A 
ATOM     42  N   UNL A   1      39.443  30.458  31.357  1.00  0.00    -0.248 NA
ATOM     43  C   UNL A   1      38.025  30.820  29.540  1.00  0.00     0.031 C 
ATOM     44  C   UNL A   1      37.380  33.778  33.555  1.00  0.00     0.029 A 
ATOM     45  N   UNL A   1      39.042  32.286  33.646  1.00  0.00    -0.354 N 
ATOM     46  C   UNL A   1      39.728  29.531  30.360  1.00  0.00     0.074 A 
ATOM     47  C   UNL A   1      38.774  29.757  29.295  1.00  0.00     0.031 C 
ATOM     48  C   UNL A   1      37.986  33.923  34.744  1.00  0.00     0.029 A 
ATOM     49  C   UNL A   1      39.063  32.942  34.854  1.00  0.00     0.049 A 
ATOM     50  H   UNL A   1      39.676  31.569  33.411  1.00  0.00     0.167 HD
ATOM     51  C   UNL A   1      40.708  28.593  30.328  1.00  0.00     0.034 A 
ATOM     52  C   UNL A   1      39.850  32.766  35.933  1.00  0.00     0.034 A 
ATOM     53  C   UNL A   1      41.657  28.394  31.397  1.00  0.00     0.049 A 
ATOM     54  C   UNL A   1      40.924  31.709  35.880  1.00  0.00     0.074 A 
ATOM     55  C   UNL A   1      42.722  27.510  31.452  1.00  0.00     0.029 A 
ATOM     56  N   UNL A   1      41.653  29.084  32.603  1.00  0.00    -0.354 N 
ATOM     57  N   UNL A   1      41.211  30.870  34.911  1.00  0.00    -0.248 NA
ATOM     58  C   UNL A   1      41.788  31.585  37.061  1.00  0.00     0.031 C 
ATOM     59  C   UNL A   1      43.319  27.622  32.713  1.00  0.00     0.029 A 
ATOM     60  C   UNL A   1      42.677  28.628  33.419  1.00  0.00     0.049 A 
ATOM     61  H   UNL A   1      41.015  29.794  32.843  1.00  0.00     0.167 HD
ATOM     62  C   UNL A   1      42.309  30.140  35.356  1.00  0.00     0.074 A 
ATOM     63  C   UNL A   1      42.639  30.649  36.671  1.00  0.00     0.031 C 
ATOM     64  C   UNL A   1      42.985  29.140  34.733  1.00  0.00     0.034 A 
BRANCH  51  65
ATOM     65  C   UNL A   1      40.777  27.702  29.109  1.00  0.00     0.023 A 
ATOM     66  C   UNL A   1      41.719  27.921  28.086  1.00  0.00     0.031 A 
ATOM     67  C   UNL A   1      39.872  26.638  28.949  1.00  0.00     0.131 A 
ATOM     68  C   UNL A   1      41.679  27.144  26.918  1.00  0.00     0.055 A 
ATOM     69  C   UNL A   1      39.893  25.815  27.821  1.00  0.00     0.041 A 
ATOM     70  F   UNL A   1      38.938  26.390  29.881  1.00  0.00    -0.206 F 
ATOM     71  C   UNL A   1      40.789  26.076  26.789  1.00  0.00     0.022 A 
BRANCH  68  72
ATOM     72  S   UNL A   1      42.704  27.648  25.509  1.00  0.00     0.124 S 
ATOM     73  O   UNL A   1      42.632  26.465  24.655  1.00  0.00    -0.237 OA
ATOM     74  O   UNL A   1      42.007  28.832  25.019  1.00  0.00    -0.237 OA
ATOM     75  O   UNL A   1      44.013  27.897  26.109  1.00  0.00    -0.744 OA
ENDBRANCH  68  72
ENDBRANCH  51  65
BRANCH  52  76
ATOM     76  C   UNL A   1      39.657  33.600  37.153  1.00  0.00     0.023 A 
ATOM     77  C   UNL A   1      40.452  34.733  37.388  1.00  0.00     0.031 A 
ATOM     78  C   UNL A   1      38.698  33.256  38.121  1.00  0.00     0.131 A 
ATOM     79  C   UNL A   1      40.305  35.455  38.582  1.00  0.00     0.055 A 
ATOM     80  C   UNL A   1      38.520  34.008  39.284  1.00  0.00     0.041 A 
ATOM     81  F   UNL A   1      37.905  32.186  37.943  1.00  0.00    -0.206 F 
ATOM     82  C   UNL A   1      39.336  35.108  39.526  1.00  0.00     0.022 A 
BRANCH  79  83
ATOM     83  S   UNL A   1      41.460  36.812  38.922  1.00  0.00     0.124 S 
ATOM     84  O   UNL A   1      40.549  37.904  39.242  1.00  0.00    -0.237 OA
ATOM     85  O   UNL A   1      42.236  36.276  40.034  1.00  0.00    -0.237 OA
ATOM     86  O   UNL A   1      42.194  36.957  37.666  1.00  0.00    -0.744 OA
ENDBRANCH  79  83
ENDBRANCH  52  76
BRANCH  64  87
ATOM     87  C   UNL A   1      44.180  28.571  35.459  1.00  0.00     0.023 A 
ATOM     88  C   UNL A   1      44.054  27.506  36.368  1.00  0.00     0.031 A 
ATOM     89  C   UNL A   1      45.459  29.116  35.250  1.00  0.00     0.131 A 
ATOM     90  C   UNL A   1      45.178  27.059  37.080  1.00  0.00     0.055 A 
ATOM     91  C   UNL A   1      46.583  28.627  35.914  1.00  0.00     0.041 A 
ATOM     92  F   UNL A   1      45.635  30.136  34.394  1.00  0.00    -0.206 F 
ATOM     93  C   UNL A   1      46.444  27.601  36.847  1.00  0.00     0.022 A 
BRANCH  90  94
ATOM     94  S   UNL A   1      44.945  25.825  38.389  1.00  0.00     0.124 S 
ATOM     95  O   UNL A   1      44.013  26.503  39.283  1.00  0.00    -0.237 OA
ATOM     96  O   UNL A   1      44.409  24.686  37.652  1.00  0.00    -0.237 OA
ATOM     97  O   UNL A   1      46.292  25.636  38.925  1.00  0.00    -0.744 OA
ENDBRANCH  90  94
ENDBRANCH  64  87
ENDBRANCH  38  39
ENDBRANCH  30  33
ENDBRANCH  28  29
ENDBRANCH  27  28
ENDBRANCH   1  27
TORSDOF 17
ENDMDL
