MODEL 1
REMARK VINA RESULT:     -13.3      0.000      0.000
REMARK SMILES O=C(NCCCNC(=O)c1cc(S(=O)(=O)NNC(=O)[C@H]2C=C(c3ccccc3)N=N2)ccc1F)c1ccc(-c2c3nc(c(-c4cc(S(=O)(=O)[O-])ccc4F)c4ccc([nH]4)c(-c4cc(S(=O)(=O)[O-])ccc4F)c4nc(c(-c5cc(S(=O)(=O)[O-])ccc5F)c5ccc2[nH]5)C=C4)C=C3)cc1
REMARK SMILES IDX 6 1 5 2 4 3 3 4 1 5 2 6 35 8 36 9 97 10 37 11 96 12 38 13
REMARK SMILES IDX 39 14 40 15 90 16 41 17 95 18 89 19 91 20 42 21 94 22 88 23
REMARK SMILES IDX 87 24 43 26 75 27 55 28 74 29 56 30 59 31 73 32 92 33 57 34
REMARK SMILES IDX 58 35 72 37 93 38 60 39 44 40 45 41 53 42 46 43 52 44 54 45
REMARK SMILES IDX 51 46 47 47 48 48 49 49 50 50 76 51 77 52 85 53 78 54 84 55
REMARK SMILES IDX 86 56 83 57 79 58 80 59 81 60 82 61 61 62 62 63 70 64 63 65
REMARK SMILES IDX 69 66 71 67 68 68 64 69 65 70 66 71 67 72 7 73 8 74 9 76
REMARK SMILES IDX 10 77 11 78 33 79 12 80 32 81 34 82 31 83 13 84 14 85 15 86
REMARK SMILES IDX 16 87 17 89 18 90 19 92 20 93 21 94 30 95 22 96 29 97 23 98
REMARK SMILES IDX 24 99 28 100 25 101 27 102 26 103
REMARK H PARENT 3 7 91 25 59 36 7 75 16 88 17 91
REMARK Flexibility Score: inf
ROOT
ATOM      1  C   UNL A   1      33.976  29.448  27.078  1.00  0.00     0.118 C 
ENDROOT
BRANCH   1   2
ATOM      2  C   UNL A   1      33.650  30.935  27.026  1.00  0.00     0.042 C 
BRANCH   2   3
ATOM      3  C   UNL A   1      34.673  31.835  27.714  1.00  0.00     0.118 C 
BRANCH   3   4
ATOM      4  N   UNL A   1      34.548  31.936  29.156  1.00  0.00    -0.352 N 
ATOM      5  O   UNL A   1      34.935  32.008  31.329  1.00  0.00    -0.269 OA
ATOM      6  C   UNL A   1      35.376  31.693  30.219  1.00  0.00     0.251 C 
ATOM      7  H   UNL A   1      33.660  32.254  29.435  1.00  0.00     0.163 HD
BRANCH   6   8
ATOM      8  C   UNL A   1      36.715  31.049  30.134  1.00  0.00     0.039 A 
ATOM      9  C   UNL A   1      37.938  31.721  30.143  1.00  0.00     0.014 A 
ATOM     10  C   UNL A   1      36.725  29.643  30.061  1.00  0.00     0.014 A 
ATOM     11  C   UNL A   1      39.136  31.018  30.011  1.00  0.00     0.010 A 
ATOM     12  C   UNL A   1      37.921  28.934  29.967  1.00  0.00     0.010 A 
ATOM     13  C   UNL A   1      39.131  29.624  29.927  1.00  0.00    -0.014 A 
BRANCH  13  14
ATOM     14  C   UNL A   1      40.418  28.926  30.010  1.00  0.00     0.031 A 
ATOM     15  C   UNL A   1      40.963  28.738  31.389  1.00  0.00     0.074 A 
ATOM     16  C   UNL A   1      41.001  28.280  28.979  1.00  0.00     0.049 A 
ATOM     17  N   UNL A   1      42.138  29.028  31.847  1.00  0.00    -0.248 NA
ATOM     18  C   UNL A   1      40.047  28.185  32.403  1.00  0.00     0.031 C 
ATOM     19  C   UNL A   1      40.449  28.077  27.640  1.00  0.00     0.029 A 
ATOM     20  N   UNL A   1      42.158  27.551  28.959  1.00  0.00    -0.354 N 
ATOM     21  C   UNL A   1      42.183  28.506  33.139  1.00  0.00     0.074 A 
ATOM     22  C   UNL A   1      40.839  28.113  33.471  1.00  0.00     0.031 C 
ATOM     23  C   UNL A   1      41.154  27.108  27.017  1.00  0.00     0.029 A 
ATOM     24  C   UNL A   1      42.263  26.698  27.866  1.00  0.00     0.049 A 
ATOM     25  H   UNL A   1      42.853  27.624  29.653  1.00  0.00     0.167 HD
ATOM     26  C   UNL A   1      43.352  28.234  33.783  1.00  0.00     0.034 A 
ATOM     27  C   UNL A   1      43.140  25.674  27.703  1.00  0.00     0.034 A 
ATOM     28  C   UNL A   1      44.458  28.986  33.258  1.00  0.00     0.049 A 
ATOM     29  C   UNL A   1      44.296  25.935  28.597  1.00  0.00     0.074 A 
ATOM     30  C   UNL A   1      44.706  30.330  33.050  1.00  0.00     0.029 A 
ATOM     31  N   UNL A   1      45.433  28.324  32.552  1.00  0.00    -0.354 N 
ATOM     32  N   UNL A   1      45.121  26.939  28.466  1.00  0.00    -0.248 NA
ATOM     33  C   UNL A   1      44.348  25.250  29.879  1.00  0.00     0.031 C 
ATOM     34  C   UNL A   1      45.473  30.385  31.851  1.00  0.00     0.029 A 
ATOM     35  C   UNL A   1      45.670  29.070  31.424  1.00  0.00     0.049 A 
ATOM     36  H   UNL A   1      45.875  27.481  32.804  1.00  0.00     0.167 HD
ATOM     37  C   UNL A   1      45.511  27.252  29.758  1.00  0.00     0.074 A 
ATOM     38  C   UNL A   1      45.097  26.112  30.567  1.00  0.00     0.031 C 
ATOM     39  C   UNL A   1      45.891  28.516  30.104  1.00  0.00     0.034 A 
BRANCH  26  40
ATOM     40  C   UNL A   1      43.529  27.050  34.701  1.00  0.00     0.023 A 
ATOM     41  C   UNL A   1      44.095  25.866  34.195  1.00  0.00     0.031 A 
ATOM     42  C   UNL A   1      42.919  26.951  35.975  1.00  0.00     0.131 A 
ATOM     43  C   UNL A   1      44.016  24.664  34.922  1.00  0.00     0.055 A 
ATOM     44  C   UNL A   1      42.908  25.773  36.725  1.00  0.00     0.041 A 
ATOM     45  F   UNL A   1      42.219  27.961  36.509  1.00  0.00    -0.206 F 
ATOM     46  C   UNL A   1      43.442  24.614  36.191  1.00  0.00     0.022 A 
BRANCH  43  47
ATOM     47  S   UNL A   1      44.533  23.124  34.118  1.00  0.00     0.124 S 
ATOM     48  O   UNL A   1      43.763  23.164  32.879  1.00  0.00    -0.237 OA
ATOM     49  O   UNL A   1      45.973  23.317  33.988  1.00  0.00    -0.237 OA
ATOM     50  O   UNL A   1      44.129  22.090  35.069  1.00  0.00    -0.744 OA
ENDBRANCH  43  47
ENDBRANCH  26  40
BRANCH  27  51
ATOM     51  C   UNL A   1      42.923  24.371  27.008  1.00  0.00     0.023 A 
ATOM     52  C   UNL A   1      43.848  23.876  26.063  1.00  0.00     0.031 A 
ATOM     53  C   UNL A   1      41.918  23.470  27.427  1.00  0.00     0.131 A 
ATOM     54  C   UNL A   1      43.746  22.551  25.584  1.00  0.00     0.055 A 
ATOM     55  C   UNL A   1      41.804  22.170  26.929  1.00  0.00     0.041 A 
ATOM     56  F   UNL A   1      41.058  23.782  28.407  1.00  0.00    -0.206 F 
ATOM     57  C   UNL A   1      42.727  21.699  26.011  1.00  0.00     0.022 A 
BRANCH  54  58
ATOM     58  S   UNL A   1      45.036  21.855  24.503  1.00  0.00     0.124 S 
ATOM     59  O   UNL A   1      46.136  21.649  25.438  1.00  0.00    -0.237 OA
ATOM     60  O   UNL A   1      44.400  20.654  23.974  1.00  0.00    -0.237 OA
ATOM     61  O   UNL A   1      45.251  22.915  23.518  1.00  0.00    -0.744 OA
ENDBRANCH  54  58
ENDBRANCH  27  51
BRANCH  39  62
ATOM     62  C   UNL A   1      46.303  29.489  29.027  1.00  0.00     0.023 A 
ATOM     63  C   UNL A   1      45.412  30.293  28.287  1.00  0.00     0.031 A 
ATOM     64  C   UNL A   1      47.682  29.723  28.878  1.00  0.00     0.131 A 
ATOM     65  C   UNL A   1      45.918  31.291  27.430  1.00  0.00     0.055 A 
ATOM     66  C   UNL A   1      48.178  30.721  28.043  1.00  0.00     0.041 A 
ATOM     67  F   UNL A   1      48.574  29.011  29.590  1.00  0.00    -0.206 F 
ATOM     68  C   UNL A   1      47.297  31.511  27.314  1.00  0.00     0.022 A 
BRANCH  65  69
ATOM     69  S   UNL A   1      44.783  32.366  26.493  1.00  0.00     0.124 S 
ATOM     70  O   UNL A   1      45.650  32.965  25.486  1.00  0.00    -0.237 OA
ATOM     71  O   UNL A   1      43.775  31.429  26.002  1.00  0.00    -0.237 OA
ATOM     72  O   UNL A   1      44.286  33.305  27.502  1.00  0.00    -0.744 OA
ENDBRANCH  65  69
ENDBRANCH  39  62
ENDBRANCH  13  14
ENDBRANCH   6   8
ENDBRANCH   3   4
ENDBRANCH   2   3
ENDBRANCH   1   2
BRANCH   1  73
ATOM     73  N   UNL A   1      32.899  28.648  27.646  1.00  0.00    -0.352 N 
ATOM     74  C   UNL A   1      31.877  27.981  27.019  1.00  0.00     0.254 C 
ATOM     75  H   UNL A   1      32.905  28.576  28.627  1.00  0.00     0.163 HD
ATOM     76  O   UNL A   1      31.004  27.424  27.679  1.00  0.00    -0.269 OA
BRANCH  74  77
ATOM     77  C   UNL A   1      31.774  27.986  25.551  1.00  0.00     0.076 A 
ATOM     78  C   UNL A   1      32.203  26.857  24.851  1.00  0.00     0.038 A 
ATOM     79  C   UNL A   1      31.301  29.093  24.851  1.00  0.00     0.136 A 
ATOM     80  C   UNL A   1      32.064  26.815  23.457  1.00  0.00     0.085 A 
ATOM     81  C   UNL A   1      31.117  29.034  23.472  1.00  0.00     0.041 A 
ATOM     82  F   UNL A   1      30.996  30.232  25.491  1.00  0.00    -0.206 F 
ATOM     83  C   UNL A   1      31.474  27.881  22.770  1.00  0.00     0.025 A 
BRANCH  80  84
ATOM     84  S   UNL A   1      32.795  25.430  22.626  1.00  0.00     0.257 S 
ATOM     85  O   UNL A   1      32.594  25.657  21.204  1.00  0.00    -0.205 OA
ATOM     86  O   UNL A   1      34.099  25.223  23.192  1.00  0.00    -0.205 OA
BRANCH  84  87
ATOM     87  N   UNL A   1      31.850  24.082  23.041  1.00  0.00    -0.123 NA
ATOM     88  H   UNL A   1      30.874  24.366  22.956  1.00  0.00     0.167 HD
BRANCH  87  89
ATOM     89  N   UNL A   1      31.997  22.856  22.298  1.00  0.00    -0.275 N 
ATOM     90  C   UNL A   1      32.043  21.595  22.821  1.00  0.00     0.265 C 
ATOM     91  H   UNL A   1      32.073  22.936  21.320  1.00  0.00     0.186 HD
ATOM     92  O   UNL A   1      31.941  20.645  22.031  1.00  0.00    -0.271 OA
BRANCH  90  93
ATOM     93  C   UNL A   1      32.291  21.341  24.314  1.00  0.00     0.244 C 
ATOM     94  C   UNL A   1      33.748  21.079  24.467  1.00  0.00     0.042 C 
ATOM     95  N   UNL A   1      32.110  22.561  25.148  1.00  0.00    -0.171 NA
ATOM     96  C   UNL A   1      34.223  22.108  25.169  1.00  0.00     0.091 C 
ATOM     97  N   UNL A   1      33.229  22.953  25.593  1.00  0.00    -0.155 NA
BRANCH  96  98
ATOM     98  C   UNL A   1      35.641  22.355  25.422  1.00  0.00     0.002 A 
ATOM     99  C   UNL A   1      36.075  23.592  25.911  1.00  0.00     0.010 A 
ATOM    100  C   UNL A   1      36.592  21.355  25.161  1.00  0.00     0.010 A 
ATOM    101  C   UNL A   1      37.431  23.817  26.161  1.00  0.00     0.001 A 
ATOM    102  C   UNL A   1      37.949  21.584  25.401  1.00  0.00     0.001 A 
ATOM    103  C   UNL A   1      38.366  22.813  25.908  1.00  0.00     0.000 A 
ENDBRANCH  96  98
ENDBRANCH  90  93
ENDBRANCH  87  89
ENDBRANCH  84  87
ENDBRANCH  80  84
ENDBRANCH  74  77
ENDBRANCH   1  73
TORSDOF 18
ENDMDL
MODEL 2
REMARK VINA RESULT:     -12.9      3.315      9.445
REMARK SMILES O=C(NCCCNC(=O)c1cc(S(=O)(=O)NNC(=O)[C@H]2C=C(c3ccccc3)N=N2)ccc1F)c1ccc(-c2c3nc(c(-c4cc(S(=O)(=O)[O-])ccc4F)c4ccc([nH]4)c(-c4cc(S(=O)(=O)[O-])ccc4F)c4nc(c(-c5cc(S(=O)(=O)[O-])ccc5F)c5ccc2[nH]5)C=C4)C=C3)cc1
REMARK SMILES IDX 6 1 5 2 4 3 3 4 1 5 2 6 35 8 36 9 97 10 37 11 96 12 38 13
REMARK SMILES IDX 39 14 40 15 90 16 41 17 95 18 89 19 91 20 42 21 94 22 88 23
REMARK SMILES IDX 87 24 43 26 75 27 55 28 74 29 56 30 59 31 73 32 92 33 57 34
REMARK SMILES IDX 58 35 72 37 93 38 60 39 44 40 45 41 53 42 46 43 52 44 54 45
REMARK SMILES IDX 51 46 47 47 48 48 49 49 50 50 76 51 77 52 85 53 78 54 84 55
REMARK SMILES IDX 86 56 83 57 79 58 80 59 81 60 82 61 61 62 62 63 70 64 63 65
REMARK SMILES IDX 69 66 71 67 68 68 64 69 65 70 66 71 67 72 7 73 8 74 9 76
REMARK SMILES IDX 10 77 11 78 33 79 12 80 32 81 34 82 31 83 13 84 14 85 15 86
REMARK SMILES IDX 16 87 17 89 18 90 19 92 20 93 21 94 30 95 22 96 29 97 23 98
REMARK SMILES IDX 24 99 28 100 25 101 27 102 26 103
REMARK H PARENT 3 7 91 25 59 36 7 75 16 88 17 91
REMARK Flexibility Score: inf
ROOT
ATOM      1  C   UNL A   1      36.778  22.671  25.517  1.00  0.00     0.118 C 
ENDROOT
BRANCH   1   2
ATOM      2  C   UNL A   1      38.090  21.899  25.492  1.00  0.00     0.042 C 
BRANCH   2   3
ATOM      3  C   UNL A   1      39.133  22.384  26.495  1.00  0.00     0.118 C 
BRANCH   3   4
ATOM      4  N   UNL A   1      40.489  22.488  25.987  1.00  0.00    -0.352 N 
ATOM      5  O   UNL A   1      42.599  23.038  25.643  1.00  0.00    -0.269 OA
ATOM      6  C   UNL A   1      41.536  23.346  26.190  1.00  0.00     0.251 C 
ATOM      7  H   UNL A   1      40.706  21.773  25.347  1.00  0.00     0.163 HD
BRANCH   6   8
ATOM      8  C   UNL A   1      41.467  24.615  26.964  1.00  0.00     0.039 A 
ATOM      9  C   UNL A   1      42.183  24.891  28.131  1.00  0.00     0.014 A 
ATOM     10  C   UNL A   1      40.620  25.614  26.448  1.00  0.00     0.014 A 
ATOM     11  C   UNL A   1      42.007  26.100  28.803  1.00  0.00     0.010 A 
ATOM     12  C   UNL A   1      40.470  26.838  27.096  1.00  0.00     0.010 A 
ATOM     13  C   UNL A   1      41.154  27.078  28.287  1.00  0.00    -0.014 A 
BRANCH  13  14
ATOM     14  C   UNL A   1      41.172  28.405  28.910  1.00  0.00     0.031 A 
ATOM     15  C   UNL A   1      42.307  29.291  28.509  1.00  0.00     0.074 A 
ATOM     16  C   UNL A   1      40.150  28.926  29.619  1.00  0.00     0.049 A 
ATOM     17  N   UNL A   1      43.136  29.943  29.259  1.00  0.00    -0.248 NA
ATOM     18  C   UNL A   1      42.572  29.432  27.066  1.00  0.00     0.031 C 
ATOM     19  C   UNL A   1      38.831  28.332  29.832  1.00  0.00     0.029 A 
ATOM     20  N   UNL A   1      40.036  30.165  30.188  1.00  0.00    -0.354 N 
ATOM     21  C   UNL A   1      43.889  30.737  28.396  1.00  0.00     0.074 A 
ATOM     22  C   UNL A   1      43.588  30.293  27.060  1.00  0.00     0.031 C 
ATOM     23  C   UNL A   1      37.988  29.286  30.284  1.00  0.00     0.029 A 
ATOM     24  C   UNL A   1      38.727  30.523  30.490  1.00  0.00     0.049 A 
ATOM     25  H   UNL A   1      40.809  30.749  30.367  1.00  0.00     0.167 HD
ATOM     26  C   UNL A   1      44.556  31.849  28.811  1.00  0.00     0.034 A 
ATOM     27  C   UNL A   1      38.264  31.761  30.804  1.00  0.00     0.034 A 
ATOM     28  C   UNL A   1      44.839  31.829  30.220  1.00  0.00     0.049 A 
ATOM     29  C   UNL A   1      39.418  32.553  31.298  1.00  0.00     0.074 A 
ATOM     30  C   UNL A   1      45.474  30.941  31.068  1.00  0.00     0.029 A 
ATOM     31  N   UNL A   1      44.168  32.700  31.042  1.00  0.00    -0.354 N 
ATOM     32  N   UNL A   1      40.080  32.293  32.395  1.00  0.00    -0.248 NA
ATOM     33  C   UNL A   1      40.076  33.466  30.378  1.00  0.00     0.031 C 
ATOM     34  C   UNL A   1      44.751  31.016  32.293  1.00  0.00     0.029 A 
ATOM     35  C   UNL A   1      43.742  31.966  32.122  1.00  0.00     0.049 A 
ATOM     36  H   UNL A   1      44.021  33.662  30.889  1.00  0.00     0.167 HD
ATOM     37  C   UNL A   1      41.379  32.692  32.132  1.00  0.00     0.074 A 
ATOM     38  C   UNL A   1      41.291  33.508  30.927  1.00  0.00     0.031 C 
ATOM     39  C   UNL A   1      42.446  32.111  32.753  1.00  0.00     0.034 A 
BRANCH  26  40
ATOM     40  C   UNL A   1      44.683  33.095  27.969  1.00  0.00     0.023 A 
ATOM     41  C   UNL A   1      43.885  34.213  28.271  1.00  0.00     0.031 A 
ATOM     42  C   UNL A   1      45.357  33.131  26.724  1.00  0.00     0.131 A 
ATOM     43  C   UNL A   1      43.761  35.275  27.355  1.00  0.00     0.055 A 
ATOM     44  C   UNL A   1      45.290  34.220  25.853  1.00  0.00     0.041 A 
ATOM     45  F   UNL A   1      46.033  32.075  26.250  1.00  0.00    -0.206 F 
ATOM     46  C   UNL A   1      44.472  35.293  26.157  1.00  0.00     0.022 A 
BRANCH  43  47
ATOM     47  S   UNL A   1      42.529  36.564  27.679  1.00  0.00     0.124 S 
ATOM     48  O   UNL A   1      43.122  37.261  28.816  1.00  0.00    -0.237 OA
ATOM     49  O   UNL A   1      42.510  37.293  26.415  1.00  0.00    -0.237 OA
ATOM     50  O   UNL A   1      41.314  35.808  27.977  1.00  0.00    -0.744 OA
ENDBRANCH  43  47
ENDBRANCH  26  40
BRANCH  27  51
ATOM     51  C   UNL A   1      36.941  32.367  30.472  1.00  0.00     0.023 A 
ATOM     52  C   UNL A   1      36.073  32.840  31.479  1.00  0.00     0.031 A 
ATOM     53  C   UNL A   1      36.599  32.708  29.143  1.00  0.00     0.131 A 
ATOM     54  C   UNL A   1      34.934  33.607  31.144  1.00  0.00     0.055 A 
ATOM     55  C   UNL A   1      35.457  33.443  28.814  1.00  0.00     0.041 A 
ATOM     56  F   UNL A   1      37.409  32.422  28.114  1.00  0.00    -0.206 F 
ATOM     57  C   UNL A   1      34.623  33.907  29.817  1.00  0.00     0.022 A 
BRANCH  54  58
ATOM     58  S   UNL A   1      33.913  34.365  32.447  1.00  0.00     0.124 S 
ATOM     59  O   UNL A   1      34.881  35.205  33.142  1.00  0.00    -0.237 OA
ATOM     60  O   UNL A   1      32.881  35.059  31.684  1.00  0.00    -0.237 OA
ATOM     61  O   UNL A   1      33.435  33.210  33.209  1.00  0.00    -0.744 OA
ENDBRANCH  54  58
ENDBRANCH  27  51
BRANCH  39  62
ATOM     62  C   UNL A   1      42.230  31.335  34.029  1.00  0.00     0.023 A 
ATOM     63  C   UNL A   1      42.040  29.939  34.099  1.00  0.00     0.031 A 
ATOM     64  C   UNL A   1      42.400  32.039  35.235  1.00  0.00     0.131 A 
ATOM     65  C   UNL A   1      42.023  29.298  35.354  1.00  0.00     0.055 A 
ATOM     66  C   UNL A   1      42.399  31.399  36.473  1.00  0.00     0.041 A 
ATOM     67  F   UNL A   1      42.624  33.365  35.224  1.00  0.00    -0.206 F 
ATOM     68  C   UNL A   1      42.210  30.024  36.537  1.00  0.00     0.022 A 
BRANCH  65  69
ATOM     69  S   UNL A   1      41.816  27.491  35.463  1.00  0.00     0.124 S 
ATOM     70  O   UNL A   1      41.228  27.305  36.784  1.00  0.00    -0.237 OA
ATOM     71  O   UNL A   1      40.952  27.190  34.325  1.00  0.00    -0.237 OA
ATOM     72  O   UNL A   1      43.183  26.979  35.330  1.00  0.00    -0.744 OA
ENDBRANCH  65  69
ENDBRANCH  39  62
ENDBRANCH  13  14
ENDBRANCH   6   8
ENDBRANCH   3   4
ENDBRANCH   2   3
ENDBRANCH   1   2
BRANCH   1  73
ATOM     73  N   UNL A   1      36.327  23.071  24.190  1.00  0.00    -0.352 N 
ATOM     74  C   UNL A   1      35.080  22.985  23.625  1.00  0.00     0.254 C 
ATOM     75  H   UNL A   1      37.022  23.461  23.613  1.00  0.00     0.163 HD
ATOM     76  O   UNL A   1      34.910  23.299  22.450  1.00  0.00    -0.269 OA
BRANCH  74  77
ATOM     77  C   UNL A   1      33.948  22.447  24.395  1.00  0.00     0.076 A 
ATOM     78  C   UNL A   1      33.015  23.345  24.919  1.00  0.00     0.038 A 
ATOM     79  C   UNL A   1      33.809  21.084  24.644  1.00  0.00     0.136 A 
ATOM     80  C   UNL A   1      31.898  22.854  25.609  1.00  0.00     0.085 A 
ATOM     81  C   UNL A   1      32.676  20.593  25.287  1.00  0.00     0.041 A 
ATOM     82  F   UNL A   1      34.754  20.214  24.256  1.00  0.00    -0.206 F 
ATOM     83  C   UNL A   1      31.699  21.477  25.750  1.00  0.00     0.025 A 
BRANCH  80  84
ATOM     84  S   UNL A   1      30.860  24.055  26.397  1.00  0.00     0.257 S 
ATOM     85  O   UNL A   1      29.965  23.310  27.268  1.00  0.00    -0.205 OA
ATOM     86  O   UNL A   1      31.707  25.107  26.888  1.00  0.00    -0.205 OA
BRANCH  84  87
ATOM     87  N   UNL A   1      29.898  24.722  25.168  1.00  0.00    -0.123 NA
ATOM     88  H   UNL A   1      29.673  25.677  25.451  1.00  0.00     0.167 HD
BRANCH  87  89
ATOM     89  N   UNL A   1      30.412  24.793  23.824  1.00  0.00    -0.275 N 
ATOM     90  C   UNL A   1      30.713  25.933  23.133  1.00  0.00     0.265 C 
ATOM     91  H   UNL A   1      30.559  23.938  23.358  1.00  0.00     0.186 HD
ATOM     92  O   UNL A   1      31.357  25.809  22.081  1.00  0.00    -0.271 OA
BRANCH  90  93
ATOM     93  C   UNL A   1      30.213  27.312  23.581  1.00  0.00     0.244 C 
ATOM     94  C   UNL A   1      30.849  27.591  24.897  1.00  0.00     0.042 C 
ATOM     95  N   UNL A   1      30.744  28.423  22.744  1.00  0.00    -0.171 NA
ATOM     96  C   UNL A   1      31.675  28.615  24.684  1.00  0.00     0.091 C 
ATOM     97  N   UNL A   1      31.567  29.115  23.411  1.00  0.00    -0.155 NA
BRANCH  96  98
ATOM     98  C   UNL A   1      32.632  29.127  25.663  1.00  0.00     0.002 A 
ATOM     99  C   UNL A   1      33.809  28.426  25.948  1.00  0.00     0.010 A 
ATOM    100  C   UNL A   1      32.372  30.326  26.347  1.00  0.00     0.010 A 
ATOM    101  C   UNL A   1      34.723  28.928  26.877  1.00  0.00     0.001 A 
ATOM    102  C   UNL A   1      33.282  30.822  27.283  1.00  0.00     0.001 A 
ATOM    103  C   UNL A   1      34.460  30.126  27.542  1.00  0.00     0.000 A 
ENDBRANCH  96  98
ENDBRANCH  90  93
ENDBRANCH  87  89
ENDBRANCH  84  87
ENDBRANCH  80  84
ENDBRANCH  74  77
ENDBRANCH   1  73
TORSDOF 18
ENDMDL
MODEL 3
REMARK VINA RESULT:     -12.8      3.280      8.501
REMARK SMILES O=C(NCCCNC(=O)c1cc(S(=O)(=O)NNC(=O)[C@H]2C=C(c3ccccc3)N=N2)ccc1F)c1ccc(-c2c3nc(c(-c4cc(S(=O)(=O)[O-])ccc4F)c4ccc([nH]4)c(-c4cc(S(=O)(=O)[O-])ccc4F)c4nc(c(-c5cc(S(=O)(=O)[O-])ccc5F)c5ccc2[nH]5)C=C4)C=C3)cc1
REMARK SMILES IDX 6 1 5 2 4 3 3 4 1 5 2 6 35 8 36 9 97 10 37 11 96 12 38 13
REMARK SMILES IDX 39 14 40 15 90 16 41 17 95 18 89 19 91 20 42 21 94 22 88 23
REMARK SMILES IDX 87 24 43 26 75 27 55 28 74 29 56 30 59 31 73 32 92 33 57 34
REMARK SMILES IDX 58 35 72 37 93 38 60 39 44 40 45 41 53 42 46 43 52 44 54 45
REMARK SMILES IDX 51 46 47 47 48 48 49 49 50 50 76 51 77 52 85 53 78 54 84 55
REMARK SMILES IDX 86 56 83 57 79 58 80 59 81 60 82 61 61 62 62 63 70 64 63 65
REMARK SMILES IDX 69 66 71 67 68 68 64 69 65 70 66 71 67 72 7 73 8 74 9 76
REMARK SMILES IDX 10 77 11 78 33 79 12 80 32 81 34 82 31 83 13 84 14 85 15 86
REMARK SMILES IDX 16 87 17 89 18 90 19 92 20 93 21 94 30 95 22 96 29 97 23 98
REMARK SMILES IDX 24 99 28 100 25 101 27 102 26 103
REMARK H PARENT 3 7 91 25 59 36 7 75 16 88 17 91
REMARK Flexibility Score: inf
ROOT
ATOM      1  C   UNL A   1      35.055  23.928  26.204  1.00  0.00     0.118 C 
ENDROOT
BRANCH   1   2
ATOM      2  C   UNL A   1      36.179  22.945  26.501  1.00  0.00     0.042 C 
BRANCH   2   3
ATOM      3  C   UNL A   1      37.402  23.083  25.597  1.00  0.00     0.118 C 
BRANCH   3   4
ATOM      4  N   UNL A   1      38.610  22.437  26.077  1.00  0.00    -0.352 N 
ATOM      5  O   UNL A   1      40.468  21.922  27.154  1.00  0.00    -0.269 OA
ATOM      6  C   UNL A   1      39.655  22.810  26.879  1.00  0.00     0.251 C 
ATOM      7  H   UNL A   1      38.698  21.513  25.749  1.00  0.00     0.163 HD
BRANCH   6   8
ATOM      8  C   UNL A   1      39.895  24.188  27.389  1.00  0.00     0.039 A 
ATOM      9  C   UNL A   1      39.045  25.279  27.203  1.00  0.00     0.014 A 
ATOM     10  C   UNL A   1      41.073  24.378  28.136  1.00  0.00     0.014 A 
ATOM     11  C   UNL A   1      39.392  26.541  27.686  1.00  0.00     0.010 A 
ATOM     12  C   UNL A   1      41.405  25.628  28.654  1.00  0.00     0.010 A 
ATOM     13  C   UNL A   1      40.570  26.718  28.415  1.00  0.00    -0.014 A 
BRANCH  13  14
ATOM     14  C   UNL A   1      40.777  28.007  29.083  1.00  0.00     0.031 A 
ATOM     15  C   UNL A   1      41.897  28.840  28.547  1.00  0.00     0.074 A 
ATOM     16  C   UNL A   1      39.915  28.555  29.964  1.00  0.00     0.049 A 
ATOM     17  N   UNL A   1      42.875  29.397  29.185  1.00  0.00    -0.248 NA
ATOM     18  C   UNL A   1      41.947  29.038  27.087  1.00  0.00     0.031 C 
ATOM     19  C   UNL A   1      38.605  28.035  30.356  1.00  0.00     0.029 A 
ATOM     20  N   UNL A   1      39.977  29.767  30.595  1.00  0.00    -0.354 N 
ATOM     21  C   UNL A   1      43.541  30.186  28.249  1.00  0.00     0.074 A 
ATOM     22  C   UNL A   1      43.009  29.833  26.959  1.00  0.00     0.031 C 
ATOM     23  C   UNL A   1      37.911  29.015  30.974  1.00  0.00     0.029 A 
ATOM     24  C   UNL A   1      38.758  30.191  31.113  1.00  0.00     0.049 A 
ATOM     25  H   UNL A   1      40.807  30.291  30.676  1.00  0.00     0.167 HD
ATOM     26  C   UNL A   1      44.340  31.230  28.601  1.00  0.00     0.034 A 
ATOM     27  C   UNL A   1      38.438  31.437  31.547  1.00  0.00     0.034 A 
ATOM     28  C   UNL A   1      44.834  31.119  29.946  1.00  0.00     0.049 A 
ATOM     29  C   UNL A   1      39.707  32.127  31.887  1.00  0.00     0.074 A 
ATOM     30  C   UNL A   1      45.527  30.150  30.647  1.00  0.00     0.029 A 
ATOM     31  N   UNL A   1      44.360  31.987  30.899  1.00  0.00    -0.354 N 
ATOM     32  N   UNL A   1      40.508  31.769  32.855  1.00  0.00    -0.248 NA
ATOM     33  C   UNL A   1      40.279  33.044  30.914  1.00  0.00     0.031 C 
ATOM     34  C   UNL A   1      45.007  30.206  31.972  1.00  0.00     0.029 A 
ATOM     35  C   UNL A   1      44.053  31.226  32.000  1.00  0.00     0.049 A 
ATOM     36  H   UNL A   1      44.260  32.962  30.811  1.00  0.00     0.167 HD
ATOM     37  C   UNL A   1      41.777  32.099  32.410  1.00  0.00     0.074 A 
ATOM     38  C   UNL A   1      41.563  32.980  31.269  1.00  0.00     0.031 C 
ATOM     39  C   UNL A   1      42.882  31.419  32.832  1.00  0.00     0.034 A 
BRANCH  26  40
ATOM     40  C   UNL A   1      44.425  32.508  27.802  1.00  0.00     0.023 A 
ATOM     41  C   UNL A   1      43.708  33.638  28.235  1.00  0.00     0.031 A 
ATOM     42  C   UNL A   1      44.964  32.577  26.495  1.00  0.00     0.131 A 
ATOM     43  C   UNL A   1      43.528  34.744  27.383  1.00  0.00     0.055 A 
ATOM     44  C   UNL A   1      44.845  33.706  25.681  1.00  0.00     0.041 A 
ATOM     45  F   UNL A   1      45.544  31.522  25.907  1.00  0.00    -0.206 F 
ATOM     46  C   UNL A   1      44.107  34.792  26.116  1.00  0.00     0.022 A 
BRANCH  43  47
ATOM     47  S   UNL A   1      42.388  36.058  27.891  1.00  0.00     0.124 S 
ATOM     48  O   UNL A   1      43.112  36.663  29.004  1.00  0.00    -0.237 OA
ATOM     49  O   UNL A   1      42.287  36.861  26.677  1.00  0.00    -0.237 OA
ATOM     50  O   UNL A   1      41.173  35.333  28.258  1.00  0.00    -0.744 OA
ENDBRANCH  43  47
ENDBRANCH  26  40
BRANCH  27  51
ATOM     51  C   UNL A   1      37.126  32.142  31.451  1.00  0.00     0.023 A 
ATOM     52  C   UNL A   1      36.538  32.442  30.203  1.00  0.00     0.031 A 
ATOM     53  C   UNL A   1      36.306  32.332  32.588  1.00  0.00     0.131 A 
ATOM     54  C   UNL A   1      35.205  32.904  30.130  1.00  0.00     0.055 A 
ATOM     55  C   UNL A   1      34.998  32.816  32.512  1.00  0.00     0.041 A 
ATOM     56  F   UNL A   1      36.709  31.968  33.813  1.00  0.00    -0.206 F 
ATOM     57  C   UNL A   1      34.436  33.094  31.278  1.00  0.00     0.022 A 
BRANCH  54  58
ATOM     58  S   UNL A   1      34.389  33.122  28.516  1.00  0.00     0.124 S 
ATOM     59  O   UNL A   1      33.397  34.149  28.815  1.00  0.00    -0.237 OA
ATOM     60  O   UNL A   1      35.492  33.519  27.648  1.00  0.00    -0.237 OA
ATOM     61  O   UNL A   1      33.841  31.794  28.238  1.00  0.00    -0.744 OA
ENDBRANCH  54  58
ENDBRANCH  27  51
BRANCH  39  62
ATOM     62  C   UNL A   1      42.810  30.593  34.092  1.00  0.00     0.023 A 
ATOM     63  C   UNL A   1      42.271  29.292  34.171  1.00  0.00     0.031 A 
ATOM     64  C   UNL A   1      43.481  31.099  35.221  1.00  0.00     0.131 A 
ATOM     65  C   UNL A   1      42.413  28.547  35.359  1.00  0.00     0.055 A 
ATOM     66  C   UNL A   1      43.634  30.352  36.387  1.00  0.00     0.041 A 
ATOM     67  F   UNL A   1      44.048  32.317  35.186  1.00  0.00    -0.206 F 
ATOM     68  C   UNL A   1      43.100  29.072  36.461  1.00  0.00     0.022 A 
BRANCH  65  69
ATOM     69  S   UNL A   1      41.756  26.851  35.468  1.00  0.00     0.124 S 
ATOM     70  O   UNL A   1      40.804  26.793  34.365  1.00  0.00    -0.237 OA
ATOM     71  O   UNL A   1      42.953  26.026  35.330  1.00  0.00    -0.237 OA
ATOM     72  O   UNL A   1      41.146  26.803  36.799  1.00  0.00    -0.744 OA
ENDBRANCH  65  69
ENDBRANCH  39  62
ENDBRANCH  13  14
ENDBRANCH   6   8
ENDBRANCH   3   4
ENDBRANCH   2   3
ENDBRANCH   1   2
BRANCH   1  73
ATOM     73  N   UNL A   1      33.813  23.598  26.889  1.00  0.00    -0.352 N 
ATOM     74  C   UNL A   1      32.562  24.142  26.748  1.00  0.00     0.254 C 
ATOM     75  H   UNL A   1      33.882  22.876  27.554  1.00  0.00     0.163 HD
ATOM     76  O   UNL A   1      31.645  23.786  27.483  1.00  0.00    -0.269 OA
BRANCH  74  77
ATOM     77  C   UNL A   1      32.320  25.209  25.763  1.00  0.00     0.076 A 
ATOM     78  C   UNL A   1      32.612  24.954  24.422  1.00  0.00     0.038 A 
ATOM     79  C   UNL A   1      31.850  26.464  26.141  1.00  0.00     0.136 A 
ATOM     80  C   UNL A   1      32.338  25.934  23.459  1.00  0.00     0.085 A 
ATOM     81  C   UNL A   1      31.533  27.421  25.180  1.00  0.00     0.041 A 
ATOM     82  F   UNL A   1      31.678  26.774  27.435  1.00  0.00    -0.206 F 
ATOM     83  C   UNL A   1      31.751  27.149  23.828  1.00  0.00     0.025 A 
BRANCH  80  84
ATOM     84  S   UNL A   1      32.901  25.607  21.810  1.00  0.00     0.257 S 
ATOM     85  O   UNL A   1      31.706  25.447  20.996  1.00  0.00    -0.205 OA
ATOM     86  O   UNL A   1      33.916  26.574  21.497  1.00  0.00    -0.205 OA
BRANCH  84  87
ATOM     87  N   UNL A   1      33.658  24.088  21.865  1.00  0.00    -0.123 NA
ATOM     88  H   UNL A   1      33.926  23.926  22.836  1.00  0.00     0.167 HD
BRANCH  87  89
ATOM     89  N   UNL A   1      32.937  22.920  21.428  1.00  0.00    -0.275 N 
ATOM     90  C   UNL A   1      32.365  21.974  22.234  1.00  0.00     0.265 C 
ATOM     91  H   UNL A   1      32.848  22.789  20.457  1.00  0.00     0.186 HD
ATOM     92  O   UNL A   1      31.591  21.165  21.703  1.00  0.00    -0.271 OA
BRANCH  90  93
ATOM     93  C   UNL A   1      32.717  21.853  23.722  1.00  0.00     0.244 C 
ATOM     94  C   UNL A   1      32.313  20.485  24.147  1.00  0.00     0.042 C 
ATOM     95  N   UNL A   1      34.184  21.831  23.972  1.00  0.00    -0.171 NA
ATOM     96  C   UNL A   1      33.450  19.852  24.434  1.00  0.00     0.091 C 
ATOM     97  N   UNL A   1      34.541  20.680  24.360  1.00  0.00    -0.155 NA
BRANCH  96  98
ATOM     98  C   UNL A   1      33.550  18.427  24.743  1.00  0.00     0.002 A 
ATOM     99  C   UNL A   1      32.526  17.771  25.437  1.00  0.00     0.010 A 
ATOM    100  C   UNL A   1      34.688  17.698  24.362  1.00  0.00     0.010 A 
ATOM    101  C   UNL A   1      32.625  16.406  25.718  1.00  0.00     0.001 A 
ATOM    102  C   UNL A   1      34.791  16.335  24.654  1.00  0.00     0.001 A 
ATOM    103  C   UNL A   1      33.755  15.689  25.325  1.00  0.00     0.000 A 
ENDBRANCH  96  98
ENDBRANCH  90  93
ENDBRANCH  87  89
ENDBRANCH  84  87
ENDBRANCH  80  84
ENDBRANCH  74  77
ENDBRANCH   1  73
TORSDOF 18
ENDMDL
