MODEL 1
REMARK VINA RESULT:     -11.9      0.000      0.000
REMARK SMILES Cc1cc(NCC(=O)NCCCNC(=O)c2ccc(-c3c4nc(c(-c5cc(S(=O)(=O)[O-])ccc5F)c5ccc([nH]5)c(-c5cc(S(=O)(=O)[O-])ccc5F)c5nc(c(-c6cc(S(=O)(=O)[O-])ccc6F)c6ccc3[nH]6)C=C5)C=C4)cc2)c2cc(S(=O)(=O)N(C)C)ccc2n1
REMARK SMILES IDX 10 1 9 2 7 3 8 4 6 6 5 7 4 9 1 10 2 11 3 12 91 13 90 14
REMARK SMILES IDX 79 15 89 16 80 17 88 18 81 19 82 20 83 21 84 22 85 23 86 24
REMARK SMILES IDX 87 25 11 26 12 27 13 28 14 29 15 31 16 32 17 33 78 34 18 35
REMARK SMILES IDX 77 36 19 37 20 38 21 39 71 40 22 41 76 42 70 43 72 44 23 45
REMARK SMILES IDX 75 46 69 47 68 48 24 50 56 51 36 52 55 53 37 54 40 55 54 56
REMARK SMILES IDX 73 57 38 58 39 59 53 61 74 62 41 63 25 64 26 65 34 66 27 67
REMARK SMILES IDX 33 68 35 69 32 70 28 71 29 72 30 73 31 74 57 75 58 76 66 77
REMARK SMILES IDX 59 78 65 79 67 80 64 81 60 82 61 83 62 84 63 85 42 86 43 87
REMARK SMILES IDX 51 88 44 89 50 90 52 91 49 92 45 93 46 94 47 95 48 96
REMARK H PARENT 9 5 5 8 13 30 72 49 40 60
REMARK Flexibility Score: inf
ROOT
ATOM      1  C   UNL A   1      33.059  27.002  26.237  1.00  0.00     0.117 C 
ENDROOT
BRANCH   1   2
ATOM      2  N   UNL A   1      32.179  26.046  26.876  1.00  0.00    -0.355 N 
ATOM      3  C   UNL A   1      31.773  24.811  26.464  1.00  0.00     0.239 C 
ATOM      4  O   UNL A   1      31.042  24.175  27.232  1.00  0.00    -0.273 OA
ATOM      5  H   UNL A   1      31.814  26.334  27.744  1.00  0.00     0.163 HD
BRANCH   3   6
ATOM      6  C   UNL A   1      32.240  24.178  25.141  1.00  0.00     0.213 C 
BRANCH   6   7
ATOM      7  N   UNL A   1      32.853  22.866  25.298  1.00  0.00    -0.376 N 
ATOM      8  H   UNL A   1      32.198  22.148  25.457  1.00  0.00     0.161 HD
BRANCH   7   9
ATOM      9  C   UNL A   1      34.163  22.413  25.269  1.00  0.00     0.046 A 
ATOM     10  C   UNL A   1      37.479  24.110  26.060  1.00  0.00     0.067 C 
ATOM     11  C   UNL A   1      36.469  23.077  25.655  1.00  0.00     0.040 A 
ATOM     12  C   UNL A   1      35.121  23.391  25.593  1.00  0.00     0.049 A 
ATOM     13  N   UNL A   1      36.926  21.837  25.407  1.00  0.00    -0.253 NA
ATOM     14  C   UNL A   1      36.048  20.876  25.103  1.00  0.00     0.073 A 
ATOM     15  C   UNL A   1      34.648  21.092  25.012  1.00  0.00     0.025 A 
ATOM     16  C   UNL A   1      36.574  19.601  24.902  1.00  0.00     0.030 A 
ATOM     17  C   UNL A   1      33.862  19.944  24.730  1.00  0.00     0.034 A 
ATOM     18  C   UNL A   1      35.776  18.489  24.619  1.00  0.00     0.024 A 
ATOM     19  C   UNL A   1      34.408  18.667  24.554  1.00  0.00     0.083 A 
BRANCH  19  20
ATOM     20  S   UNL A   1      33.260  17.345  24.270  1.00  0.00     0.242 S 
ATOM     21  O   UNL A   1      31.936  17.861  24.575  1.00  0.00    -0.207 OA
ATOM     22  O   UNL A   1      33.571  16.820  22.962  1.00  0.00    -0.207 OA
BRANCH  20  23
ATOM     23  N   UNL A   1      33.593  16.127  25.427  1.00  0.00    -0.204 NA
ATOM     24  C   UNL A   1      32.626  15.000  25.459  1.00  0.00     0.124 C 
ATOM     25  C   UNL A   1      34.980  15.611  25.290  1.00  0.00     0.124 C 
ENDBRANCH  20  23
ENDBRANCH  19  20
ENDBRANCH   7   9
ENDBRANCH   6   7
ENDBRANCH   3   6
ENDBRANCH   1   2
BRANCH   1  26
ATOM     26  C   UNL A   1      32.768  28.444  26.638  1.00  0.00     0.042 C 
BRANCH  26  27
ATOM     27  C   UNL A   1      33.868  29.421  26.236  1.00  0.00     0.118 C 
BRANCH  27  28
ATOM     28  N   UNL A   1      33.754  30.702  26.918  1.00  0.00    -0.352 N 
ATOM     29  C   UNL A   1      34.503  31.232  27.939  1.00  0.00     0.251 C 
ATOM     30  H   UNL A   1      33.023  31.279  26.598  1.00  0.00     0.163 HD
ATOM     31  O   UNL A   1      34.120  32.264  28.484  1.00  0.00    -0.269 OA
BRANCH  29  32
ATOM     32  C   UNL A   1      35.744  30.565  28.398  1.00  0.00     0.039 A 
ATOM     33  C   UNL A   1      36.924  30.781  27.680  1.00  0.00     0.014 A 
ATOM     34  C   UNL A   1      35.750  29.708  29.502  1.00  0.00     0.014 A 
ATOM     35  C   UNL A   1      38.118  30.188  28.103  1.00  0.00     0.010 A 
ATOM     36  C   UNL A   1      36.952  29.171  29.960  1.00  0.00     0.010 A 
ATOM     37  C   UNL A   1      38.149  29.405  29.266  1.00  0.00    -0.014 A 
BRANCH  37  38
ATOM     38  C   UNL A   1      39.422  28.827  29.775  1.00  0.00     0.031 A 
ATOM     39  C   UNL A   1      40.157  29.494  30.907  1.00  0.00     0.074 A 
ATOM     40  C   UNL A   1      39.951  27.745  29.168  1.00  0.00     0.049 A 
ATOM     41  N   UNL A   1      41.322  29.201  31.424  1.00  0.00    -0.248 NA
ATOM     42  C   UNL A   1      39.507  30.664  31.521  1.00  0.00     0.031 C 
ATOM     43  C   UNL A   1      39.352  27.033  28.036  1.00  0.00     0.029 A 
ATOM     44  N   UNL A   1      41.119  27.061  29.404  1.00  0.00    -0.354 N 
ATOM     45  C   UNL A   1      41.560  30.162  32.402  1.00  0.00     0.074 A 
ATOM     46  C   UNL A   1      40.431  31.068  32.381  1.00  0.00     0.031 C 
ATOM     47  C   UNL A   1      40.148  26.011  27.685  1.00  0.00     0.029 A 
ATOM     48  C   UNL A   1      41.337  26.019  28.532  1.00  0.00     0.049 A 
ATOM     49  H   UNL A   1      41.742  27.296  30.128  1.00  0.00     0.167 HD
ATOM     50  C   UNL A   1      42.617  30.268  33.245  1.00  0.00     0.034 A 
ATOM     51  C   UNL A   1      42.384  25.176  28.416  1.00  0.00     0.034 A 
ATOM     52  C   UNL A   1      43.715  29.335  33.279  1.00  0.00     0.049 A 
ATOM     53  C   UNL A   1      43.542  25.317  29.373  1.00  0.00     0.074 A 
ATOM     54  C   UNL A   1      44.786  29.301  34.156  1.00  0.00     0.029 A 
ATOM     55  N   UNL A   1      43.889  28.276  32.400  1.00  0.00    -0.354 N 
ATOM     56  N   UNL A   1      43.713  26.190  30.340  1.00  0.00    -0.248 NA
ATOM     57  C   UNL A   1      44.641  24.353  29.233  1.00  0.00     0.031 C 
ATOM     58  C   UNL A   1      45.640  28.265  33.767  1.00  0.00     0.029 A 
ATOM     59  C   UNL A   1      45.067  27.605  32.692  1.00  0.00     0.049 A 
ATOM     60  H   UNL A   1      43.269  28.037  31.675  1.00  0.00     0.167 HD
ATOM     61  C   UNL A   1      44.921  25.853  30.944  1.00  0.00     0.074 A 
ATOM     62  C   UNL A   1      45.427  24.691  30.244  1.00  0.00     0.031 C 
ATOM     63  C   UNL A   1      45.556  26.446  31.986  1.00  0.00     0.034 A 
BRANCH  50  64
ATOM     64  C   UNL A   1      42.654  31.450  34.181  1.00  0.00     0.023 A 
ATOM     65  C   UNL A   1      42.013  31.430  35.431  1.00  0.00     0.031 A 
ATOM     66  C   UNL A   1      43.363  32.611  33.823  1.00  0.00     0.131 A 
ATOM     67  C   UNL A   1      42.052  32.564  36.256  1.00  0.00     0.055 A 
ATOM     68  C   UNL A   1      43.456  33.711  34.676  1.00  0.00     0.041 A 
ATOM     69  F   UNL A   1      43.979  32.693  32.632  1.00  0.00    -0.206 F 
ATOM     70  C   UNL A   1      42.790  33.696  35.898  1.00  0.00     0.022 A 
BRANCH  67  71
ATOM     71  S   UNL A   1      41.046  32.577  37.765  1.00  0.00     0.124 S 
ATOM     72  O   UNL A   1      39.848  31.867  37.325  1.00  0.00    -0.237 OA
ATOM     73  O   UNL A   1      41.894  31.871  38.718  1.00  0.00    -0.237 OA
ATOM     74  O   UNL A   1      40.856  34.001  38.036  1.00  0.00    -0.744 OA
ENDBRANCH  67  71
ENDBRANCH  50  64
BRANCH  51  75
ATOM     75  C   UNL A   1      42.413  24.135  27.347  1.00  0.00     0.023 A 
ATOM     76  C   UNL A   1      41.778  22.896  27.529  1.00  0.00     0.031 A 
ATOM     77  C   UNL A   1      43.143  24.332  26.161  1.00  0.00     0.131 A 
ATOM     78  C   UNL A   1      41.940  21.879  26.576  1.00  0.00     0.055 A 
ATOM     79  C   UNL A   1      43.251  23.338  25.187  1.00  0.00     0.041 A 
ATOM     80  F   UNL A   1      43.766  25.499  25.932  1.00  0.00    -0.206 F 
ATOM     81  C   UNL A   1      42.663  22.095  25.401  1.00  0.00     0.022 A 
BRANCH  78  82
ATOM     82  S   UNL A   1      41.297  20.225  26.956  1.00  0.00     0.124 S 
ATOM     83  O   UNL A   1      40.906  20.371  28.353  1.00  0.00    -0.237 OA
ATOM     84  O   UNL A   1      40.208  20.099  25.993  1.00  0.00    -0.237 OA
ATOM     85  O   UNL A   1      42.445  19.353  26.716  1.00  0.00    -0.744 OA
ENDBRANCH  78  82
ENDBRANCH  51  75
BRANCH  63  86
ATOM     86  C   UNL A   1      46.836  25.808  32.462  1.00  0.00     0.023 A 
ATOM     87  C   UNL A   1      46.851  24.855  33.494  1.00  0.00     0.031 A 
ATOM     88  C   UNL A   1      48.064  26.172  31.879  1.00  0.00     0.131 A 
ATOM     89  C   UNL A   1      48.073  24.339  33.952  1.00  0.00     0.055 A 
ATOM     90  C   UNL A   1      49.271  25.613  32.297  1.00  0.00     0.041 A 
ATOM     91  F   UNL A   1      48.107  27.079  30.889  1.00  0.00    -0.206 F 
ATOM     92  C   UNL A   1      49.281  24.700  33.350  1.00  0.00     0.022 A 
BRANCH  89  93
ATOM     93  S   UNL A   1      48.071  23.253  35.405  1.00  0.00     0.124 S 
ATOM     94  O   UNL A   1      48.042  21.928  34.794  1.00  0.00    -0.237 OA
ATOM     95  O   UNL A   1      49.315  23.622  36.070  1.00  0.00    -0.237 OA
ATOM     96  O   UNL A   1      46.852  23.634  36.116  1.00  0.00    -0.744 OA
ENDBRANCH  89  93
ENDBRANCH  63  86
ENDBRANCH  37  38
ENDBRANCH  29  32
ENDBRANCH  27  28
ENDBRANCH  26  27
ENDBRANCH   1  26
TORSDOF 17
ENDMDL
MODEL 2
REMARK VINA RESULT:     -11.7      3.574      8.797
REMARK SMILES Cc1cc(NCC(=O)NCCCNC(=O)c2ccc(-c3c4nc(c(-c5cc(S(=O)(=O)[O-])ccc5F)c5ccc([nH]5)c(-c5cc(S(=O)(=O)[O-])ccc5F)c5nc(c(-c6cc(S(=O)(=O)[O-])ccc6F)c6ccc3[nH]6)C=C5)C=C4)cc2)c2cc(S(=O)(=O)N(C)C)ccc2n1
REMARK SMILES IDX 10 1 9 2 7 3 8 4 6 6 5 7 4 9 1 10 2 11 3 12 91 13 90 14
REMARK SMILES IDX 79 15 89 16 80 17 88 18 81 19 82 20 83 21 84 22 85 23 86 24
REMARK SMILES IDX 87 25 11 26 12 27 13 28 14 29 15 31 16 32 17 33 78 34 18 35
REMARK SMILES IDX 77 36 19 37 20 38 21 39 71 40 22 41 76 42 70 43 72 44 23 45
REMARK SMILES IDX 75 46 69 47 68 48 24 50 56 51 36 52 55 53 37 54 40 55 54 56
REMARK SMILES IDX 73 57 38 58 39 59 53 61 74 62 41 63 25 64 26 65 34 66 27 67
REMARK SMILES IDX 33 68 35 69 32 70 28 71 29 72 30 73 31 74 57 75 58 76 66 77
REMARK SMILES IDX 59 78 65 79 67 80 64 81 60 82 61 83 62 84 63 85 42 86 43 87
REMARK SMILES IDX 51 88 44 89 50 90 52 91 49 92 45 93 46 94 47 95 48 96
REMARK H PARENT 9 5 5 8 13 30 72 49 40 60
REMARK Flexibility Score: inf
ROOT
ATOM      1  C   UNL A   1      31.533  30.989  26.447  1.00  0.00     0.117 C 
ENDROOT
BRANCH   1   2
ATOM      2  N   UNL A   1      32.877  30.456  26.385  1.00  0.00    -0.355 N 
ATOM      3  C   UNL A   1      33.346  29.212  26.688  1.00  0.00     0.239 C 
ATOM      4  O   UNL A   1      34.550  29.004  26.503  1.00  0.00    -0.273 OA
ATOM      5  H   UNL A   1      33.562  31.093  26.077  1.00  0.00     0.163 HD
BRANCH   3   6
ATOM      6  C   UNL A   1      32.433  28.073  27.177  1.00  0.00     0.213 C 
BRANCH   6   7
ATOM      7  N   UNL A   1      32.687  26.793  26.530  1.00  0.00    -0.376 N 
ATOM      8  H   UNL A   1      33.467  26.320  26.899  1.00  0.00     0.161 HD
BRANCH   7   9
ATOM      9  C   UNL A   1      32.062  26.099  25.504  1.00  0.00     0.046 A 
ATOM     10  C   UNL A   1      28.639  26.461  23.879  1.00  0.00     0.067 C 
ATOM     11  C   UNL A   1      30.015  25.961  24.202  1.00  0.00     0.040 A 
ATOM     12  C   UNL A   1      30.750  26.525  25.232  1.00  0.00     0.049 A 
ATOM     13  N   UNL A   1      30.512  24.985  23.422  1.00  0.00    -0.253 NA
ATOM     14  C   UNL A   1      31.758  24.556  23.642  1.00  0.00     0.073 A 
ATOM     15  C   UNL A   1      32.594  25.066  24.670  1.00  0.00     0.025 A 
ATOM     16  C   UNL A   1      32.236  23.577  22.773  1.00  0.00     0.030 A 
ATOM     17  C   UNL A   1      33.907  24.530  24.723  1.00  0.00     0.034 A 
ATOM     18  C   UNL A   1      33.533  23.062  22.852  1.00  0.00     0.024 A 
ATOM     19  C   UNL A   1      34.375  23.562  23.825  1.00  0.00     0.083 A 
BRANCH  19  20
ATOM     20  S   UNL A   1      36.066  23.059  24.012  1.00  0.00     0.242 S 
ATOM     21  O   UNL A   1      36.629  22.962  22.675  1.00  0.00    -0.207 OA
ATOM     22  O   UNL A   1      36.639  23.944  24.998  1.00  0.00    -0.207 OA
BRANCH  20  23
ATOM     23  N   UNL A   1      36.056  21.474  24.659  1.00  0.00    -0.204 NA
ATOM     24  C   UNL A   1      37.390  20.835  24.796  1.00  0.00     0.124 C 
ATOM     25  C   UNL A   1      35.323  21.419  25.951  1.00  0.00     0.124 C 
ENDBRANCH  20  23
ENDBRANCH  19  20
ENDBRANCH   7   9
ENDBRANCH   6   7
ENDBRANCH   3   6
ENDBRANCH   1   2
BRANCH   1  26
ATOM     26  C   UNL A   1      31.495  32.488  26.726  1.00  0.00     0.042 C 
BRANCH  26  27
ATOM     27  C   UNL A   1      32.836  33.055  27.181  1.00  0.00     0.118 C 
BRANCH  27  28
ATOM     28  N   UNL A   1      32.704  34.358  27.816  1.00  0.00    -0.352 N 
ATOM     29  C   UNL A   1      33.356  34.884  28.904  1.00  0.00     0.251 C 
ATOM     30  H   UNL A   1      32.042  34.957  27.402  1.00  0.00     0.163 HD
ATOM     31  O   UNL A   1      32.961  35.946  29.378  1.00  0.00    -0.269 OA
BRANCH  29  32
ATOM     32  C   UNL A   1      34.505  34.178  29.518  1.00  0.00     0.039 A 
ATOM     33  C   UNL A   1      35.790  34.451  29.042  1.00  0.00     0.014 A 
ATOM     34  C   UNL A   1      34.327  33.230  30.530  1.00  0.00     0.014 A 
ATOM     35  C   UNL A   1      36.898  33.822  29.617  1.00  0.00     0.010 A 
ATOM     36  C   UNL A   1      35.436  32.652  31.147  1.00  0.00     0.010 A 
ATOM     37  C   UNL A   1      36.733  32.942  30.698  1.00  0.00    -0.014 A 
BRANCH  37  38
ATOM     38  C   UNL A   1      37.903  32.319  31.374  1.00  0.00     0.031 A 
ATOM     39  C   UNL A   1      38.663  31.207  30.700  1.00  0.00     0.074 A 
ATOM     40  C   UNL A   1      38.234  32.706  32.622  1.00  0.00     0.049 A 
ATOM     41  N   UNL A   1      39.644  30.476  31.163  1.00  0.00    -0.248 NA
ATOM     42  C   UNL A   1      38.245  30.852  29.334  1.00  0.00     0.031 C 
ATOM     43  C   UNL A   1      37.549  33.746  33.395  1.00  0.00     0.029 A 
ATOM     44  N   UNL A   1      39.217  32.261  33.472  1.00  0.00    -0.354 N 
ATOM     45  C   UNL A   1      39.942  29.558  30.161  1.00  0.00     0.074 A 
ATOM     46  C   UNL A   1      39.013  29.803  29.078  1.00  0.00     0.031 C 
ATOM     47  C   UNL A   1      38.139  33.866  34.595  1.00  0.00     0.029 A 
ATOM     48  C   UNL A   1      39.212  32.883  34.700  1.00  0.00     0.049 A 
ATOM     49  H   UNL A   1      39.865  31.562  33.226  1.00  0.00     0.167 HD
ATOM     50  C   UNL A   1      40.910  28.608  30.145  1.00  0.00     0.034 A 
ATOM     51  C   UNL A   1      39.973  32.671  35.794  1.00  0.00     0.034 A 
ATOM     52  C   UNL A   1      41.852  28.402  31.216  1.00  0.00     0.049 A 
ATOM     53  C   UNL A   1      41.045  31.611  35.742  1.00  0.00     0.074 A 
ATOM     54  C   UNL A   1      42.927  27.530  31.259  1.00  0.00     0.029 A 
ATOM     55  N   UNL A   1      41.833  29.067  32.433  1.00  0.00    -0.354 N 
ATOM     56  N   UNL A   1      41.358  30.801  34.756  1.00  0.00    -0.248 NA
ATOM     57  C   UNL A   1      41.873  31.444  36.943  1.00  0.00     0.031 C 
ATOM     58  C   UNL A   1      43.517  27.621  32.523  1.00  0.00     0.029 A 
ATOM     59  C   UNL A   1      42.856  28.601  33.245  1.00  0.00     0.049 A 
ATOM     60  H   UNL A   1      41.189  29.767  32.684  1.00  0.00     0.167 HD
ATOM     61  C   UNL A   1      42.445  30.058  35.209  1.00  0.00     0.074 A 
ATOM     62  C   UNL A   1      42.740  30.525  36.547  1.00  0.00     0.031 C 
ATOM     63  C   UNL A   1      43.140  29.079  34.576  1.00  0.00     0.034 A 
BRANCH  50  64
ATOM     64  C   UNL A   1      40.983  27.698  28.944  1.00  0.00     0.023 A 
ATOM     65  C   UNL A   1      41.980  27.837  27.965  1.00  0.00     0.031 A 
ATOM     66  C   UNL A   1      40.047  26.658  28.791  1.00  0.00     0.131 A 
ATOM     67  C   UNL A   1      41.990  26.983  26.851  1.00  0.00     0.055 A 
ATOM     68  C   UNL A   1      40.103  25.770  27.716  1.00  0.00     0.041 A 
ATOM     69  F   UNL A   1      39.061  26.491  29.687  1.00  0.00    -0.206 F 
ATOM     70  C   UNL A   1      41.073  25.936  26.732  1.00  0.00     0.022 A 
BRANCH  67  71
ATOM     71  S   UNL A   1      43.160  27.320  25.508  1.00  0.00     0.124 S 
ATOM     72  O   UNL A   1      42.346  28.128  24.603  1.00  0.00    -0.237 OA
ATOM     73  O   UNL A   1      44.238  28.023  26.195  1.00  0.00    -0.237 OA
ATOM     74  O   UNL A   1      43.502  25.989  25.009  1.00  0.00    -0.744 OA
ENDBRANCH  67  71
ENDBRANCH  50  64
BRANCH  51  75
ATOM     75  C   UNL A   1      39.749  33.455  37.045  1.00  0.00     0.023 A 
ATOM     76  C   UNL A   1      39.070  32.892  38.137  1.00  0.00     0.031 A 
ATOM     77  C   UNL A   1      40.138  34.803  37.137  1.00  0.00     0.131 A 
ATOM     78  C   UNL A   1      38.742  33.688  39.245  1.00  0.00     0.055 A 
ATOM     79  C   UNL A   1      39.863  35.576  38.266  1.00  0.00     0.041 A 
ATOM     80  F   UNL A   1      40.795  35.392  36.124  1.00  0.00    -0.206 F 
ATOM     81  C   UNL A   1      39.143  35.024  39.321  1.00  0.00     0.022 A 
BRANCH  78  82
ATOM     82  S   UNL A   1      37.669  32.987  40.529  1.00  0.00     0.124 S 
ATOM     83  O   UNL A   1      37.694  34.034  41.543  1.00  0.00    -0.237 OA
ATOM     84  O   UNL A   1      36.411  32.819  39.809  1.00  0.00    -0.237 OA
ATOM     85  O   UNL A   1      38.347  31.745  40.895  1.00  0.00    -0.744 OA
ENDBRANCH  78  82
ENDBRANCH  51  75
BRANCH  63  86
ATOM     86  C   UNL A   1      44.321  28.494  35.309  1.00  0.00     0.023 A 
ATOM     87  C   UNL A   1      44.172  27.455  36.244  1.00  0.00     0.031 A 
ATOM     88  C   UNL A   1      45.613  28.997  35.077  1.00  0.00     0.131 A 
ATOM     89  C   UNL A   1      45.289  26.989  36.954  1.00  0.00     0.055 A 
ATOM     90  C   UNL A   1      46.729  28.490  35.742  1.00  0.00     0.041 A 
ATOM     91  F   UNL A   1      45.811  29.990  34.194  1.00  0.00    -0.206 F 
ATOM     92  C   UNL A   1      46.569  27.489  36.698  1.00  0.00     0.022 A 
BRANCH  89  93
ATOM     93  S   UNL A   1      45.035  25.780  38.281  1.00  0.00     0.124 S 
ATOM     94  O   UNL A   1      46.379  25.651  38.836  1.00  0.00    -0.237 OA
ATOM     95  O   UNL A   1      44.057  26.449  39.130  1.00  0.00    -0.237 OA
ATOM     96  O   UNL A   1      44.539  24.598  37.578  1.00  0.00    -0.744 OA
ENDBRANCH  89  93
ENDBRANCH  63  86
ENDBRANCH  37  38
ENDBRANCH  29  32
ENDBRANCH  27  28
ENDBRANCH  26  27
ENDBRANCH   1  26
TORSDOF 17
ENDMDL
MODEL 3
REMARK VINA RESULT:     -11.5      4.296      9.511
REMARK SMILES Cc1cc(NCC(=O)NCCCNC(=O)c2ccc(-c3c4nc(c(-c5cc(S(=O)(=O)[O-])ccc5F)c5ccc([nH]5)c(-c5cc(S(=O)(=O)[O-])ccc5F)c5nc(c(-c6cc(S(=O)(=O)[O-])ccc6F)c6ccc3[nH]6)C=C5)C=C4)cc2)c2cc(S(=O)(=O)N(C)C)ccc2n1
REMARK SMILES IDX 10 1 9 2 7 3 8 4 6 6 5 7 4 9 1 10 2 11 3 12 91 13 90 14
REMARK SMILES IDX 79 15 89 16 80 17 88 18 81 19 82 20 83 21 84 22 85 23 86 24
REMARK SMILES IDX 87 25 11 26 12 27 13 28 14 29 15 31 16 32 17 33 78 34 18 35
REMARK SMILES IDX 77 36 19 37 20 38 21 39 71 40 22 41 76 42 70 43 72 44 23 45
REMARK SMILES IDX 75 46 69 47 68 48 24 50 56 51 36 52 55 53 37 54 40 55 54 56
REMARK SMILES IDX 73 57 38 58 39 59 53 61 74 62 41 63 25 64 26 65 34 66 27 67
REMARK SMILES IDX 33 68 35 69 32 70 28 71 29 72 30 73 31 74 57 75 58 76 66 77
REMARK SMILES IDX 59 78 65 79 67 80 64 81 60 82 61 83 62 84 63 85 42 86 43 87
REMARK SMILES IDX 51 88 44 89 50 90 52 91 49 92 45 93 46 94 47 95 48 96
REMARK H PARENT 9 5 5 8 13 30 72 49 40 60
REMARK Flexibility Score: inf
ROOT
ATOM      1  C   UNL A   1      31.428  30.569  26.513  1.00  0.00     0.117 C 
ENDROOT
BRANCH   1   2
ATOM      2  N   UNL A   1      32.703  29.883  26.542  1.00  0.00    -0.355 N 
ATOM      3  C   UNL A   1      33.074  28.742  27.189  1.00  0.00     0.239 C 
ATOM      4  O   UNL A   1      34.230  28.344  27.007  1.00  0.00    -0.273 OA
ATOM      5  H   UNL A   1      33.415  30.309  26.011  1.00  0.00     0.163 HD
BRANCH   3   6
ATOM      6  C   UNL A   1      32.104  27.923  28.060  1.00  0.00     0.213 C 
BRANCH   6   7
ATOM      7  N   UNL A   1      31.271  26.996  27.305  1.00  0.00    -0.376 N 
ATOM      8  H   UNL A   1      30.355  26.921  27.658  1.00  0.00     0.161 HD
BRANCH   7   9
ATOM      9  C   UNL A   1      31.496  26.198  26.193  1.00  0.00     0.046 A 
ATOM     10  C   UNL A   1      32.527  22.552  25.820  1.00  0.00     0.067 C 
ATOM     11  C   UNL A   1      32.135  23.962  25.490  1.00  0.00     0.040 A 
ATOM     12  C   UNL A   1      31.918  24.891  26.494  1.00  0.00     0.049 A 
ATOM     13  N   UNL A   1      31.958  24.260  24.190  1.00  0.00    -0.253 NA
ATOM     14  C   UNL A   1      31.550  25.489  23.862  1.00  0.00     0.073 A 
ATOM     15  C   UNL A   1      31.301  26.515  24.812  1.00  0.00     0.025 A 
ATOM     16  C   UNL A   1      31.339  25.727  22.504  1.00  0.00     0.030 A 
ATOM     17  C   UNL A   1      30.822  27.742  24.285  1.00  0.00     0.034 A 
ATOM     18  C   UNL A   1      30.872  26.949  22.013  1.00  0.00     0.024 A 
ATOM     19  C   UNL A   1      30.595  27.954  22.920  1.00  0.00     0.083 A 
BRANCH  19  20
ATOM     20  S   UNL A   1      29.935  29.535  22.460  1.00  0.00     0.242 S 
ATOM     21  O   UNL A   1      29.837  30.323  23.677  1.00  0.00    -0.207 OA
ATOM     22  O   UNL A   1      30.727  29.988  21.342  1.00  0.00    -0.207 OA
BRANCH  20  23
ATOM     23  N   UNL A   1      28.334  29.276  21.910  1.00  0.00    -0.204 NA
ATOM     24  C   UNL A   1      27.354  28.901  22.960  1.00  0.00     0.124 C 
ATOM     25  C   UNL A   1      27.833  30.438  21.129  1.00  0.00     0.124 C 
ENDBRANCH  20  23
ENDBRANCH  19  20
ENDBRANCH   7   9
ENDBRANCH   6   7
ENDBRANCH   3   6
ENDBRANCH   1   2
BRANCH   1  26
ATOM     26  C   UNL A   1      31.565  32.087  26.495  1.00  0.00     0.042 C 
BRANCH  26  27
ATOM     27  C   UNL A   1      32.728  32.603  27.337  1.00  0.00     0.118 C 
BRANCH  27  28
ATOM     28  N   UNL A   1      32.579  34.006  27.695  1.00  0.00    -0.352 N 
ATOM     29  C   UNL A   1      33.243  34.757  28.633  1.00  0.00     0.251 C 
ATOM     30  H   UNL A   1      31.893  34.494  27.184  1.00  0.00     0.163 HD
ATOM     31  O   UNL A   1      32.833  35.886  28.890  1.00  0.00    -0.269 OA
BRANCH  29  32
ATOM     32  C   UNL A   1      34.421  34.213  29.348  1.00  0.00     0.039 A 
ATOM     33  C   UNL A   1      34.209  33.420  30.480  1.00  0.00     0.014 A 
ATOM     34  C   UNL A   1      35.726  34.503  28.938  1.00  0.00     0.014 A 
ATOM     35  C   UNL A   1      35.299  32.869  31.162  1.00  0.00     0.010 A 
ATOM     36  C   UNL A   1      36.808  33.901  29.579  1.00  0.00     0.010 A 
ATOM     37  C   UNL A   1      36.606  33.077  30.698  1.00  0.00    -0.014 A 
BRANCH  37  38
ATOM     38  C   UNL A   1      37.774  32.440  31.364  1.00  0.00     0.031 A 
ATOM     39  C   UNL A   1      38.504  31.308  30.691  1.00  0.00     0.074 A 
ATOM     40  C   UNL A   1      38.128  32.832  32.605  1.00  0.00     0.049 A 
ATOM     41  N   UNL A   1      39.477  30.564  31.149  1.00  0.00    -0.248 NA
ATOM     42  C   UNL A   1      38.061  30.947  29.335  1.00  0.00     0.031 C 
ATOM     43  C   UNL A   1      37.472  33.892  33.376  1.00  0.00     0.029 A 
ATOM     44  N   UNL A   1      39.114  32.378  33.446  1.00  0.00    -0.354 N 
ATOM     45  C   UNL A   1      39.746  29.631  30.152  1.00  0.00     0.074 A 
ATOM     46  C   UNL A   1      38.807  29.882  29.080  1.00  0.00     0.031 C 
ATOM     47  C   UNL A   1      38.079  34.013  34.567  1.00  0.00     0.029 A 
ATOM     48  C   UNL A   1      39.136  33.011  34.668  1.00  0.00     0.049 A 
ATOM     49  H   UNL A   1      39.745  31.665  33.198  1.00  0.00     0.167 HD
ATOM     50  C   UNL A   1      40.695  28.663  30.133  1.00  0.00     0.034 A 
ATOM     51  C   UNL A   1      39.908  32.797  35.753  1.00  0.00     0.034 A 
ATOM     52  C   UNL A   1      41.648  28.450  31.193  1.00  0.00     0.049 A 
ATOM     53  C   UNL A   1      40.959  31.716  35.697  1.00  0.00     0.074 A 
ATOM     54  C   UNL A   1      42.708  27.559  31.230  1.00  0.00     0.029 A 
ATOM     55  N   UNL A   1      41.658  29.127  32.404  1.00  0.00    -0.354 N 
ATOM     56  N   UNL A   1      41.245  30.892  34.716  1.00  0.00    -0.248 NA
ATOM     57  C   UNL A   1      41.801  31.546  36.889  1.00  0.00     0.031 C 
ATOM     58  C   UNL A   1      43.316  27.651  32.486  1.00  0.00     0.029 A 
ATOM     59  C   UNL A   1      42.683  28.650  33.207  1.00  0.00     0.049 A 
ATOM     60  H   UNL A   1      41.030  29.841  32.656  1.00  0.00     0.167 HD
ATOM     61  C   UNL A   1      42.324  30.133  35.162  1.00  0.00     0.074 A 
ATOM     62  C   UNL A   1      42.646  30.607  36.491  1.00  0.00     0.031 C 
ATOM     63  C   UNL A   1      42.993  29.136  34.530  1.00  0.00     0.034 A 
BRANCH  50  64
ATOM     64  C   UNL A   1      40.736  27.740  28.940  1.00  0.00     0.023 A 
ATOM     65  C   UNL A   1      41.695  27.880  27.923  1.00  0.00     0.031 A 
ATOM     66  C   UNL A   1      39.809  26.688  28.832  1.00  0.00     0.131 A 
ATOM     67  C   UNL A   1      41.675  27.014  26.819  1.00  0.00     0.055 A 
ATOM     68  C   UNL A   1      39.836  25.788  27.766  1.00  0.00     0.041 A 
ATOM     69  F   UNL A   1      38.858  26.519  29.766  1.00  0.00    -0.206 F 
ATOM     70  C   UNL A   1      40.768  25.954  26.746  1.00  0.00     0.022 A 
BRANCH  67  71
ATOM     71  S   UNL A   1      42.792  27.350  25.431  1.00  0.00     0.124 S 
ATOM     72  O   UNL A   1      42.100  28.445  24.755  1.00  0.00    -0.237 OA
ATOM     73  O   UNL A   1      44.038  27.700  26.103  1.00  0.00    -0.237 OA
ATOM     74  O   UNL A   1      42.814  26.086  24.696  1.00  0.00    -0.744 OA
ENDBRANCH  67  71
ENDBRANCH  50  64
BRANCH  51  75
ATOM     75  C   UNL A   1      39.714  33.596  37.000  1.00  0.00     0.023 A 
ATOM     76  C   UNL A   1      39.066  33.046  38.117  1.00  0.00     0.031 A 
ATOM     77  C   UNL A   1      40.102  34.946  37.064  1.00  0.00     0.131 A 
ATOM     78  C   UNL A   1      38.765  33.856  39.222  1.00  0.00     0.055 A 
ATOM     79  C   UNL A   1      39.855  35.733  38.190  1.00  0.00     0.041 A 
ATOM     80  F   UNL A   1      40.730  35.523  36.026  1.00  0.00    -0.206 F 
ATOM     81  C   UNL A   1      39.164  35.193  39.270  1.00  0.00     0.022 A 
BRANCH  78  82
ATOM     82  S   UNL A   1      37.728  33.169  40.543  1.00  0.00     0.124 S 
ATOM     83  O   UNL A   1      38.520  32.024  40.978  1.00  0.00    -0.237 OA
ATOM     84  O   UNL A   1      37.650  34.288  41.475  1.00  0.00    -0.237 OA
ATOM     85  O   UNL A   1      36.480  32.841  39.857  1.00  0.00    -0.744 OA
ENDBRANCH  78  82
ENDBRANCH  51  75
BRANCH  63  86
ATOM     86  C   UNL A   1      44.172  28.536  35.253  1.00  0.00     0.023 A 
ATOM     87  C   UNL A   1      44.018  27.502  36.192  1.00  0.00     0.031 A 
ATOM     88  C   UNL A   1      45.470  29.020  35.006  1.00  0.00     0.131 A 
ATOM     89  C   UNL A   1      45.136  27.023  36.892  1.00  0.00     0.055 A 
ATOM     90  C   UNL A   1      46.585  28.500  35.662  1.00  0.00     0.041 A 
ATOM     91  F   UNL A   1      45.673  30.008  34.119  1.00  0.00    -0.206 F 
ATOM     92  C   UNL A   1      46.420  27.504  36.622  1.00  0.00     0.022 A 
BRANCH  89  93
ATOM     93  S   UNL A   1      44.878  25.821  38.225  1.00  0.00     0.124 S 
ATOM     94  O   UNL A   1      43.961  26.536  39.107  1.00  0.00    -0.237 OA
ATOM     95  O   UNL A   1      44.315  24.680  37.512  1.00  0.00    -0.237 OA
ATOM     96  O   UNL A   1      46.221  25.612  38.764  1.00  0.00    -0.744 OA
ENDBRANCH  89  93
ENDBRANCH  63  86
ENDBRANCH  37  38
ENDBRANCH  29  32
ENDBRANCH  27  28
ENDBRANCH  26  27
ENDBRANCH   1  26
TORSDOF 17
ENDMDL
