MODEL 1
REMARK VINA RESULT:     -12.0      0.000      0.000
REMARK SMILES CC1(C)CSC[C@](Nc2ccccc2Cl)(C(=O)NCCCNC(=O)c2ccc(-c3c4nc(c(-c5cc(S(=O)(=O)[O-])ccc5F)c5ccc([nH]5)c(-c5cc(S(=O)(=O)[O-])ccc5F)c5nc(c(-c6cc(S(=O)(=O)[O-])ccc6F)c6ccc3[nH]6)C=C5)C=C4)cc2)C1
REMARK SMILES IDX 20 1 19 2 18 3 16 4 17 5 7 7 1 8 2 9 3 10 4 11 88 12 5 13
REMARK SMILES IDX 6 14 8 15 9 17 10 18 14 19 11 20 13 21 15 22 12 23 21 24
REMARK SMILES IDX 22 25 23 26 24 28 25 29 26 30 87 31 27 32 86 33 28 34 29 35
REMARK SMILES IDX 30 36 80 37 31 38 85 39 79 40 81 41 32 42 84 43 78 44 77 45
REMARK SMILES IDX 33 47 65 48 45 49 64 50 46 51 49 52 63 53 82 54 47 55 48 56
REMARK SMILES IDX 62 58 83 59 50 60 34 61 35 62 43 63 36 64 42 65 44 66 41 67
REMARK SMILES IDX 37 68 38 69 39 70 40 71 66 72 67 73 75 74 68 75 74 76 76 77
REMARK SMILES IDX 73 78 69 79 70 80 71 81 72 82 51 83 52 84 60 85 53 86 59 87
REMARK SMILES IDX 61 88 58 89 54 90 55 91 56 92 57 93
REMARK H PARENT 18 6 8 16 22 27 81 46 49 57
REMARK Flexibility Score: inf
ROOT
ATOM      1  C   UNL A   1      32.030  28.851  26.614  1.00  0.00     0.042 C 
ENDROOT
BRANCH   1   2
ATOM      2  C   UNL A   1      32.445  27.403  26.792  1.00  0.00     0.117 C 
BRANCH   2   3
ATOM      3  N   UNL A   1      31.308  26.507  26.942  1.00  0.00    -0.354 N 
ATOM      4  C   UNL A   1      31.051  25.301  26.342  1.00  0.00     0.246 C 
ATOM      5  O   UNL A   1      29.999  24.736  26.659  1.00  0.00    -0.272 OA
ATOM      6  H   UNL A   1      30.617  26.816  27.572  1.00  0.00     0.163 HD
BRANCH   4   7
ATOM      7  C   UNL A   1      31.999  24.720  25.247  1.00  0.00     0.126 C 
ATOM      8  C   UNL A   1      32.125  22.384  22.900  1.00  0.00     0.012 C 
ATOM      9  C   UNL A   1      32.645  22.276  24.351  1.00  0.00    -0.024 C 
ATOM     10  C   UNL A   1      32.443  20.806  24.803  1.00  0.00     0.012 C 
ATOM     11  C   UNL A   1      34.157  22.572  24.443  1.00  0.00     0.076 C 
ATOM     12  C   UNL A   1      31.805  23.168  25.302  1.00  0.00     0.046 C 
ATOM     13  S   UNL A   1      34.626  24.325  24.350  1.00  0.00    -0.158 SA
ATOM     14  C   UNL A   1      33.477  24.980  25.625  1.00  0.00     0.108 C 
BRANCH   7  15
ATOM     15  N   UNL A   1      31.739  25.270  23.881  1.00  0.00    -0.369 N 
ATOM     16  H   UNL A   1      31.941  24.663  23.132  1.00  0.00     0.161 HD
BRANCH  15  17
ATOM     17  C   UNL A   1      31.252  26.522  23.528  1.00  0.00     0.054 A 
ATOM     18  C   UNL A   1      29.848  26.647  23.496  1.00  0.00     0.027 A 
ATOM     19  C   UNL A   1      31.992  27.659  23.155  1.00  0.00     0.064 A 
ATOM     20  C   UNL A   1      29.214  27.872  23.265  1.00  0.00     0.002 A 
ATOM     21  C   UNL A   1      31.358  28.889  22.917  1.00  0.00     0.023 A 
ATOM     22  Cl  UNL A   1      33.696  27.642  22.888  1.00  0.00    -0.082 Cl
ATOM     23  C   UNL A   1      29.973  29.002  22.996  1.00  0.00     0.002 A 
ENDBRANCH  15  17
ENDBRANCH   7  15
ENDBRANCH   4   7
ENDBRANCH   2   3
ENDBRANCH   1   2
BRANCH   1  24
ATOM     24  C   UNL A   1      33.173  29.737  26.150  1.00  0.00     0.118 C 
BRANCH  24  25
ATOM     25  N   UNL A   1      33.052  31.107  26.636  1.00  0.00    -0.352 N 
ATOM     26  C   UNL A   1      33.837  31.791  27.533  1.00  0.00     0.251 C 
ATOM     27  H   UNL A   1      32.296  31.618  26.267  1.00  0.00     0.163 HD
ATOM     28  O   UNL A   1      33.462  32.876  27.968  1.00  0.00    -0.269 OA
BRANCH  26  29
ATOM     29  C   UNL A   1      35.109  31.195  27.990  1.00  0.00     0.039 A 
ATOM     30  C   UNL A   1      36.271  31.969  27.970  1.00  0.00     0.014 A 
ATOM     31  C   UNL A   1      35.144  29.883  28.471  1.00  0.00     0.014 A 
ATOM     32  C   UNL A   1      37.449  31.452  28.512  1.00  0.00     0.010 A 
ATOM     33  C   UNL A   1      36.286  29.413  29.105  1.00  0.00     0.010 A 
ATOM     34  C   UNL A   1      37.454  30.189  29.127  1.00  0.00    -0.014 A 
BRANCH  34  35
ATOM     35  C   UNL A   1      38.668  29.657  29.796  1.00  0.00     0.031 A 
ATOM     36  C   UNL A   1      39.072  30.182  31.147  1.00  0.00     0.074 A 
ATOM     37  C   UNL A   1      39.445  28.760  29.156  1.00  0.00     0.049 A 
ATOM     38  N   UNL A   1      40.135  29.910  31.858  1.00  0.00    -0.248 NA
ATOM     39  C   UNL A   1      38.178  31.176  31.760  1.00  0.00     0.031 C 
ATOM     40  C   UNL A   1      39.184  28.217  27.821  1.00  0.00     0.029 A 
ATOM     41  N   UNL A   1      40.614  28.152  29.536  1.00  0.00    -0.354 N 
ATOM     42  C   UNL A   1      40.046  30.710  32.992  1.00  0.00     0.074 A 
ATOM     43  C   UNL A   1      38.865  31.532  32.834  1.00  0.00     0.031 C 
ATOM     44  C   UNL A   1      40.146  27.336  27.508  1.00  0.00     0.029 A 
ATOM     45  C   UNL A   1      41.120  27.288  28.593  1.00  0.00     0.049 A 
ATOM     46  H   UNL A   1      41.050  28.318  30.403  1.00  0.00     0.167 HD
ATOM     47  C   UNL A   1      40.859  30.738  34.078  1.00  0.00     0.034 A 
ATOM     48  C   UNL A   1      42.249  26.552  28.594  1.00  0.00     0.034 A 
ATOM     49  C   UNL A   1      42.027  29.903  34.218  1.00  0.00     0.049 A 
ATOM     50  C   UNL A   1      43.153  26.614  29.798  1.00  0.00     0.074 A 
ATOM     51  C   UNL A   1      42.887  29.797  35.296  1.00  0.00     0.029 A 
ATOM     52  N   UNL A   1      42.511  29.039  33.241  1.00  0.00    -0.354 N 
ATOM     53  N   UNL A   1      43.023  27.328  30.893  1.00  0.00    -0.248 NA
ATOM     54  C   UNL A   1      44.349  25.764  29.772  1.00  0.00     0.031 C 
ATOM     55  C   UNL A   1      43.931  28.935  34.943  1.00  0.00     0.029 A 
ATOM     56  C   UNL A   1      43.678  28.430  33.678  1.00  0.00     0.049 A 
ATOM     57  H   UNL A   1      42.087  28.883  32.366  1.00  0.00     0.167 HD
ATOM     58  C   UNL A   1      44.108  26.992  31.696  1.00  0.00     0.074 A 
ATOM     59  C   UNL A   1      44.871  26.000  30.966  1.00  0.00     0.031 C 
ATOM     60  C   UNL A   1      44.441  27.456  32.929  1.00  0.00     0.034 A 
BRANCH  47  61
ATOM     61  C   UNL A   1      40.521  31.724  35.173  1.00  0.00     0.023 A 
ATOM     62  C   UNL A   1      39.568  31.431  36.166  1.00  0.00     0.031 A 
ATOM     63  C   UNL A   1      41.123  32.994  35.200  1.00  0.00     0.131 A 
ATOM     64  C   UNL A   1      39.176  32.421  37.078  1.00  0.00     0.055 A 
ATOM     65  C   UNL A   1      40.799  33.944  36.172  1.00  0.00     0.041 A 
ATOM     66  F   UNL A   1      42.024  33.346  34.269  1.00  0.00    -0.206 F 
ATOM     67  C   UNL A   1      39.805  33.667  37.107  1.00  0.00     0.022 A 
BRANCH  64  68
ATOM     68  S   UNL A   1      37.715  32.117  38.108  1.00  0.00     0.124 S 
ATOM     69  O   UNL A   1      37.386  30.737  37.754  1.00  0.00    -0.237 OA
ATOM     70  O   UNL A   1      38.229  32.324  39.456  1.00  0.00    -0.237 OA
ATOM     71  O   UNL A   1      36.754  33.115  37.645  1.00  0.00    -0.744 OA
ENDBRANCH  64  68
ENDBRANCH  47  61
BRANCH  48  72
ATOM     72  C   UNL A   1      42.593  25.705  27.416  1.00  0.00     0.023 A 
ATOM     73  C   UNL A   1      42.179  24.365  27.339  1.00  0.00     0.031 A 
ATOM     74  C   UNL A   1      43.356  26.220  26.353  1.00  0.00     0.131 A 
ATOM     75  C   UNL A   1      42.561  23.577  26.242  1.00  0.00     0.055 A 
ATOM     76  C   UNL A   1      43.690  25.448  25.240  1.00  0.00     0.041 A 
ATOM     77  F   UNL A   1      43.773  27.497  26.373  1.00  0.00    -0.206 F 
ATOM     78  C   UNL A   1      43.301  24.113  25.186  1.00  0.00     0.022 A 
BRANCH  75  79
ATOM     79  S   UNL A   1      42.136  21.814  26.248  1.00  0.00     0.124 S 
ATOM     80  O   UNL A   1      43.007  21.295  25.201  1.00  0.00    -0.237 OA
ATOM     81  O   UNL A   1      42.470  21.426  27.615  1.00  0.00    -0.237 OA
ATOM     82  O   UNL A   1      40.708  21.808  25.934  1.00  0.00    -0.744 OA
ENDBRANCH  75  79
ENDBRANCH  48  72
BRANCH  60  83
ATOM     83  C   UNL A   1      45.669  26.864  33.577  1.00  0.00     0.023 A 
ATOM     84  C   UNL A   1      45.602  25.713  34.382  1.00  0.00     0.031 A 
ATOM     85  C   UNL A   1      46.927  27.466  33.391  1.00  0.00     0.131 A 
ATOM     86  C   UNL A   1      46.758  25.235  35.016  1.00  0.00     0.055 A 
ATOM     87  C   UNL A   1      48.085  26.946  33.968  1.00  0.00     0.041 A 
ATOM     88  F   UNL A   1      47.051  28.571  32.637  1.00  0.00    -0.206 F 
ATOM     89  C   UNL A   1      48.002  25.832  34.797  1.00  0.00     0.022 A 
BRANCH  86  90
ATOM     90  S   UNL A   1      46.599  23.880  36.212  1.00  0.00     0.124 S 
ATOM     91  O   UNL A   1      45.383  23.216  35.755  1.00  0.00    -0.237 OA
ATOM     92  O   UNL A   1      47.842  23.142  36.014  1.00  0.00    -0.237 OA
ATOM     93  O   UNL A   1      46.485  24.569  37.496  1.00  0.00    -0.744 OA
ENDBRANCH  86  90
ENDBRANCH  60  83
ENDBRANCH  34  35
ENDBRANCH  26  29
ENDBRANCH  24  25
ENDBRANCH   1  24
TORSDOF 15
ENDMDL
MODEL 2
REMARK VINA RESULT:     -11.9      1.127      7.600
REMARK SMILES CC1(C)CSC[C@](Nc2ccccc2Cl)(C(=O)NCCCNC(=O)c2ccc(-c3c4nc(c(-c5cc(S(=O)(=O)[O-])ccc5F)c5ccc([nH]5)c(-c5cc(S(=O)(=O)[O-])ccc5F)c5nc(c(-c6cc(S(=O)(=O)[O-])ccc6F)c6ccc3[nH]6)C=C5)C=C4)cc2)C1
REMARK SMILES IDX 20 1 19 2 18 3 16 4 17 5 7 7 1 8 2 9 3 10 4 11 88 12 5 13
REMARK SMILES IDX 6 14 8 15 9 17 10 18 14 19 11 20 13 21 15 22 12 23 21 24
REMARK SMILES IDX 22 25 23 26 24 28 25 29 26 30 87 31 27 32 86 33 28 34 29 35
REMARK SMILES IDX 30 36 80 37 31 38 85 39 79 40 81 41 32 42 84 43 78 44 77 45
REMARK SMILES IDX 33 47 65 48 45 49 64 50 46 51 49 52 63 53 82 54 47 55 48 56
REMARK SMILES IDX 62 58 83 59 50 60 34 61 35 62 43 63 36 64 42 65 44 66 41 67
REMARK SMILES IDX 37 68 38 69 39 70 40 71 66 72 67 73 75 74 68 75 74 76 76 77
REMARK SMILES IDX 73 78 69 79 70 80 71 81 72 82 51 83 52 84 60 85 53 86 59 87
REMARK SMILES IDX 61 88 58 89 54 90 55 91 56 92 57 93
REMARK H PARENT 18 6 8 16 22 27 81 46 49 57
REMARK Flexibility Score: inf
ROOT
ATOM      1  C   UNL A   1      31.767  28.850  26.699  1.00  0.00     0.042 C 
ENDROOT
BRANCH   1   2
ATOM      2  C   UNL A   1      32.248  27.411  26.712  1.00  0.00     0.117 C 
BRANCH   2   3
ATOM      3  N   UNL A   1      31.158  26.457  26.852  1.00  0.00    -0.354 N 
ATOM      4  C   UNL A   1      30.964  25.244  26.243  1.00  0.00     0.246 C 
ATOM      5  O   UNL A   1      29.943  24.623  26.554  1.00  0.00    -0.272 OA
ATOM      6  H   UNL A   1      30.451  26.724  27.483  1.00  0.00     0.163 HD
BRANCH   4   7
ATOM      7  C   UNL A   1      31.943  24.721  25.145  1.00  0.00     0.126 C 
ATOM      8  C   UNL A   1      32.176  22.441  22.751  1.00  0.00     0.012 C 
ATOM      9  C   UNL A   1      32.687  22.321  24.205  1.00  0.00    -0.024 C 
ATOM     10  C   UNL A   1      32.535  20.837  24.624  1.00  0.00     0.012 C 
ATOM     11  C   UNL A   1      34.186  22.671  24.317  1.00  0.00     0.076 C 
ATOM     12  C   UNL A   1      31.806  23.162  25.166  1.00  0.00     0.046 C 
ATOM     13  S   UNL A   1      34.591  24.442  24.266  1.00  0.00    -0.158 SA
ATOM     14  C   UNL A   1      33.408  25.027  25.543  1.00  0.00     0.108 C 
BRANCH   7  15
ATOM     15  N   UNL A   1      31.676  25.290  23.789  1.00  0.00    -0.369 N 
ATOM     16  H   UNL A   1      31.891  24.701  23.030  1.00  0.00     0.161 HD
BRANCH  15  17
ATOM     17  C   UNL A   1      31.165  26.538  23.456  1.00  0.00     0.054 A 
ATOM     18  C   UNL A   1      29.760  26.656  23.497  1.00  0.00     0.027 A 
ATOM     19  C   UNL A   1      31.879  27.677  23.041  1.00  0.00     0.064 A 
ATOM     20  C   UNL A   1      29.109  27.878  23.295  1.00  0.00     0.002 A 
ATOM     21  C   UNL A   1      31.228  28.903  22.831  1.00  0.00     0.023 A 
ATOM     22  Cl  UNL A   1      33.567  27.667  22.686  1.00  0.00    -0.082 Cl
ATOM     23  C   UNL A   1      29.848  29.010  22.982  1.00  0.00     0.002 A 
ENDBRANCH  15  17
ENDBRANCH   7  15
ENDBRANCH   4   7
ENDBRANCH   2   3
ENDBRANCH   1   2
BRANCH   1  24
ATOM     24  C   UNL A   1      32.755  29.793  26.035  1.00  0.00     0.118 C 
BRANCH  24  25
ATOM     25  N   UNL A   1      32.512  31.190  26.376  1.00  0.00    -0.352 N 
ATOM     26  C   UNL A   1      33.186  32.008  27.251  1.00  0.00     0.251 C 
ATOM     27  H   UNL A   1      31.752  31.610  25.912  1.00  0.00     0.163 HD
ATOM     28  O   UNL A   1      32.712  33.100  27.554  1.00  0.00    -0.269 OA
BRANCH  26  29
ATOM     29  C   UNL A   1      34.459  31.549  27.844  1.00  0.00     0.039 A 
ATOM     30  C   UNL A   1      35.490  32.469  28.044  1.00  0.00     0.014 A 
ATOM     31  C   UNL A   1      34.618  30.217  28.234  1.00  0.00     0.014 A 
ATOM     32  C   UNL A   1      36.648  32.068  28.711  1.00  0.00     0.010 A 
ATOM     33  C   UNL A   1      35.722  29.849  28.992  1.00  0.00     0.010 A 
ATOM     34  C   UNL A   1      36.753  30.768  29.234  1.00  0.00    -0.014 A 
BRANCH  34  35
ATOM     35  C   UNL A   1      37.932  30.346  30.032  1.00  0.00     0.031 A 
ATOM     36  C   UNL A   1      38.939  29.398  29.438  1.00  0.00     0.074 A 
ATOM     37  C   UNL A   1      38.054  30.754  31.310  1.00  0.00     0.049 A 
ATOM     38  N   UNL A   1      39.986  28.847  29.994  1.00  0.00    -0.248 NA
ATOM     39  C   UNL A   1      38.713  28.986  28.044  1.00  0.00     0.031 C 
ATOM     40  C   UNL A   1      37.112  31.630  32.011  1.00  0.00     0.029 A 
ATOM     41  N   UNL A   1      39.014  30.482  32.251  1.00  0.00    -0.354 N 
ATOM     42  C   UNL A   1      40.533  28.012  29.025  1.00  0.00     0.074 A 
ATOM     43  C   UNL A   1      39.656  28.073  27.876  1.00  0.00     0.031 C 
ATOM     44  C   UNL A   1      37.557  31.847  33.258  1.00  0.00     0.029 A 
ATOM     45  C   UNL A   1      38.785  31.086  33.466  1.00  0.00     0.049 A 
ATOM     46  H   UNL A   1      39.794  29.907  32.075  1.00  0.00     0.167 HD
ATOM     47  C   UNL A   1      41.676  27.284  29.079  1.00  0.00     0.034 A 
ATOM     48  C   UNL A   1      39.476  31.022  34.621  1.00  0.00     0.034 A 
ATOM     49  C   UNL A   1      42.541  27.245  30.234  1.00  0.00     0.049 A 
ATOM     50  C   UNL A   1      40.730  30.189  34.670  1.00  0.00     0.074 A 
ATOM     51  C   UNL A   1      43.754  26.597  30.381  1.00  0.00     0.029 A 
ATOM     52  N   UNL A   1      42.277  27.870  31.448  1.00  0.00    -0.354 N 
ATOM     53  N   UNL A   1      41.271  29.454  33.725  1.00  0.00    -0.248 NA
ATOM     54  C   UNL A   1      41.472  30.183  35.937  1.00  0.00     0.031 C 
ATOM     55  C   UNL A   1      44.182  26.761  31.703  1.00  0.00     0.029 A 
ATOM     56  C   UNL A   1      43.283  27.587  32.359  1.00  0.00     0.049 A 
ATOM     57  H   UNL A   1      41.489  28.431  31.634  1.00  0.00     0.167 HD
ATOM     58  C   UNL A   1      42.432  28.921  34.277  1.00  0.00     0.074 A 
ATOM     59  C   UNL A   1      42.519  29.432  35.630  1.00  0.00     0.031 C 
ATOM     60  C   UNL A   1      43.347  28.088  33.714  1.00  0.00     0.034 A 
BRANCH  47  61
ATOM     61  C   UNL A   1      42.028  26.453  27.866  1.00  0.00     0.023 A 
ATOM     62  C   UNL A   1      41.612  25.115  27.739  1.00  0.00     0.031 A 
ATOM     63  C   UNL A   1      42.829  26.988  26.843  1.00  0.00     0.131 A 
ATOM     64  C   UNL A   1      42.077  24.333  26.672  1.00  0.00     0.055 A 
ATOM     65  C   UNL A   1      43.209  26.232  25.732  1.00  0.00     0.041 A 
ATOM     66  F   UNL A   1      43.278  28.252  26.914  1.00  0.00    -0.206 F 
ATOM     67  C   UNL A   1      42.850  24.890  25.651  1.00  0.00     0.022 A 
BRANCH  64  68
ATOM     68  S   UNL A   1      41.803  22.541  26.730  1.00  0.00     0.124 S 
ATOM     69  O   UNL A   1      42.662  22.148  27.845  1.00  0.00    -0.237 OA
ATOM     70  O   UNL A   1      40.367  22.448  26.966  1.00  0.00    -0.237 OA
ATOM     71  O   UNL A   1      42.251  22.082  25.417  1.00  0.00    -0.744 OA
ENDBRANCH  64  68
ENDBRANCH  47  61
BRANCH  48  72
ATOM     72  C   UNL A   1      38.994  31.759  35.825  1.00  0.00     0.023 A 
ATOM     73  C   UNL A   1      38.264  31.107  36.832  1.00  0.00     0.031 A 
ATOM     74  C   UNL A   1      39.245  33.134  35.979  1.00  0.00     0.131 A 
ATOM     75  C   UNL A   1      37.779  31.836  37.928  1.00  0.00     0.055 A 
ATOM     76  C   UNL A   1      38.805  33.845  37.097  1.00  0.00     0.041 A 
ATOM     77  F   UNL A   1      39.943  33.805  35.049  1.00  0.00    -0.206 F 
ATOM     78  C   UNL A   1      38.057  33.197  38.074  1.00  0.00     0.022 A 
BRANCH  75  79
ATOM     79  S   UNL A   1      36.715  30.994  39.131  1.00  0.00     0.124 S 
ATOM     80  O   UNL A   1      37.575  30.947  40.307  1.00  0.00    -0.237 OA
ATOM     81  O   UNL A   1      35.570  31.895  39.207  1.00  0.00    -0.237 OA
ATOM     82  O   UNL A   1      36.446  29.702  38.501  1.00  0.00    -0.744 OA
ENDBRANCH  75  79
ENDBRANCH  48  72
BRANCH  60  83
ATOM     83  C   UNL A   1      44.541  27.710  34.558  1.00  0.00     0.023 A 
ATOM     84  C   UNL A   1      44.545  26.559  35.364  1.00  0.00     0.031 A 
ATOM     85  C   UNL A   1      45.691  28.521  34.558  1.00  0.00     0.131 A 
ATOM     86  C   UNL A   1      45.652  26.281  36.180  1.00  0.00     0.055 A 
ATOM     87  C   UNL A   1      46.815  28.202  35.318  1.00  0.00     0.041 A 
ATOM     88  F   UNL A   1      45.741  29.636  33.811  1.00  0.00    -0.206 F 
ATOM     89  C   UNL A   1      46.795  27.084  36.146  1.00  0.00     0.022 A 
BRANCH  86  90
ATOM     90  S   UNL A   1      45.541  24.911  37.363  1.00  0.00     0.124 S 
ATOM     91  O   UNL A   1      45.306  23.771  36.482  1.00  0.00    -0.237 OA
ATOM     92  O   UNL A   1      46.845  24.955  38.015  1.00  0.00    -0.237 OA
ATOM     93  O   UNL A   1      44.410  25.282  38.212  1.00  0.00    -0.744 OA
ENDBRANCH  86  90
ENDBRANCH  60  83
ENDBRANCH  34  35
ENDBRANCH  26  29
ENDBRANCH  24  25
ENDBRANCH   1  24
TORSDOF 15
ENDMDL
MODEL 3
REMARK VINA RESULT:     -11.8      2.911      8.388
REMARK SMILES CC1(C)CSC[C@](Nc2ccccc2Cl)(C(=O)NCCCNC(=O)c2ccc(-c3c4nc(c(-c5cc(S(=O)(=O)[O-])ccc5F)c5ccc([nH]5)c(-c5cc(S(=O)(=O)[O-])ccc5F)c5nc(c(-c6cc(S(=O)(=O)[O-])ccc6F)c6ccc3[nH]6)C=C5)C=C4)cc2)C1
REMARK SMILES IDX 20 1 19 2 18 3 16 4 17 5 7 7 1 8 2 9 3 10 4 11 88 12 5 13
REMARK SMILES IDX 6 14 8 15 9 17 10 18 14 19 11 20 13 21 15 22 12 23 21 24
REMARK SMILES IDX 22 25 23 26 24 28 25 29 26 30 87 31 27 32 86 33 28 34 29 35
REMARK SMILES IDX 30 36 80 37 31 38 85 39 79 40 81 41 32 42 84 43 78 44 77 45
REMARK SMILES IDX 33 47 65 48 45 49 64 50 46 51 49 52 63 53 82 54 47 55 48 56
REMARK SMILES IDX 62 58 83 59 50 60 34 61 35 62 43 63 36 64 42 65 44 66 41 67
REMARK SMILES IDX 37 68 38 69 39 70 40 71 66 72 67 73 75 74 68 75 74 76 76 77
REMARK SMILES IDX 73 78 69 79 70 80 71 81 72 82 51 83 52 84 60 85 53 86 59 87
REMARK SMILES IDX 61 88 58 89 54 90 55 91 56 92 57 93
REMARK H PARENT 18 6 8 16 22 27 81 46 49 57
REMARK Flexibility Score: inf
ROOT
ATOM      1  C   UNL A   1      32.072  31.259  26.501  1.00  0.00     0.042 C 
ENDROOT
BRANCH   1   2
ATOM      2  C   UNL A   1      32.468  29.851  26.098  1.00  0.00     0.117 C 
BRANCH   2   3
ATOM      3  N   UNL A   1      33.218  29.814  24.851  1.00  0.00    -0.354 N 
ATOM      4  C   UNL A   1      33.217  28.878  23.849  1.00  0.00     0.246 C 
ATOM      5  O   UNL A   1      33.951  29.098  22.881  1.00  0.00    -0.272 OA
ATOM      6  H   UNL A   1      33.818  30.581  24.704  1.00  0.00     0.163 HD
BRANCH   4   7
ATOM      7  C   UNL A   1      32.395  27.557  23.973  1.00  0.00     0.126 C 
ATOM      8  C   UNL A   1      31.422  25.307  26.204  1.00  0.00     0.012 C 
ATOM      9  C   UNL A   1      32.661  25.232  25.284  1.00  0.00    -0.024 C 
ATOM     10  C   UNL A   1      33.771  24.488  26.071  1.00  0.00     0.012 C 
ATOM     11  C   UNL A   1      32.381  24.407  24.010  1.00  0.00     0.076 C 
ATOM     12  C   UNL A   1      33.196  26.653  24.968  1.00  0.00     0.046 C 
ATOM     13  S   UNL A   1      31.412  25.248  22.722  1.00  0.00    -0.158 SA
ATOM     14  C   UNL A   1      32.386  26.802  22.622  1.00  0.00     0.108 C 
BRANCH   7  15
ATOM     15  N   UNL A   1      30.984  27.772  24.422  1.00  0.00    -0.369 N 
ATOM     16  H   UNL A   1      30.766  27.430  25.320  1.00  0.00     0.161 HD
BRANCH  15  17
ATOM     17  C   UNL A   1      29.942  28.389  23.742  1.00  0.00     0.054 A 
ATOM     18  C   UNL A   1      30.177  29.720  23.338  1.00  0.00     0.027 A 
ATOM     19  C   UNL A   1      28.671  27.860  23.453  1.00  0.00     0.064 A 
ATOM     20  C   UNL A   1      29.264  30.431  22.552  1.00  0.00     0.002 A 
ATOM     21  C   UNL A   1      27.751  28.574  22.669  1.00  0.00     0.023 A 
ATOM     22  Cl  UNL A   1      28.101  26.355  24.075  1.00  0.00    -0.082 Cl
ATOM     23  C   UNL A   1      28.057  29.847  22.198  1.00  0.00     0.002 A 
ENDBRANCH  15  17
ENDBRANCH   7  15
ENDBRANCH   4   7
ENDBRANCH   2   3
ENDBRANCH   1   2
BRANCH   1  24
ATOM     24  C   UNL A   1      33.148  31.963  27.309  1.00  0.00     0.118 C 
BRANCH  24  25
ATOM     25  N   UNL A   1      32.825  33.360  27.575  1.00  0.00    -0.352 N 
ATOM     26  C   UNL A   1      33.304  34.200  28.552  1.00  0.00     0.251 C 
ATOM     27  H   UNL A   1      32.165  33.762  26.964  1.00  0.00     0.163 HD
ATOM     28  O   UNL A   1      32.766  35.287  28.739  1.00  0.00    -0.269 OA
BRANCH  26  29
ATOM     29  C   UNL A   1      34.442  33.768  29.389  1.00  0.00     0.039 A 
ATOM     30  C   UNL A   1      34.212  32.906  30.462  1.00  0.00     0.014 A 
ATOM     31  C   UNL A   1      35.741  34.188  29.089  1.00  0.00     0.014 A 
ATOM     32  C   UNL A   1      35.295  32.400  31.182  1.00  0.00     0.010 A 
ATOM     33  C   UNL A   1      36.821  33.600  29.736  1.00  0.00     0.010 A 
ATOM     34  C   UNL A   1      36.611  32.705  30.794  1.00  0.00    -0.014 A 
BRANCH  34  35
ATOM     35  C   UNL A   1      37.781  32.104  31.482  1.00  0.00     0.031 A 
ATOM     36  C   UNL A   1      38.543  30.983  30.826  1.00  0.00     0.074 A 
ATOM     37  C   UNL A   1      38.109  32.514  32.723  1.00  0.00     0.049 A 
ATOM     38  N   UNL A   1      39.536  30.273  31.293  1.00  0.00    -0.248 NA
ATOM     39  C   UNL A   1      38.099  30.586  29.481  1.00  0.00     0.031 C 
ATOM     40  C   UNL A   1      37.412  33.555  33.481  1.00  0.00     0.029 A 
ATOM     41  N   UNL A   1      39.106  32.101  33.569  1.00  0.00    -0.354 N 
ATOM     42  C   UNL A   1      39.825  29.335  30.307  1.00  0.00     0.074 A 
ATOM     43  C   UNL A   1      38.850  29.520  29.254  1.00  0.00     0.031 C 
ATOM     44  C   UNL A   1      38.021  33.720  34.665  1.00  0.00     0.029 A 
ATOM     45  C   UNL A   1      39.117  32.763  34.775  1.00  0.00     0.049 A 
ATOM     46  H   UNL A   1      39.754  31.397  33.337  1.00  0.00     0.167 HD
ATOM     47  C   UNL A   1      40.827  28.421  30.272  1.00  0.00     0.034 A 
ATOM     48  C   UNL A   1      39.910  32.608  35.854  1.00  0.00     0.034 A 
ATOM     49  C   UNL A   1      41.793  28.260  31.332  1.00  0.00     0.049 A 
ATOM     50  C   UNL A   1      41.003  31.572  35.807  1.00  0.00     0.074 A 
ATOM     51  C   UNL A   1      42.888  27.416  31.378  1.00  0.00     0.029 A 
ATOM     52  N   UNL A   1      41.773  28.948  32.539  1.00  0.00    -0.354 N 
ATOM     53  N   UNL A   1      41.305  30.733  34.842  1.00  0.00    -0.248 NA
ATOM     54  C   UNL A   1      41.867  31.467  36.989  1.00  0.00     0.031 C 
ATOM     55  C   UNL A   1      43.480  27.534  32.641  1.00  0.00     0.029 A 
ATOM     56  C   UNL A   1      42.811  28.517  33.352  1.00  0.00     0.049 A 
ATOM     57  H   UNL A   1      41.117  29.641  32.783  1.00  0.00     0.167 HD
ATOM     58  C   UNL A   1      42.412  30.020  35.291  1.00  0.00     0.074 A 
ATOM     59  C   UNL A   1      42.732  30.539  36.606  1.00  0.00     0.031 C 
ATOM     60  C   UNL A   1      43.106  29.030  34.672  1.00  0.00     0.034 A 
BRANCH  47  61
ATOM     61  C   UNL A   1      40.898  27.515  29.064  1.00  0.00     0.023 A 
ATOM     62  C   UNL A   1      41.833  27.726  28.034  1.00  0.00     0.031 A 
ATOM     63  C   UNL A   1      39.989  26.454  28.914  1.00  0.00     0.131 A 
ATOM     64  C   UNL A   1      41.776  26.955  26.864  1.00  0.00     0.055 A 
ATOM     65  C   UNL A   1      39.999  25.627  27.788  1.00  0.00     0.041 A 
ATOM     66  F   UNL A   1      39.056  26.212  29.849  1.00  0.00    -0.206 F 
ATOM     67  C   UNL A   1      40.883  25.888  26.745  1.00  0.00     0.022 A 
BRANCH  64  68
ATOM     68  S   UNL A   1      42.762  27.479  25.435  1.00  0.00     0.124 S 
ATOM     69  O   UNL A   1      42.728  26.281  24.598  1.00  0.00    -0.237 OA
ATOM     70  O   UNL A   1      42.012  28.626  24.937  1.00  0.00    -0.237 OA
ATOM     71  O   UNL A   1      44.067  27.788  26.013  1.00  0.00    -0.744 OA
ENDBRANCH  64  68
ENDBRANCH  47  61
BRANCH  48  72
ATOM     72  C   UNL A   1      39.694  33.443  37.070  1.00  0.00     0.023 A 
ATOM     73  C   UNL A   1      40.462  34.595  37.307  1.00  0.00     0.031 A 
ATOM     74  C   UNL A   1      38.722  33.093  38.025  1.00  0.00     0.131 A 
ATOM     75  C   UNL A   1      40.271  35.333  38.485  1.00  0.00     0.055 A 
ATOM     76  C   UNL A   1      38.500  33.859  39.170  1.00  0.00     0.041 A 
ATOM     77  F   UNL A   1      37.955  32.005  37.844  1.00  0.00    -0.206 F 
ATOM     78  C   UNL A   1      39.286  34.981  39.411  1.00  0.00     0.022 A 
BRANCH  75  79
ATOM     79  S   UNL A   1      41.381  36.725  38.829  1.00  0.00     0.124 S 
ATOM     80  O   UNL A   1      42.197  36.195  39.914  1.00  0.00    -0.237 OA
ATOM     81  O   UNL A   1      42.054  36.901  37.545  1.00  0.00    -0.237 OA
ATOM     82  O   UNL A   1      40.468  37.804  39.202  1.00  0.00    -0.744 OA
ENDBRANCH  75  79
ENDBRANCH  48  72
BRANCH  60  83
ATOM     83  C   UNL A   1      44.304  28.471  35.401  1.00  0.00     0.023 A 
ATOM     84  C   UNL A   1      44.177  27.466  36.375  1.00  0.00     0.031 A 
ATOM     85  C   UNL A   1      45.594  28.958  35.120  1.00  0.00     0.131 A 
ATOM     86  C   UNL A   1      45.310  27.022  37.073  1.00  0.00     0.055 A 
ATOM     87  C   UNL A   1      46.725  28.463  35.767  1.00  0.00     0.041 A 
ATOM     88  F   UNL A   1      45.775  29.922  34.202  1.00  0.00    -0.206 F 
ATOM     89  C   UNL A   1      46.585  27.499  36.761  1.00  0.00     0.022 A 
BRANCH  86  90
ATOM     90  S   UNL A   1      45.084  25.882  38.467  1.00  0.00     0.124 S 
ATOM     91  O   UNL A   1      44.477  24.726  37.815  1.00  0.00    -0.237 OA
ATOM     92  O   UNL A   1      46.450  25.700  38.945  1.00  0.00    -0.237 OA
ATOM     93  O   UNL A   1      44.203  26.618  39.372  1.00  0.00    -0.744 OA
ENDBRANCH  86  90
ENDBRANCH  60  83
ENDBRANCH  34  35
ENDBRANCH  26  29
ENDBRANCH  24  25
ENDBRANCH   1  24
TORSDOF 15
ENDMDL
