MODEL 1
REMARK VINA RESULT:     -12.3      0.000      0.000
REMARK SMILES C[C@H]1CC[C@@](NC(=O)N[C@H]2CCOC2)(C(=O)NCCCNC(=O)c2ccc(-c3c4nc(c(-c5cc(S(=O)(=O)[O-])ccc5F)c5ccc([nH]5)c(-c5cc(S(=O)(=O)[O-])ccc5F)c5nc(c(-c6cc(S(=O)(=O)[O-])ccc6F)c6ccc3[nH]6)C=C5)C=C4)cc2)CC1
REMARK SMILES IDX 19 1 18 2 17 3 15 4 16 5 5 7 1 8 2 9 88 10 3 11 87 12 4 13
REMARK SMILES IDX 6 14 7 15 8 17 9 18 10 20 11 21 14 22 12 23 13 24 20 25
REMARK SMILES IDX 21 26 22 27 23 29 24 30 25 31 86 32 26 33 85 34 27 35 28 36
REMARK SMILES IDX 29 37 79 38 30 39 84 40 78 41 80 42 31 43 83 44 77 45 76 46
REMARK SMILES IDX 32 48 64 49 44 50 63 51 45 52 48 53 62 54 81 55 46 56 47 57
REMARK SMILES IDX 61 59 82 60 49 61 33 62 34 63 42 64 35 65 41 66 43 67 40 68
REMARK SMILES IDX 36 69 37 70 38 71 39 72 65 73 66 74 74 75 67 76 73 77 75 78
REMARK SMILES IDX 72 79 68 80 69 81 70 82 71 83 50 84 51 85 59 86 52 87 58 88
REMARK SMILES IDX 60 89 57 90 53 91 54 92 55 93 56 94
REMARK H PARENT 17 6 6 16 9 19 21 28 80 47 48 58
REMARK Flexibility Score: inf
ROOT
ATOM      1  C   UNL A   1      31.886  28.798  26.199  1.00  0.00     0.042 C 
ENDROOT
BRANCH   1   2
ATOM      2  C   UNL A   1      31.506  27.419  26.701  1.00  0.00     0.117 C 
BRANCH   2   3
ATOM      3  N   UNL A   1      32.538  26.442  26.397  1.00  0.00    -0.354 N 
ATOM      4  C   UNL A   1      32.516  25.389  25.534  1.00  0.00     0.245 C 
ATOM      5  O   UNL A   1      33.586  24.792  25.378  1.00  0.00    -0.272 OA
ATOM      6  H   UNL A   1      33.383  26.560  26.891  1.00  0.00     0.163 HD
BRANCH   4   7
ATOM      7  C   UNL A   1      31.182  24.897  24.906  1.00  0.00     0.120 C 
ATOM      8  C   UNL A   1      33.087  26.751  21.596  1.00  0.00     0.007 C 
ATOM      9  C   UNL A   1      31.953  25.885  22.160  1.00  0.00    -0.014 C 
ATOM     10  C   UNL A   1      31.088  26.739  23.104  1.00  0.00     0.006 C 
ATOM     11  C   UNL A   1      32.538  24.598  22.762  1.00  0.00     0.006 C 
ATOM     12  C   UNL A   1      30.343  25.967  24.189  1.00  0.00     0.039 C 
ATOM     13  C   UNL A   1      31.619  23.914  23.780  1.00  0.00     0.039 C 
BRANCH   7  14
ATOM     14  N   UNL A   1      30.324  24.191  25.890  1.00  0.00    -0.324 N 
ATOM     15  C   UNL A   1      30.440  23.152  26.723  1.00  0.00     0.315 C 
ATOM     16  H   UNL A   1      29.429  24.598  25.945  1.00  0.00     0.166 HD
ATOM     17  O   UNL A   1      29.573  23.047  27.596  1.00  0.00    -0.249 OA
ATOM     18  N   UNL A   1      31.370  22.193  26.685  1.00  0.00    -0.333 N 
ATOM     19  H   UNL A   1      31.288  21.573  27.446  1.00  0.00     0.165 HD
BRANCH  18  20
ATOM     20  C   UNL A   1      32.468  21.831  25.811  1.00  0.00     0.112 C 
ATOM     21  C   UNL A   1      33.770  21.540  26.519  1.00  0.00     0.056 C 
ATOM     22  C   UNL A   1      32.284  20.543  25.005  1.00  0.00     0.185 C 
ATOM     23  C   UNL A   1      34.551  20.891  25.398  1.00  0.00     0.162 C 
ATOM     24  O   UNL A   1      33.608  20.059  24.703  1.00  0.00    -0.379 OA
ENDBRANCH  18  20
ENDBRANCH   7  14
ENDBRANCH   4   7
ENDBRANCH   2   3
ENDBRANCH   1   2
BRANCH   1  25
ATOM     25  C   UNL A   1      33.280  29.212  26.633  1.00  0.00     0.118 C 
BRANCH  25  26
ATOM     26  N   UNL A   1      33.386  30.632  26.936  1.00  0.00    -0.352 N 
ATOM     27  C   UNL A   1      34.394  31.255  27.637  1.00  0.00     0.251 C 
ATOM     28  H   UNL A   1      32.659  31.207  26.604  1.00  0.00     0.163 HD
ATOM     29  O   UNL A   1      34.313  32.441  27.937  1.00  0.00    -0.269 OA
BRANCH  27  30
ATOM     30  C   UNL A   1      35.547  30.434  28.058  1.00  0.00     0.039 A 
ATOM     31  C   UNL A   1      36.679  30.387  27.245  1.00  0.00     0.014 A 
ATOM     32  C   UNL A   1      35.549  29.841  29.326  1.00  0.00     0.014 A 
ATOM     33  C   UNL A   1      37.846  29.798  27.734  1.00  0.00     0.010 A 
ATOM     34  C   UNL A   1      36.736  29.336  29.841  1.00  0.00     0.010 A 
ATOM     35  C   UNL A   1      37.896  29.305  29.049  1.00  0.00    -0.014 A 
BRANCH  35  36
ATOM     36  C   UNL A   1      39.144  28.718  29.607  1.00  0.00     0.031 A 
ATOM     37  C   UNL A   1      39.743  29.308  30.855  1.00  0.00     0.074 A 
ATOM     38  C   UNL A   1      39.764  27.706  28.967  1.00  0.00     0.049 A 
ATOM     39  N   UNL A   1      40.863  29.008  31.459  1.00  0.00    -0.248 NA
ATOM     40  C   UNL A   1      38.997  30.408  31.485  1.00  0.00     0.031 C 
ATOM     41  C   UNL A   1      39.306  27.080  27.724  1.00  0.00     0.029 A 
ATOM     42  N   UNL A   1      40.920  27.029  29.269  1.00  0.00    -0.354 N 
ATOM     43  C   UNL A   1      40.961  29.889  32.530  1.00  0.00     0.074 A 
ATOM     44  C   UNL A   1      39.827  30.782  32.444  1.00  0.00     0.031 C 
ATOM     45  C   UNL A   1      40.157  26.098  27.385  1.00  0.00     0.029 A 
ATOM     46  C   UNL A   1      41.244  26.050  28.357  1.00  0.00     0.049 A 
ATOM     47  H   UNL A   1      41.466  27.226  30.063  1.00  0.00     0.167 HD
ATOM     48  C   UNL A   1      41.895  29.932  33.513  1.00  0.00     0.034 A 
ATOM     49  C   UNL A   1      42.303  25.216  28.307  1.00  0.00     0.034 A 
ATOM     50  C   UNL A   1      43.010  29.023  33.594  1.00  0.00     0.049 A 
ATOM     51  C   UNL A   1      43.337  25.288  29.404  1.00  0.00     0.074 A 
ATOM     52  C   UNL A   1      43.989  28.944  34.567  1.00  0.00     0.029 A 
ATOM     53  N   UNL A   1      43.295  28.032  32.661  1.00  0.00    -0.354 N 
ATOM     54  N   UNL A   1      43.390  26.098  30.436  1.00  0.00    -0.248 NA
ATOM     55  C   UNL A   1      44.446  24.328  29.336  1.00  0.00     0.031 C 
ATOM     56  C   UNL A   1      44.900  27.949  34.194  1.00  0.00     0.029 A 
ATOM     57  C   UNL A   1      44.448  27.354  33.027  1.00  0.00     0.049 A 
ATOM     58  H   UNL A   1      42.758  27.839  31.860  1.00  0.00     0.167 HD
ATOM     59  C   UNL A   1      44.519  25.718  31.158  1.00  0.00     0.074 A 
ATOM     60  C   UNL A   1      45.108  24.601  30.450  1.00  0.00     0.031 C 
ATOM     61  C   UNL A   1      45.023  26.242  32.305  1.00  0.00     0.034 A 
BRANCH  48  62
ATOM     62  C   UNL A   1      41.747  31.009  34.560  1.00  0.00     0.023 A 
ATOM     63  C   UNL A   1      40.659  31.025  35.451  1.00  0.00     0.031 A 
ATOM     64  C   UNL A   1      42.681  32.056  34.645  1.00  0.00     0.131 A 
ATOM     65  C   UNL A   1      40.487  32.104  36.329  1.00  0.00     0.055 A 
ATOM     66  C   UNL A   1      42.550  33.084  35.582  1.00  0.00     0.041 A 
ATOM     67  F   UNL A   1      43.728  32.108  33.807  1.00  0.00    -0.206 F 
ATOM     68  C   UNL A   1      41.439  33.121  36.420  1.00  0.00     0.022 A 
BRANCH  65  69
ATOM     69  S   UNL A   1      38.926  32.235  37.243  1.00  0.00     0.124 S 
ATOM     70  O   UNL A   1      38.300  33.385  36.591  1.00  0.00    -0.237 OA
ATOM     71  O   UNL A   1      38.303  30.942  36.992  1.00  0.00    -0.237 OA
ATOM     72  O   UNL A   1      39.353  32.466  38.620  1.00  0.00    -0.744 OA
ENDBRANCH  65  69
ENDBRANCH  48  62
BRANCH  49  73
ATOM     73  C   UNL A   1      42.454  24.246  27.183  1.00  0.00     0.023 A 
ATOM     74  C   UNL A   1      41.881  22.965  27.245  1.00  0.00     0.031 A 
ATOM     75  C   UNL A   1      43.221  24.567  26.048  1.00  0.00     0.131 A 
ATOM     76  C   UNL A   1      42.126  22.037  26.222  1.00  0.00     0.055 A 
ATOM     77  C   UNL A   1      43.416  23.659  25.007  1.00  0.00     0.041 A 
ATOM     78  F   UNL A   1      43.787  25.779  25.933  1.00  0.00    -0.206 F 
ATOM     79  C   UNL A   1      42.879  22.379  25.097  1.00  0.00     0.022 A 
BRANCH  76  80
ATOM     80  S   UNL A   1      41.521  20.338  26.425  1.00  0.00     0.124 S 
ATOM     81  O   UNL A   1      42.263  19.633  25.386  1.00  0.00    -0.237 OA
ATOM     82  O   UNL A   1      41.906  20.044  27.802  1.00  0.00    -0.237 OA
ATOM     83  O   UNL A   1      40.084  20.459  26.194  1.00  0.00    -0.744 OA
ENDBRANCH  76  80
ENDBRANCH  49  73
BRANCH  61  84
ATOM     84  C   UNL A   1      46.240  25.572  32.890  1.00  0.00     0.023 A 
ATOM     85  C   UNL A   1      46.136  24.497  33.790  1.00  0.00     0.031 A 
ATOM     86  C   UNL A   1      47.527  26.020  32.540  1.00  0.00     0.131 A 
ATOM     87  C   UNL A   1      47.295  23.940  34.350  1.00  0.00     0.055 A 
ATOM     88  C   UNL A   1      48.678  25.422  33.055  1.00  0.00     0.041 A 
ATOM     89  F   UNL A   1      47.685  27.043  31.686  1.00  0.00    -0.206 F 
ATOM     90  C   UNL A   1      48.566  24.385  33.976  1.00  0.00     0.022 A 
BRANCH  87  91
ATOM     91  S   UNL A   1      47.120  22.681  35.643  1.00  0.00     0.124 S 
ATOM     92  O   UNL A   1      47.443  21.456  34.920  1.00  0.00    -0.237 OA
ATOM     93  O   UNL A   1      48.099  23.112  36.635  1.00  0.00    -0.237 OA
ATOM     94  O   UNL A   1      45.723  22.806  36.058  1.00  0.00    -0.744 OA
ENDBRANCH  87  91
ENDBRANCH  61  84
ENDBRANCH  35  36
ENDBRANCH  27  30
ENDBRANCH  25  26
ENDBRANCH   1  25
TORSDOF 15
ENDMDL
MODEL 2
REMARK VINA RESULT:     -12.3      1.101      1.344
REMARK SMILES C[C@H]1CC[C@@](NC(=O)N[C@H]2CCOC2)(C(=O)NCCCNC(=O)c2ccc(-c3c4nc(c(-c5cc(S(=O)(=O)[O-])ccc5F)c5ccc([nH]5)c(-c5cc(S(=O)(=O)[O-])ccc5F)c5nc(c(-c6cc(S(=O)(=O)[O-])ccc6F)c6ccc3[nH]6)C=C5)C=C4)cc2)CC1
REMARK SMILES IDX 19 1 18 2 17 3 15 4 16 5 5 7 1 8 2 9 88 10 3 11 87 12 4 13
REMARK SMILES IDX 6 14 7 15 8 17 9 18 10 20 11 21 14 22 12 23 13 24 20 25
REMARK SMILES IDX 21 26 22 27 23 29 24 30 25 31 86 32 26 33 85 34 27 35 28 36
REMARK SMILES IDX 29 37 79 38 30 39 84 40 78 41 80 42 31 43 83 44 77 45 76 46
REMARK SMILES IDX 32 48 64 49 44 50 63 51 45 52 48 53 62 54 81 55 46 56 47 57
REMARK SMILES IDX 61 59 82 60 49 61 33 62 34 63 42 64 35 65 41 66 43 67 40 68
REMARK SMILES IDX 36 69 37 70 38 71 39 72 65 73 66 74 74 75 67 76 73 77 75 78
REMARK SMILES IDX 72 79 68 80 69 81 70 82 71 83 50 84 51 85 59 86 52 87 58 88
REMARK SMILES IDX 60 89 57 90 53 91 54 92 55 93 56 94
REMARK H PARENT 17 6 6 16 9 19 21 28 80 47 48 58
REMARK Flexibility Score: inf
ROOT
ATOM      1  C   UNL A   1      31.786  28.981  25.967  1.00  0.00     0.042 C 
ENDROOT
BRANCH   1   2
ATOM      2  C   UNL A   1      31.426  27.640  26.575  1.00  0.00     0.117 C 
BRANCH   2   3
ATOM      3  N   UNL A   1      32.493  26.672  26.388  1.00  0.00    -0.354 N 
ATOM      4  C   UNL A   1      32.539  25.567  25.591  1.00  0.00     0.245 C 
ATOM      5  O   UNL A   1      33.628  24.987  25.530  1.00  0.00    -0.272 OA
ATOM      6  H   UNL A   1      33.307  26.839  26.917  1.00  0.00     0.163 HD
BRANCH   4   7
ATOM      7  C   UNL A   1      31.252  25.007  24.926  1.00  0.00     0.120 C 
ATOM      8  C   UNL A   1      33.252  26.783  21.630  1.00  0.00     0.007 C 
ATOM      9  C   UNL A   1      32.119  25.904  22.177  1.00  0.00    -0.014 C 
ATOM     10  C   UNL A   1      31.186  26.769  23.044  1.00  0.00     0.006 C 
ATOM     11  C   UNL A   1      32.714  24.663  22.861  1.00  0.00     0.006 C 
ATOM     12  C   UNL A   1      30.415  26.019  24.126  1.00  0.00     0.039 C 
ATOM     13  C   UNL A   1      31.770  23.993  23.864  1.00  0.00     0.039 C 
BRANCH   7  14
ATOM     14  N   UNL A   1      30.371  24.315  25.900  1.00  0.00    -0.324 N 
ATOM     15  C   UNL A   1      30.481  23.319  26.784  1.00  0.00     0.315 C 
ATOM     16  H   UNL A   1      29.461  24.691  25.892  1.00  0.00     0.166 HD
ATOM     17  O   UNL A   1      29.575  23.222  27.619  1.00  0.00    -0.249 OA
ATOM     18  N   UNL A   1      31.443  22.394  26.834  1.00  0.00    -0.333 N 
ATOM     19  H   UNL A   1      31.344  21.806  27.619  1.00  0.00     0.165 HD
BRANCH  18  20
ATOM     20  C   UNL A   1      32.595  22.033  26.032  1.00  0.00     0.112 C 
ATOM     21  C   UNL A   1      33.850  21.745  26.821  1.00  0.00     0.056 C 
ATOM     22  C   UNL A   1      32.463  20.744  25.217  1.00  0.00     0.185 C 
ATOM     23  C   UNL A   1      34.700  21.096  25.751  1.00  0.00     0.162 C 
ATOM     24  O   UNL A   1      33.805  20.262  24.999  1.00  0.00    -0.379 OA
ENDBRANCH  18  20
ENDBRANCH   7  14
ENDBRANCH   4   7
ENDBRANCH   2   3
ENDBRANCH   1   2
BRANCH   1  25
ATOM     25  C   UNL A   1      33.042  29.580  26.575  1.00  0.00     0.118 C 
BRANCH  25  26
ATOM     26  N   UNL A   1      32.894  30.985  26.922  1.00  0.00    -0.352 N 
ATOM     27  C   UNL A   1      33.791  31.763  27.621  1.00  0.00     0.251 C 
ATOM     28  H   UNL A   1      32.065  31.426  26.627  1.00  0.00     0.163 HD
ATOM     29  O   UNL A   1      33.502  32.905  27.962  1.00  0.00    -0.269 OA
BRANCH  27  30
ATOM     30  C   UNL A   1      35.086  31.156  27.988  1.00  0.00     0.039 A 
ATOM     31  C   UNL A   1      36.233  31.951  27.982  1.00  0.00     0.014 A 
ATOM     32  C   UNL A   1      35.123  29.847  28.479  1.00  0.00     0.014 A 
ATOM     33  C   UNL A   1      37.412  31.450  28.533  1.00  0.00     0.010 A 
ATOM     34  C   UNL A   1      36.274  29.386  29.106  1.00  0.00     0.010 A 
ATOM     35  C   UNL A   1      37.433  30.180  29.136  1.00  0.00    -0.014 A 
BRANCH  35  36
ATOM     36  C   UNL A   1      38.666  29.647  29.774  1.00  0.00     0.031 A 
ATOM     37  C   UNL A   1      39.089  30.175  31.118  1.00  0.00     0.074 A 
ATOM     38  C   UNL A   1      39.429  28.743  29.127  1.00  0.00     0.049 A 
ATOM     39  N   UNL A   1      40.167  29.914  31.810  1.00  0.00    -0.248 NA
ATOM     40  C   UNL A   1      38.194  31.159  31.748  1.00  0.00     0.031 C 
ATOM     41  C   UNL A   1      39.148  28.190  27.800  1.00  0.00     0.029 A 
ATOM     42  N   UNL A   1      40.604  28.134  29.495  1.00  0.00    -0.354 N 
ATOM     43  C   UNL A   1      40.085  30.708  32.949  1.00  0.00     0.074 A 
ATOM     44  C   UNL A   1      38.893  31.514  32.813  1.00  0.00     0.031 C 
ATOM     45  C   UNL A   1      40.109  27.308  27.478  1.00  0.00     0.029 A 
ATOM     46  C   UNL A   1      41.097  27.263  28.550  1.00  0.00     0.049 A 
ATOM     47  H   UNL A   1      41.052  28.306  30.353  1.00  0.00     0.167 HD
ATOM     48  C   UNL A   1      40.912  30.740  34.023  1.00  0.00     0.034 A 
ATOM     49  C   UNL A   1      42.223  26.520  28.547  1.00  0.00     0.034 A 
ATOM     50  C   UNL A   1      42.088  29.917  34.150  1.00  0.00     0.049 A 
ATOM     51  C   UNL A   1      43.137  26.581  29.747  1.00  0.00     0.074 A 
ATOM     52  C   UNL A   1      42.971  29.833  35.211  1.00  0.00     0.029 A 
ATOM     53  N   UNL A   1      42.546  29.032  33.180  1.00  0.00    -0.354 N 
ATOM     54  N   UNL A   1      43.020  27.304  30.838  1.00  0.00    -0.248 NA
ATOM     55  C   UNL A   1      44.324  25.718  29.723  1.00  0.00     0.031 C 
ATOM     56  C   UNL A   1      43.995  28.945  34.860  1.00  0.00     0.029 A 
ATOM     57  C   UNL A   1      43.711  28.417  33.611  1.00  0.00     0.049 A 
ATOM     58  H   UNL A   1      42.107  28.866  32.315  1.00  0.00     0.167 HD
ATOM     59  C   UNL A   1      44.102  26.953  31.642  1.00  0.00     0.074 A 
ATOM     60  C   UNL A   1      44.850  25.948  30.916  1.00  0.00     0.031 C 
ATOM     61  C   UNL A   1      44.446  27.417  32.871  1.00  0.00     0.034 A 
BRANCH  48  62
ATOM     62  C   UNL A   1      40.572  31.712  35.127  1.00  0.00     0.023 A 
ATOM     63  C   UNL A   1      39.580  31.424  36.081  1.00  0.00     0.031 A 
ATOM     64  C   UNL A   1      41.218  32.957  35.207  1.00  0.00     0.131 A 
ATOM     65  C   UNL A   1      39.204  32.397  37.018  1.00  0.00     0.055 A 
ATOM     66  C   UNL A   1      40.900  33.890  36.198  1.00  0.00     0.041 A 
ATOM     67  F   UNL A   1      42.158  33.299  34.312  1.00  0.00    -0.206 F 
ATOM     68  C   UNL A   1      39.875  33.618  37.101  1.00  0.00     0.022 A 
BRANCH  65  69
ATOM     69  S   UNL A   1      37.727  32.100  38.028  1.00  0.00     0.124 S 
ATOM     70  O   UNL A   1      36.807  33.109  37.505  1.00  0.00    -0.237 OA
ATOM     71  O   UNL A   1      37.401  30.715  37.712  1.00  0.00    -0.237 OA
ATOM     72  O   UNL A   1      38.191  32.338  39.392  1.00  0.00    -0.744 OA
ENDBRANCH  65  69
ENDBRANCH  48  62
BRANCH  49  73
ATOM     73  C   UNL A   1      42.565  25.662  27.375  1.00  0.00     0.023 A 
ATOM     74  C   UNL A   1      42.139  24.326  27.303  1.00  0.00     0.031 A 
ATOM     75  C   UNL A   1      43.369  26.151  26.330  1.00  0.00     0.131 A 
ATOM     76  C   UNL A   1      42.561  23.511  26.242  1.00  0.00     0.055 A 
ATOM     77  C   UNL A   1      43.741  25.352  25.248  1.00  0.00     0.041 A 
ATOM     78  F   UNL A   1      43.801  27.423  26.344  1.00  0.00    -0.206 F 
ATOM     79  C   UNL A   1      43.349  24.018  25.207  1.00  0.00     0.022 A 
BRANCH  76  80
ATOM     80  S   UNL A   1      42.140  21.746  26.279  1.00  0.00     0.124 S 
ATOM     81  O   UNL A   1      40.713  21.775  25.978  1.00  0.00    -0.237 OA
ATOM     82  O   UNL A   1      43.007  21.209  25.234  1.00  0.00    -0.237 OA
ATOM     83  O   UNL A   1      42.484  21.343  27.640  1.00  0.00    -0.744 OA
ENDBRANCH  76  80
ENDBRANCH  49  73
BRANCH  61  84
ATOM     84  C   UNL A   1      45.654  26.797  33.527  1.00  0.00     0.023 A 
ATOM     85  C   UNL A   1      45.568  25.601  34.261  1.00  0.00     0.031 A 
ATOM     86  C   UNL A   1      46.912  27.416  33.414  1.00  0.00     0.131 A 
ATOM     87  C   UNL A   1      46.708  25.090  34.898  1.00  0.00     0.055 A 
ATOM     88  C   UNL A   1      48.054  26.870  34.000  1.00  0.00     0.041 A 
ATOM     89  F   UNL A   1      47.051  28.559  32.725  1.00  0.00    -0.206 F 
ATOM     90  C   UNL A   1      47.954  25.708  34.759  1.00  0.00     0.022 A 
BRANCH  87  91
ATOM     91  S   UNL A   1      46.527  23.650  35.986  1.00  0.00     0.124 S 
ATOM     92  O   UNL A   1      47.865  23.072  35.951  1.00  0.00    -0.237 OA
ATOM     93  O   UNL A   1      46.130  24.262  37.250  1.00  0.00    -0.237 OA
ATOM     94  O   UNL A   1      45.490  22.854  35.332  1.00  0.00    -0.744 OA
ENDBRANCH  87  91
ENDBRANCH  61  84
ENDBRANCH  35  36
ENDBRANCH  27  30
ENDBRANCH  25  26
ENDBRANCH   1  25
TORSDOF 15
ENDMDL
MODEL 3
REMARK VINA RESULT:     -12.3      4.574      9.712
REMARK SMILES C[C@H]1CC[C@@](NC(=O)N[C@H]2CCOC2)(C(=O)NCCCNC(=O)c2ccc(-c3c4nc(c(-c5cc(S(=O)(=O)[O-])ccc5F)c5ccc([nH]5)c(-c5cc(S(=O)(=O)[O-])ccc5F)c5nc(c(-c6cc(S(=O)(=O)[O-])ccc6F)c6ccc3[nH]6)C=C5)C=C4)cc2)CC1
REMARK SMILES IDX 19 1 18 2 17 3 15 4 16 5 5 7 1 8 2 9 88 10 3 11 87 12 4 13
REMARK SMILES IDX 6 14 7 15 8 17 9 18 10 20 11 21 14 22 12 23 13 24 20 25
REMARK SMILES IDX 21 26 22 27 23 29 24 30 25 31 86 32 26 33 85 34 27 35 28 36
REMARK SMILES IDX 29 37 79 38 30 39 84 40 78 41 80 42 31 43 83 44 77 45 76 46
REMARK SMILES IDX 32 48 64 49 44 50 63 51 45 52 48 53 62 54 81 55 46 56 47 57
REMARK SMILES IDX 61 59 82 60 49 61 33 62 34 63 42 64 35 65 41 66 43 67 40 68
REMARK SMILES IDX 36 69 37 70 38 71 39 72 65 73 66 74 74 75 67 76 73 77 75 78
REMARK SMILES IDX 72 79 68 80 69 81 70 82 71 83 50 84 51 85 59 86 52 87 58 88
REMARK SMILES IDX 60 89 57 90 53 91 54 92 55 93 56 94
REMARK H PARENT 17 6 6 16 9 19 21 28 80 47 48 58
REMARK Flexibility Score: inf
ROOT
ATOM      1  C   UNL A   1      36.735  22.792  23.657  1.00  0.00     0.042 C 
ENDROOT
BRANCH   1   2
ATOM      2  C   UNL A   1      35.263  23.026  23.384  1.00  0.00     0.117 C 
BRANCH   2   3
ATOM      3  N   UNL A   1      34.786  24.225  24.052  1.00  0.00    -0.354 N 
ATOM      4  C   UNL A   1      33.522  24.725  24.150  1.00  0.00     0.245 C 
ATOM      5  O   UNL A   1      33.381  25.703  24.891  1.00  0.00    -0.272 OA
ATOM      6  H   UNL A   1      35.481  24.758  24.503  1.00  0.00     0.163 HD
BRANCH   4   7
ATOM      7  C   UNL A   1      32.372  24.172  23.263  1.00  0.00     0.120 C 
ATOM      8  C   UNL A   1      31.291  22.735  27.109  1.00  0.00     0.007 C 
ATOM      9  C   UNL A   1      30.945  22.960  25.631  1.00  0.00    -0.014 C 
ATOM     10  C   UNL A   1      31.898  22.125  24.758  1.00  0.00     0.006 C 
ATOM     11  C   UNL A   1      30.907  24.468  25.334  1.00  0.00     0.006 C 
ATOM     12  C   UNL A   1      32.129  22.656  23.346  1.00  0.00     0.039 C 
ATOM     13  C   UNL A   1      31.081  24.814  23.851  1.00  0.00     0.039 C 
BRANCH   7  14
ATOM     14  N   UNL A   1      32.526  24.558  21.838  1.00  0.00    -0.324 N 
ATOM     15  C   UNL A   1      32.645  25.691  21.138  1.00  0.00     0.315 C 
ATOM     16  H   UNL A   1      32.547  23.768  21.251  1.00  0.00     0.166 HD
ATOM     17  O   UNL A   1      33.038  25.578  19.972  1.00  0.00    -0.249 OA
ATOM     18  N   UNL A   1      32.343  26.924  21.551  1.00  0.00    -0.333 N 
ATOM     19  H   UNL A   1      32.580  27.604  20.878  1.00  0.00     0.165 HD
BRANCH  18  20
ATOM     20  C   UNL A   1      31.755  27.521  22.735  1.00  0.00     0.112 C 
ATOM     21  C   UNL A   1      32.577  28.621  23.363  1.00  0.00     0.056 C 
ATOM     22  C   UNL A   1      30.420  28.239  22.528  1.00  0.00     0.185 C 
ATOM     23  C   UNL A   1      31.557  29.218  24.307  1.00  0.00     0.162 C 
ATOM     24  O   UNL A   1      30.315  29.214  23.585  1.00  0.00    -0.379 OA
ENDBRANCH  18  20
ENDBRANCH   7  14
ENDBRANCH   4   7
ENDBRANCH   2   3
ENDBRANCH   1   2
BRANCH   1  25
ATOM     25  C   UNL A   1      37.112  23.068  25.102  1.00  0.00     0.118 C 
BRANCH  25  26
ATOM     26  N   UNL A   1      38.121  22.152  25.613  1.00  0.00    -0.352 N 
ATOM     27  C   UNL A   1      39.243  22.482  26.340  1.00  0.00     0.251 C 
ATOM     28  H   UNL A   1      37.987  21.197  25.418  1.00  0.00     0.163 HD
ATOM     29  O   UNL A   1      40.089  21.636  26.611  1.00  0.00    -0.269 OA
BRANCH  27  30
ATOM     30  C   UNL A   1      39.417  23.895  26.734  1.00  0.00     0.039 A 
ATOM     31  C   UNL A   1      39.063  24.287  28.025  1.00  0.00     0.014 A 
ATOM     32  C   UNL A   1      40.068  24.780  25.868  1.00  0.00     0.014 A 
ATOM     33  C   UNL A   1      39.424  25.557  28.474  1.00  0.00     0.010 A 
ATOM     34  C   UNL A   1      40.502  26.009  26.349  1.00  0.00     0.010 A 
ATOM     35  C   UNL A   1      40.181  26.413  27.656  1.00  0.00    -0.014 A 
BRANCH  35  36
ATOM     36  C   UNL A   1      40.619  27.751  28.133  1.00  0.00     0.031 A 
ATOM     37  C   UNL A   1      42.090  28.057  28.228  1.00  0.00     0.074 A 
ATOM     38  C   UNL A   1      39.708  28.662  28.534  1.00  0.00     0.049 A 
ATOM     39  N   UNL A   1      42.687  29.122  28.695  1.00  0.00    -0.248 NA
ATOM     40  C   UNL A   1      43.009  27.005  27.768  1.00  0.00     0.031 C 
ATOM     41  C   UNL A   1      38.256  28.466  28.533  1.00  0.00     0.029 A 
ATOM     42  N   UNL A   1      39.868  29.933  29.028  1.00  0.00    -0.354 N 
ATOM     43  C   UNL A   1      44.050  28.863  28.597  1.00  0.00     0.074 A 
ATOM     44  C   UNL A   1      44.185  27.512  28.099  1.00  0.00     0.031 C 
ATOM     45  C   UNL A   1      37.660  29.583  28.981  1.00  0.00     0.029 A 
ATOM     46  C   UNL A   1      38.683  30.560  29.342  1.00  0.00     0.049 A 
ATOM     47  H   UNL A   1      40.748  30.355  29.148  1.00  0.00     0.167 HD
ATOM     48  C   UNL A   1      45.093  29.685  28.868  1.00  0.00     0.034 A 
ATOM     49  C   UNL A   1      38.450  31.779  29.869  1.00  0.00     0.034 A 
ATOM     50  C   UNL A   1      44.940  31.036  29.347  1.00  0.00     0.049 A 
ATOM     51  C   UNL A   1      39.626  32.674  30.176  1.00  0.00     0.074 A 
ATOM     52  C   UNL A   1      45.922  31.973  29.611  1.00  0.00     0.029 A 
ATOM     53  N   UNL A   1      43.723  31.643  29.636  1.00  0.00    -0.354 N 
ATOM     54  N   UNL A   1      40.909  32.430  30.033  1.00  0.00    -0.248 NA
ATOM     55  C   UNL A   1      39.324  34.011  30.702  1.00  0.00     0.031 C 
ATOM     56  C   UNL A   1      45.306  33.124  30.117  1.00  0.00     0.029 A 
ATOM     57  C   UNL A   1      43.934  32.933  30.097  1.00  0.00     0.049 A 
ATOM     58  H   UNL A   1      42.842  31.219  29.528  1.00  0.00     0.167 HD
ATOM     59  C   UNL A   1      41.562  33.598  30.419  1.00  0.00     0.074 A 
ATOM     60  C   UNL A   1      40.532  34.547  30.787  1.00  0.00     0.031 C 
ATOM     61  C   UNL A   1      42.893  33.865  30.462  1.00  0.00     0.034 A 
BRANCH  48  62
ATOM     62  C   UNL A   1      46.482  29.130  28.665  1.00  0.00     0.023 A 
ATOM     63  C   UNL A   1      47.030  28.970  27.380  1.00  0.00     0.031 A 
ATOM     64  C   UNL A   1      47.255  28.718  29.764  1.00  0.00     0.131 A 
ATOM     65  C   UNL A   1      48.272  28.338  27.221  1.00  0.00     0.055 A 
ATOM     66  C   UNL A   1      48.529  28.169  29.604  1.00  0.00     0.041 A 
ATOM     67  F   UNL A   1      46.777  28.824  31.015  1.00  0.00    -0.206 F 
ATOM     68  C   UNL A   1      49.038  27.960  28.325  1.00  0.00     0.022 A 
BRANCH  65  69
ATOM     69  S   UNL A   1      48.802  27.883  25.547  1.00  0.00     0.124 S 
ATOM     70  O   UNL A   1      47.697  28.397  24.740  1.00  0.00    -0.237 OA
ATOM     71  O   UNL A   1      50.071  28.589  25.415  1.00  0.00    -0.237 OA
ATOM     72  O   UNL A   1      48.900  26.427  25.602  1.00  0.00    -0.744 OA
ENDBRANCH  65  69
ENDBRANCH  48  62
BRANCH  49  73
ATOM     73  C   UNL A   1      37.057  32.231  30.155  1.00  0.00     0.023 A 
ATOM     74  C   UNL A   1      36.289  32.881  29.175  1.00  0.00     0.031 A 
ATOM     75  C   UNL A   1      36.489  32.065  31.431  1.00  0.00     0.131 A 
ATOM     76  C   UNL A   1      35.022  33.388  29.500  1.00  0.00     0.055 A 
ATOM     77  C   UNL A   1      35.206  32.523  31.733  1.00  0.00     0.041 A 
ATOM     78  F   UNL A   1      37.176  31.446  32.404  1.00  0.00    -0.206 F 
ATOM     79  C   UNL A   1      34.469  33.203  30.769  1.00  0.00     0.022 A 
BRANCH  76  80
ATOM     80  S   UNL A   1      34.138  34.380  28.263  1.00  0.00     0.124 S 
ATOM     81  O   UNL A   1      35.156  34.545  27.232  1.00  0.00    -0.237 OA
ATOM     82  O   UNL A   1      33.016  33.509  27.925  1.00  0.00    -0.237 OA
ATOM     83  O   UNL A   1      33.783  35.595  28.992  1.00  0.00    -0.744 OA
ENDBRANCH  76  80
ENDBRANCH  49  73
BRANCH  61  84
ATOM     84  C   UNL A   1      43.301  35.259  30.870  1.00  0.00     0.023 A 
ATOM     85  C   UNL A   1      43.455  35.622  32.220  1.00  0.00     0.031 A 
ATOM     86  C   UNL A   1      43.540  36.238  29.889  1.00  0.00     0.131 A 
ATOM     87  C   UNL A   1      43.785  36.944  32.553  1.00  0.00     0.055 A 
ATOM     88  C   UNL A   1      43.925  37.536  30.226  1.00  0.00     0.041 A 
ATOM     89  F   UNL A   1      43.407  35.946  28.586  1.00  0.00    -0.206 F 
ATOM     90  C   UNL A   1      44.036  37.899  31.564  1.00  0.00     0.022 A 
BRANCH  87  91
ATOM     91  S   UNL A   1      43.796  37.424  34.302  1.00  0.00     0.124 S 
ATOM     92  O   UNL A   1      45.051  38.159  34.407  1.00  0.00    -0.237 OA
ATOM     93  O   UNL A   1      42.579  38.222  34.414  1.00  0.00    -0.237 OA
ATOM     94  O   UNL A   1      43.765  36.146  35.009  1.00  0.00    -0.744 OA
ENDBRANCH  87  91
ENDBRANCH  61  84
ENDBRANCH  35  36
ENDBRANCH  27  30
ENDBRANCH  25  26
ENDBRANCH   1  25
TORSDOF 15
ENDMDL
