MODEL 1
REMARK VINA RESULT:     -12.4      0.000      0.000
REMARK SMILES CCCc1cc(OC(F)(F)F)cc2c1O[C@@H](C(F)(F)F)C(C(=O)NCCCNC(=O)c1ccc(-c3c4nc(c(-c5cc(S(=O)(=O)[O-])ccc5F)c5ccc([nH]5)c(-c5cc(S(=O)(=O)[O-])ccc5F)c5nc(c(-c6cc(S(=O)(=O)[O-])ccc6F)c6ccc3[nH]6)C=C5)C=C4)cc1)=C2
REMARK SMILES IDX 26 1 25 2 24 3 22 4 23 5 21 7 4 8 5 9 14 10 6 11 13 12 15 13
REMARK SMILES IDX 12 14 94 15 16 16 3 17 2 18 1 19 7 20 8 21 9 22 10 23 11 24
REMARK SMILES IDX 17 25 18 26 19 27 20 28 27 29 28 30 29 31 30 33 31 34 32 35
REMARK SMILES IDX 93 36 33 37 92 38 34 39 35 40 36 41 86 42 37 43 91 44 85 45
REMARK SMILES IDX 87 46 38 47 90 48 84 49 83 50 39 52 71 53 51 54 70 55 52 56
REMARK SMILES IDX 55 57 69 58 88 59 53 60 54 61 68 63 89 64 56 65 40 66 41 67
REMARK SMILES IDX 49 68 42 69 48 70 50 71 47 72 43 73 44 74 45 75 46 76 72 77
REMARK SMILES IDX 73 78 81 79 74 80 80 81 82 82 79 83 75 84 76 85 77 86 78 87
REMARK SMILES IDX 57 88 58 89 66 90 59 91 65 92 67 93 64 94 60 95 61 96 62 97
REMARK SMILES IDX 63 98
REMARK H PARENT 24 6 28 32 87 51 55 62
REMARK Flexibility Score: inf
ROOT
ATOM      1  C   UNL A   1      36.205  22.286  23.608  1.00  0.00     0.042 C 
ENDROOT
BRANCH   1   2
ATOM      2  C   UNL A   1      35.173  23.367  23.277  1.00  0.00     0.118 C 
BRANCH   2   3
ATOM      3  N   UNL A   1      33.888  22.758  22.981  1.00  0.00    -0.352 N 
ATOM      4  C   UNL A   1      32.612  23.161  23.195  1.00  0.00     0.251 C 
ATOM      5  O   UNL A   1      31.713  22.348  23.001  1.00  0.00    -0.270 OA
ATOM      6  H   UNL A   1      33.958  21.880  22.541  1.00  0.00     0.163 HD
BRANCH   4   7
ATOM      7  C   UNL A   1      32.262  24.554  23.570  1.00  0.00     0.067 C 
ATOM      8  C   UNL A   1      31.267  28.383  24.998  1.00  0.00    -0.002 A 
ATOM      9  C   UNL A   1      30.709  29.313  24.091  1.00  0.00     0.054 A 
ATOM     10  C   UNL A   1      31.538  27.090  24.530  1.00  0.00     0.131 A 
ATOM     11  C   UNL A   1      30.485  28.981  22.753  1.00  0.00     0.130 A 
ATOM     12  C   UNL A   1      31.393  26.774  23.178  1.00  0.00     0.021 A 
ATOM     13  O   UNL A   1      31.855  26.118  25.433  1.00  0.00    -0.475 OA
ATOM     14  C   UNL A   1      30.861  27.719  22.297  1.00  0.00     0.058 A 
ATOM     15  C   UNL A   1      31.737  25.439  22.710  1.00  0.00     0.025 C 
ATOM     16  C   UNL A   1      32.677  25.013  24.961  1.00  0.00     0.314 C 
BRANCH   8  17
ATOM     17  C   UNL A   1      31.507  28.856  26.420  1.00  0.00     0.039 C 
BRANCH  17  18
ATOM     18  C   UNL A   1      32.898  28.702  27.053  1.00  0.00     0.001 C 
ATOM     19  C   UNL A   1      34.058  29.019  26.116  1.00  0.00     0.004 C 
ENDBRANCH  17  18
ENDBRANCH   8  17
BRANCH  11  20
ATOM     20  O   UNL A   1      29.922  29.775  21.796  1.00  0.00    -0.406 OA
BRANCH  20  21
ATOM     21  C   UNL A   1      28.538  30.061  21.898  1.00  0.00     0.573 C 
ATOM     22  F   UNL A   1      28.304  31.037  22.802  1.00  0.00    -0.132 F 
ATOM     23  F   UNL A   1      28.031  30.428  20.701  1.00  0.00    -0.132 F 
ATOM     24  F   UNL A   1      27.891  28.948  22.307  1.00  0.00    -0.132 F 
ENDBRANCH  20  21
ENDBRANCH  11  20
BRANCH  16  25
ATOM     25  C   UNL A   1      32.703  23.965  26.098  1.00  0.00     0.429 C 
ATOM     26  F   UNL A   1      33.944  23.740  26.582  1.00  0.00    -0.167 F 
ATOM     27  F   UNL A   1      31.981  24.404  27.169  1.00  0.00    -0.167 F 
ATOM     28  F   UNL A   1      32.161  22.783  25.730  1.00  0.00    -0.167 F 
ENDBRANCH  16  25
ENDBRANCH   4   7
ENDBRANCH   2   3
ENDBRANCH   1   2
BRANCH   1  29
ATOM     29  C   UNL A   1      36.460  22.162  25.106  1.00  0.00     0.118 C 
BRANCH  29  30
ATOM     30  N   UNL A   1      37.281  20.998  25.408  1.00  0.00    -0.352 N 
ATOM     31  C   UNL A   1      38.597  20.940  25.793  1.00  0.00     0.251 C 
ATOM     32  H   UNL A   1      36.826  20.129  25.326  1.00  0.00     0.163 HD
ATOM     33  O   UNL A   1      39.206  19.880  25.711  1.00  0.00    -0.269 OA
BRANCH  31  34
ATOM     34  C   UNL A   1      39.266  22.160  26.292  1.00  0.00     0.039 A 
ATOM     35  C   UNL A   1      40.335  22.038  27.182  1.00  0.00     0.014 A 
ATOM     36  C   UNL A   1      38.821  23.422  25.892  1.00  0.00     0.014 A 
ATOM     37  C   UNL A   1      40.997  23.184  27.625  1.00  0.00     0.010 A 
ATOM     38  C   UNL A   1      39.530  24.556  26.271  1.00  0.00     0.010 A 
ATOM     39  C   UNL A   1      40.621  24.450  27.146  1.00  0.00    -0.014 A 
BRANCH  39  40
ATOM     40  C   UNL A   1      41.339  25.684  27.553  1.00  0.00     0.031 A 
ATOM     41  C   UNL A   1      40.614  26.742  28.339  1.00  0.00     0.074 A 
ATOM     42  C   UNL A   1      42.607  25.887  27.143  1.00  0.00     0.049 A 
ATOM     43  N   UNL A   1      41.007  27.943  28.671  1.00  0.00    -0.248 NA
ATOM     44  C   UNL A   1      39.250  26.412  28.782  1.00  0.00     0.031 C 
ATOM     45  C   UNL A   1      43.401  24.942  26.353  1.00  0.00     0.029 A 
ATOM     46  N   UNL A   1      43.446  26.958  27.316  1.00  0.00    -0.354 N 
ATOM     47  C   UNL A   1      39.935  28.521  29.343  1.00  0.00     0.074 A 
ATOM     48  C   UNL A   1      38.855  27.557  29.318  1.00  0.00     0.031 C 
ATOM     49  C   UNL A   1      44.615  25.469  26.126  1.00  0.00     0.029 A 
ATOM     50  C   UNL A   1      44.668  26.810  26.699  1.00  0.00     0.049 A 
ATOM     51  H   UNL A   1      43.198  27.759  27.833  1.00  0.00     0.167 HD
ATOM     52  C   UNL A   1      39.866  29.734  29.942  1.00  0.00     0.034 A 
ATOM     53  C   UNL A   1      45.702  27.667  26.587  1.00  0.00     0.034 A 
ATOM     54  C   UNL A   1      40.960  30.674  29.966  1.00  0.00     0.049 A 
ATOM     55  C   UNL A   1      45.587  29.029  27.228  1.00  0.00     0.074 A 
ATOM     56  C   UNL A   1      41.021  31.909  30.587  1.00  0.00     0.029 A 
ATOM     57  N   UNL A   1      42.184  30.487  29.334  1.00  0.00    -0.354 N 
ATOM     58  N   UNL A   1      44.581  29.545  27.895  1.00  0.00    -0.248 NA
ATOM     59  C   UNL A   1      46.748  29.921  27.106  1.00  0.00     0.031 C 
ATOM     60  C   UNL A   1      42.246  32.501  30.266  1.00  0.00     0.029 A 
ATOM     61  C   UNL A   1      42.990  31.599  29.522  1.00  0.00     0.049 A 
ATOM     62  H   UNL A   1      42.440  29.684  28.827  1.00  0.00     0.167 HD
ATOM     63  C   UNL A   1      45.005  30.807  28.306  1.00  0.00     0.074 A 
ATOM     64  C   UNL A   1      46.359  30.967  27.818  1.00  0.00     0.031 C 
ATOM     65  C   UNL A   1      44.340  31.744  29.028  1.00  0.00     0.034 A 
BRANCH  52  66
ATOM     66  C   UNL A   1      38.559  30.122  30.593  1.00  0.00     0.023 A 
ATOM     67  C   UNL A   1      37.554  30.806  29.886  1.00  0.00     0.031 A 
ATOM     68  C   UNL A   1      38.321  29.820  31.945  1.00  0.00     0.131 A 
ATOM     69  C   UNL A   1      36.394  31.229  30.551  1.00  0.00     0.055 A 
ATOM     70  C   UNL A   1      37.125  30.167  32.578  1.00  0.00     0.041 A 
ATOM     71  F   UNL A   1      39.250  29.190  32.680  1.00  0.00    -0.206 F 
ATOM     72  C   UNL A   1      36.159  30.890  31.885  1.00  0.00     0.022 A 
BRANCH  69  73
ATOM     73  S   UNL A   1      35.265  32.355  29.686  1.00  0.00     0.124 S 
ATOM     74  O   UNL A   1      36.195  33.334  29.129  1.00  0.00    -0.237 OA
ATOM     75  O   UNL A   1      34.613  31.472  28.726  1.00  0.00    -0.237 OA
ATOM     76  O   UNL A   1      34.403  32.863  30.753  1.00  0.00    -0.744 OA
ENDBRANCH  69  73
ENDBRANCH  52  66
BRANCH  53  77
ATOM     77  C   UNL A   1      46.927  27.283  25.827  1.00  0.00     0.023 A 
ATOM     78  C   UNL A   1      47.158  27.773  24.532  1.00  0.00     0.031 A 
ATOM     79  C   UNL A   1      47.863  26.379  26.364  1.00  0.00     0.131 A 
ATOM     80  C   UNL A   1      48.262  27.316  23.796  1.00  0.00     0.055 A 
ATOM     81  C   UNL A   1      48.993  25.976  25.652  1.00  0.00     0.041 A 
ATOM     82  F   UNL A   1      47.695  25.881  27.599  1.00  0.00    -0.206 F 
ATOM     83  C   UNL A   1      49.189  26.433  24.352  1.00  0.00     0.022 A 
BRANCH  80  84
ATOM     84  S   UNL A   1      48.410  27.812  22.059  1.00  0.00     0.124 S 
ATOM     85  O   UNL A   1      48.350  26.524  21.377  1.00  0.00    -0.237 OA
ATOM     86  O   UNL A   1      47.251  28.682  21.892  1.00  0.00    -0.237 OA
ATOM     87  O   UNL A   1      49.706  28.486  22.006  1.00  0.00    -0.744 OA
ENDBRANCH  80  84
ENDBRANCH  53  77
BRANCH  65  88
ATOM     88  C   UNL A   1      45.091  33.002  29.389  1.00  0.00     0.023 A 
ATOM     89  C   UNL A   1      45.040  34.156  28.587  1.00  0.00     0.031 A 
ATOM     90  C   UNL A   1      45.858  33.048  30.567  1.00  0.00     0.131 A 
ATOM     91  C   UNL A   1      45.781  35.290  28.951  1.00  0.00     0.055 A 
ATOM     92  C   UNL A   1      46.541  34.200  30.955  1.00  0.00     0.041 A 
ATOM     93  F   UNL A   1      45.945  31.973  31.368  1.00  0.00    -0.206 F 
ATOM     94  C   UNL A   1      46.514  35.326  30.140  1.00  0.00     0.022 A 
BRANCH  91  95
ATOM     95  S   UNL A   1      45.842  36.697  27.806  1.00  0.00     0.124 S 
ATOM     96  O   UNL A   1      46.886  36.282  26.874  1.00  0.00    -0.237 OA
ATOM     97  O   UNL A   1      44.485  36.724  27.271  1.00  0.00    -0.237 OA
ATOM     98  O   UNL A   1      46.191  37.825  28.667  1.00  0.00    -0.744 OA
ENDBRANCH  91  95
ENDBRANCH  65  88
ENDBRANCH  39  40
ENDBRANCH  31  34
ENDBRANCH  29  30
ENDBRANCH   1  29
TORSDOF 18
ENDMDL
MODEL 2
REMARK VINA RESULT:     -12.3      5.644     10.616
REMARK SMILES CCCc1cc(OC(F)(F)F)cc2c1O[C@@H](C(F)(F)F)C(C(=O)NCCCNC(=O)c1ccc(-c3c4nc(c(-c5cc(S(=O)(=O)[O-])ccc5F)c5ccc([nH]5)c(-c5cc(S(=O)(=O)[O-])ccc5F)c5nc(c(-c6cc(S(=O)(=O)[O-])ccc6F)c6ccc3[nH]6)C=C5)C=C4)cc1)=C2
REMARK SMILES IDX 26 1 25 2 24 3 22 4 23 5 21 7 4 8 5 9 14 10 6 11 13 12 15 13
REMARK SMILES IDX 12 14 94 15 16 16 3 17 2 18 1 19 7 20 8 21 9 22 10 23 11 24
REMARK SMILES IDX 17 25 18 26 19 27 20 28 27 29 28 30 29 31 30 33 31 34 32 35
REMARK SMILES IDX 93 36 33 37 92 38 34 39 35 40 36 41 86 42 37 43 91 44 85 45
REMARK SMILES IDX 87 46 38 47 90 48 84 49 83 50 39 52 71 53 51 54 70 55 52 56
REMARK SMILES IDX 55 57 69 58 88 59 53 60 54 61 68 63 89 64 56 65 40 66 41 67
REMARK SMILES IDX 49 68 42 69 48 70 50 71 47 72 43 73 44 74 45 75 46 76 72 77
REMARK SMILES IDX 73 78 81 79 74 80 80 81 82 82 79 83 75 84 76 85 77 86 78 87
REMARK SMILES IDX 57 88 58 89 66 90 59 91 65 92 67 93 64 94 60 95 61 96 62 97
REMARK SMILES IDX 63 98
REMARK H PARENT 24 6 28 32 87 51 55 62
REMARK Flexibility Score: inf
ROOT
ATOM      1  C   UNL A   1      31.694  31.155  26.537  1.00  0.00     0.042 C 
ENDROOT
BRANCH   1   2
ATOM      2  C   UNL A   1      31.962  29.731  26.043  1.00  0.00     0.118 C 
BRANCH   2   3
ATOM      3  N   UNL A   1      32.045  29.712  24.593  1.00  0.00    -0.352 N 
ATOM      4  C   UNL A   1      32.458  28.768  23.711  1.00  0.00     0.251 C 
ATOM      5  O   UNL A   1      32.588  29.100  22.536  1.00  0.00    -0.270 OA
ATOM      6  H   UNL A   1      31.742  30.547  24.168  1.00  0.00     0.163 HD
BRANCH   4   7
ATOM      7  C   UNL A   1      32.675  27.351  24.094  1.00  0.00     0.067 C 
ATOM      8  C   UNL A   1      32.910  23.299  25.197  1.00  0.00    -0.002 A 
ATOM      9  C   UNL A   1      34.128  22.819  25.731  1.00  0.00     0.054 A 
ATOM     10  C   UNL A   1      32.820  24.663  24.890  1.00  0.00     0.131 A 
ATOM     11  C   UNL A   1      35.232  23.658  25.898  1.00  0.00     0.130 A 
ATOM     12  C   UNL A   1      33.940  25.492  24.978  1.00  0.00     0.021 A 
ATOM     13  O   UNL A   1      31.596  25.191  24.595  1.00  0.00    -0.475 OA
ATOM     14  C   UNL A   1      35.139  24.987  25.487  1.00  0.00     0.058 A 
ATOM     15  C   UNL A   1      33.831  26.893  24.597  1.00  0.00     0.025 C 
ATOM     16  C   UNL A   1      31.568  26.369  23.740  1.00  0.00     0.314 C 
BRANCH   8  17
ATOM     17  C   UNL A   1      31.785  22.297  25.019  1.00  0.00     0.039 C 
BRANCH  17  18
ATOM     18  C   UNL A   1      32.099  20.795  24.959  1.00  0.00     0.001 C 
ATOM     19  C   UNL A   1      32.454  20.277  23.569  1.00  0.00     0.004 C 
ENDBRANCH  17  18
ENDBRANCH   8  17
BRANCH  11  20
ATOM     20  O   UNL A   1      36.441  23.322  26.434  1.00  0.00    -0.406 OA
BRANCH  20  21
ATOM     21  C   UNL A   1      37.402  22.719  25.586  1.00  0.00     0.573 C 
ATOM     22  F   UNL A   1      37.439  21.380  25.763  1.00  0.00    -0.132 F 
ATOM     23  F   UNL A   1      37.144  22.994  24.290  1.00  0.00    -0.132 F 
ATOM     24  F   UNL A   1      38.622  23.213  25.889  1.00  0.00    -0.132 F 
ENDBRANCH  20  21
ENDBRANCH  11  20
BRANCH  16  25
ATOM     25  C   UNL A   1      30.108  26.881  23.745  1.00  0.00     0.429 C 
ATOM     26  F   UNL A   1      29.841  27.727  22.726  1.00  0.00    -0.167 F 
ATOM     27  F   UNL A   1      29.237  25.845  23.579  1.00  0.00    -0.167 F 
ATOM     28  F   UNL A   1      29.770  27.483  24.907  1.00  0.00    -0.167 F 
ENDBRANCH  16  25
ENDBRANCH   4   7
ENDBRANCH   2   3
ENDBRANCH   1   2
BRANCH   1  29
ATOM     29  C   UNL A   1      32.948  31.827  27.085  1.00  0.00     0.118 C 
BRANCH  29  30
ATOM     30  N   UNL A   1      32.717  33.240  27.351  1.00  0.00    -0.352 N 
ATOM     31  C   UNL A   1      33.218  34.027  28.358  1.00  0.00     0.251 C 
ATOM     32  H   UNL A   1      32.116  33.695  26.718  1.00  0.00     0.163 HD
ATOM     33  O   UNL A   1      32.687  35.103  28.605  1.00  0.00    -0.269 OA
BRANCH  31  34
ATOM     34  C   UNL A   1      34.385  33.563  29.135  1.00  0.00     0.039 A 
ATOM     35  C   UNL A   1      34.189  32.687  30.205  1.00  0.00     0.014 A 
ATOM     36  C   UNL A   1      35.669  34.008  28.813  1.00  0.00     0.014 A 
ATOM     37  C   UNL A   1      35.292  32.212  30.917  1.00  0.00     0.010 A 
ATOM     38  C   UNL A   1      36.771  33.473  29.471  1.00  0.00     0.010 A 
ATOM     39  C   UNL A   1      36.594  32.574  30.534  1.00  0.00    -0.014 A 
BRANCH  39  40
ATOM     40  C   UNL A   1      37.791  32.044  31.234  1.00  0.00     0.031 A 
ATOM     41  C   UNL A   1      38.603  30.951  30.594  1.00  0.00     0.074 A 
ATOM     42  C   UNL A   1      38.092  32.484  32.472  1.00  0.00     0.049 A 
ATOM     43  N   UNL A   1      39.592  30.255  31.092  1.00  0.00    -0.248 NA
ATOM     44  C   UNL A   1      38.228  30.569  29.224  1.00  0.00     0.031 C 
ATOM     45  C   UNL A   1      37.359  33.522  33.201  1.00  0.00     0.029 A 
ATOM     46  N   UNL A   1      39.080  32.104  33.344  1.00  0.00    -0.354 N 
ATOM     47  C   UNL A   1      39.945  29.341  30.105  1.00  0.00     0.074 A 
ATOM     48  C   UNL A   1      39.023  29.532  29.005  1.00  0.00     0.031 C 
ATOM     49  C   UNL A   1      37.933  33.707  34.400  1.00  0.00     0.029 A 
ATOM     50  C   UNL A   1      39.035  32.762  34.552  1.00  0.00     0.049 A 
ATOM     51  H   UNL A   1      39.758  31.424  33.127  1.00  0.00     0.167 HD
ATOM     52  C   UNL A   1      40.957  28.439  30.109  1.00  0.00     0.034 A 
ATOM     53  C   UNL A   1      39.780  32.604  35.664  1.00  0.00     0.034 A 
ATOM     54  C   UNL A   1      41.872  28.274  31.212  1.00  0.00     0.049 A 
ATOM     55  C   UNL A   1      40.875  31.565  35.660  1.00  0.00     0.074 A 
ATOM     56  C   UNL A   1      42.964  27.430  31.305  1.00  0.00     0.029 A 
ATOM     57  N   UNL A   1      41.797  28.962  32.417  1.00  0.00    -0.354 N 
ATOM     58  N   UNL A   1      41.223  30.736  34.704  1.00  0.00    -0.248 NA
ATOM     59  C   UNL A   1      41.682  31.446  36.882  1.00  0.00     0.031 C 
ATOM     60  C   UNL A   1      43.501  27.548  32.592  1.00  0.00     0.029 A 
ATOM     61  C   UNL A   1      42.802  28.533  33.271  1.00  0.00     0.049 A 
ATOM     62  H   UNL A   1      41.129  29.650  32.634  1.00  0.00     0.167 HD
ATOM     63  C   UNL A   1      42.315  30.024  35.197  1.00  0.00     0.074 A 
ATOM     64  C   UNL A   1      42.571  30.529  36.530  1.00  0.00     0.031 C 
ATOM     65  C   UNL A   1      43.044  29.049  34.599  1.00  0.00     0.034 A 
BRANCH  52  66
ATOM     66  C   UNL A   1      41.106  27.547  28.900  1.00  0.00     0.023 A 
ATOM     67  C   UNL A   1      42.105  27.769  27.934  1.00  0.00     0.031 A 
ATOM     68  C   UNL A   1      40.227  26.470  28.697  1.00  0.00     0.131 A 
ATOM     69  C   UNL A   1      42.152  26.976  26.779  1.00  0.00     0.055 A 
ATOM     70  C   UNL A   1      40.334  25.628  27.587  1.00  0.00     0.041 A 
ATOM     71  F   UNL A   1      39.238  26.220  29.569  1.00  0.00    -0.206 F 
ATOM     72  C   UNL A   1      41.292  25.888  26.612  1.00  0.00     0.022 A 
BRANCH  69  73
ATOM     73  S   UNL A   1      43.257  27.477  25.431  1.00  0.00     0.124 S 
ATOM     74  O   UNL A   1      44.258  28.263  26.148  1.00  0.00    -0.237 OA
ATOM     75  O   UNL A   1      43.710  26.195  24.901  1.00  0.00    -0.237 OA
ATOM     76  O   UNL A   1      42.389  28.248  24.544  1.00  0.00    -0.744 OA
ENDBRANCH  69  73
ENDBRANCH  52  66
BRANCH  53  77
ATOM     77  C   UNL A   1      39.513  33.427  36.880  1.00  0.00     0.023 A 
ATOM     78  C   UNL A   1      40.214  34.621  37.113  1.00  0.00     0.031 A 
ATOM     79  C   UNL A   1      38.589  33.006  37.854  1.00  0.00     0.131 A 
ATOM     80  C   UNL A   1      40.023  35.322  38.314  1.00  0.00     0.055 A 
ATOM     81  C   UNL A   1      38.357  33.740  39.018  1.00  0.00     0.041 A 
ATOM     82  F   UNL A   1      37.888  31.874  37.682  1.00  0.00    -0.206 F 
ATOM     83  C   UNL A   1      39.088  34.899  39.261  1.00  0.00     0.022 A 
BRANCH  80  84
ATOM     84  S   UNL A   1      41.094  36.741  38.668  1.00  0.00     0.124 S 
ATOM     85  O   UNL A   1      41.831  36.874  37.416  1.00  0.00    -0.237 OA
ATOM     86  O   UNL A   1      40.122  37.790  38.955  1.00  0.00    -0.237 OA
ATOM     87  O   UNL A   1      41.884  36.294  39.813  1.00  0.00    -0.744 OA
ENDBRANCH  80  84
ENDBRANCH  53  77
BRANCH  65  88
ATOM     88  C   UNL A   1      44.230  28.507  35.359  1.00  0.00     0.023 A 
ATOM     89  C   UNL A   1      44.145  27.343  36.143  1.00  0.00     0.031 A 
ATOM     90  C   UNL A   1      45.473  29.163  35.281  1.00  0.00     0.131 A 
ATOM     91  C   UNL A   1      45.269  26.898  36.854  1.00  0.00     0.055 A 
ATOM     92  C   UNL A   1      46.602  28.680  35.941  1.00  0.00     0.041 A 
ATOM     93  F   UNL A   1      45.610  30.282  34.551  1.00  0.00    -0.206 F 
ATOM     94  C   UNL A   1      46.502  27.547  36.742  1.00  0.00     0.022 A 
BRANCH  91  95
ATOM     95  S   UNL A   1      45.081  25.502  37.999  1.00  0.00     0.124 S 
ATOM     96  O   UNL A   1      43.755  25.002  37.649  1.00  0.00    -0.237 OA
ATOM     97  O   UNL A   1      46.203  24.645  37.633  1.00  0.00    -0.237 OA
ATOM     98  O   UNL A   1      45.182  26.125  39.318  1.00  0.00    -0.744 OA
ENDBRANCH  91  95
ENDBRANCH  65  88
ENDBRANCH  39  40
ENDBRANCH  31  34
ENDBRANCH  29  30
ENDBRANCH   1  29
TORSDOF 18
ENDMDL
MODEL 3
REMARK VINA RESULT:     -12.2      1.606      7.494
REMARK SMILES CCCc1cc(OC(F)(F)F)cc2c1O[C@@H](C(F)(F)F)C(C(=O)NCCCNC(=O)c1ccc(-c3c4nc(c(-c5cc(S(=O)(=O)[O-])ccc5F)c5ccc([nH]5)c(-c5cc(S(=O)(=O)[O-])ccc5F)c5nc(c(-c6cc(S(=O)(=O)[O-])ccc6F)c6ccc3[nH]6)C=C5)C=C4)cc1)=C2
REMARK SMILES IDX 26 1 25 2 24 3 22 4 23 5 21 7 4 8 5 9 14 10 6 11 13 12 15 13
REMARK SMILES IDX 12 14 94 15 16 16 3 17 2 18 1 19 7 20 8 21 9 22 10 23 11 24
REMARK SMILES IDX 17 25 18 26 19 27 20 28 27 29 28 30 29 31 30 33 31 34 32 35
REMARK SMILES IDX 93 36 33 37 92 38 34 39 35 40 36 41 86 42 37 43 91 44 85 45
REMARK SMILES IDX 87 46 38 47 90 48 84 49 83 50 39 52 71 53 51 54 70 55 52 56
REMARK SMILES IDX 55 57 69 58 88 59 53 60 54 61 68 63 89 64 56 65 40 66 41 67
REMARK SMILES IDX 49 68 42 69 48 70 50 71 47 72 43 73 44 74 45 75 46 76 72 77
REMARK SMILES IDX 73 78 81 79 74 80 80 81 82 82 79 83 75 84 76 85 77 86 78 87
REMARK SMILES IDX 57 88 58 89 66 90 59 91 65 92 67 93 64 94 60 95 61 96 62 97
REMARK SMILES IDX 63 98
REMARK H PARENT 24 6 28 32 87 51 55 62
REMARK Flexibility Score: inf
ROOT
ATOM      1  C   UNL A   1      36.694  22.201  23.953  1.00  0.00     0.042 C 
ENDROOT
BRANCH   1   2
ATOM      2  C   UNL A   1      35.680  23.245  23.478  1.00  0.00     0.118 C 
BRANCH   2   3
ATOM      3  N   UNL A   1      34.455  22.594  23.050  1.00  0.00    -0.352 N 
ATOM      4  C   UNL A   1      33.146  22.914  23.200  1.00  0.00     0.251 C 
ATOM      5  O   UNL A   1      32.309  22.072  22.885  1.00  0.00    -0.270 OA
ATOM      6  H   UNL A   1      34.604  21.756  22.553  1.00  0.00     0.163 HD
BRANCH   4   7
ATOM      7  C   UNL A   1      32.693  24.254  23.648  1.00  0.00     0.067 C 
ATOM      8  C   UNL A   1      31.353  27.900  25.263  1.00  0.00    -0.002 A 
ATOM      9  C   UNL A   1      30.912  28.906  24.373  1.00  0.00     0.054 A 
ATOM     10  C   UNL A   1      31.739  26.666  24.721  1.00  0.00     0.131 A 
ATOM     11  C   UNL A   1      30.911  28.707  22.990  1.00  0.00     0.130 A 
ATOM     12  C   UNL A   1      31.818  26.485  23.339  1.00  0.00     0.021 A 
ATOM     13  O   UNL A   1      31.945  25.614  25.565  1.00  0.00    -0.475 OA
ATOM     14  C   UNL A   1      31.398  27.504  22.480  1.00  0.00     0.058 A 
ATOM     15  C   UNL A   1      32.278  25.212  22.805  1.00  0.00     0.025 C 
ATOM     16  C   UNL A   1      32.869  24.579  25.125  1.00  0.00     0.314 C 
BRANCH   8  17
ATOM     17  C   UNL A   1      31.352  28.231  26.744  1.00  0.00     0.039 C 
BRANCH  17  18
ATOM     18  C   UNL A   1      32.304  29.305  27.289  1.00  0.00     0.001 C 
ATOM     19  C   UNL A   1      33.778  28.914  27.265  1.00  0.00     0.004 C 
ENDBRANCH  17  18
ENDBRANCH   8  17
BRANCH  11  20
ATOM     20  O   UNL A   1      30.477  29.582  22.038  1.00  0.00    -0.406 OA
BRANCH  20  21
ATOM     21  C   UNL A   1      29.133  30.025  22.103  1.00  0.00     0.573 C 
ATOM     22  F   UNL A   1      28.980  30.989  23.037  1.00  0.00    -0.132 F 
ATOM     23  F   UNL A   1      28.718  30.491  20.905  1.00  0.00    -0.132 F 
ATOM     24  F   UNL A   1      28.346  28.983  22.447  1.00  0.00    -0.132 F 
ENDBRANCH  20  21
ENDBRANCH  11  20
BRANCH  16  25
ATOM     25  C   UNL A   1      32.754  23.422  26.145  1.00  0.00     0.429 C 
ATOM     26  F   UNL A   1      32.482  23.846  27.398  1.00  0.00    -0.167 F 
ATOM     27  F   UNL A   1      31.717  22.599  25.820  1.00  0.00    -0.167 F 
ATOM     28  F   UNL A   1      33.861  22.647  26.181  1.00  0.00    -0.167 F 
ENDBRANCH  16  25
ENDBRANCH   4   7
ENDBRANCH   2   3
ENDBRANCH   1   2
BRANCH   1  29
ATOM     29  C   UNL A   1      37.005  22.324  25.441  1.00  0.00     0.118 C 
BRANCH  29  30
ATOM     30  N   UNL A   1      37.963  21.314  25.866  1.00  0.00    -0.352 N 
ATOM     31  C   UNL A   1      39.257  21.472  26.299  1.00  0.00     0.251 C 
ATOM     32  H   UNL A   1      37.637  20.386  25.839  1.00  0.00     0.163 HD
ATOM     33  O   UNL A   1      40.008  20.505  26.326  1.00  0.00    -0.269 OA
BRANCH  31  34
ATOM     34  C   UNL A   1      39.727  22.808  26.719  1.00  0.00     0.039 A 
ATOM     35  C   UNL A   1      40.707  22.908  27.709  1.00  0.00     0.014 A 
ATOM     36  C   UNL A   1      39.184  23.960  26.145  1.00  0.00     0.014 A 
ATOM     37  C   UNL A   1      41.186  24.165  28.080  1.00  0.00     0.010 A 
ATOM     38  C   UNL A   1      39.717  25.205  26.458  1.00  0.00     0.010 A 
ATOM     39  C   UNL A   1      40.719  25.321  27.434  1.00  0.00    -0.014 A 
BRANCH  39  40
ATOM     40  C   UNL A   1      41.246  26.669  27.765  1.00  0.00     0.031 A 
ATOM     41  C   UNL A   1      42.674  27.011  27.438  1.00  0.00     0.074 A 
ATOM     42  C   UNL A   1      40.469  27.546  28.432  1.00  0.00     0.049 A 
ATOM     43  N   UNL A   1      43.368  28.069  27.766  1.00  0.00    -0.248 NA
ATOM     44  C   UNL A   1      43.430  26.011  26.668  1.00  0.00     0.031 C 
ATOM     45  C   UNL A   1      39.077  27.312  28.825  1.00  0.00     0.029 A 
ATOM     46  N   UNL A   1      40.741  28.801  28.914  1.00  0.00    -0.354 N 
ATOM     47  C   UNL A   1      44.646  27.855  27.260  1.00  0.00     0.074 A 
ATOM     48  C   UNL A   1      44.644  26.539  26.657  1.00  0.00     0.031 C 
ATOM     49  C   UNL A   1      38.614  28.394  29.471  1.00  0.00     0.029 A 
ATOM     50  C   UNL A   1      39.690  29.373  29.593  1.00  0.00     0.049 A 
ATOM     51  H   UNL A   1      41.608  29.250  28.788  1.00  0.00     0.167 HD
ATOM     52  C   UNL A   1      45.715  28.688  27.281  1.00  0.00     0.034 A 
ATOM     53  C   UNL A   1      39.610  30.542  30.260  1.00  0.00     0.034 A 
ATOM     54  C   UNL A   1      45.690  30.002  27.876  1.00  0.00     0.049 A 
ATOM     55  C   UNL A   1      40.826  31.436  30.304  1.00  0.00     0.074 A 
ATOM     56  C   UNL A   1      46.696  30.951  27.910  1.00  0.00     0.029 A 
ATOM     57  N   UNL A   1      44.605  30.549  28.551  1.00  0.00    -0.354 N 
ATOM     58  N   UNL A   1      42.015  31.237  29.786  1.00  0.00    -0.248 NA
ATOM     59  C   UNL A   1      40.686  32.712  31.016  1.00  0.00     0.031 C 
ATOM     60  C   UNL A   1      46.249  32.036  28.670  1.00  0.00     0.029 A 
ATOM     61  C   UNL A   1      44.932  31.806  29.034  1.00  0.00     0.049 A 
ATOM     62  H   UNL A   1      43.734  30.108  28.671  1.00  0.00     0.167 HD
ATOM     63  C   UNL A   1      42.752  32.382  30.076  1.00  0.00     0.074 A 
ATOM     64  C   UNL A   1      41.870  33.268  30.807  1.00  0.00     0.031 C 
ATOM     65  C   UNL A   1      44.039  32.679  29.762  1.00  0.00     0.034 A 
BRANCH  52  66
ATOM     66  C   UNL A   1      47.002  28.191  26.667  1.00  0.00     0.023 A 
ATOM     67  C   UNL A   1      47.218  28.215  25.277  1.00  0.00     0.031 A 
ATOM     68  C   UNL A   1      48.023  27.668  27.480  1.00  0.00     0.131 A 
ATOM     69  C   UNL A   1      48.388  27.660  24.739  1.00  0.00     0.055 A 
ATOM     70  C   UNL A   1      49.224  27.196  26.944  1.00  0.00     0.041 A 
ATOM     71  F   UNL A   1      47.868  27.595  28.811  1.00  0.00    -0.206 F 
ATOM     72  C   UNL A   1      49.405  27.176  25.565  1.00  0.00     0.022 A 
BRANCH  69  73
ATOM     73  S   UNL A   1      48.495  27.445  22.942  1.00  0.00     0.124 S 
ATOM     74  O   UNL A   1      48.391  25.994  22.811  1.00  0.00    -0.237 OA
ATOM     75  O   UNL A   1      47.352  28.214  22.463  1.00  0.00    -0.237 OA
ATOM     76  O   UNL A   1      49.806  28.000  22.607  1.00  0.00    -0.744 OA
ENDBRANCH  69  73
ENDBRANCH  52  66
BRANCH  53  77
ATOM     77  C   UNL A   1      38.350  30.934  30.957  1.00  0.00     0.023 A 
ATOM     78  C   UNL A   1      37.312  31.580  30.266  1.00  0.00     0.031 A 
ATOM     79  C   UNL A   1      38.183  30.714  32.337  1.00  0.00     0.131 A 
ATOM     80  C   UNL A   1      36.182  32.033  30.964  1.00  0.00     0.055 A 
ATOM     81  C   UNL A   1      37.030  31.111  33.014  1.00  0.00     0.041 A 
ATOM     82  F   UNL A   1      39.142  30.098  33.048  1.00  0.00    -0.206 F 
ATOM     83  C   UNL A   1      36.027  31.790  32.330  1.00  0.00     0.022 A 
BRANCH  80  84
ATOM     84  S   UNL A   1      34.964  33.042  30.077  1.00  0.00     0.124 S 
ATOM     85  O   UNL A   1      35.799  34.116  29.548  1.00  0.00    -0.237 OA
ATOM     86  O   UNL A   1      34.440  32.095  29.099  1.00  0.00    -0.237 OA
ATOM     87  O   UNL A   1      34.025  33.439  31.124  1.00  0.00    -0.744 OA
ENDBRANCH  80  84
ENDBRANCH  53  77
BRANCH  65  88
ATOM     88  C   UNL A   1      44.550  34.044  30.151  1.00  0.00     0.023 A 
ATOM     89  C   UNL A   1      45.214  34.272  31.368  1.00  0.00     0.031 A 
ATOM     90  C   UNL A   1      44.381  35.132  29.275  1.00  0.00     0.131 A 
ATOM     91  C   UNL A   1      45.643  35.567  31.696  1.00  0.00     0.055 A 
ATOM     92  C   UNL A   1      44.866  36.404  29.580  1.00  0.00     0.041 A 
ATOM     93  F   UNL A   1      43.749  34.972  28.100  1.00  0.00    -0.206 F 
ATOM     94  C   UNL A   1      45.491  36.630  30.801  1.00  0.00     0.022 A 
BRANCH  91  95
ATOM     95  S   UNL A   1      46.332  35.866  33.348  1.00  0.00     0.124 S 
ATOM     96  O   UNL A   1      47.622  35.188  33.265  1.00  0.00    -0.237 OA
ATOM     97  O   UNL A   1      46.379  37.322  33.408  1.00  0.00    -0.237 OA
ATOM     98  O   UNL A   1      45.360  35.240  34.243  1.00  0.00    -0.744 OA
ENDBRANCH  91  95
ENDBRANCH  65  88
ENDBRANCH  39  40
ENDBRANCH  31  34
ENDBRANCH  29  30
ENDBRANCH   1  29
TORSDOF 18
ENDMDL
