MODEL 1
REMARK VINA RESULT:     -10.7      0.000      0.000
REMARK SMILES Cc1cc(C)cc(-c2ccc([C@@H](C)C(=O)NCCCNC(=O)c3ccc(-c4c5nc(c(-c6cc(S(=O)(=O)[O-])ccc6F)c6ccc([nH]6)c(-c6cc(S(=O)(=O)[O-])ccc6F)c6nc(c(-c7cc(S(=O)(=O)[O-])ccc7F)c7ccc4[nH]7)C=C6)C=C5)cc3)cc2F)c1
REMARK SMILES IDX 18 1 17 2 16 3 14 4 15 5 12 7 13 8 11 9 8 10 9 11 87 12
REMARK SMILES IDX 10 13 86 14 88 15 7 16 1 17 2 18 3 19 89 20 4 21 5 22 6 23
REMARK SMILES IDX 19 24 20 25 21 26 22 28 23 29 24 30 85 31 25 32 84 33 26 34
REMARK SMILES IDX 27 35 28 36 78 37 29 38 83 39 77 40 79 41 30 42 82 43 76 44
REMARK SMILES IDX 75 45 31 47 63 48 43 49 62 50 44 51 47 52 61 53 80 54 45 55
REMARK SMILES IDX 46 56 60 58 81 59 48 60 32 61 33 62 41 63 34 64 40 65 42 66
REMARK SMILES IDX 39 67 35 68 36 69 37 70 38 71 64 72 65 73 73 74 66 75 72 76
REMARK SMILES IDX 74 77 71 78 67 79 68 80 69 81 70 82 49 83 50 84 58 85 51 86
REMARK SMILES IDX 57 87 59 88 56 89 52 90 53 91 54 92 55 93
REMARK H PARENT 16 6 20 27 79 46 47 57
REMARK Flexibility Score: inf
ROOT
ATOM      1  C   UNL A   1      33.335  34.073  28.735  1.00  0.00     0.042 C 
ENDROOT
BRANCH   1   2
ATOM      2  C   UNL A   1      33.970  35.392  29.166  1.00  0.00     0.117 C 
BRANCH   2   3
ATOM      3  N   UNL A   1      33.975  35.552  30.606  1.00  0.00    -0.356 N 
ATOM      4  C   UNL A   1      34.474  34.782  31.610  1.00  0.00     0.227 C 
ATOM      5  O   UNL A   1      34.256  35.178  32.763  1.00  0.00    -0.274 OA
ATOM      6  H   UNL A   1      33.534  36.375  30.918  1.00  0.00     0.163 HD
BRANCH   4   7
ATOM      7  C   UNL A   1      35.288  33.497  31.390  1.00  0.00     0.105 C 
ATOM      8  C   UNL A   1      35.112  32.447  32.487  1.00  0.00     0.023 C 
BRANCH   7   9
ATOM      9  C   UNL A   1      36.720  33.744  30.946  1.00  0.00    -0.033 A 
ATOM     10  C   UNL A   1      39.471  34.058  30.220  1.00  0.00     0.017 A 
ATOM     11  C   UNL A   1      38.511  33.595  29.306  1.00  0.00     0.012 A 
ATOM     12  C   UNL A   1      39.008  34.393  31.498  1.00  0.00     0.131 A 
ATOM     13  C   UNL A   1      37.161  33.483  29.648  1.00  0.00     0.005 A 
ATOM     14  C   UNL A   1      37.667  34.225  31.865  1.00  0.00     0.044 A 
ATOM     15  F   UNL A   1      39.846  34.897  32.418  1.00  0.00    -0.206 F 
BRANCH  10  16
ATOM     16  C   UNL A   1      40.889  34.157  29.814  1.00  0.00    -0.015 A 
ATOM     17  C   UNL A   1      44.132  32.131  29.972  1.00  0.00     0.044 C 
ATOM     18  C   UNL A   1      43.145  33.216  29.653  1.00  0.00    -0.050 A 
ATOM     19  C   UNL A   1      43.545  34.306  28.870  1.00  0.00     0.006 A 
ATOM     20  C   UNL A   1      41.822  33.151  30.118  1.00  0.00     0.012 A 
ATOM     21  C   UNL A   1      42.643  35.324  28.554  1.00  0.00    -0.050 A 
ATOM     22  C   UNL A   1      43.073  36.472  27.689  1.00  0.00     0.044 C 
ATOM     23  C   UNL A   1      41.334  35.247  29.042  1.00  0.00     0.012 A 
ENDBRANCH  10  16
ENDBRANCH   7   9
ENDBRANCH   4   7
ENDBRANCH   2   3
ENDBRANCH   1   2
BRANCH   1  24
ATOM     24  C   UNL A   1      34.311  33.123  28.058  1.00  0.00     0.118 C 
BRANCH  24  25
ATOM     25  N   UNL A   1      33.641  31.948  27.516  1.00  0.00    -0.352 N 
ATOM     26  C   UNL A   1      34.112  30.671  27.329  1.00  0.00     0.251 C 
ATOM     27  H   UNL A   1      32.706  32.092  27.241  1.00  0.00     0.163 HD
ATOM     28  O   UNL A   1      33.470  29.891  26.634  1.00  0.00    -0.269 OA
BRANCH  26  29
ATOM     29  C   UNL A   1      35.388  30.247  27.947  1.00  0.00     0.039 A 
ATOM     30  C   UNL A   1      35.388  29.779  29.264  1.00  0.00     0.014 A 
ATOM     31  C   UNL A   1      36.590  30.335  27.239  1.00  0.00     0.014 A 
ATOM     32  C   UNL A   1      36.581  29.347  29.848  1.00  0.00     0.010 A 
ATOM     33  C   UNL A   1      37.757  29.817  27.786  1.00  0.00     0.010 A 
ATOM     34  C   UNL A   1      37.771  29.332  29.101  1.00  0.00    -0.014 A 
BRANCH  34  35
ATOM     35  C   UNL A   1      39.052  28.850  29.676  1.00  0.00     0.031 A 
ATOM     36  C   UNL A   1      39.654  29.563  30.856  1.00  0.00     0.074 A 
ATOM     37  C   UNL A   1      39.709  27.830  29.091  1.00  0.00     0.049 A 
ATOM     38  N   UNL A   1      40.823  29.397  31.415  1.00  0.00    -0.248 NA
ATOM     39  C   UNL A   1      38.845  30.633  31.462  1.00  0.00     0.031 C 
ATOM     40  C   UNL A   1      39.242  27.080  27.923  1.00  0.00     0.029 A 
ATOM     41  N   UNL A   1      40.919  27.256  29.390  1.00  0.00    -0.354 N 
ATOM     42  C   UNL A   1      40.903  30.357  32.418  1.00  0.00     0.074 A 
ATOM     43  C   UNL A   1      39.686  31.137  32.353  1.00  0.00     0.031 C 
ATOM     44  C   UNL A   1      40.140  26.130  27.622  1.00  0.00     0.029 A 
ATOM     45  C   UNL A   1      41.272  26.236  28.537  1.00  0.00     0.049 A 
ATOM     46  H   UNL A   1      41.482  27.546  30.144  1.00  0.00     0.167 HD
ATOM     47  C   UNL A   1      41.893  30.558  33.320  1.00  0.00     0.034 A 
ATOM     48  C   UNL A   1      42.389  25.485  28.482  1.00  0.00     0.034 A 
ATOM     49  C   UNL A   1      43.083  29.750  33.391  1.00  0.00     0.049 A 
ATOM     50  C   UNL A   1      43.485  25.732  29.484  1.00  0.00     0.074 A 
ATOM     51  C   UNL A   1      44.112  29.816  34.314  1.00  0.00     0.029 A 
ATOM     52  N   UNL A   1      43.410  28.733  32.503  1.00  0.00    -0.354 N 
ATOM     53  N   UNL A   1      43.536  26.627  30.443  1.00  0.00    -0.248 NA
ATOM     54  C   UNL A   1      44.671  24.874  29.393  1.00  0.00     0.031 C 
ATOM     55  C   UNL A   1      45.092  28.890  33.941  1.00  0.00     0.029 A 
ATOM     56  C   UNL A   1      44.642  28.192  32.832  1.00  0.00     0.049 A 
ATOM     57  H   UNL A   1      42.846  28.439  31.750  1.00  0.00     0.167 HD
ATOM     58  C   UNL A   1      44.758  26.434  31.078  1.00  0.00     0.074 A 
ATOM     59  C   UNL A   1      45.406  25.328  30.401  1.00  0.00     0.031 C 
ATOM     60  C   UNL A   1      45.291  27.108  32.129  1.00  0.00     0.034 A 
BRANCH  47  61
ATOM     61  C   UNL A   1      41.740  31.710  34.283  1.00  0.00     0.023 A 
ATOM     62  C   UNL A   1      40.891  31.636  35.400  1.00  0.00     0.031 A 
ATOM     63  C   UNL A   1      42.454  32.904  34.075  1.00  0.00     0.131 A 
ATOM     64  C   UNL A   1      40.729  32.754  36.232  1.00  0.00     0.055 A 
ATOM     65  C   UNL A   1      42.345  33.987  34.949  1.00  0.00     0.041 A 
ATOM     66  F   UNL A   1      43.264  33.040  33.014  1.00  0.00    -0.206 F 
ATOM     67  C   UNL A   1      41.470  33.920  36.029  1.00  0.00     0.022 A 
BRANCH  64  68
ATOM     68  S   UNL A   1      39.456  32.700  37.521  1.00  0.00     0.124 S 
ATOM     69  O   UNL A   1      38.663  31.545  37.105  1.00  0.00    -0.237 OA
ATOM     70  O   UNL A   1      40.242  32.529  38.737  1.00  0.00    -0.237 OA
ATOM     71  O   UNL A   1      38.781  33.990  37.392  1.00  0.00    -0.744 OA
ENDBRANCH  64  68
ENDBRANCH  47  61
BRANCH  48  72
ATOM     72  C   UNL A   1      42.519  24.444  27.428  1.00  0.00     0.023 A 
ATOM     73  C   UNL A   1      41.766  23.262  27.483  1.00  0.00     0.031 A 
ATOM     74  C   UNL A   1      43.359  24.647  26.318  1.00  0.00     0.131 A 
ATOM     75  C   UNL A   1      41.870  22.320  26.446  1.00  0.00     0.055 A 
ATOM     76  C   UNL A   1      43.433  23.723  25.274  1.00  0.00     0.041 A 
ATOM     77  F   UNL A   1      44.087  25.769  26.215  1.00  0.00    -0.206 F 
ATOM     78  C   UNL A   1      42.687  22.552  25.335  1.00  0.00     0.022 A 
BRANCH  75  79
ATOM     79  S   UNL A   1      40.910  20.786  26.558  1.00  0.00     0.124 S 
ATOM     80  O   UNL A   1      39.621  21.202  26.018  1.00  0.00    -0.237 OA
ATOM     81  O   UNL A   1      41.690  19.874  25.728  1.00  0.00    -0.237 OA
ATOM     82  O   UNL A   1      40.921  20.482  27.987  1.00  0.00    -0.744 OA
ENDBRANCH  75  79
ENDBRANCH  48  72
BRANCH  60  83
ATOM     83  C   UNL A   1      46.645  26.666  32.621  1.00  0.00     0.023 A 
ATOM     84  C   UNL A   1      46.793  25.533  33.437  1.00  0.00     0.031 A 
ATOM     85  C   UNL A   1      47.803  27.362  32.233  1.00  0.00     0.131 A 
ATOM     86  C   UNL A   1      48.071  25.147  33.868  1.00  0.00     0.055 A 
ATOM     87  C   UNL A   1      49.076  26.942  32.620  1.00  0.00     0.041 A 
ATOM     88  F   UNL A   1      47.716  28.452  31.453  1.00  0.00    -0.206 F 
ATOM     89  C   UNL A   1      49.214  25.831  33.448  1.00  0.00     0.022 A 
BRANCH  86  90
ATOM     90  S   UNL A   1      48.217  23.762  35.030  1.00  0.00     0.124 S 
ATOM     91  O   UNL A   1      49.377  23.050  34.504  1.00  0.00    -0.237 OA
ATOM     92  O   UNL A   1      48.410  24.441  36.307  1.00  0.00    -0.237 OA
ATOM     93  O   UNL A   1      46.942  23.061  34.889  1.00  0.00    -0.744 OA
ENDBRANCH  86  90
ENDBRANCH  60  83
ENDBRANCH  34  35
ENDBRANCH  26  29
ENDBRANCH  24  25
ENDBRANCH   1  24
TORSDOF 15
ENDMDL
MODEL 2
REMARK VINA RESULT:     -10.6      4.305     10.526
REMARK SMILES Cc1cc(C)cc(-c2ccc([C@@H](C)C(=O)NCCCNC(=O)c3ccc(-c4c5nc(c(-c6cc(S(=O)(=O)[O-])ccc6F)c6ccc([nH]6)c(-c6cc(S(=O)(=O)[O-])ccc6F)c6nc(c(-c7cc(S(=O)(=O)[O-])ccc7F)c7ccc4[nH]7)C=C6)C=C5)cc3)cc2F)c1
REMARK SMILES IDX 18 1 17 2 16 3 14 4 15 5 12 7 13 8 11 9 8 10 9 11 87 12
REMARK SMILES IDX 10 13 86 14 88 15 7 16 1 17 2 18 3 19 89 20 4 21 5 22 6 23
REMARK SMILES IDX 19 24 20 25 21 26 22 28 23 29 24 30 85 31 25 32 84 33 26 34
REMARK SMILES IDX 27 35 28 36 78 37 29 38 83 39 77 40 79 41 30 42 82 43 76 44
REMARK SMILES IDX 75 45 31 47 63 48 43 49 62 50 44 51 47 52 61 53 80 54 45 55
REMARK SMILES IDX 46 56 60 58 81 59 48 60 32 61 33 62 41 63 34 64 40 65 42 66
REMARK SMILES IDX 39 67 35 68 36 69 37 70 38 71 64 72 65 73 73 74 66 75 72 76
REMARK SMILES IDX 74 77 71 78 67 79 68 80 69 81 70 82 49 83 50 84 58 85 51 86
REMARK SMILES IDX 57 87 59 88 56 89 52 90 53 91 54 92 55 93
REMARK H PARENT 16 6 20 27 79 46 47 57
REMARK Flexibility Score: inf
ROOT
ATOM      1  C   UNL A   1      33.068  28.929  23.550  1.00  0.00     0.042 C 
ENDROOT
BRANCH   1   2
ATOM      2  C   UNL A   1      32.535  27.504  23.423  1.00  0.00     0.117 C 
BRANCH   2   3
ATOM      3  N   UNL A   1      31.088  27.466  23.340  1.00  0.00    -0.356 N 
ATOM      4  C   UNL A   1      30.139  26.953  24.168  1.00  0.00     0.227 C 
ATOM      5  O   UNL A   1      28.968  27.033  23.772  1.00  0.00    -0.274 OA
ATOM      6  H   UNL A   1      30.723  27.893  22.532  1.00  0.00     0.163 HD
BRANCH   4   7
ATOM      7  C   UNL A   1      30.436  26.319  25.536  1.00  0.00     0.105 C 
ATOM      8  C   UNL A   1      31.052  27.280  26.553  1.00  0.00     0.023 C 
BRANCH   7   9
ATOM      9  C   UNL A   1      31.090  24.950  25.450  1.00  0.00    -0.033 A 
ATOM     10  C   UNL A   1      32.451  22.448  25.163  1.00  0.00     0.017 A 
ATOM     11  C   UNL A   1      32.519  23.198  26.349  1.00  0.00     0.012 A 
ATOM     12  C   UNL A   1      31.654  22.971  24.138  1.00  0.00     0.131 A 
ATOM     13  C   UNL A   1      31.819  24.398  26.505  1.00  0.00     0.005 A 
ATOM     14  C   UNL A   1      31.001  24.203  24.265  1.00  0.00     0.044 A 
ATOM     15  F   UNL A   1      31.488  22.294  22.990  1.00  0.00    -0.206 F 
BRANCH  10  16
ATOM     16  C   UNL A   1      33.211  21.187  25.044  1.00  0.00    -0.015 A 
ATOM     17  C   UNL A   1      32.633  17.467  24.354  1.00  0.00     0.044 C 
ATOM     18  C   UNL A   1      33.318  18.778  24.615  1.00  0.00    -0.050 A 
ATOM     19  C   UNL A   1      34.716  18.830  24.653  1.00  0.00     0.006 A 
ATOM     20  C   UNL A   1      32.578  19.954  24.811  1.00  0.00     0.012 A 
ATOM     21  C   UNL A   1      35.377  20.039  24.887  1.00  0.00    -0.050 A 
ATOM     22  C   UNL A   1      36.875  20.091  24.896  1.00  0.00     0.044 C 
ATOM     23  C   UNL A   1      34.619  21.197  25.096  1.00  0.00     0.012 A 
ENDBRANCH  10  16
ENDBRANCH   7   9
ENDBRANCH   4   7
ENDBRANCH   2   3
ENDBRANCH   1   2
BRANCH   1  24
ATOM     24  C   UNL A   1      33.621  29.247  24.930  1.00  0.00     0.118 C 
BRANCH  24  25
ATOM     25  N   UNL A   1      32.904  30.347  25.563  1.00  0.00    -0.352 N 
ATOM     26  C   UNL A   1      33.128  30.969  26.767  1.00  0.00     0.251 C 
ATOM     27  H   UNL A   1      32.142  30.699  25.048  1.00  0.00     0.163 HD
ATOM     28  O   UNL A   1      32.266  31.710  27.229  1.00  0.00    -0.269 OA
BRANCH  26  29
ATOM     29  C   UNL A   1      34.389  30.736  27.506  1.00  0.00     0.039 A 
ATOM     30  C   UNL A   1      35.298  31.788  27.657  1.00  0.00     0.014 A 
ATOM     31  C   UNL A   1      34.689  29.475  28.029  1.00  0.00     0.014 A 
ATOM     32  C   UNL A   1      36.477  31.588  28.379  1.00  0.00     0.010 A 
ATOM     33  C   UNL A   1      35.814  29.304  28.826  1.00  0.00     0.010 A 
ATOM     34  C   UNL A   1      36.729  30.353  28.998  1.00  0.00    -0.014 A 
BRANCH  34  35
ATOM     35  C   UNL A   1      37.955  30.112  29.800  1.00  0.00     0.031 A 
ATOM     36  C   UNL A   1      39.043  29.229  29.250  1.00  0.00     0.074 A 
ATOM     37  C   UNL A   1      38.053  30.615  31.045  1.00  0.00     0.049 A 
ATOM     38  N   UNL A   1      40.119  28.778  29.839  1.00  0.00    -0.248 NA
ATOM     39  C   UNL A   1      38.876  28.764  27.864  1.00  0.00     0.031 C 
ATOM     40  C   UNL A   1      37.049  31.458  31.699  1.00  0.00     0.029 A 
ATOM     41  N   UNL A   1      39.038  30.481  31.990  1.00  0.00    -0.354 N 
ATOM     42  C   UNL A   1      40.741  27.954  28.907  1.00  0.00     0.074 A 
ATOM     43  C   UNL A   1      39.893  27.926  27.735  1.00  0.00     0.031 C 
ATOM     44  C   UNL A   1      37.483  31.786  32.926  1.00  0.00     0.029 A 
ATOM     45  C   UNL A   1      38.766  31.134  33.169  1.00  0.00     0.049 A 
ATOM     46  H   UNL A   1      39.863  29.965  31.839  1.00  0.00     0.167 HD
ATOM     47  C   UNL A   1      41.920  27.295  29.015  1.00  0.00     0.034 A 
ATOM     48  C   UNL A   1      39.457  31.186  34.324  1.00  0.00     0.034 A 
ATOM     49  C   UNL A   1      42.768  27.362  30.178  1.00  0.00     0.049 A 
ATOM     50  C   UNL A   1      40.758  30.437  34.430  1.00  0.00     0.074 A 
ATOM     51  C   UNL A   1      44.018  26.800  30.363  1.00  0.00     0.029 A 
ATOM     52  N   UNL A   1      42.452  28.027  31.357  1.00  0.00    -0.354 N 
ATOM     53  N   UNL A   1      41.348  29.682  33.533  1.00  0.00    -0.248 NA
ATOM     54  C   UNL A   1      41.482  30.543  35.702  1.00  0.00     0.031 C 
ATOM     55  C   UNL A   1      44.424  27.061  31.676  1.00  0.00     0.029 A 
ATOM     56  C   UNL A   1      43.465  27.853  32.286  1.00  0.00     0.049 A 
ATOM     57  H   UNL A   1      41.628  28.546  31.508  1.00  0.00     0.167 HD
ATOM     58  C   UNL A   1      42.519  29.227  34.129  1.00  0.00     0.074 A 
ATOM     59  C   UNL A   1      42.559  29.806  35.458  1.00  0.00     0.031 C 
ATOM     60  C   UNL A   1      43.476  28.411  33.619  1.00  0.00     0.034 A 
BRANCH  47  61
ATOM     61  C   UNL A   1      42.346  26.428  27.856  1.00  0.00     0.023 A 
ATOM     62  C   UNL A   1      41.885  25.109  27.707  1.00  0.00     0.031 A 
ATOM     63  C   UNL A   1      43.232  26.931  26.886  1.00  0.00     0.131 A 
ATOM     64  C   UNL A   1      42.359  24.317  26.650  1.00  0.00     0.055 A 
ATOM     65  C   UNL A   1      43.641  26.162  25.795  1.00  0.00     0.041 A 
ATOM     66  F   UNL A   1      43.721  28.176  26.988  1.00  0.00    -0.206 F 
ATOM     67  C   UNL A   1      43.213  24.844  25.678  1.00  0.00     0.022 A 
BRANCH  64  68
ATOM     68  S   UNL A   1      41.926  22.557  26.621  1.00  0.00     0.124 S 
ATOM     69  O   UNL A   1      42.393  22.161  25.295  1.00  0.00    -0.237 OA
ATOM     70  O   UNL A   1      42.683  22.026  27.749  1.00  0.00    -0.237 OA
ATOM     71  O   UNL A   1      40.475  22.557  26.789  1.00  0.00    -0.744 OA
ENDBRANCH  64  68
ENDBRANCH  47  61
BRANCH  48  72
ATOM     72  C   UNL A   1      38.914  31.968  35.467  1.00  0.00     0.023 A 
ATOM     73  C   UNL A   1      38.246  31.331  36.524  1.00  0.00     0.031 A 
ATOM     74  C   UNL A   1      39.108  33.358  35.545  1.00  0.00     0.131 A 
ATOM     75  C   UNL A   1      37.790  32.087  37.617  1.00  0.00     0.055 A 
ATOM     76  C   UNL A   1      38.683  34.100  36.648  1.00  0.00     0.041 A 
ATOM     77  F   UNL A   1      39.754  34.008  34.564  1.00  0.00    -0.206 F 
ATOM     78  C   UNL A   1      38.019  33.465  37.691  1.00  0.00     0.022 A 
BRANCH  75  79
ATOM     79  S   UNL A   1      36.901  31.244  38.954  1.00  0.00     0.124 S 
ATOM     80  O   UNL A   1      36.791  29.889  38.429  1.00  0.00    -0.237 OA
ATOM     81  O   UNL A   1      37.806  31.424  40.084  1.00  0.00    -0.237 OA
ATOM     82  O   UNL A   1      35.645  31.984  39.045  1.00  0.00    -0.744 OA
ENDBRANCH  75  79
ENDBRANCH  48  72
BRANCH  60  83
ATOM     83  C   UNL A   1      44.658  28.095  34.500  1.00  0.00     0.023 A 
ATOM     84  C   UNL A   1      44.660  26.979  35.352  1.00  0.00     0.031 A 
ATOM     85  C   UNL A   1      45.812  28.897  34.453  1.00  0.00     0.131 A 
ATOM     86  C   UNL A   1      45.782  26.713  36.149  1.00  0.00     0.055 A 
ATOM     87  C   UNL A   1      46.946  28.596  35.208  1.00  0.00     0.041 A 
ATOM     88  F   UNL A   1      45.863  29.976  33.654  1.00  0.00    -0.206 F 
ATOM     89  C   UNL A   1      46.933  27.502  36.068  1.00  0.00     0.022 A 
BRANCH  86  90
ATOM     90  S   UNL A   1      45.702  25.345  37.337  1.00  0.00     0.124 S 
ATOM     91  O   UNL A   1      44.265  25.226  37.563  1.00  0.00    -0.237 OA
ATOM     92  O   UNL A   1      46.324  24.250  36.600  1.00  0.00    -0.237 OA
ATOM     93  O   UNL A   1      46.470  25.836  38.479  1.00  0.00    -0.744 OA
ENDBRANCH  86  90
ENDBRANCH  60  83
ENDBRANCH  34  35
ENDBRANCH  26  29
ENDBRANCH  24  25
ENDBRANCH   1  24
TORSDOF 15
ENDMDL
MODEL 3
REMARK VINA RESULT:     -10.6      1.316      1.642
REMARK SMILES Cc1cc(C)cc(-c2ccc([C@@H](C)C(=O)NCCCNC(=O)c3ccc(-c4c5nc(c(-c6cc(S(=O)(=O)[O-])ccc6F)c6ccc([nH]6)c(-c6cc(S(=O)(=O)[O-])ccc6F)c6nc(c(-c7cc(S(=O)(=O)[O-])ccc7F)c7ccc4[nH]7)C=C6)C=C5)cc3)cc2F)c1
REMARK SMILES IDX 18 1 17 2 16 3 14 4 15 5 12 7 13 8 11 9 8 10 9 11 87 12
REMARK SMILES IDX 10 13 86 14 88 15 7 16 1 17 2 18 3 19 89 20 4 21 5 22 6 23
REMARK SMILES IDX 19 24 20 25 21 26 22 28 23 29 24 30 85 31 25 32 84 33 26 34
REMARK SMILES IDX 27 35 28 36 78 37 29 38 83 39 77 40 79 41 30 42 82 43 76 44
REMARK SMILES IDX 75 45 31 47 63 48 43 49 62 50 44 51 47 52 61 53 80 54 45 55
REMARK SMILES IDX 46 56 60 58 81 59 48 60 32 61 33 62 41 63 34 64 40 65 42 66
REMARK SMILES IDX 39 67 35 68 36 69 37 70 38 71 64 72 65 73 73 74 66 75 72 76
REMARK SMILES IDX 74 77 71 78 67 79 68 80 69 81 70 82 49 83 50 84 58 85 51 86
REMARK SMILES IDX 57 87 59 88 56 89 52 90 53 91 54 92 55 93
REMARK H PARENT 16 6 20 27 79 46 47 57
REMARK Flexibility Score: inf
ROOT
ATOM      1  C   UNL A   1      33.400  34.175  28.556  1.00  0.00     0.042 C 
ENDROOT
BRANCH   1   2
ATOM      2  C   UNL A   1      34.116  35.390  29.137  1.00  0.00     0.117 C 
BRANCH   2   3
ATOM      3  N   UNL A   1      34.001  35.456  30.581  1.00  0.00    -0.356 N 
ATOM      4  C   UNL A   1      34.441  34.634  31.571  1.00  0.00     0.227 C 
ATOM      5  O   UNL A   1      34.120  34.948  32.725  1.00  0.00    -0.274 OA
ATOM      6  H   UNL A   1      33.512  36.245  30.907  1.00  0.00     0.163 HD
BRANCH   4   7
ATOM      7  C   UNL A   1      35.308  33.386  31.337  1.00  0.00     0.105 C 
ATOM      8  C   UNL A   1      35.149  32.303  32.403  1.00  0.00     0.023 C 
BRANCH   7   9
ATOM      9  C   UNL A   1      36.739  33.698  30.930  1.00  0.00    -0.033 A 
ATOM     10  C   UNL A   1      39.490  34.133  30.273  1.00  0.00     0.017 A 
ATOM     11  C   UNL A   1      38.567  33.660  29.326  1.00  0.00     0.012 A 
ATOM     12  C   UNL A   1      38.989  34.414  31.549  1.00  0.00     0.131 A 
ATOM     13  C   UNL A   1      37.215  33.489  29.635  1.00  0.00     0.005 A 
ATOM     14  C   UNL A   1      37.648  34.187  31.882  1.00  0.00     0.044 A 
ATOM     15  F   UNL A   1      39.789  34.922  32.500  1.00  0.00    -0.206 F 
BRANCH  10  16
ATOM     16  C   UNL A   1      40.911  34.294  29.900  1.00  0.00    -0.015 A 
ATOM     17  C   UNL A   1      44.305  32.626  30.485  1.00  0.00     0.044 C 
ATOM     18  C   UNL A   1      43.244  33.551  29.964  1.00  0.00    -0.050 A 
ATOM     19  C   UNL A   1      43.585  34.534  29.027  1.00  0.00     0.006 A 
ATOM     20  C   UNL A   1      41.912  33.440  30.392  1.00  0.00     0.012 A 
ATOM     21  C   UNL A   1      42.615  35.402  28.521  1.00  0.00    -0.050 A 
ATOM     22  C   UNL A   1      42.983  36.432  27.495  1.00  0.00     0.044 C 
ATOM     23  C   UNL A   1      41.296  35.284  28.975  1.00  0.00     0.012 A 
ENDBRANCH  10  16
ENDBRANCH   7   9
ENDBRANCH   4   7
ENDBRANCH   2   3
ENDBRANCH   1   2
BRANCH   1  24
ATOM     24  C   UNL A   1      34.347  33.098  28.050  1.00  0.00     0.118 C 
BRANCH  24  25
ATOM     25  N   UNL A   1      33.632  31.907  27.608  1.00  0.00    -0.352 N 
ATOM     26  C   UNL A   1      34.072  30.612  27.477  1.00  0.00     0.251 C 
ATOM     27  H   UNL A   1      32.688  32.054  27.367  1.00  0.00     0.163 HD
ATOM     28  O   UNL A   1      33.385  29.806  26.858  1.00  0.00    -0.269 OA
BRANCH  26  29
ATOM     29  C   UNL A   1      35.367  30.199  28.062  1.00  0.00     0.039 A 
ATOM     30  C   UNL A   1      35.410  29.765  29.390  1.00  0.00     0.014 A 
ATOM     31  C   UNL A   1      36.544  30.263  27.311  1.00  0.00     0.014 A 
ATOM     32  C   UNL A   1      36.621  29.344  29.944  1.00  0.00     0.010 A 
ATOM     33  C   UNL A   1      37.727  29.754  27.831  1.00  0.00     0.010 A 
ATOM     34  C   UNL A   1      37.784  29.304  29.158  1.00  0.00    -0.014 A 
BRANCH  34  35
ATOM     35  C   UNL A   1      39.083  28.831  29.700  1.00  0.00     0.031 A 
ATOM     36  C   UNL A   1      39.711  29.553  30.862  1.00  0.00     0.074 A 
ATOM     37  C   UNL A   1      39.731  27.813  29.102  1.00  0.00     0.049 A 
ATOM     38  N   UNL A   1      40.895  29.395  31.392  1.00  0.00    -0.248 NA
ATOM     39  C   UNL A   1      38.911  30.620  31.486  1.00  0.00     0.031 C 
ATOM     40  C   UNL A   1      39.238  27.057  27.949  1.00  0.00     0.029 A 
ATOM     41  N   UNL A   1      40.951  27.248  29.372  1.00  0.00    -0.354 N 
ATOM     42  C   UNL A   1      40.994  30.359  32.389  1.00  0.00     0.074 A 
ATOM     43  C   UNL A   1      39.771  31.131  32.353  1.00  0.00     0.031 C 
ATOM     44  C   UNL A   1      40.134  26.111  27.628  1.00  0.00     0.029 A 
ATOM     45  C   UNL A   1      41.289  26.227  28.513  1.00  0.00     0.049 A 
ATOM     46  H   UNL A   1      41.532  27.544  30.110  1.00  0.00     0.167 HD
ATOM     47  C   UNL A   1      42.007  30.569  33.265  1.00  0.00     0.034 A 
ATOM     48  C   UNL A   1      42.408  25.483  28.432  1.00  0.00     0.034 A 
ATOM     49  C   UNL A   1      43.203  29.768  33.308  1.00  0.00     0.049 A 
ATOM     50  C   UNL A   1      43.528  25.740  29.404  1.00  0.00     0.074 A 
ATOM     51  C   UNL A   1      44.255  29.843  34.204  1.00  0.00     0.029 A 
ATOM     52  N   UNL A   1      43.512  28.750  32.415  1.00  0.00    -0.354 N 
ATOM     53  N   UNL A   1      43.598  26.638  30.359  1.00  0.00    -0.248 NA
ATOM     54  C   UNL A   1      44.717  24.889  29.286  1.00  0.00     0.031 C 
ATOM     55  C   UNL A   1      45.231  28.923  33.808  1.00  0.00     0.029 A 
ATOM     56  C   UNL A   1      44.756  28.218  32.714  1.00  0.00     0.049 A 
ATOM     57  H   UNL A   1      42.931  28.451  31.677  1.00  0.00     0.167 HD
ATOM     58  C   UNL A   1      44.838  26.455  30.963  1.00  0.00     0.074 A 
ATOM     59  C   UNL A   1      45.475  25.350  30.273  1.00  0.00     0.031 C 
ATOM     60  C   UNL A   1      45.393  27.136  31.997  1.00  0.00     0.034 A 
BRANCH  47  61
ATOM     61  C   UNL A   1      41.871  31.724  34.228  1.00  0.00     0.023 A 
ATOM     62  C   UNL A   1      42.239  33.033  33.873  1.00  0.00     0.031 A 
ATOM     63  C   UNL A   1      41.368  31.507  35.523  1.00  0.00     0.131 A 
ATOM     64  C   UNL A   1      42.158  34.064  34.821  1.00  0.00     0.055 A 
ATOM     65  C   UNL A   1      41.220  32.552  36.438  1.00  0.00     0.041 A 
ATOM     66  F   UNL A   1      41.020  30.275  35.924  1.00  0.00    -0.206 F 
ATOM     67  C   UNL A   1      41.626  33.837  36.093  1.00  0.00     0.022 A 
BRANCH  64  68
ATOM     68  S   UNL A   1      42.856  35.684  34.405  1.00  0.00     0.124 S 
ATOM     69  O   UNL A   1      44.088  35.684  35.190  1.00  0.00    -0.237 OA
ATOM     70  O   UNL A   1      43.021  35.596  32.958  1.00  0.00    -0.237 OA
ATOM     71  O   UNL A   1      41.835  36.625  34.860  1.00  0.00    -0.744 OA
ENDBRANCH  64  68
ENDBRANCH  47  61
BRANCH  48  72
ATOM     72  C   UNL A   1      42.518  24.440  27.378  1.00  0.00     0.023 A 
ATOM     73  C   UNL A   1      41.772  23.254  27.455  1.00  0.00     0.031 A 
ATOM     74  C   UNL A   1      43.330  24.642  26.247  1.00  0.00     0.131 A 
ATOM     75  C   UNL A   1      41.854  22.310  26.418  1.00  0.00     0.055 A 
ATOM     76  C   UNL A   1      43.383  23.716  25.205  1.00  0.00     0.041 A 
ATOM     77  F   UNL A   1      44.051  25.767  26.124  1.00  0.00    -0.206 F 
ATOM     78  C   UNL A   1      42.643  22.541  25.287  1.00  0.00     0.022 A 
BRANCH  75  79
ATOM     79  S   UNL A   1      40.904  20.771  26.559  1.00  0.00     0.124 S 
ATOM     80  O   UNL A   1      41.688  19.862  25.731  1.00  0.00    -0.237 OA
ATOM     81  O   UNL A   1      40.937  20.521  27.996  1.00  0.00    -0.237 OA
ATOM     82  O   UNL A   1      39.593  21.132  26.024  1.00  0.00    -0.744 OA
ENDBRANCH  75  79
ENDBRANCH  48  72
BRANCH  60  83
ATOM     83  C   UNL A   1      46.762  26.703  32.456  1.00  0.00     0.023 A 
ATOM     84  C   UNL A   1      46.933  25.614  33.326  1.00  0.00     0.031 A 
ATOM     85  C   UNL A   1      47.910  27.363  31.983  1.00  0.00     0.131 A 
ATOM     86  C   UNL A   1      48.224  25.236  33.723  1.00  0.00     0.055 A 
ATOM     87  C   UNL A   1      49.194  26.948  32.339  1.00  0.00     0.041 A 
ATOM     88  F   UNL A   1      47.802  28.410  31.149  1.00  0.00    -0.206 F 
ATOM     89  C   UNL A   1      49.356  25.882  33.219  1.00  0.00     0.022 A 
BRANCH  86  90
ATOM     90  S   UNL A   1      48.404  23.913  34.951  1.00  0.00     0.124 S 
ATOM     91  O   UNL A   1      47.016  23.535  35.191  1.00  0.00    -0.237 OA
ATOM     92  O   UNL A   1      49.219  22.933  34.242  1.00  0.00    -0.237 OA
ATOM     93  O   UNL A   1      49.070  24.575  36.072  1.00  0.00    -0.744 OA
ENDBRANCH  86  90
ENDBRANCH  60  83
ENDBRANCH  34  35
ENDBRANCH  26  29
ENDBRANCH  24  25
ENDBRANCH   1  24
TORSDOF 15
ENDMDL
