MODEL 1
REMARK VINA RESULT:     -11.7      0.000      0.000
REMARK SMILES Cc1ccc(F)c(C(=O)Nc2cccc(C(=O)NCCCNC(=O)c3ccc(-c4c5nc(c(-c6cc(S(=O)(=O)[O-])ccc6F)c6ccc([nH]6)c(-c6cc(S(=O)(=O)[O-])ccc6F)c6nc(c(-c7cc(S(=O)(=O)[O-])ccc7F)c7ccc4[nH]7)C=C6)C=C5)cc3)c2)c1
REMARK SMILES IDX 20 1 19 2 18 3 16 4 17 5 15 7 11 8 12 9 88 10 13 11 14 12
REMARK SMILES IDX 10 13 8 14 9 15 7 17 1 18 2 19 3 20 89 21 4 22 5 23 6 24
REMARK SMILES IDX 21 25 22 26 23 27 24 29 25 30 26 31 87 32 27 33 86 34 28 35
REMARK SMILES IDX 29 36 30 37 80 38 31 39 85 40 79 41 81 42 32 43 84 44 78 45
REMARK SMILES IDX 77 46 33 48 65 49 45 50 64 51 46 52 49 53 63 54 82 55 47 56
REMARK SMILES IDX 48 57 62 59 83 60 50 61 34 62 35 63 43 64 36 65 42 66 44 67
REMARK SMILES IDX 41 68 37 69 38 70 39 71 40 72 66 73 67 74 75 75 68 76 74 77
REMARK SMILES IDX 76 78 73 79 69 80 70 81 71 82 72 83 51 84 52 85 60 86 53 87
REMARK SMILES IDX 59 88 61 89 58 90 54 91 55 92 56 93 57 94
REMARK H PARENT 18 6 10 16 22 28 81 47 49 58
REMARK Flexibility Score: inf
ROOT
ATOM      1  C   UNL A   1      34.558  34.606  27.978  1.00  0.00     0.042 C 
ENDROOT
BRANCH   1   2
ATOM      2  C   UNL A   1      33.227  34.709  28.708  1.00  0.00     0.118 C 
BRANCH   2   3
ATOM      3  N   UNL A   1      32.981  36.049  29.199  1.00  0.00    -0.352 N 
ATOM      4  C   UNL A   1      33.133  36.629  30.430  1.00  0.00     0.251 C 
ATOM      5  O   UNL A   1      32.903  37.838  30.508  1.00  0.00    -0.269 OA
ATOM      6  H   UNL A   1      32.636  36.664  28.511  1.00  0.00     0.163 HD
BRANCH   4   7
ATOM      7  C   UNL A   1      33.620  35.912  31.648  1.00  0.00     0.041 A 
ATOM      8  C   UNL A   1      34.426  33.985  32.884  1.00  0.00     0.042 A 
ATOM      9  C   UNL A   1      34.645  34.775  34.011  1.00  0.00     0.026 A 
ATOM     10  C   UNL A   1      33.816  34.531  31.751  1.00  0.00     0.040 A 
ATOM     11  C   UNL A   1      34.403  36.144  33.948  1.00  0.00     0.003 A 
ATOM     12  C   UNL A   1      33.924  36.710  32.764  1.00  0.00     0.014 A 
BRANCH   8  13
ATOM     13  N   UNL A   1      34.908  32.669  32.916  1.00  0.00    -0.322 N 
ATOM     14  C   UNL A   1      36.150  32.154  32.579  1.00  0.00     0.258 C 
ATOM     15  O   UNL A   1      36.282  30.930  32.590  1.00  0.00    -0.269 OA
ATOM     16  H   UNL A   1      34.257  32.000  33.229  1.00  0.00     0.170 HD
BRANCH  14  17
ATOM     17  C   UNL A   1      37.349  33.014  32.351  1.00  0.00     0.076 A 
ATOM     18  C   UNL A   1      39.347  34.577  29.500  1.00  0.00     0.044 C 
ATOM     19  C   UNL A   1      38.878  34.248  30.888  1.00  0.00    -0.050 A 
ATOM     20  C   UNL A   1      39.667  34.578  31.993  1.00  0.00     0.006 A 
ATOM     21  C   UNL A   1      37.679  33.540  31.089  1.00  0.00     0.020 A 
ATOM     22  C   UNL A   1      39.294  34.151  33.268  1.00  0.00     0.040 A 
ATOM     23  C   UNL A   1      38.158  33.358  33.437  1.00  0.00     0.135 A 
ATOM     24  F   UNL A   1      37.885  32.923  34.675  1.00  0.00    -0.206 F 
ENDBRANCH  14  17
ENDBRANCH   8  13
ENDBRANCH   4   7
ENDBRANCH   2   3
ENDBRANCH   1   2
BRANCH   1  25
ATOM     25  C   UNL A   1      35.228  33.259  28.200  1.00  0.00     0.118 C 
BRANCH  25  26
ATOM     26  N   UNL A   1      34.392  32.162  27.732  1.00  0.00    -0.352 N 
ATOM     27  C   UNL A   1      34.703  30.842  27.531  1.00  0.00     0.251 C 
ATOM     28  H   UNL A   1      33.460  32.406  27.529  1.00  0.00     0.163 HD
ATOM     29  O   UNL A   1      33.913  30.135  26.913  1.00  0.00    -0.269 OA
BRANCH  27  30
ATOM     30  C   UNL A   1      35.975  30.284  28.039  1.00  0.00     0.039 A 
ATOM     31  C   UNL A   1      35.995  29.709  29.313  1.00  0.00     0.014 A 
ATOM     32  C   UNL A   1      37.153  30.362  27.291  1.00  0.00     0.014 A 
ATOM     33  C   UNL A   1      37.185  29.183  29.818  1.00  0.00     0.010 A 
ATOM     34  C   UNL A   1      38.314  29.754  27.755  1.00  0.00     0.010 A 
ATOM     35  C   UNL A   1      38.350  29.185  29.034  1.00  0.00    -0.014 A 
BRANCH  35  36
ATOM     36  C   UNL A   1      39.629  28.644  29.560  1.00  0.00     0.031 A 
ATOM     37  C   UNL A   1      40.291  29.303  30.742  1.00  0.00     0.074 A 
ATOM     38  C   UNL A   1      40.213  27.597  28.947  1.00  0.00     0.049 A 
ATOM     39  N   UNL A   1      41.427  29.018  31.323  1.00  0.00    -0.248 NA
ATOM     40  C   UNL A   1      39.597  30.464  31.322  1.00  0.00     0.031 C 
ATOM     41  C   UNL A   1      39.692  26.917  27.758  1.00  0.00     0.029 A 
ATOM     42  N   UNL A   1      41.374  26.925  29.232  1.00  0.00    -0.354 N 
ATOM     43  C   UNL A   1      41.595  29.976  32.318  1.00  0.00     0.074 A 
ATOM     44  C   UNL A   1      40.479  30.890  32.212  1.00  0.00     0.031 C 
ATOM     45  C   UNL A   1      40.515  25.907  27.435  1.00  0.00     0.029 A 
ATOM     46  C   UNL A   1      41.638  25.890  28.366  1.00  0.00     0.049 A 
ATOM     47  H   UNL A   1      41.962  27.161  29.985  1.00  0.00     0.167 HD
ATOM     48  C   UNL A   1      42.576  30.068  33.252  1.00  0.00     0.034 A 
ATOM     49  C   UNL A   1      42.673  25.027  28.327  1.00  0.00     0.034 A 
ATOM     50  C   UNL A   1      43.666  29.128  33.353  1.00  0.00     0.049 A 
ATOM     51  C   UNL A   1      43.739  25.130  29.387  1.00  0.00     0.074 A 
ATOM     52  C   UNL A   1      44.678  29.076  34.295  1.00  0.00     0.029 A 
ATOM     53  N   UNL A   1      43.887  28.071  32.476  1.00  0.00    -0.354 N 
ATOM     54  N   UNL A   1      43.851  26.002  30.363  1.00  0.00    -0.248 NA
ATOM     55  C   UNL A   1      44.803  24.122  29.353  1.00  0.00     0.031 C 
ATOM     56  C   UNL A   1      45.545  28.033  33.950  1.00  0.00     0.029 A 
ATOM     57  C   UNL A   1      45.034  27.382  32.839  1.00  0.00     0.049 A 
ATOM     58  H   UNL A   1      43.313  27.847  31.708  1.00  0.00     0.167 HD
ATOM     59  C   UNL A   1      44.987  25.628  31.076  1.00  0.00     0.074 A 
ATOM     60  C   UNL A   1      45.508  24.442  30.428  1.00  0.00     0.031 C 
ATOM     61  C   UNL A   1      45.547  26.209  32.169  1.00  0.00     0.034 A 
BRANCH  48  62
ATOM     62  C   UNL A   1      42.516  31.237  34.210  1.00  0.00     0.023 A 
ATOM     63  C   UNL A   1      41.639  31.251  35.310  1.00  0.00     0.031 A 
ATOM     64  C   UNL A   1      43.313  32.375  33.995  1.00  0.00     0.131 A 
ATOM     65  C   UNL A   1      41.513  32.408  36.094  1.00  0.00     0.055 A 
ATOM     66  C   UNL A   1      43.249  33.490  34.834  1.00  0.00     0.041 A 
ATOM     67  F   UNL A   1      44.156  32.433  32.952  1.00  0.00    -0.206 F 
ATOM     68  C   UNL A   1      42.331  33.518  35.880  1.00  0.00     0.022 A 
BRANCH  65  69
ATOM     69  S   UNL A   1      40.151  32.500  37.288  1.00  0.00     0.124 S 
ATOM     70  O   UNL A   1      39.309  31.384  36.862  1.00  0.00    -0.237 OA
ATOM     71  O   UNL A   1      40.837  32.331  38.564  1.00  0.00    -0.237 OA
ATOM     72  O   UNL A   1      39.580  33.825  37.056  1.00  0.00    -0.744 OA
ENDBRANCH  65  69
ENDBRANCH  48  62
BRANCH  49  73
ATOM     73  C   UNL A   1      42.747  23.991  27.259  1.00  0.00     0.023 A 
ATOM     74  C   UNL A   1      42.057  22.774  27.379  1.00  0.00     0.031 A 
ATOM     75  C   UNL A   1      43.529  24.194  26.108  1.00  0.00     0.131 A 
ATOM     76  C   UNL A   1      42.196  21.789  26.388  1.00  0.00     0.055 A 
ATOM     77  C   UNL A   1      43.625  23.232  25.102  1.00  0.00     0.041 A 
ATOM     78  F   UNL A   1      44.202  25.344  25.940  1.00  0.00    -0.206 F 
ATOM     79  C   UNL A   1      42.964  22.015  25.244  1.00  0.00     0.022 A 
BRANCH  76  80
ATOM     80  S   UNL A   1      41.413  20.174  26.651  1.00  0.00     0.124 S 
ATOM     81  O   UNL A   1      40.030  20.555  26.918  1.00  0.00    -0.237 OA
ATOM     82  O   UNL A   1      41.660  19.507  25.377  1.00  0.00    -0.237 OA
ATOM     83  O   UNL A   1      42.141  19.624  27.791  1.00  0.00    -0.744 OA
ENDBRANCH  76  80
ENDBRANCH  49  73
BRANCH  61  84
ATOM     84  C   UNL A   1      46.767  25.533  32.748  1.00  0.00     0.023 A 
ATOM     85  C   UNL A   1      48.049  25.732  32.208  1.00  0.00     0.031 A 
ATOM     86  C   UNL A   1      46.638  24.662  33.844  1.00  0.00     0.131 A 
ATOM     87  C   UNL A   1      49.141  25.017  32.721  1.00  0.00     0.055 A 
ATOM     88  C   UNL A   1      47.739  24.003  34.393  1.00  0.00     0.041 A 
ATOM     89  F   UNL A   1      45.437  24.434  34.400  1.00  0.00    -0.206 F 
ATOM     90  C   UNL A   1      48.997  24.167  33.820  1.00  0.00     0.022 A 
BRANCH  87  91
ATOM     91  S   UNL A   1      50.734  25.129  31.861  1.00  0.00     0.124 S 
ATOM     92  O   UNL A   1      50.319  25.347  30.480  1.00  0.00    -0.237 OA
ATOM     93  O   UNL A   1      51.367  26.264  32.524  1.00  0.00    -0.237 OA
ATOM     94  O   UNL A   1      51.357  23.833  32.125  1.00  0.00    -0.744 OA
ENDBRANCH  87  91
ENDBRANCH  61  84
ENDBRANCH  35  36
ENDBRANCH  27  30
ENDBRANCH  25  26
ENDBRANCH   1  25
TORSDOF 15
ENDMDL
MODEL 2
REMARK VINA RESULT:     -11.5      4.736     10.637
REMARK SMILES Cc1ccc(F)c(C(=O)Nc2cccc(C(=O)NCCCNC(=O)c3ccc(-c4c5nc(c(-c6cc(S(=O)(=O)[O-])ccc6F)c6ccc([nH]6)c(-c6cc(S(=O)(=O)[O-])ccc6F)c6nc(c(-c7cc(S(=O)(=O)[O-])ccc7F)c7ccc4[nH]7)C=C6)C=C5)cc3)c2)c1
REMARK SMILES IDX 20 1 19 2 18 3 16 4 17 5 15 7 11 8 12 9 88 10 13 11 14 12
REMARK SMILES IDX 10 13 8 14 9 15 7 17 1 18 2 19 3 20 89 21 4 22 5 23 6 24
REMARK SMILES IDX 21 25 22 26 23 27 24 29 25 30 26 31 87 32 27 33 86 34 28 35
REMARK SMILES IDX 29 36 30 37 80 38 31 39 85 40 79 41 81 42 32 43 84 44 78 45
REMARK SMILES IDX 77 46 33 48 65 49 45 50 64 51 46 52 49 53 63 54 82 55 47 56
REMARK SMILES IDX 48 57 62 59 83 60 50 61 34 62 35 63 43 64 36 65 42 66 44 67
REMARK SMILES IDX 41 68 37 69 38 70 39 71 40 72 66 73 67 74 75 75 68 76 74 77
REMARK SMILES IDX 76 78 73 79 69 80 70 81 71 82 72 83 51 84 52 85 60 86 53 87
REMARK SMILES IDX 59 88 61 89 58 90 54 91 55 92 56 93 57 94
REMARK H PARENT 18 6 10 16 22 28 81 47 49 58
REMARK Flexibility Score: inf
ROOT
ATOM      1  C   UNL A   1      31.482  32.132  26.716  1.00  0.00     0.042 C 
ENDROOT
BRANCH   1   2
ATOM      2  C   UNL A   1      31.588  30.623  26.549  1.00  0.00     0.118 C 
BRANCH   2   3
ATOM      3  N   UNL A   1      32.448  30.260  25.442  1.00  0.00    -0.352 N 
ATOM      4  C   UNL A   1      32.411  29.234  24.535  1.00  0.00     0.251 C 
ATOM      5  O   UNL A   1      33.266  29.245  23.647  1.00  0.00    -0.269 OA
ATOM      6  H   UNL A   1      33.210  30.871  25.317  1.00  0.00     0.163 HD
BRANCH   4   7
ATOM      7  C   UNL A   1      31.372  28.160  24.518  1.00  0.00     0.041 A 
ATOM      8  C   UNL A   1      30.268  26.160  25.339  1.00  0.00     0.042 A 
ATOM      9  C   UNL A   1      29.256  26.306  24.393  1.00  0.00     0.026 A 
ATOM     10  C   UNL A   1      31.371  27.019  25.326  1.00  0.00     0.040 A 
ATOM     11  C   UNL A   1      29.268  27.404  23.538  1.00  0.00     0.003 A 
ATOM     12  C   UNL A   1      30.303  28.339  23.623  1.00  0.00     0.014 A 
BRANCH   8  13
ATOM     13  N   UNL A   1      30.089  25.185  26.330  1.00  0.00    -0.322 N 
ATOM     14  C   UNL A   1      30.698  23.953  26.505  1.00  0.00     0.258 C 
ATOM     15  O   UNL A   1      30.274  23.229  27.406  1.00  0.00    -0.269 OA
ATOM     16  H   UNL A   1      29.420  25.413  27.015  1.00  0.00     0.170 HD
BRANCH  14  17
ATOM     17  C   UNL A   1      31.920  23.538  25.753  1.00  0.00     0.076 A 
ATOM     18  C   UNL A   1      35.709  23.359  26.167  1.00  0.00     0.044 C 
ATOM     19  C   UNL A   1      34.337  23.181  25.583  1.00  0.00    -0.050 A 
ATOM     20  C   UNL A   1      34.186  22.805  24.246  1.00  0.00     0.006 A 
ATOM     21  C   UNL A   1      33.191  23.463  26.349  1.00  0.00     0.020 A 
ATOM     22  C   UNL A   1      32.916  22.773  23.670  1.00  0.00     0.040 A 
ATOM     23  C   UNL A   1      31.800  23.158  24.414  1.00  0.00     0.135 A 
ATOM     24  F   UNL A   1      30.613  23.171  23.789  1.00  0.00    -0.206 F 
ENDBRANCH  14  17
ENDBRANCH   8  13
ENDBRANCH   4   7
ENDBRANCH   2   3
ENDBRANCH   1   2
BRANCH   1  25
ATOM     25  C   UNL A   1      32.791  32.749  27.183  1.00  0.00     0.118 C 
BRANCH  25  26
ATOM     26  N   UNL A   1      32.602  34.116  27.648  1.00  0.00    -0.352 N 
ATOM     27  C   UNL A   1      33.155  34.764  28.723  1.00  0.00     0.251 C 
ATOM     28  H   UNL A   1      31.982  34.658  27.109  1.00  0.00     0.163 HD
ATOM     29  O   UNL A   1      32.684  35.843  29.070  1.00  0.00    -0.269 OA
BRANCH  27  30
ATOM     30  C   UNL A   1      34.291  34.166  29.457  1.00  0.00     0.039 A 
ATOM     31  C   UNL A   1      35.589  34.403  28.997  1.00  0.00     0.014 A 
ATOM     32  C   UNL A   1      34.085  33.342  30.568  1.00  0.00     0.014 A 
ATOM     33  C   UNL A   1      36.676  33.842  29.668  1.00  0.00     0.010 A 
ATOM     34  C   UNL A   1      35.171  32.863  31.291  1.00  0.00     0.010 A 
ATOM     35  C   UNL A   1      36.477  33.083  30.832  1.00  0.00    -0.014 A 
BRANCH  35  36
ATOM     36  C   UNL A   1      37.620  32.467  31.551  1.00  0.00     0.031 A 
ATOM     37  C   UNL A   1      38.386  31.338  30.912  1.00  0.00     0.074 A 
ATOM     38  C   UNL A   1      37.935  32.889  32.791  1.00  0.00     0.049 A 
ATOM     39  N   UNL A   1      39.380  30.635  31.388  1.00  0.00    -0.248 NA
ATOM     40  C   UNL A   1      37.945  30.919  29.572  1.00  0.00     0.031 C 
ATOM     41  C   UNL A   1      37.225  33.935  33.532  1.00  0.00     0.029 A 
ATOM     42  N   UNL A   1      38.926  32.489  33.649  1.00  0.00    -0.354 N 
ATOM     43  C   UNL A   1      39.667  29.679  30.419  1.00  0.00     0.074 A 
ATOM     44  C   UNL A   1      38.694  29.849  29.363  1.00  0.00     0.031 C 
ATOM     45  C   UNL A   1      37.823  34.113  34.720  1.00  0.00     0.029 A 
ATOM     46  C   UNL A   1      38.931  33.173  34.843  1.00  0.00     0.049 A 
ATOM     47  H   UNL A   1      39.573  31.781  33.432  1.00  0.00     0.167 HD
ATOM     48  C   UNL A   1      40.668  28.762  30.400  1.00  0.00     0.034 A 
ATOM     49  C   UNL A   1      39.738  33.050  35.915  1.00  0.00     0.034 A 
ATOM     50  C   UNL A   1      41.642  28.629  31.455  1.00  0.00     0.049 A 
ATOM     51  C   UNL A   1      40.857  32.043  35.865  1.00  0.00     0.074 A 
ATOM     52  C   UNL A   1      42.739  27.788  31.518  1.00  0.00     0.029 A 
ATOM     53  N   UNL A   1      41.635  29.359  32.639  1.00  0.00    -0.354 N 
ATOM     54  N   UNL A   1      41.158  31.189  34.913  1.00  0.00    -0.248 NA
ATOM     55  C   UNL A   1      41.758  31.999  37.022  1.00  0.00     0.031 C 
ATOM     56  C   UNL A   1      43.354  27.961  32.763  1.00  0.00     0.029 A 
ATOM     57  C   UNL A   1      42.691  28.967  33.448  1.00  0.00     0.049 A 
ATOM     58  H   UNL A   1      40.975  30.053  32.869  1.00  0.00     0.167 HD
ATOM     59  C   UNL A   1      42.301  30.524  35.348  1.00  0.00     0.074 A 
ATOM     60  C   UNL A   1      42.644  31.093  36.635  1.00  0.00     0.031 C 
ATOM     61  C   UNL A   1      43.007  29.536  34.738  1.00  0.00     0.034 A 
BRANCH  48  62
ATOM     62  C   UNL A   1      40.730  27.826  29.213  1.00  0.00     0.023 A 
ATOM     63  C   UNL A   1      41.652  28.015  28.167  1.00  0.00     0.031 A 
ATOM     64  C   UNL A   1      39.825  26.756  29.101  1.00  0.00     0.131 A 
ATOM     65  C   UNL A   1      41.587  27.210  27.019  1.00  0.00     0.055 A 
ATOM     66  C   UNL A   1      39.825  25.901  27.997  1.00  0.00     0.041 A 
ATOM     67  F   UNL A   1      38.907  26.534  30.055  1.00  0.00    -0.206 F 
ATOM     68  C   UNL A   1      40.698  26.137  26.938  1.00  0.00     0.022 A 
BRANCH  65  69
ATOM     69  S   UNL A   1      42.568  27.689  25.570  1.00  0.00     0.124 S 
ATOM     70  O   UNL A   1      42.354  26.550  24.680  1.00  0.00    -0.237 OA
ATOM     71  O   UNL A   1      41.943  28.943  25.166  1.00  0.00    -0.237 OA
ATOM     72  O   UNL A   1      43.925  27.810  26.100  1.00  0.00    -0.744 OA
ENDBRANCH  65  69
ENDBRANCH  48  62
BRANCH  49  73
ATOM     73  C   UNL A   1      39.523  33.904  37.118  1.00  0.00     0.023 A 
ATOM     74  C   UNL A   1      38.884  33.400  38.261  1.00  0.00     0.031 A 
ATOM     75  C   UNL A   1      39.936  35.248  37.132  1.00  0.00     0.131 A 
ATOM     76  C   UNL A   1      38.637  34.244  39.355  1.00  0.00     0.055 A 
ATOM     77  C   UNL A   1      39.733  36.070  38.241  1.00  0.00     0.041 A 
ATOM     78  F   UNL A   1      40.561  35.777  36.068  1.00  0.00    -0.206 F 
ATOM     79  C   UNL A   1      39.069  35.572  39.358  1.00  0.00     0.022 A 
BRANCH  76  80
ATOM     80  S   UNL A   1      37.676  33.600  40.752  1.00  0.00     0.124 S 
ATOM     81  O   UNL A   1      37.389  34.817  41.503  1.00  0.00    -0.237 OA
ATOM     82  O   UNL A   1      36.540  32.980  40.077  1.00  0.00    -0.237 OA
ATOM     83  O   UNL A   1      38.597  32.669  41.398  1.00  0.00    -0.744 OA
ENDBRANCH  76  80
ENDBRANCH  49  73
BRANCH  61  84
ATOM     84  C   UNL A   1      44.244  29.045  35.450  1.00  0.00     0.023 A 
ATOM     85  C   UNL A   1      44.184  28.032  36.423  1.00  0.00     0.031 A 
ATOM     86  C   UNL A   1      45.497  29.615  35.164  1.00  0.00     0.131 A 
ATOM     87  C   UNL A   1      45.344  27.668  37.123  1.00  0.00     0.055 A 
ATOM     88  C   UNL A   1      46.659  29.201  35.817  1.00  0.00     0.041 A 
ATOM     89  F   UNL A   1      45.613  30.586  34.244  1.00  0.00    -0.206 F 
ATOM     90  C   UNL A   1      46.583  28.233  36.815  1.00  0.00     0.022 A 
BRANCH  87  91
ATOM     91  S   UNL A   1      45.191  26.520  38.520  1.00  0.00     0.124 S 
ATOM     92  O   UNL A   1      45.839  25.321  38.000  1.00  0.00    -0.237 OA
ATOM     93  O   UNL A   1      45.905  27.224  39.580  1.00  0.00    -0.237 OA
ATOM     94  O   UNL A   1      43.747  26.410  38.715  1.00  0.00    -0.744 OA
ENDBRANCH  87  91
ENDBRANCH  61  84
ENDBRANCH  35  36
ENDBRANCH  27  30
ENDBRANCH  25  26
ENDBRANCH   1  25
TORSDOF 15
ENDMDL
MODEL 3
REMARK VINA RESULT:     -11.4      1.822      2.067
REMARK SMILES Cc1ccc(F)c(C(=O)Nc2cccc(C(=O)NCCCNC(=O)c3ccc(-c4c5nc(c(-c6cc(S(=O)(=O)[O-])ccc6F)c6ccc([nH]6)c(-c6cc(S(=O)(=O)[O-])ccc6F)c6nc(c(-c7cc(S(=O)(=O)[O-])ccc7F)c7ccc4[nH]7)C=C6)C=C5)cc3)c2)c1
REMARK SMILES IDX 20 1 19 2 18 3 16 4 17 5 15 7 11 8 12 9 88 10 13 11 14 12
REMARK SMILES IDX 10 13 8 14 9 15 7 17 1 18 2 19 3 20 89 21 4 22 5 23 6 24
REMARK SMILES IDX 21 25 22 26 23 27 24 29 25 30 26 31 87 32 27 33 86 34 28 35
REMARK SMILES IDX 29 36 30 37 80 38 31 39 85 40 79 41 81 42 32 43 84 44 78 45
REMARK SMILES IDX 77 46 33 48 65 49 45 50 64 51 46 52 49 53 63 54 82 55 47 56
REMARK SMILES IDX 48 57 62 59 83 60 50 61 34 62 35 63 43 64 36 65 42 66 44 67
REMARK SMILES IDX 41 68 37 69 38 70 39 71 40 72 66 73 67 74 75 75 68 76 74 77
REMARK SMILES IDX 76 78 73 79 69 80 70 81 71 82 72 83 51 84 52 85 60 86 53 87
REMARK SMILES IDX 59 88 61 89 58 90 54 91 55 92 56 93 57 94
REMARK H PARENT 18 6 10 16 22 28 81 47 49 58
REMARK Flexibility Score: inf
ROOT
ATOM      1  C   UNL A   1      34.666  34.637  27.962  1.00  0.00     0.042 C 
ENDROOT
BRANCH   1   2
ATOM      2  C   UNL A   1      33.308  34.723  28.642  1.00  0.00     0.118 C 
BRANCH   2   3
ATOM      3  N   UNL A   1      33.032  36.057  29.134  1.00  0.00    -0.352 N 
ATOM      4  C   UNL A   1      33.155  36.635  30.370  1.00  0.00     0.251 C 
ATOM      5  O   UNL A   1      32.904  37.839  30.448  1.00  0.00    -0.269 OA
ATOM      6  H   UNL A   1      32.689  36.669  28.443  1.00  0.00     0.163 HD
BRANCH   4   7
ATOM      7  C   UNL A   1      33.632  35.920  31.593  1.00  0.00     0.041 A 
ATOM      8  C   UNL A   1      34.413  33.992  32.844  1.00  0.00     0.042 A 
ATOM      9  C   UNL A   1      34.642  34.788  33.965  1.00  0.00     0.026 A 
ATOM     10  C   UNL A   1      33.810  34.538  31.707  1.00  0.00     0.040 A 
ATOM     11  C   UNL A   1      34.417  36.159  33.892  1.00  0.00     0.003 A 
ATOM     12  C   UNL A   1      33.945  36.722  32.703  1.00  0.00     0.014 A 
BRANCH   8  13
ATOM     13  N   UNL A   1      34.879  32.670  32.885  1.00  0.00    -0.322 N 
ATOM     14  C   UNL A   1      36.117  32.139  32.562  1.00  0.00     0.258 C 
ATOM     15  O   UNL A   1      36.234  30.914  32.578  1.00  0.00    -0.269 OA
ATOM     16  H   UNL A   1      34.217  32.011  33.195  1.00  0.00     0.170 HD
BRANCH  14  17
ATOM     17  C   UNL A   1      37.329  32.983  32.340  1.00  0.00     0.076 A 
ATOM     18  C   UNL A   1      39.341  34.553  29.504  1.00  0.00     0.044 C 
ATOM     19  C   UNL A   1      38.871  34.213  30.889  1.00  0.00    -0.050 A 
ATOM     20  C   UNL A   1      39.670  34.515  31.996  1.00  0.00     0.006 A 
ATOM     21  C   UNL A   1      37.663  33.521  31.085  1.00  0.00     0.020 A 
ATOM     22  C   UNL A   1      39.295  34.077  33.266  1.00  0.00     0.040 A 
ATOM     23  C   UNL A   1      38.147  33.299  33.428  1.00  0.00     0.135 A 
ATOM     24  F   UNL A   1      37.872  32.851  34.661  1.00  0.00    -0.206 F 
ENDBRANCH  14  17
ENDBRANCH   8  13
ENDBRANCH   4   7
ENDBRANCH   2   3
ENDBRANCH   1   2
BRANCH   1  25
ATOM     25  C   UNL A   1      35.322  33.280  28.164  1.00  0.00     0.118 C 
BRANCH  25  26
ATOM     26  N   UNL A   1      34.462  32.197  27.705  1.00  0.00    -0.352 N 
ATOM     27  C   UNL A   1      34.741  30.866  27.528  1.00  0.00     0.251 C 
ATOM     28  H   UNL A   1      33.539  32.461  27.488  1.00  0.00     0.163 HD
ATOM     29  O   UNL A   1      33.940  30.169  26.913  1.00  0.00    -0.269 OA
BRANCH  27  30
ATOM     30  C   UNL A   1      35.994  30.285  28.058  1.00  0.00     0.039 A 
ATOM     31  C   UNL A   1      35.965  29.647  29.301  1.00  0.00     0.014 A 
ATOM     32  C   UNL A   1      37.200  30.400  27.362  1.00  0.00     0.014 A 
ATOM     33  C   UNL A   1      37.136  29.098  29.827  1.00  0.00     0.010 A 
ATOM     34  C   UNL A   1      38.343  29.771  27.840  1.00  0.00     0.010 A 
ATOM     35  C   UNL A   1      38.331  29.139  29.091  1.00  0.00    -0.014 A 
BRANCH  35  36
ATOM     36  C   UNL A   1      39.589  28.574  29.640  1.00  0.00     0.031 A 
ATOM     37  C   UNL A   1      40.203  29.175  30.877  1.00  0.00     0.074 A 
ATOM     38  C   UNL A   1      40.199  27.558  29.000  1.00  0.00     0.049 A 
ATOM     39  N   UNL A   1      41.316  28.862  31.488  1.00  0.00    -0.248 NA
ATOM     40  C   UNL A   1      39.485  30.306  31.485  1.00  0.00     0.031 C 
ATOM     41  C   UNL A   1      39.726  26.935  27.761  1.00  0.00     0.029 A 
ATOM     42  N   UNL A   1      41.349  26.872  29.297  1.00  0.00    -0.354 N 
ATOM     43  C   UNL A   1      41.444  29.771  32.534  1.00  0.00     0.074 A 
ATOM     44  C   UNL A   1      40.331  30.689  32.428  1.00  0.00     0.031 C 
ATOM     45  C   UNL A   1      40.563  25.942  27.421  1.00  0.00     0.029 A 
ATOM     46  C   UNL A   1      41.649  25.880  28.393  1.00  0.00     0.049 A 
ATOM     47  H   UNL A   1      41.906  27.072  30.083  1.00  0.00     0.167 HD
ATOM     48  C   UNL A   1      42.386  29.818  33.509  1.00  0.00     0.034 A 
ATOM     49  C   UNL A   1      42.686  25.021  28.354  1.00  0.00     0.034 A 
ATOM     50  C   UNL A   1      43.473  28.874  33.607  1.00  0.00     0.049 A 
ATOM     51  C   UNL A   1      43.709  25.073  29.458  1.00  0.00     0.074 A 
ATOM     52  C   UNL A   1      44.448  28.777  34.583  1.00  0.00     0.029 A 
ATOM     53  N   UNL A   1      43.731  27.861  32.688  1.00  0.00    -0.354 N 
ATOM     54  N   UNL A   1      43.782  25.897  30.479  1.00  0.00    -0.248 NA
ATOM     55  C   UNL A   1      44.777  24.067  29.417  1.00  0.00     0.031 C 
ATOM     56  C   UNL A   1      45.331  27.752  34.223  1.00  0.00     0.029 A 
ATOM     57  C   UNL A   1      44.864  27.155  33.063  1.00  0.00     0.049 A 
ATOM     58  H   UNL A   1      43.188  27.674  31.889  1.00  0.00     0.167 HD
ATOM     59  C   UNL A   1      44.890  25.489  31.217  1.00  0.00     0.074 A 
ATOM     60  C   UNL A   1      45.439  24.336  30.533  1.00  0.00     0.031 C 
ATOM     61  C   UNL A   1      45.406  26.016  32.357  1.00  0.00     0.034 A 
BRANCH  48  62
ATOM     62  C   UNL A   1      42.287  30.939  34.518  1.00  0.00     0.023 A 
ATOM     63  C   UNL A   1      42.746  32.238  34.232  1.00  0.00     0.031 A 
ATOM     64  C   UNL A   1      41.769  30.698  35.803  1.00  0.00     0.131 A 
ATOM     65  C   UNL A   1      42.764  33.215  35.239  1.00  0.00     0.055 A 
ATOM     66  C   UNL A   1      41.706  31.700  36.774  1.00  0.00     0.041 A 
ATOM     67  F   UNL A   1      41.334  29.475  36.146  1.00  0.00    -0.206 F 
ATOM     68  C   UNL A   1      42.223  32.963  36.500  1.00  0.00     0.022 A 
BRANCH  65  69
ATOM     69  S   UNL A   1      43.656  34.763  34.926  1.00  0.00     0.124 S 
ATOM     70  O   UNL A   1      43.271  35.565  36.085  1.00  0.00    -0.237 OA
ATOM     71  O   UNL A   1      45.046  34.326  34.884  1.00  0.00    -0.237 OA
ATOM     72  O   UNL A   1      43.108  35.223  33.651  1.00  0.00    -0.744 OA
ENDBRANCH  65  69
ENDBRANCH  48  62
BRANCH  49  73
ATOM     73  C   UNL A   1      42.804  24.037  27.240  1.00  0.00     0.023 A 
ATOM     74  C   UNL A   1      42.143  22.799  27.293  1.00  0.00     0.031 A 
ATOM     75  C   UNL A   1      43.599  24.312  26.114  1.00  0.00     0.131 A 
ATOM     76  C   UNL A   1      42.323  21.865  26.260  1.00  0.00     0.055 A 
ATOM     77  C   UNL A   1      43.736  23.401  25.066  1.00  0.00     0.041 A 
ATOM     78  F   UNL A   1      44.245  25.485  26.010  1.00  0.00    -0.206 F 
ATOM     79  C   UNL A   1      43.104  22.163  25.141  1.00  0.00     0.022 A 
BRANCH  76  80
ATOM     80  S   UNL A   1      41.577  20.222  26.434  1.00  0.00     0.124 S 
ATOM     81  O   UNL A   1      40.155  20.527  26.319  1.00  0.00    -0.237 OA
ATOM     82  O   UNL A   1      42.171  19.499  25.314  1.00  0.00    -0.237 OA
ATOM     83  O   UNL A   1      42.017  19.786  27.757  1.00  0.00    -0.744 OA
ENDBRANCH  76  80
ENDBRANCH  49  73
BRANCH  61  84
ATOM     84  C   UNL A   1      46.603  25.314  32.950  1.00  0.00     0.023 A 
ATOM     85  C   UNL A   1      46.463  24.266  33.876  1.00  0.00     0.031 A 
ATOM     86  C   UNL A   1      47.904  25.715  32.597  1.00  0.00     0.131 A 
ATOM     87  C   UNL A   1      47.602  23.701  34.469  1.00  0.00     0.055 A 
ATOM     88  C   UNL A   1      49.035  25.104  33.139  1.00  0.00     0.041 A 
ATOM     89  F   UNL A   1      48.098  26.711  31.717  1.00  0.00    -0.206 F 
ATOM     90  C   UNL A   1      48.887  24.101  34.093  1.00  0.00     0.022 A 
BRANCH  87  91
ATOM     91  S   UNL A   1      47.379  22.509  35.818  1.00  0.00     0.124 S 
ATOM     92  O   UNL A   1      47.578  21.236  35.134  1.00  0.00    -0.237 OA
ATOM     93  O   UNL A   1      48.427  22.900  36.755  1.00  0.00    -0.237 OA
ATOM     94  O   UNL A   1      46.014  22.761  36.275  1.00  0.00    -0.744 OA
ENDBRANCH  87  91
ENDBRANCH  61  84
ENDBRANCH  35  36
ENDBRANCH  27  30
ENDBRANCH  25  26
ENDBRANCH   1  25
TORSDOF 15
ENDMDL
