MODEL 1
REMARK VINA RESULT:     -12.3      0.000      0.000
REMARK SMILES O=C(C[C@@H]([NH2+]Cc1ccccc1)C(=O)NCCCNC(=O)c1ccc(-c2c3nc(c(-c4cc(S(=O)(=O)[O-])ccc4F)c4ccc([nH]4)c(-c4cc(S(=O)(=O)[O-])ccc4F)c4nc(c(-c5cc(S(=O)(=O)[O-])ccc5F)c5ccc2[nH]5)C=C4)C=C3)cc1)Nc1cccc(Cl)c1Cl
REMARK SMILES IDX 17 1 16 2 15 3 13 4 14 5 4 7 3 8 2 9 1 10 85 11 86 13 87 14
REMARK SMILES IDX 92 15 88 16 90 17 93 18 89 19 91 20 5 21 6 24 7 25 8 26
REMARK SMILES IDX 12 27 9 28 11 29 10 30 18 31 19 32 20 33 21 35 22 36 23 37
REMARK SMILES IDX 84 38 24 39 83 40 25 41 26 42 27 43 77 44 28 45 82 46 76 47
REMARK SMILES IDX 78 48 29 49 81 50 75 51 74 52 30 54 62 55 42 56 61 57 43 58
REMARK SMILES IDX 46 59 60 60 79 61 44 62 45 63 59 65 80 66 47 67 31 68 32 69
REMARK SMILES IDX 40 70 33 71 39 72 41 73 38 74 34 75 35 76 36 77 37 78 63 79
REMARK SMILES IDX 64 80 72 81 65 82 71 83 73 84 70 85 66 86 67 87 68 88 69 89
REMARK SMILES IDX 48 90 49 91 57 92 50 93 56 94 58 95 55 96 51 97 52 98 53 99
REMARK SMILES IDX 54 100
REMARK H PARENT 15 6 85 12 5 22 5 23 19 34 78 53 46 64
REMARK Flexibility Score: inf
ROOT
ATOM      1  C   UNL A   1      31.777  28.704  26.344  1.00  0.00     0.042 C 
ENDROOT
BRANCH   1   2
ATOM      2  C   UNL A   1      32.089  27.277  25.904  1.00  0.00     0.118 C 
BRANCH   2   3
ATOM      3  N   UNL A   1      31.173  26.326  26.509  1.00  0.00    -0.351 N 
ATOM      4  C   UNL A   1      30.515  25.263  25.969  1.00  0.00     0.278 C 
ATOM      5  O   UNL A   1      29.762  24.626  26.711  1.00  0.00    -0.268 OA
ATOM      6  H   UNL A   1      31.001  26.475  27.466  1.00  0.00     0.163 HD
BRANCH   4   7
ATOM      7  C   UNL A   1      30.729  24.834  24.505  1.00  0.00     0.282 C 
BRANCH   7   8
ATOM      8  C   UNL A   1      31.028  23.331  24.445  1.00  0.00     0.175 C 
BRANCH   8   9
ATOM      9  C   UNL A   1      32.479  23.050  24.144  1.00  0.00     0.230 C 
ATOM     10  O   UNL A   1      32.898  22.944  22.996  1.00  0.00    -0.274 OA
ATOM     11  N   UNL A   1      33.226  22.841  25.292  1.00  0.00    -0.325 N 
ATOM     12  H   UNL A   1      32.756  22.829  26.157  1.00  0.00     0.169 HD
BRANCH  11  13
ATOM     13  C   UNL A   1      34.622  22.644  25.290  1.00  0.00     0.061 A 
ATOM     14  C   UNL A   1      35.411  23.798  25.395  1.00  0.00     0.028 A 
ATOM     15  C   UNL A   1      35.237  21.381  25.153  1.00  0.00     0.083 A 
ATOM     16  C   UNL A   1      36.800  23.701  25.448  1.00  0.00     0.004 A 
ATOM     17  C   UNL A   1      36.637  21.299  25.186  1.00  0.00     0.061 A 
ATOM     18  Cl  UNL A   1      34.295  19.975  24.755  1.00  0.00    -0.080 Cl
ATOM     19  C   UNL A   1      37.411  22.454  25.350  1.00  0.00     0.022 A 
ATOM     20  Cl  UNL A   1      37.492  19.806  24.994  1.00  0.00    -0.083 Cl
ENDBRANCH  11  13
ENDBRANCH   8   9
ENDBRANCH   7   8
BRANCH   7  21
ATOM     21  N   UNL A   1      29.589  25.247  23.624  1.00  0.00    -0.332 N 
ATOM     22  H   UNL A   1      28.991  24.436  23.465  1.00  0.00     0.347 HD
ATOM     23  H   UNL A   1      29.990  25.604  22.757  1.00  0.00     0.347 HD
BRANCH  21  24
ATOM     24  C   UNL A   1      28.769  26.329  24.206  1.00  0.00     0.297 C 
BRANCH  24  25
ATOM     25  C   UNL A   1      28.973  27.642  23.491  1.00  0.00     0.006 A 
ATOM     26  C   UNL A   1      30.250  28.031  23.065  1.00  0.00     0.009 A 
ATOM     27  C   UNL A   1      27.872  28.448  23.165  1.00  0.00     0.009 A 
ATOM     28  C   UNL A   1      30.420  29.186  22.304  1.00  0.00     0.001 A 
ATOM     29  C   UNL A   1      28.045  29.607  22.409  1.00  0.00     0.001 A 
ATOM     30  C   UNL A   1      29.318  29.971  21.972  1.00  0.00     0.000 A 
ENDBRANCH  24  25
ENDBRANCH  21  24
ENDBRANCH   7  21
ENDBRANCH   4   7
ENDBRANCH   2   3
ENDBRANCH   1   2
BRANCH   1  31
ATOM     31  C   UNL A   1      32.778  29.735  25.834  1.00  0.00     0.118 C 
BRANCH  31  32
ATOM     32  N   UNL A   1      32.465  31.084  26.287  1.00  0.00    -0.352 N 
ATOM     33  C   UNL A   1      33.105  31.867  27.217  1.00  0.00     0.251 C 
ATOM     34  H   UNL A   1      31.677  31.495  25.864  1.00  0.00     0.163 HD
ATOM     35  O   UNL A   1      32.558  32.892  27.620  1.00  0.00    -0.269 OA
BRANCH  33  36
ATOM     36  C   UNL A   1      34.424  31.463  27.746  1.00  0.00     0.039 A 
ATOM     37  C   UNL A   1      35.407  32.437  27.934  1.00  0.00     0.014 A 
ATOM     38  C   UNL A   1      34.688  30.127  28.065  1.00  0.00     0.014 A 
ATOM     39  C   UNL A   1      36.623  32.086  28.526  1.00  0.00     0.010 A 
ATOM     40  C   UNL A   1      35.869  29.794  28.723  1.00  0.00     0.010 A 
ATOM     41  C   UNL A   1      36.843  30.773  28.974  1.00  0.00    -0.014 A 
BRANCH  41  42
ATOM     42  C   UNL A   1      38.065  30.410  29.738  1.00  0.00     0.031 A 
ATOM     43  C   UNL A   1      39.061  29.442  29.165  1.00  0.00     0.074 A 
ATOM     44  C   UNL A   1      38.232  30.896  30.985  1.00  0.00     0.049 A 
ATOM     45  N   UNL A   1      40.126  28.925  29.720  1.00  0.00    -0.248 NA
ATOM     46  C   UNL A   1      38.809  28.973  27.794  1.00  0.00     0.031 C 
ATOM     47  C   UNL A   1      37.318  31.820  31.662  1.00  0.00     0.029 A 
ATOM     48  N   UNL A   1      39.220  30.672  31.913  1.00  0.00    -0.354 N 
ATOM     49  C   UNL A   1      40.670  28.064  28.772  1.00  0.00     0.074 A 
ATOM     50  C   UNL A   1      39.781  28.088  27.630  1.00  0.00     0.031 C 
ATOM     51  C   UNL A   1      37.797  32.097  32.884  1.00  0.00     0.029 A 
ATOM     52  C   UNL A   1      39.019  31.331  33.105  1.00  0.00     0.049 A 
ATOM     53  H   UNL A   1      39.999  30.095  31.742  1.00  0.00     0.167 HD
ATOM     54  C   UNL A   1      41.813  27.339  28.843  1.00  0.00     0.034 A 
ATOM     55  C   UNL A   1      39.722  31.302  34.255  1.00  0.00     0.034 A 
ATOM     56  C   UNL A   1      42.687  27.329  29.992  1.00  0.00     0.049 A 
ATOM     57  C   UNL A   1      40.956  30.440  34.331  1.00  0.00     0.074 A 
ATOM     58  C   UNL A   1      43.897  26.674  30.148  1.00  0.00     0.029 A 
ATOM     59  N   UNL A   1      42.440  27.992  31.189  1.00  0.00    -0.354 N 
ATOM     60  N   UNL A   1      41.485  29.671  33.406  1.00  0.00    -0.248 NA
ATOM     61  C   UNL A   1      41.689  30.441  35.603  1.00  0.00     0.031 C 
ATOM     62  C   UNL A   1      44.338  26.874  31.460  1.00  0.00     0.029 A 
ATOM     63  C   UNL A   1      43.451  27.724  32.100  1.00  0.00     0.049 A 
ATOM     64  H   UNL A   1      41.660  28.567  31.364  1.00  0.00     0.167 HD
ATOM     65  C   UNL A   1      42.629  29.122  33.979  1.00  0.00     0.074 A 
ATOM     66  C   UNL A   1      42.721  29.659  35.321  1.00  0.00     0.031 C 
ATOM     67  C   UNL A   1      43.524  28.254  33.441  1.00  0.00     0.034 A 
BRANCH  54  68
ATOM     68  C   UNL A   1      42.166  26.475  27.656  1.00  0.00     0.023 A 
ATOM     69  C   UNL A   1      41.798  25.119  27.594  1.00  0.00     0.031 A 
ATOM     70  C   UNL A   1      42.892  27.007  26.576  1.00  0.00     0.131 A 
ATOM     71  C   UNL A   1      42.219  24.327  26.516  1.00  0.00     0.055 A 
ATOM     72  C   UNL A   1      43.236  26.234  25.466  1.00  0.00     0.041 A 
ATOM     73  F   UNL A   1      43.291  28.289  26.585  1.00  0.00    -0.206 F 
ATOM     74  C   UNL A   1      42.913  24.880  25.438  1.00  0.00     0.022 A 
BRANCH  71  75
ATOM     75  S   UNL A   1      41.975  22.531  26.614  1.00  0.00     0.124 S 
ATOM     76  O   UNL A   1      42.714  22.200  27.830  1.00  0.00    -0.237 OA
ATOM     77  O   UNL A   1      40.524  22.415  26.697  1.00  0.00    -0.237 OA
ATOM     78  O   UNL A   1      42.572  22.036  25.376  1.00  0.00    -0.744 OA
ENDBRANCH  71  75
ENDBRANCH  54  68
BRANCH  55  79
ATOM     79  C   UNL A   1      39.267  32.088  35.439  1.00  0.00     0.023 A 
ATOM     80  C   UNL A   1      39.684  33.415  35.628  1.00  0.00     0.031 A 
ATOM     81  C   UNL A   1      38.447  31.510  36.424  1.00  0.00     0.131 A 
ATOM     82  C   UNL A   1      39.319  34.104  36.795  1.00  0.00     0.055 A 
ATOM     83  C   UNL A   1      38.037  32.218  37.555  1.00  0.00     0.041 A 
ATOM     84  F   UNL A   1      38.018  30.243  36.294  1.00  0.00    -0.206 F 
ATOM     85  C   UNL A   1      38.486  33.520  37.752  1.00  0.00     0.022 A 
BRANCH  82  86
ATOM     86  S   UNL A   1      40.028  35.747  37.088  1.00  0.00     0.124 S 
ATOM     87  O   UNL A   1      39.653  36.454  35.869  1.00  0.00    -0.237 OA
ATOM     88  O   UNL A   1      39.341  36.160  38.307  1.00  0.00    -0.237 OA
ATOM     89  O   UNL A   1      41.456  35.480  37.240  1.00  0.00    -0.744 OA
ENDBRANCH  82  86
ENDBRANCH  55  79
BRANCH  67  90
ATOM     90  C   UNL A   1      44.704  27.864  34.299  1.00  0.00     0.023 A 
ATOM     91  C   UNL A   1      44.674  26.727  35.126  1.00  0.00     0.031 A 
ATOM     92  C   UNL A   1      45.876  28.640  34.284  1.00  0.00     0.131 A 
ATOM     93  C   UNL A   1      45.777  26.426  35.939  1.00  0.00     0.055 A 
ATOM     94  C   UNL A   1      46.993  28.301  35.049  1.00  0.00     0.041 A 
ATOM     95  F   UNL A   1      45.958  29.739  33.517  1.00  0.00    -0.206 F 
ATOM     96  C   UNL A   1      46.943  27.195  35.891  1.00  0.00     0.022 A 
BRANCH  93  97
ATOM     97  S   UNL A   1      45.640  25.061  37.126  1.00  0.00     0.124 S 
ATOM     98  O   UNL A   1      46.045  25.702  38.373  1.00  0.00    -0.237 OA
ATOM     99  O   UNL A   1      44.231  24.698  37.025  1.00  0.00    -0.237 OA
ATOM    100  O   UNL A   1      46.574  24.062  36.611  1.00  0.00    -0.744 OA
ENDBRANCH  93  97
ENDBRANCH  67  90
ENDBRANCH  41  42
ENDBRANCH  33  36
ENDBRANCH  31  32
ENDBRANCH   1  31
TORSDOF 19
ENDMDL
MODEL 2
REMARK VINA RESULT:     -12.2      2.336      3.141
REMARK SMILES O=C(C[C@@H]([NH2+]Cc1ccccc1)C(=O)NCCCNC(=O)c1ccc(-c2c3nc(c(-c4cc(S(=O)(=O)[O-])ccc4F)c4ccc([nH]4)c(-c4cc(S(=O)(=O)[O-])ccc4F)c4nc(c(-c5cc(S(=O)(=O)[O-])ccc5F)c5ccc2[nH]5)C=C4)C=C3)cc1)Nc1cccc(Cl)c1Cl
REMARK SMILES IDX 17 1 16 2 15 3 13 4 14 5 4 7 3 8 2 9 1 10 85 11 86 13 87 14
REMARK SMILES IDX 92 15 88 16 90 17 93 18 89 19 91 20 5 21 6 24 7 25 8 26
REMARK SMILES IDX 12 27 9 28 11 29 10 30 18 31 19 32 20 33 21 35 22 36 23 37
REMARK SMILES IDX 84 38 24 39 83 40 25 41 26 42 27 43 77 44 28 45 82 46 76 47
REMARK SMILES IDX 78 48 29 49 81 50 75 51 74 52 30 54 62 55 42 56 61 57 43 58
REMARK SMILES IDX 46 59 60 60 79 61 44 62 45 63 59 65 80 66 47 67 31 68 32 69
REMARK SMILES IDX 40 70 33 71 39 72 41 73 38 74 34 75 35 76 36 77 37 78 63 79
REMARK SMILES IDX 64 80 72 81 65 82 71 83 73 84 70 85 66 86 67 87 68 88 69 89
REMARK SMILES IDX 48 90 49 91 57 92 50 93 56 94 58 95 55 96 51 97 52 98 53 99
REMARK SMILES IDX 54 100
REMARK H PARENT 15 6 85 12 5 22 5 23 19 34 78 53 46 64
REMARK Flexibility Score: inf
ROOT
ATOM      1  C   UNL A   1      31.824  31.305  26.653  1.00  0.00     0.042 C 
ENDROOT
BRANCH   1   2
ATOM      2  C   UNL A   1      32.195  29.890  26.224  1.00  0.00     0.118 C 
BRANCH   2   3
ATOM      3  N   UNL A   1      32.914  29.893  24.961  1.00  0.00    -0.351 N 
ATOM      4  C   UNL A   1      33.188  28.879  24.095  1.00  0.00     0.278 C 
ATOM      5  O   UNL A   1      33.852  29.154  23.091  1.00  0.00    -0.268 OA
ATOM      6  H   UNL A   1      33.258  30.773  24.688  1.00  0.00     0.163 HD
BRANCH   4   7
ATOM      7  C   UNL A   1      32.656  27.451  24.322  1.00  0.00     0.282 C 
BRANCH   7   8
ATOM      8  C   UNL A   1      33.539  26.729  25.349  1.00  0.00     0.175 C 
BRANCH   8   9
ATOM      9  C   UNL A   1      34.155  25.472  24.785  1.00  0.00     0.230 C 
ATOM     10  O   UNL A   1      34.124  25.211  23.588  1.00  0.00    -0.274 OA
ATOM     11  N   UNL A   1      34.656  24.641  25.775  1.00  0.00    -0.325 N 
ATOM     12  H   UNL A   1      34.514  24.898  26.715  1.00  0.00     0.169 HD
BRANCH  11  13
ATOM     13  C   UNL A   1      35.356  23.446  25.510  1.00  0.00     0.061 A 
ATOM     14  C   UNL A   1      36.751  23.552  25.424  1.00  0.00     0.028 A 
ATOM     15  C   UNL A   1      34.730  22.199  25.298  1.00  0.00     0.083 A 
ATOM     16  C   UNL A   1      37.534  22.419  25.211  1.00  0.00     0.004 A 
ATOM     17  C   UNL A   1      35.528  21.069  25.063  1.00  0.00     0.061 A 
ATOM     18  Cl  UNL A   1      33.003  22.091  25.134  1.00  0.00    -0.080 Cl
ATOM     19  C   UNL A   1      36.923  21.179  25.038  1.00  0.00     0.022 A 
ATOM     20  Cl  UNL A   1      34.861  19.501  24.757  1.00  0.00    -0.083 Cl
ENDBRANCH  11  13
ENDBRANCH   8   9
ENDBRANCH   7   8
BRANCH   7  21
ATOM     21  N   UNL A   1      31.201  27.441  24.681  1.00  0.00    -0.332 N 
ATOM     22  H   UNL A   1      30.925  28.389  24.940  1.00  0.00     0.347 HD
ATOM     23  H   UNL A   1      31.083  26.783  25.451  1.00  0.00     0.347 HD
BRANCH  21  24
ATOM     24  C   UNL A   1      30.334  26.985  23.575  1.00  0.00     0.297 C 
BRANCH  24  25
ATOM     25  C   UNL A   1      29.454  28.094  23.052  1.00  0.00     0.006 A 
ATOM     26  C   UNL A   1      28.071  28.074  23.280  1.00  0.00     0.009 A 
ATOM     27  C   UNL A   1      30.022  29.203  22.408  1.00  0.00     0.009 A 
ATOM     28  C   UNL A   1      27.277  29.154  22.897  1.00  0.00     0.001 A 
ATOM     29  C   UNL A   1      29.224  30.279  22.020  1.00  0.00     0.001 A 
ATOM     30  C   UNL A   1      27.854  30.258  22.272  1.00  0.00     0.000 A 
ENDBRANCH  24  25
ENDBRANCH  21  24
ENDBRANCH   7  21
ENDBRANCH   4   7
ENDBRANCH   2   3
ENDBRANCH   1   2
BRANCH   1  31
ATOM     31  C   UNL A   1      32.990  32.091  27.243  1.00  0.00     0.118 C 
BRANCH  31  32
ATOM     32  N   UNL A   1      32.655  33.489  27.479  1.00  0.00    -0.352 N 
ATOM     33  C   UNL A   1      33.141  34.360  28.424  1.00  0.00     0.251 C 
ATOM     34  H   UNL A   1      31.979  33.866  26.871  1.00  0.00     0.163 HD
ATOM     35  O   UNL A   1      32.572  35.436  28.601  1.00  0.00    -0.269 OA
BRANCH  33  36
ATOM     36  C   UNL A   1      34.319  33.991  29.237  1.00  0.00     0.039 A 
ATOM     37  C   UNL A   1      34.132  33.236  30.397  1.00  0.00     0.014 A 
ATOM     38  C   UNL A   1      35.605  34.381  28.852  1.00  0.00     0.014 A 
ATOM     39  C   UNL A   1      35.242  32.796  31.121  1.00  0.00     0.010 A 
ATOM     40  C   UNL A   1      36.712  33.878  29.531  1.00  0.00     0.010 A 
ATOM     41  C   UNL A   1      36.543  33.069  30.664  1.00  0.00    -0.014 A 
BRANCH  41  42
ATOM     42  C   UNL A   1      37.736  32.486  31.332  1.00  0.00     0.031 A 
ATOM     43  C   UNL A   1      38.457  31.319  30.717  1.00  0.00     0.074 A 
ATOM     44  C   UNL A   1      38.119  32.963  32.534  1.00  0.00     0.049 A 
ATOM     45  N   UNL A   1      39.446  30.612  31.198  1.00  0.00    -0.248 NA
ATOM     46  C   UNL A   1      37.984  30.874  29.398  1.00  0.00     0.031 C 
ATOM     47  C   UNL A   1      37.478  34.072  33.246  1.00  0.00     0.029 A 
ATOM     48  N   UNL A   1      39.127  32.568  33.379  1.00  0.00    -0.354 N 
ATOM     49  C   UNL A   1      39.711  29.632  30.247  1.00  0.00     0.074 A 
ATOM     50  C   UNL A   1      38.738  29.805  29.189  1.00  0.00     0.031 C 
ATOM     51  C   UNL A   1      38.120  34.280  34.405  1.00  0.00     0.029 A 
ATOM     52  C   UNL A   1      39.179  33.287  34.552  1.00  0.00     0.049 A 
ATOM     53  H   UNL A   1      39.754  31.840  33.166  1.00  0.00     0.167 HD
ATOM     54  C   UNL A   1      40.688  28.692  30.249  1.00  0.00     0.034 A 
ATOM     55  C   UNL A   1      39.971  33.148  35.634  1.00  0.00     0.034 A 
ATOM     56  C   UNL A   1      41.650  28.536  31.314  1.00  0.00     0.049 A 
ATOM     57  C   UNL A   1      41.009  32.055  35.639  1.00  0.00     0.074 A 
ATOM     58  C   UNL A   1      42.713  27.653  31.391  1.00  0.00     0.029 A 
ATOM     59  N   UNL A   1      41.658  29.268  32.495  1.00  0.00    -0.354 N 
ATOM     60  N   UNL A   1      41.280  31.169  34.708  1.00  0.00    -0.248 NA
ATOM     61  C   UNL A   1      41.848  31.942  36.839  1.00  0.00     0.031 C 
ATOM     62  C   UNL A   1      43.312  27.794  32.647  1.00  0.00     0.029 A 
ATOM     63  C   UNL A   1      42.679  28.826  33.323  1.00  0.00     0.049 A 
ATOM     64  H   UNL A   1      41.031  29.995  32.713  1.00  0.00     0.167 HD
ATOM     65  C   UNL A   1      42.341  30.414  35.200  1.00  0.00     0.074 A 
ATOM     66  C   UNL A   1      42.670  30.959  36.502  1.00  0.00     0.031 C 
ATOM     67  C   UNL A   1      42.988  29.367  34.626  1.00  0.00     0.034 A 
BRANCH  54  68
ATOM     68  C   UNL A   1      40.742  27.741  29.077  1.00  0.00     0.023 A 
ATOM     69  C   UNL A   1      41.678  27.899  28.039  1.00  0.00     0.031 A 
ATOM     70  C   UNL A   1      39.837  26.668  28.986  1.00  0.00     0.131 A 
ATOM     71  C   UNL A   1      41.640  27.048  26.925  1.00  0.00     0.055 A 
ATOM     72  C   UNL A   1      39.859  25.774  27.914  1.00  0.00     0.041 A 
ATOM     73  F   UNL A   1      38.906  26.476  29.934  1.00  0.00    -0.206 F 
ATOM     74  C   UNL A   1      40.754  25.970  26.867  1.00  0.00     0.022 A 
BRANCH  71  75
ATOM     75  S   UNL A   1      42.665  27.462  25.486  1.00  0.00     0.124 S 
ATOM     76  O   UNL A   1      43.957  27.730  26.111  1.00  0.00    -0.237 OA
ATOM     77  O   UNL A   1      42.583  26.248  24.682  1.00  0.00    -0.237 OA
ATOM     78  O   UNL A   1      42.000  28.633  24.918  1.00  0.00    -0.744 OA
ENDBRANCH  71  75
ENDBRANCH  54  68
BRANCH  55  79
ATOM     79  C   UNL A   1      39.801  34.043  36.816  1.00  0.00     0.023 A 
ATOM     80  C   UNL A   1      39.238  33.563  38.009  1.00  0.00     0.031 A 
ATOM     81  C   UNL A   1      40.156  35.402  36.755  1.00  0.00     0.131 A 
ATOM     82  C   UNL A   1      39.003  34.445  39.076  1.00  0.00     0.055 A 
ATOM     83  C   UNL A   1      39.974  36.263  37.839  1.00  0.00     0.041 A 
ATOM     84  F   UNL A   1      40.698  35.914  35.638  1.00  0.00    -0.206 F 
ATOM     85  C   UNL A   1      39.381  35.787  39.005  1.00  0.00     0.022 A 
BRANCH  82  86
ATOM     86  S   UNL A   1      38.108  33.828  40.527  1.00  0.00     0.124 S 
ATOM     87  O   UNL A   1      36.955  33.180  39.912  1.00  0.00    -0.237 OA
ATOM     88  O   UNL A   1      39.093  32.943  41.138  1.00  0.00    -0.237 OA
ATOM     89  O   UNL A   1      37.810  35.042  41.284  1.00  0.00    -0.744 OA
ENDBRANCH  82  86
ENDBRANCH  55  79
BRANCH  67  90
ATOM     90  C   UNL A   1      44.143  28.768  35.392  1.00  0.00     0.023 A 
ATOM     91  C   UNL A   1      43.961  27.709  36.299  1.00  0.00     0.031 A 
ATOM     92  C   UNL A   1      45.446  29.265  35.208  1.00  0.00     0.131 A 
ATOM     93  C   UNL A   1      45.057  27.212  37.021  1.00  0.00     0.055 A 
ATOM     94  C   UNL A   1      46.541  28.725  35.883  1.00  0.00     0.041 A 
ATOM     95  F   UNL A   1      45.677  30.279  34.358  1.00  0.00    -0.206 F 
ATOM     96  C   UNL A   1      46.348  27.701  36.804  1.00  0.00     0.022 A 
BRANCH  93  97
ATOM     97  S   UNL A   1      44.761  25.972  38.312  1.00  0.00     0.124 S 
ATOM     98  O   UNL A   1      43.713  25.155  37.711  1.00  0.00    -0.237 OA
ATOM     99  O   UNL A   1      46.068  25.338  38.441  1.00  0.00    -0.237 OA
ATOM    100  O   UNL A   1      44.344  26.769  39.464  1.00  0.00    -0.744 OA
ENDBRANCH  93  97
ENDBRANCH  67  90
ENDBRANCH  41  42
ENDBRANCH  33  36
ENDBRANCH  31  32
ENDBRANCH   1  31
TORSDOF 19
ENDMDL
MODEL 3
REMARK VINA RESULT:     -12.1      0.530      7.627
REMARK SMILES O=C(C[C@@H]([NH2+]Cc1ccccc1)C(=O)NCCCNC(=O)c1ccc(-c2c3nc(c(-c4cc(S(=O)(=O)[O-])ccc4F)c4ccc([nH]4)c(-c4cc(S(=O)(=O)[O-])ccc4F)c4nc(c(-c5cc(S(=O)(=O)[O-])ccc5F)c5ccc2[nH]5)C=C4)C=C3)cc1)Nc1cccc(Cl)c1Cl
REMARK SMILES IDX 17 1 16 2 15 3 13 4 14 5 4 7 3 8 2 9 1 10 85 11 86 13 87 14
REMARK SMILES IDX 92 15 88 16 90 17 93 18 89 19 91 20 5 21 6 24 7 25 8 26
REMARK SMILES IDX 12 27 9 28 11 29 10 30 18 31 19 32 20 33 21 35 22 36 23 37
REMARK SMILES IDX 84 38 24 39 83 40 25 41 26 42 27 43 77 44 28 45 82 46 76 47
REMARK SMILES IDX 78 48 29 49 81 50 75 51 74 52 30 54 62 55 42 56 61 57 43 58
REMARK SMILES IDX 46 59 60 60 79 61 44 62 45 63 59 65 80 66 47 67 31 68 32 69
REMARK SMILES IDX 40 70 33 71 39 72 41 73 38 74 34 75 35 76 36 77 37 78 63 79
REMARK SMILES IDX 64 80 72 81 65 82 71 83 73 84 70 85 66 86 67 87 68 88 69 89
REMARK SMILES IDX 48 90 49 91 57 92 50 93 56 94 58 95 55 96 51 97 52 98 53 99
REMARK SMILES IDX 54 100
REMARK H PARENT 15 6 85 12 5 22 5 23 19 34 78 53 46 64
REMARK Flexibility Score: inf
ROOT
ATOM      1  C   UNL A   1      31.789  29.052  26.780  1.00  0.00     0.042 C 
ENDROOT
BRANCH   1   2
ATOM      2  C   UNL A   1      32.173  27.583  26.632  1.00  0.00     0.118 C 
BRANCH   2   3
ATOM      3  N   UNL A   1      31.031  26.715  26.856  1.00  0.00    -0.351 N 
ATOM      4  C   UNL A   1      30.431  25.809  26.033  1.00  0.00     0.278 C 
ATOM      5  O   UNL A   1      29.442  25.215  26.469  1.00  0.00    -0.268 OA
ATOM      6  H   UNL A   1      30.623  26.794  27.748  1.00  0.00     0.163 HD
BRANCH   4   7
ATOM      7  C   UNL A   1      30.985  25.497  24.630  1.00  0.00     0.282 C 
BRANCH   7   8
ATOM      8  C   UNL A   1      31.106  23.978  24.449  1.00  0.00     0.175 C 
BRANCH   8   9
ATOM      9  C   UNL A   1      32.521  23.553  24.141  1.00  0.00     0.230 C 
ATOM     10  O   UNL A   1      32.941  23.469  22.993  1.00  0.00    -0.274 OA
ATOM     11  N   UNL A   1      33.224  23.193  25.281  1.00  0.00    -0.325 N 
ATOM     12  H   UNL A   1      32.743  23.183  26.140  1.00  0.00     0.169 HD
BRANCH  11  13
ATOM     13  C   UNL A   1      34.588  22.839  25.277  1.00  0.00     0.061 A 
ATOM     14  C   UNL A   1      35.503  23.897  25.371  1.00  0.00     0.028 A 
ATOM     15  C   UNL A   1      35.056  21.514  25.148  1.00  0.00     0.083 A 
ATOM     16  C   UNL A   1      36.872  23.645  25.422  1.00  0.00     0.004 A 
ATOM     17  C   UNL A   1      36.438  21.274  25.178  1.00  0.00     0.061 A 
ATOM     18  Cl  UNL A   1      33.960  20.221  24.762  1.00  0.00    -0.080 Cl
ATOM     19  C   UNL A   1      37.338  22.335  25.332  1.00  0.00     0.022 A 
ATOM     20  Cl  UNL A   1      37.117  19.693  24.994  1.00  0.00    -0.083 Cl
ENDBRANCH  11  13
ENDBRANCH   8   9
ENDBRANCH   7   8
BRANCH   7  21
ATOM     21  N   UNL A   1      30.187  26.161  23.548  1.00  0.00    -0.332 N 
ATOM     22  H   UNL A   1      29.232  26.291  23.883  1.00  0.00     0.347 HD
ATOM     23  H   UNL A   1      30.226  25.556  22.728  1.00  0.00     0.347 HD
BRANCH  21  24
ATOM     24  C   UNL A   1      30.729  27.476  23.152  1.00  0.00     0.297 C 
BRANCH  24  25
ATOM     25  C   UNL A   1      29.636  28.476  22.865  1.00  0.00     0.006 A 
ATOM     26  C   UNL A   1      28.320  28.233  23.284  1.00  0.00     0.009 A 
ATOM     27  C   UNL A   1      29.940  29.701  22.255  1.00  0.00     0.009 A 
ATOM     28  C   UNL A   1      27.336  29.207  23.122  1.00  0.00     0.001 A 
ATOM     29  C   UNL A   1      28.953  30.672  22.088  1.00  0.00     0.001 A 
ATOM     30  C   UNL A   1      27.653  30.427  22.528  1.00  0.00     0.000 A 
ENDBRANCH  24  25
ENDBRANCH  21  24
ENDBRANCH   7  21
ENDBRANCH   4   7
ENDBRANCH   2   3
ENDBRANCH   1   2
BRANCH   1  31
ATOM     31  C   UNL A   1      32.624  29.992  25.917  1.00  0.00     0.118 C 
BRANCH  31  32
ATOM     32  N   UNL A   1      32.501  31.383  26.333  1.00  0.00    -0.352 N 
ATOM     33  C   UNL A   1      33.242  32.095  27.246  1.00  0.00     0.251 C 
ATOM     34  H   UNL A   1      31.779  31.889  25.896  1.00  0.00     0.163 HD
ATOM     35  O   UNL A   1      32.842  33.196  27.620  1.00  0.00    -0.269 OA
BRANCH  33  36
ATOM     36  C   UNL A   1      34.491  31.525  27.793  1.00  0.00     0.039 A 
ATOM     37  C   UNL A   1      35.577  32.371  28.026  1.00  0.00     0.014 A 
ATOM     38  C   UNL A   1      34.587  30.161  28.085  1.00  0.00     0.014 A 
ATOM     39  C   UNL A   1      36.728  31.866  28.635  1.00  0.00     0.010 A 
ATOM     40  C   UNL A   1      35.705  29.676  28.760  1.00  0.00     0.010 A 
ATOM     41  C   UNL A   1      36.781  30.525  29.055  1.00  0.00    -0.014 A 
BRANCH  41  42
ATOM     42  C   UNL A   1      37.932  30.004  29.836  1.00  0.00     0.031 A 
ATOM     43  C   UNL A   1      38.200  30.511  31.225  1.00  0.00     0.074 A 
ATOM     44  C   UNL A   1      38.782  29.130  29.258  1.00  0.00     0.049 A 
ATOM     45  N   UNL A   1      39.208  30.257  32.019  1.00  0.00    -0.248 NA
ATOM     46  C   UNL A   1      37.216  31.450  31.785  1.00  0.00     0.031 C 
ATOM     47  C   UNL A   1      38.644  28.588  27.904  1.00  0.00     0.029 A 
ATOM     48  N   UNL A   1      39.936  28.553  29.727  1.00  0.00    -0.354 N 
ATOM     49  C   UNL A   1      38.987  31.009  33.168  1.00  0.00     0.074 A 
ATOM     50  C   UNL A   1      37.777  31.771  32.941  1.00  0.00     0.031 C 
ATOM     51  C   UNL A   1      39.660  27.746  27.661  1.00  0.00     0.029 A 
ATOM     52  C   UNL A   1      40.554  27.729  28.814  1.00  0.00     0.049 A 
ATOM     53  H   UNL A   1      40.290  28.714  30.632  1.00  0.00     0.167 HD
ATOM     54  C   UNL A   1      39.714  31.042  34.312  1.00  0.00     0.034 A 
ATOM     55  C   UNL A   1      41.720  27.056  28.884  1.00  0.00     0.034 A 
ATOM     56  C   UNL A   1      40.918  30.273  34.520  1.00  0.00     0.049 A 
ATOM     57  C   UNL A   1      42.543  27.158  30.143  1.00  0.00     0.074 A 
ATOM     58  C   UNL A   1      41.701  30.191  35.659  1.00  0.00     0.029 A 
ATOM     59  N   UNL A   1      41.524  29.466  33.564  1.00  0.00    -0.354 N 
ATOM     60  N   UNL A   1      42.292  27.833  31.242  1.00  0.00    -0.248 NA
ATOM     61  C   UNL A   1      43.805  26.407  30.174  1.00  0.00     0.031 C 
ATOM     62  C   UNL A   1      42.819  29.402  35.367  1.00  0.00     0.029 A 
ATOM     63  C   UNL A   1      42.693  28.919  34.074  1.00  0.00     0.049 A 
ATOM     64  H   UNL A   1      41.176  29.306  32.658  1.00  0.00     0.167 HD
ATOM     65  C   UNL A   1      43.352  27.563  32.103  1.00  0.00     0.074 A 
ATOM     66  C   UNL A   1      44.234  26.652  31.403  1.00  0.00     0.031 C 
ATOM     67  C   UNL A   1      43.573  28.024  33.361  1.00  0.00     0.034 A 
BRANCH  54  68
ATOM     68  C   UNL A   1      39.242  31.962  35.412  1.00  0.00     0.023 A 
ATOM     69  C   UNL A   1      39.656  33.305  35.481  1.00  0.00     0.031 A 
ATOM     70  C   UNL A   1      38.377  31.491  36.415  1.00  0.00     0.131 A 
ATOM     71  C   UNL A   1      39.266  34.103  36.566  1.00  0.00     0.055 A 
ATOM     72  C   UNL A   1      37.925  32.315  37.447  1.00  0.00     0.041 A 
ATOM     73  F   UNL A   1      37.962  30.213  36.416  1.00  0.00    -0.206 F 
ATOM     74  C   UNL A   1      38.382  33.626  37.537  1.00  0.00     0.022 A 
BRANCH  71  75
ATOM     75  S   UNL A   1      40.051  35.727  36.771  1.00  0.00     0.124 S 
ATOM     76  O   UNL A   1      39.427  36.203  38.002  1.00  0.00    -0.237 OA
ATOM     77  O   UNL A   1      41.465  35.384  36.861  1.00  0.00    -0.237 OA
ATOM     78  O   UNL A   1      39.659  36.450  35.563  1.00  0.00    -0.744 OA
ENDBRANCH  71  75
ENDBRANCH  54  68
BRANCH  55  79
ATOM     79  C   UNL A   1      42.199  26.250  27.724  1.00  0.00     0.023 A 
ATOM     80  C   UNL A   1      41.837  24.901  27.585  1.00  0.00     0.031 A 
ATOM     81  C   UNL A   1      43.062  26.802  26.762  1.00  0.00     0.131 A 
ATOM     82  C   UNL A   1      42.374  24.137  26.536  1.00  0.00     0.055 A 
ATOM     83  C   UNL A   1      43.547  26.055  25.687  1.00  0.00     0.041 A 
ATOM     84  F   UNL A   1      43.440  28.088  26.846  1.00  0.00    -0.206 F 
ATOM     85  C   UNL A   1      43.214  24.708  25.578  1.00  0.00     0.022 A 
BRANCH  82  86
ATOM     86  S   UNL A   1      42.030  22.356  26.498  1.00  0.00     0.124 S 
ATOM     87  O   UNL A   1      42.625  21.967  25.224  1.00  0.00    -0.237 OA
ATOM     88  O   UNL A   1      42.717  21.889  27.697  1.00  0.00    -0.237 OA
ATOM     89  O   UNL A   1      40.572  22.290  26.552  1.00  0.00    -0.744 OA
ENDBRANCH  82  86
ENDBRANCH  55  79
BRANCH  67  90
ATOM     90  C   UNL A   1      44.804  27.516  34.073  1.00  0.00     0.023 A 
ATOM     91  C   UNL A   1      44.825  26.264  34.714  1.00  0.00     0.031 A 
ATOM     92  C   UNL A   1      45.973  28.297  34.109  1.00  0.00     0.131 A 
ATOM     93  C   UNL A   1      45.977  25.851  35.401  1.00  0.00     0.055 A 
ATOM     94  C   UNL A   1      47.135  27.853  34.741  1.00  0.00     0.041 A 
ATOM     95  F   UNL A   1      46.007  29.503  33.518  1.00  0.00    -0.206 F 
ATOM     96  C   UNL A   1      47.137  26.630  35.402  1.00  0.00     0.022 A 
BRANCH  93  97
ATOM     97  S   UNL A   1      45.913  24.317  36.367  1.00  0.00     0.124 S 
ATOM     98  O   UNL A   1      46.552  23.364  35.464  1.00  0.00    -0.237 OA
ATOM     99  O   UNL A   1      46.671  24.668  37.563  1.00  0.00    -0.237 OA
ATOM    100  O   UNL A   1      44.483  24.105  36.581  1.00  0.00    -0.744 OA
ENDBRANCH  93  97
ENDBRANCH  67  90
ENDBRANCH  41  42
ENDBRANCH  33  36
ENDBRANCH  31  32
ENDBRANCH   1  31
TORSDOF 19
ENDMDL
