MODEL 1
REMARK VINA RESULT:     -11.2      0.000      0.000
REMARK SMILES C[C@@H](O)[C@@H](NC(=O)CN(C)C(=O)c1cccs1)C(=O)NCCCNC(=O)c1ccc(-c2c3nc(c(-c4cc(S(=O)(=O)[O-])ccc4F)c4ccc([nH]4)c(-c4cc(S(=O)(=O)[O-])ccc4F)c4nc(c(-c5cc(S(=O)(=O)[O-])ccc5F)c5ccc2[nH]5)C=C4)C=C3)cc1
REMARK SMILES IDX 21 1 20 2 18 3 19 4 4 6 2 7 1 8 3 9 5 11 6 12 7 14 8 15 9 16
REMARK SMILES IDX 10 17 11 18 12 19 13 20 14 21 17 22 15 23 16 24 22 25 23 26
REMARK SMILES IDX 24 27 25 28 26 30 27 31 28 32 89 33 29 34 88 35 30 36 31 37
REMARK SMILES IDX 32 38 82 39 33 40 87 41 81 42 83 43 34 44 86 45 80 46 79 47
REMARK SMILES IDX 35 49 67 50 47 51 66 52 48 53 51 54 65 55 84 56 49 57 50 58
REMARK SMILES IDX 64 60 85 61 52 62 36 63 37 64 45 65 38 66 44 67 46 68 43 69
REMARK SMILES IDX 39 70 40 71 41 72 42 73 68 74 69 75 77 76 70 77 76 78 78 79
REMARK SMILES IDX 75 80 71 81 72 82 73 83 74 84 53 85 54 86 62 87 55 88 61 89
REMARK SMILES IDX 63 90 60 91 56 92 57 93 58 94 59 95
REMARK H PARENT 20 5 3 10 5 13 24 29 83 48 51 59
REMARK Flexibility Score: inf
ROOT
ATOM      1  C   UNL A   1      34.117  24.863  25.562  1.00  0.00     0.117 C 
ENDROOT
BRANCH   1   2
ATOM      2  N   UNL A   1      34.155  26.016  24.695  1.00  0.00    -0.354 N 
ATOM      3  C   UNL A   1      33.797  27.306  24.972  1.00  0.00     0.245 C 
ATOM      4  O   UNL A   1      34.189  28.160  24.162  1.00  0.00    -0.273 OA
ATOM      5  H   UNL A   1      34.484  25.852  23.782  1.00  0.00     0.163 HD
BRANCH   3   6
ATOM      6  C   UNL A   1      33.000  27.765  26.237  1.00  0.00     0.200 C 
BRANCH   6   7
ATOM      7  C   UNL A   1      33.258  29.254  26.599  1.00  0.00     0.143 C 
ATOM      8  C   UNL A   1      31.964  30.071  26.717  1.00  0.00     0.041 C 
BRANCH   7   9
ATOM      9  O   UNL A   1      33.945  29.381  27.842  1.00  0.00    -0.391 OA
ATOM     10  H   UNL A   1      34.051  30.321  28.058  1.00  0.00     0.211 HD
ENDBRANCH   7   9
ENDBRANCH   6   7
BRANCH   6  11
ATOM     11  N   UNL A   1      31.548  27.496  26.316  1.00  0.00    -0.341 N 
ATOM     12  C   UNL A   1      30.778  26.792  25.443  1.00  0.00     0.240 C 
ATOM     13  H   UNL A   1      31.082  27.874  27.096  1.00  0.00     0.164 HD
ATOM     14  O   UNL A   1      30.068  25.890  25.893  1.00  0.00    -0.273 OA
BRANCH  12  15
ATOM     15  C   UNL A   1      30.802  27.128  23.970  1.00  0.00     0.219 C 
BRANCH  15  16
ATOM     16  N   UNL A   1      30.465  28.525  23.699  1.00  0.00    -0.332 N 
ATOM     17  C   UNL A   1      31.497  29.174  22.915  1.00  0.00     0.147 C 
BRANCH  16  18
ATOM     18  C   UNL A   1      29.138  28.746  23.263  1.00  0.00     0.264 C 
ATOM     19  O   UNL A   1      28.349  27.805  23.191  1.00  0.00    -0.268 OA
BRANCH  18  20
ATOM     20  C   UNL A   1      28.761  30.126  22.949  1.00  0.00     0.092 A 
ATOM     21  C   UNL A   1      28.858  31.265  23.723  1.00  0.00     0.025 A 
ATOM     22  S   UNL A   1      28.216  30.535  21.375  1.00  0.00    -0.139 S 
ATOM     23  C   UNL A   1      28.471  32.462  23.056  1.00  0.00     0.012 A 
ATOM     24  C   UNL A   1      28.102  32.206  21.759  1.00  0.00     0.065 A 
ENDBRANCH  18  20
ENDBRANCH  16  18
ENDBRANCH  15  16
ENDBRANCH  12  15
ENDBRANCH   6  11
ENDBRANCH   3   6
ENDBRANCH   1   2
BRANCH   1  25
ATOM     25  C   UNL A   1      34.978  23.647  25.164  1.00  0.00     0.042 C 
BRANCH  25  26
ATOM     26  C   UNL A   1      35.726  22.784  26.195  1.00  0.00     0.118 C 
BRANCH  26  27
ATOM     27  N   UNL A   1      36.727  21.809  25.771  1.00  0.00    -0.352 N 
ATOM     28  C   UNL A   1      38.094  21.667  25.852  1.00  0.00     0.251 C 
ATOM     29  H   UNL A   1      36.314  21.049  25.302  1.00  0.00     0.163 HD
ATOM     30  O   UNL A   1      38.590  20.642  25.386  1.00  0.00    -0.269 OA
BRANCH  28  31
ATOM     31  C   UNL A   1      38.988  22.714  26.390  1.00  0.00     0.039 A 
ATOM     32  C   UNL A   1      40.042  22.347  27.248  1.00  0.00     0.014 A 
ATOM     33  C   UNL A   1      38.765  24.052  26.108  1.00  0.00     0.014 A 
ATOM     34  C   UNL A   1      40.912  23.319  27.762  1.00  0.00     0.010 A 
ATOM     35  C   UNL A   1      39.664  25.009  26.564  1.00  0.00     0.010 A 
ATOM     36  C   UNL A   1      40.738  24.658  27.401  1.00  0.00    -0.014 A 
BRANCH  36  37
ATOM     37  C   UNL A   1      41.558  25.774  27.940  1.00  0.00     0.031 A 
ATOM     38  C   UNL A   1      40.851  26.847  28.720  1.00  0.00     0.074 A 
ATOM     39  C   UNL A   1      42.846  25.928  27.586  1.00  0.00     0.049 A 
ATOM     40  N   UNL A   1      41.192  28.088  28.934  1.00  0.00    -0.248 NA
ATOM     41  C   UNL A   1      39.533  26.475  29.256  1.00  0.00     0.031 C 
ATOM     42  C   UNL A   1      43.649  24.961  26.839  1.00  0.00     0.029 A 
ATOM     43  N   UNL A   1      43.689  26.995  27.769  1.00  0.00    -0.354 N 
ATOM     44  C   UNL A   1      40.098  28.671  29.563  1.00  0.00     0.074 A 
ATOM     45  C   UNL A   1      39.071  27.651  29.647  1.00  0.00     0.031 C 
ATOM     46  C   UNL A   1      44.865  25.488  26.611  1.00  0.00     0.029 A 
ATOM     47  C   UNL A   1      44.904  26.848  27.142  1.00  0.00     0.049 A 
ATOM     48  H   UNL A   1      43.447  27.790  28.298  1.00  0.00     0.167 HD
ATOM     49  C   UNL A   1      39.968  29.936  30.034  1.00  0.00     0.034 A 
ATOM     50  C   UNL A   1      45.913  27.727  26.981  1.00  0.00     0.034 A 
ATOM     51  C   UNL A   1      41.030  30.909  29.993  1.00  0.00     0.049 A 
ATOM     52  C   UNL A   1      45.764  29.125  27.534  1.00  0.00     0.074 A 
ATOM     53  C   UNL A   1      41.047  32.195  30.505  1.00  0.00     0.029 A 
ATOM     54  N   UNL A   1      42.276  30.696  29.415  1.00  0.00    -0.354 N 
ATOM     55  N   UNL A   1      44.729  29.677  28.127  1.00  0.00    -0.248 NA
ATOM     56  C   UNL A   1      46.923  30.017  27.399  1.00  0.00     0.031 C 
ATOM     57  C   UNL A   1      42.284  32.773  30.197  1.00  0.00     0.029 A 
ATOM     58  C   UNL A   1      43.064  31.827  29.550  1.00  0.00     0.049 A 
ATOM     59  H   UNL A   1      42.558  29.861  28.976  1.00  0.00     0.167 HD
ATOM     60  C   UNL A   1      45.128  30.967  28.467  1.00  0.00     0.074 A 
ATOM     61  C   UNL A   1      46.498  31.109  28.018  1.00  0.00     0.031 C 
ATOM     62  C   UNL A   1      44.432  31.946  29.100  1.00  0.00     0.034 A 
BRANCH  49  63
ATOM     63  C   UNL A   1      38.623  30.329  30.599  1.00  0.00     0.023 A 
ATOM     64  C   UNL A   1      37.645  30.952  29.804  1.00  0.00     0.031 A 
ATOM     65  C   UNL A   1      38.343  30.152  31.965  1.00  0.00     0.131 A 
ATOM     66  C   UNL A   1      36.494  31.484  30.402  1.00  0.00     0.055 A 
ATOM     67  C   UNL A   1      37.144  30.589  32.534  1.00  0.00     0.041 A 
ATOM     68  F   UNL A   1      39.243  29.581  32.781  1.00  0.00    -0.206 F 
ATOM     69  C   UNL A   1      36.221  31.283  31.756  1.00  0.00     0.022 A 
BRANCH  66  70
ATOM     70  S   UNL A   1      35.465  32.615  29.424  1.00  0.00     0.124 S 
ATOM     71  O   UNL A   1      35.504  31.979  28.109  1.00  0.00    -0.237 OA
ATOM     72  O   UNL A   1      34.184  32.557  30.122  1.00  0.00    -0.237 OA
ATOM     73  O   UNL A   1      36.172  33.889  29.517  1.00  0.00    -0.744 OA
ENDBRANCH  66  70
ENDBRANCH  49  63
BRANCH  50  74
ATOM     74  C   UNL A   1      47.150  27.334  26.252  1.00  0.00     0.023 A 
ATOM     75  C   UNL A   1      47.323  27.686  24.905  1.00  0.00     0.031 A 
ATOM     76  C   UNL A   1      48.152  26.565  26.868  1.00  0.00     0.131 A 
ATOM     77  C   UNL A   1      48.443  27.224  24.199  1.00  0.00     0.055 A 
ATOM     78  C   UNL A   1      49.290  26.148  26.175  1.00  0.00     0.041 A 
ATOM     79  F   UNL A   1      48.039  26.211  28.159  1.00  0.00    -0.206 F 
ATOM     80  C   UNL A   1      49.433  26.466  24.828  1.00  0.00     0.022 A 
BRANCH  77  81
ATOM     81  S   UNL A   1      48.546  27.566  22.421  1.00  0.00     0.124 S 
ATOM     82  O   UNL A   1      47.320  28.321  22.194  1.00  0.00    -0.237 OA
ATOM     83  O   UNL A   1      49.792  28.319  22.330  1.00  0.00    -0.237 OA
ATOM     84  O   UNL A   1      48.581  26.233  21.822  1.00  0.00    -0.744 OA
ENDBRANCH  77  81
ENDBRANCH  50  74
BRANCH  62  85
ATOM     85  C   UNL A   1      45.165  33.228  29.405  1.00  0.00     0.023 A 
ATOM     86  C   UNL A   1      45.172  34.313  28.511  1.00  0.00     0.031 A 
ATOM     87  C   UNL A   1      45.864  33.364  30.617  1.00  0.00     0.131 A 
ATOM     88  C   UNL A   1      45.901  35.470  28.825  1.00  0.00     0.055 A 
ATOM     89  C   UNL A   1      46.541  34.538  30.949  1.00  0.00     0.041 A 
ATOM     90  F   UNL A   1      45.890  32.358  31.507  1.00  0.00    -0.206 F 
ATOM     91  C   UNL A   1      46.572  35.595  30.044  1.00  0.00     0.022 A 
BRANCH  88  92
ATOM     92  S   UNL A   1      46.025  36.786  27.582  1.00  0.00     0.124 S 
ATOM     93  O   UNL A   1      47.432  37.161  27.675  1.00  0.00    -0.237 OA
ATOM     94  O   UNL A   1      45.628  36.098  26.358  1.00  0.00    -0.237 OA
ATOM     95  O   UNL A   1      45.081  37.796  28.057  1.00  0.00    -0.744 OA
ENDBRANCH  88  92
ENDBRANCH  62  85
ENDBRANCH  36  37
ENDBRANCH  28  31
ENDBRANCH  26  27
ENDBRANCH  25  26
ENDBRANCH   1  25
TORSDOF 20
ENDMDL
MODEL 2
REMARK VINA RESULT:     -11.1      5.189      9.940
REMARK SMILES C[C@@H](O)[C@@H](NC(=O)CN(C)C(=O)c1cccs1)C(=O)NCCCNC(=O)c1ccc(-c2c3nc(c(-c4cc(S(=O)(=O)[O-])ccc4F)c4ccc([nH]4)c(-c4cc(S(=O)(=O)[O-])ccc4F)c4nc(c(-c5cc(S(=O)(=O)[O-])ccc5F)c5ccc2[nH]5)C=C4)C=C3)cc1
REMARK SMILES IDX 21 1 20 2 18 3 19 4 4 6 2 7 1 8 3 9 5 11 6 12 7 14 8 15 9 16
REMARK SMILES IDX 10 17 11 18 12 19 13 20 14 21 17 22 15 23 16 24 22 25 23 26
REMARK SMILES IDX 24 27 25 28 26 30 27 31 28 32 89 33 29 34 88 35 30 36 31 37
REMARK SMILES IDX 32 38 82 39 33 40 87 41 81 42 83 43 34 44 86 45 80 46 79 47
REMARK SMILES IDX 35 49 67 50 47 51 66 52 48 53 51 54 65 55 84 56 49 57 50 58
REMARK SMILES IDX 64 60 85 61 52 62 36 63 37 64 45 65 38 66 44 67 46 68 43 69
REMARK SMILES IDX 39 70 40 71 41 72 42 73 68 74 69 75 77 76 70 77 76 78 78 79
REMARK SMILES IDX 75 80 71 81 72 82 73 83 74 84 53 85 54 86 62 87 55 88 61 89
REMARK SMILES IDX 63 90 60 91 56 92 57 93 58 94 59 95
REMARK H PARENT 20 5 3 10 5 13 24 29 83 48 51 59
REMARK Flexibility Score: inf
ROOT
ATOM      1  C   UNL A   1      31.282  26.228  25.694  1.00  0.00     0.117 C 
ENDROOT
BRANCH   1   2
ATOM      2  N   UNL A   1      29.935  26.306  25.183  1.00  0.00    -0.354 N 
ATOM      3  C   UNL A   1      29.514  26.656  23.930  1.00  0.00     0.245 C 
ATOM      4  O   UNL A   1      28.339  26.372  23.656  1.00  0.00    -0.273 OA
ATOM      5  H   UNL A   1      29.222  26.076  25.822  1.00  0.00     0.163 HD
BRANCH   3   6
ATOM      6  C   UNL A   1      30.413  27.319  22.834  1.00  0.00     0.200 C 
BRANCH   6   7
ATOM      7  C   UNL A   1      30.017  28.794  22.549  1.00  0.00     0.143 C 
ATOM      8  C   UNL A   1      30.110  29.687  23.794  1.00  0.00     0.041 C 
BRANCH   7   9
ATOM      9  O   UNL A   1      30.854  29.381  21.554  1.00  0.00    -0.391 OA
ATOM     10  H   UNL A   1      30.340  29.526  20.745  1.00  0.00     0.211 HD
ENDBRANCH   7   9
ENDBRANCH   6   7
BRANCH   6  11
ATOM     11  N   UNL A   1      31.885  27.231  22.952  1.00  0.00    -0.341 N 
ATOM     12  C   UNL A   1      32.748  26.547  22.154  1.00  0.00     0.240 C 
ATOM     13  H   UNL A   1      32.287  27.728  23.699  1.00  0.00     0.164 HD
ATOM     14  O   UNL A   1      33.712  27.157  21.686  1.00  0.00    -0.273 OA
BRANCH  12  15
ATOM     15  C   UNL A   1      32.519  25.080  21.871  1.00  0.00     0.219 C 
BRANCH  15  16
ATOM     16  N   UNL A   1      32.598  24.249  23.073  1.00  0.00    -0.332 N 
ATOM     17  C   UNL A   1      31.380  23.488  23.268  1.00  0.00     0.147 C 
BRANCH  16  18
ATOM     18  C   UNL A   1      33.802  23.522  23.219  1.00  0.00     0.264 C 
ATOM     19  O   UNL A   1      34.505  23.291  22.236  1.00  0.00    -0.268 OA
BRANCH  18  20
ATOM     20  C   UNL A   1      34.168  23.107  24.574  1.00  0.00     0.092 A 
ATOM     21  C   UNL A   1      34.049  23.789  25.769  1.00  0.00     0.025 A 
ATOM     22  S   UNL A   1      34.731  21.514  24.867  1.00  0.00    -0.139 S 
ATOM     23  C   UNL A   1      34.434  23.037  26.915  1.00  0.00     0.012 A 
ATOM     24  C   UNL A   1      34.823  21.768  26.563  1.00  0.00     0.065 A 
ENDBRANCH  18  20
ENDBRANCH  16  18
ENDBRANCH  15  16
ENDBRANCH  12  15
ENDBRANCH   6  11
ENDBRANCH   3   6
ENDBRANCH   1   2
BRANCH   1  25
ATOM     25  C   UNL A   1      31.743  27.345  26.653  1.00  0.00     0.042 C 
BRANCH  25  26
ATOM     26  C   UNL A   1      32.703  28.468  26.223  1.00  0.00     0.118 C 
BRANCH  26  27
ATOM     27  N   UNL A   1      32.358  29.870  26.435  1.00  0.00    -0.352 N 
ATOM     28  C   UNL A   1      32.953  30.982  26.987  1.00  0.00     0.251 C 
ATOM     29  H   UNL A   1      31.459  30.077  26.090  1.00  0.00     0.163 HD
ATOM     30  O   UNL A   1      32.330  32.043  26.943  1.00  0.00    -0.269 OA
BRANCH  28  31
ATOM     31  C   UNL A   1      34.248  30.942  27.695  1.00  0.00     0.039 A 
ATOM     32  C   UNL A   1      35.041  32.105  27.752  1.00  0.00     0.014 A 
ATOM     33  C   UNL A   1      34.719  29.763  28.251  1.00  0.00     0.014 A 
ATOM     34  C   UNL A   1      36.268  32.097  28.428  1.00  0.00     0.010 A 
ATOM     35  C   UNL A   1      35.904  29.770  28.975  1.00  0.00     0.010 A 
ATOM     36  C   UNL A   1      36.696  30.929  29.065  1.00  0.00    -0.014 A 
BRANCH  36  37
ATOM     37  C   UNL A   1      38.008  30.791  29.749  1.00  0.00     0.031 A 
ATOM     38  C   UNL A   1      39.013  29.848  29.149  1.00  0.00     0.074 A 
ATOM     39  C   UNL A   1      38.223  31.334  30.960  1.00  0.00     0.049 A 
ATOM     40  N   UNL A   1      40.012  29.224  29.710  1.00  0.00    -0.248 NA
ATOM     41  C   UNL A   1      38.795  29.507  27.736  1.00  0.00     0.031 C 
ATOM     42  C   UNL A   1      37.335  32.269  31.649  1.00  0.00     0.029 A 
ATOM     43  N   UNL A   1      39.248  31.127  31.850  1.00  0.00    -0.354 N 
ATOM     44  C   UNL A   1      40.498  28.354  28.740  1.00  0.00     0.074 A 
ATOM     45  C   UNL A   1      39.646  28.505  27.577  1.00  0.00     0.031 C 
ATOM     46  C   UNL A   1      37.844  32.540  32.864  1.00  0.00     0.029 A 
ATOM     47  C   UNL A   1      39.059  31.754  33.060  1.00  0.00     0.049 A 
ATOM     48  H   UNL A   1      40.041  30.581  31.643  1.00  0.00     0.167 HD
ATOM     49  C   UNL A   1      41.561  27.515  28.812  1.00  0.00     0.034 A 
ATOM     50  C   UNL A   1      39.765  31.667  34.204  1.00  0.00     0.034 A 
ATOM     51  C   UNL A   1      42.428  27.432  29.961  1.00  0.00     0.049 A 
ATOM     52  C   UNL A   1      40.962  30.748  34.261  1.00  0.00     0.074 A 
ATOM     53  C   UNL A   1      43.578  26.681  30.125  1.00  0.00     0.029 A 
ATOM     54  N   UNL A   1      42.246  28.142  31.141  1.00  0.00    -0.354 N 
ATOM     55  N   UNL A   1      41.419  29.924  33.345  1.00  0.00    -0.248 NA
ATOM     56  C   UNL A   1      41.740  30.751  35.507  1.00  0.00     0.031 C 
ATOM     57  C   UNL A   1      44.064  26.900  31.418  1.00  0.00     0.029 A 
ATOM     58  C   UNL A   1      43.256  27.840  32.040  1.00  0.00     0.049 A 
ATOM     59  H   UNL A   1      41.508  28.771  31.313  1.00  0.00     0.167 HD
ATOM     60  C   UNL A   1      42.559  29.341  33.893  1.00  0.00     0.074 A 
ATOM     61  C   UNL A   1      42.722  29.911  35.215  1.00  0.00     0.031 C 
ATOM     62  C   UNL A   1      43.402  28.424  33.353  1.00  0.00     0.034 A 
BRANCH  49  63
ATOM     63  C   UNL A   1      41.809  26.611  27.628  1.00  0.00     0.023 A 
ATOM     64  C   UNL A   1      41.473  25.247  27.660  1.00  0.00     0.031 A 
ATOM     65  C   UNL A   1      42.463  27.098  26.483  1.00  0.00     0.131 A 
ATOM     66  C   UNL A   1      41.899  24.397  26.629  1.00  0.00     0.055 A 
ATOM     67  C   UNL A   1      42.789  26.265  25.410  1.00  0.00     0.041 A 
ATOM     68  F   UNL A   1      42.828  28.387  26.398  1.00  0.00    -0.206 F 
ATOM     69  C   UNL A   1      42.529  24.900  25.490  1.00  0.00     0.022 A 
BRANCH  66  70
ATOM     70  S   UNL A   1      41.797  22.605  26.898  1.00  0.00     0.124 S 
ATOM     71  O   UNL A   1      43.152  22.183  26.548  1.00  0.00    -0.237 OA
ATOM     72  O   UNL A   1      41.448  22.519  28.313  1.00  0.00    -0.237 OA
ATOM     73  O   UNL A   1      40.756  22.177  25.968  1.00  0.00    -0.744 OA
ENDBRANCH  66  70
ENDBRANCH  49  63
BRANCH  50  74
ATOM     74  C   UNL A   1      39.361  32.452  35.404  1.00  0.00     0.023 A 
ATOM     75  C   UNL A   1      39.792  33.777  35.564  1.00  0.00     0.031 A 
ATOM     76  C   UNL A   1      38.584  31.880  36.426  1.00  0.00     0.131 A 
ATOM     77  C   UNL A   1      39.492  34.472  36.744  1.00  0.00     0.055 A 
ATOM     78  C   UNL A   1      38.247  32.594  37.578  1.00  0.00     0.041 A 
ATOM     79  F   UNL A   1      38.138  30.619  36.316  1.00  0.00    -0.206 F 
ATOM     80  C   UNL A   1      38.713  33.894  37.748  1.00  0.00     0.022 A 
BRANCH  77  81
ATOM     81  S   UNL A   1      40.204  36.124  36.979  1.00  0.00     0.124 S 
ATOM     82  O   UNL A   1      39.872  36.771  35.715  1.00  0.00    -0.237 OA
ATOM     83  O   UNL A   1      39.482  36.599  38.155  1.00  0.00    -0.237 OA
ATOM     84  O   UNL A   1      41.625  35.852  37.191  1.00  0.00    -0.744 OA
ENDBRANCH  77  81
ENDBRANCH  50  74
BRANCH  62  85
ATOM     85  C   UNL A   1      44.613  28.035  34.166  1.00  0.00     0.023 A 
ATOM     86  C   UNL A   1      44.605  26.924  35.027  1.00  0.00     0.031 A 
ATOM     87  C   UNL A   1      45.794  28.791  34.069  1.00  0.00     0.131 A 
ATOM     88  C   UNL A   1      45.745  26.627  35.791  1.00  0.00     0.055 A 
ATOM     89  C   UNL A   1      46.942  28.458  34.788  1.00  0.00     0.041 A 
ATOM     90  F   UNL A   1      45.855  29.863  33.261  1.00  0.00    -0.206 F 
ATOM     91  C   UNL A   1      46.918  27.377  35.664  1.00  0.00     0.022 A 
BRANCH  88  92
ATOM     92  S   UNL A   1      45.651  25.289  37.011  1.00  0.00     0.124 S 
ATOM     93  O   UNL A   1      46.913  24.589  36.793  1.00  0.00    -0.237 OA
ATOM     94  O   UNL A   1      45.537  26.020  38.269  1.00  0.00    -0.237 OA
ATOM     95  O   UNL A   1      44.454  24.548  36.617  1.00  0.00    -0.744 OA
ENDBRANCH  88  92
ENDBRANCH  62  85
ENDBRANCH  36  37
ENDBRANCH  28  31
ENDBRANCH  26  27
ENDBRANCH  25  26
ENDBRANCH   1  25
TORSDOF 20
ENDMDL
MODEL 3
REMARK VINA RESULT:     -11.1      5.251     10.157
REMARK SMILES C[C@@H](O)[C@@H](NC(=O)CN(C)C(=O)c1cccs1)C(=O)NCCCNC(=O)c1ccc(-c2c3nc(c(-c4cc(S(=O)(=O)[O-])ccc4F)c4ccc([nH]4)c(-c4cc(S(=O)(=O)[O-])ccc4F)c4nc(c(-c5cc(S(=O)(=O)[O-])ccc5F)c5ccc2[nH]5)C=C4)C=C3)cc1
REMARK SMILES IDX 21 1 20 2 18 3 19 4 4 6 2 7 1 8 3 9 5 11 6 12 7 14 8 15 9 16
REMARK SMILES IDX 10 17 11 18 12 19 13 20 14 21 17 22 15 23 16 24 22 25 23 26
REMARK SMILES IDX 24 27 25 28 26 30 27 31 28 32 89 33 29 34 88 35 30 36 31 37
REMARK SMILES IDX 32 38 82 39 33 40 87 41 81 42 83 43 34 44 86 45 80 46 79 47
REMARK SMILES IDX 35 49 67 50 47 51 66 52 48 53 51 54 65 55 84 56 49 57 50 58
REMARK SMILES IDX 64 60 85 61 52 62 36 63 37 64 45 65 38 66 44 67 46 68 43 69
REMARK SMILES IDX 39 70 40 71 41 72 42 73 68 74 69 75 77 76 70 77 76 78 78 79
REMARK SMILES IDX 75 80 71 81 72 82 73 83 74 84 53 85 54 86 62 87 55 88 61 89
REMARK SMILES IDX 63 90 60 91 56 92 57 93 58 94 59 95
REMARK H PARENT 20 5 3 10 5 13 24 29 83 48 51 59
REMARK Flexibility Score: inf
ROOT
ATOM      1  C   UNL A   1      33.650  26.099  25.464  1.00  0.00     0.117 C 
ENDROOT
BRANCH   1   2
ATOM      2  N   UNL A   1      34.164  26.161  24.117  1.00  0.00    -0.354 N 
ATOM      3  C   UNL A   1      33.531  25.849  22.946  1.00  0.00     0.245 C 
ATOM      4  O   UNL A   1      34.081  26.254  21.911  1.00  0.00    -0.273 OA
ATOM      5  H   UNL A   1      35.095  26.469  24.030  1.00  0.00     0.163 HD
BRANCH   3   6
ATOM      6  C   UNL A   1      32.169  25.087  22.837  1.00  0.00     0.200 C 
BRANCH   6   7
ATOM      7  C   UNL A   1      31.057  25.944  22.171  1.00  0.00     0.143 C 
ATOM      8  C   UNL A   1      30.757  27.236  22.944  1.00  0.00     0.041 C 
BRANCH   7   9
ATOM      9  O   UNL A   1      31.412  26.327  20.844  1.00  0.00    -0.391 OA
ATOM     10  H   UNL A   1      31.745  25.554  20.362  1.00  0.00     0.211 HD
ENDBRANCH   7   9
ENDBRANCH   6   7
BRANCH   6  11
ATOM     11  N   UNL A   1      32.142  23.728  22.254  1.00  0.00    -0.341 N 
ATOM     12  C   UNL A   1      32.290  22.539  22.897  1.00  0.00     0.240 C 
ATOM     13  H   UNL A   1      32.000  23.680  21.282  1.00  0.00     0.164 HD
ATOM     14  O   UNL A   1      31.433  21.671  22.715  1.00  0.00    -0.273 OA
BRANCH  12  15
ATOM     15  C   UNL A   1      33.481  22.307  23.798  1.00  0.00     0.219 C 
BRANCH  15  16
ATOM     16  N   UNL A   1      33.186  21.404  24.911  1.00  0.00    -0.332 N 
ATOM     17  C   UNL A   1      32.958  20.051  24.445  1.00  0.00     0.147 C 
BRANCH  16  18
ATOM     18  C   UNL A   1      34.046  21.529  26.026  1.00  0.00     0.264 C 
ATOM     19  O   UNL A   1      33.662  21.183  27.142  1.00  0.00    -0.268 OA
BRANCH  18  20
ATOM     20  C   UNL A   1      35.393  22.046  25.773  1.00  0.00     0.092 A 
ATOM     21  C   UNL A   1      35.941  23.273  26.089  1.00  0.00     0.025 A 
ATOM     22  S   UNL A   1      36.595  21.027  25.095  1.00  0.00    -0.139 S 
ATOM     23  C   UNL A   1      37.321  23.400  25.762  1.00  0.00     0.012 A 
ATOM     24  C   UNL A   1      37.807  22.238  25.216  1.00  0.00     0.065 A 
ENDBRANCH  18  20
ENDBRANCH  16  18
ENDBRANCH  15  16
ENDBRANCH  12  15
ENDBRANCH   6  11
ENDBRANCH   3   6
ENDBRANCH   1   2
BRANCH   1  25
ATOM     25  C   UNL A   1      33.047  27.391  26.053  1.00  0.00     0.042 C 
BRANCH  25  26
ATOM     26  C   UNL A   1      33.153  28.756  25.349  1.00  0.00     0.118 C 
BRANCH  26  27
ATOM     27  N   UNL A   1      32.579  29.956  25.950  1.00  0.00    -0.352 N 
ATOM     28  C   UNL A   1      32.978  30.929  26.838  1.00  0.00     0.251 C 
ATOM     29  H   UNL A   1      31.658  30.111  25.635  1.00  0.00     0.163 HD
ATOM     30  O   UNL A   1      32.188  31.841  27.078  1.00  0.00    -0.269 OA
BRANCH  28  31
ATOM     31  C   UNL A   1      34.261  30.883  27.568  1.00  0.00     0.039 A 
ATOM     32  C   UNL A   1      35.055  32.043  27.643  1.00  0.00     0.014 A 
ATOM     33  C   UNL A   1      34.719  29.700  28.128  1.00  0.00     0.014 A 
ATOM     34  C   UNL A   1      36.271  32.030  28.340  1.00  0.00     0.010 A 
ATOM     35  C   UNL A   1      35.891  29.701  28.873  1.00  0.00     0.010 A 
ATOM     36  C   UNL A   1      36.684  30.858  28.980  1.00  0.00    -0.014 A 
BRANCH  36  37
ATOM     37  C   UNL A   1      37.983  30.714  29.688  1.00  0.00     0.031 A 
ATOM     38  C   UNL A   1      39.009  29.797  29.084  1.00  0.00     0.074 A 
ATOM     39  C   UNL A   1      38.169  31.228  30.916  1.00  0.00     0.049 A 
ATOM     40  N   UNL A   1      40.003  29.167  29.649  1.00  0.00    -0.248 NA
ATOM     41  C   UNL A   1      38.823  29.489  27.658  1.00  0.00     0.031 C 
ATOM     42  C   UNL A   1      37.259  32.137  31.611  1.00  0.00     0.029 A 
ATOM     43  N   UNL A   1      39.178  31.007  31.820  1.00  0.00    -0.354 N 
ATOM     44  C   UNL A   1      40.516  28.326  28.667  1.00  0.00     0.074 A 
ATOM     45  C   UNL A   1      39.686  28.500  27.491  1.00  0.00     0.031 C 
ATOM     46  C   UNL A   1      37.741  32.381  32.842  1.00  0.00     0.029 A 
ATOM     47  C   UNL A   1      38.959  31.601  33.042  1.00  0.00     0.049 A 
ATOM     48  H   UNL A   1      39.980  30.474  31.615  1.00  0.00     0.167 HD
ATOM     49  C   UNL A   1      41.586  27.495  28.739  1.00  0.00     0.034 A 
ATOM     50  C   UNL A   1      39.643  31.491  34.198  1.00  0.00     0.034 A 
ATOM     51  C   UNL A   1      42.430  27.391  29.902  1.00  0.00     0.049 A 
ATOM     52  C   UNL A   1      40.848  30.582  34.255  1.00  0.00     0.074 A 
ATOM     53  C   UNL A   1      43.584  26.646  30.070  1.00  0.00     0.029 A 
ATOM     54  N   UNL A   1      42.218  28.069  31.096  1.00  0.00    -0.354 N 
ATOM     55  N   UNL A   1      41.331  29.786  33.328  1.00  0.00    -0.248 NA
ATOM     56  C   UNL A   1      41.601  30.560  35.516  1.00  0.00     0.031 C 
ATOM     57  C   UNL A   1      44.042  26.837  31.378  1.00  0.00     0.029 A 
ATOM     58  C   UNL A   1      43.212  27.752  32.007  1.00  0.00     0.049 A 
ATOM     59  H   UNL A   1      41.471  28.686  31.269  1.00  0.00     0.167 HD
ATOM     60  C   UNL A   1      42.465  29.199  33.883  1.00  0.00     0.074 A 
ATOM     61  C   UNL A   1      42.596  29.736  35.223  1.00  0.00     0.031 C 
ATOM     62  C   UNL A   1      43.328  28.304  33.338  1.00  0.00     0.034 A 
BRANCH  49  63
ATOM     63  C   UNL A   1      41.866  26.625  27.537  1.00  0.00     0.023 A 
ATOM     64  C   UNL A   1      41.553  25.255  27.531  1.00  0.00     0.031 A 
ATOM     65  C   UNL A   1      42.527  27.150  26.413  1.00  0.00     0.131 A 
ATOM     66  C   UNL A   1      42.007  24.437  26.487  1.00  0.00     0.055 A 
ATOM     67  C   UNL A   1      42.882  26.349  25.325  1.00  0.00     0.041 A 
ATOM     68  F   UNL A   1      42.871  28.447  26.365  1.00  0.00    -0.206 F 
ATOM     69  C   UNL A   1      42.645  24.978  25.369  1.00  0.00     0.022 A 
BRANCH  66  70
ATOM     70  S   UNL A   1      41.933  22.638  26.712  1.00  0.00     0.124 S 
ATOM     71  O   UNL A   1      42.956  22.431  27.735  1.00  0.00    -0.237 OA
ATOM     72  O   UNL A   1      40.553  22.432  27.140  1.00  0.00    -0.237 OA
ATOM     73  O   UNL A   1      42.265  22.113  25.390  1.00  0.00    -0.744 OA
ENDBRANCH  66  70
ENDBRANCH  49  63
BRANCH  50  74
ATOM     74  C   UNL A   1      39.208  32.241  35.408  1.00  0.00     0.023 A 
ATOM     75  C   UNL A   1      39.633  33.562  35.617  1.00  0.00     0.031 A 
ATOM     76  C   UNL A   1      38.408  31.640  36.395  1.00  0.00     0.131 A 
ATOM     77  C   UNL A   1      39.302  34.223  36.809  1.00  0.00     0.055 A 
ATOM     78  C   UNL A   1      38.040  32.320  37.558  1.00  0.00     0.041 A 
ATOM     79  F   UNL A   1      37.966  30.381  36.238  1.00  0.00    -0.206 F 
ATOM     80  C   UNL A   1      38.499  33.615  37.776  1.00  0.00     0.022 A 
BRANCH  77  81
ATOM     81  S   UNL A   1      40.005  35.868  37.108  1.00  0.00     0.124 S 
ATOM     82  O   UNL A   1      41.414  35.554  37.314  1.00  0.00    -0.237 OA
ATOM     83  O   UNL A   1      39.677  36.567  35.870  1.00  0.00    -0.237 OA
ATOM     84  O   UNL A   1      39.286  36.333  38.292  1.00  0.00    -0.744 OA
ENDBRANCH  77  81
ENDBRANCH  50  74
BRANCH  62  85
ATOM     85  C   UNL A   1      44.525  27.905  34.164  1.00  0.00     0.023 A 
ATOM     86  C   UNL A   1      44.507  26.779  35.005  1.00  0.00     0.031 A 
ATOM     87  C   UNL A   1      45.705  28.667  34.101  1.00  0.00     0.131 A 
ATOM     88  C   UNL A   1      45.635  26.472  35.783  1.00  0.00     0.055 A 
ATOM     89  C   UNL A   1      46.842  28.326  34.834  1.00  0.00     0.041 A 
ATOM     90  F   UNL A   1      45.775  29.753  33.314  1.00  0.00    -0.206 F 
ATOM     91  C   UNL A   1      46.806  27.229  35.691  1.00  0.00     0.022 A 
BRANCH  88  92
ATOM     92  S   UNL A   1      45.525  25.112  36.977  1.00  0.00     0.124 S 
ATOM     93  O   UNL A   1      45.786  25.794  38.241  1.00  0.00    -0.237 OA
ATOM     94  O   UNL A   1      44.161  24.632  36.781  1.00  0.00    -0.237 OA
ATOM     95  O   UNL A   1      46.573  24.189  36.543  1.00  0.00    -0.744 OA
ENDBRANCH  88  92
ENDBRANCH  62  85
ENDBRANCH  36  37
ENDBRANCH  28  31
ENDBRANCH  26  27
ENDBRANCH  25  26
ENDBRANCH   1  25
TORSDOF 20
ENDMDL
