MODEL 1
REMARK VINA RESULT:     -12.8      0.000      0.000
REMARK SMILES Cc1cc(C)cc(Oc2nc3ccccn3c(=O)c2/C=C2\SC(=S)N(CCC(=O)NCCCNC(=O)c3ccc(-c4c5nc(c(-c6cc(S(=O)(=O)[O-])ccc6F)c6ccc([nH]6)c(-c6cc(S(=O)(=O)[O-])ccc6F)c6nc(c(-c7cc(S(=O)(=O)[O-])ccc7F)c7ccc4[nH]7)C=C6)C=C5)cc3)C2=O)c1
REMARK SMILES IDX 31 1 30 2 28 3 29 4 27 6 26 7 25 8 20 9 21 10 22 11 100 12
REMARK SMILES IDX 23 13 101 14 24 15 19 16 9 17 10 18 11 19 17 20 12 21 16 22
REMARK SMILES IDX 18 23 13 24 15 25 14 26 8 27 7 28 1 29 2 30 3 31 102 32 4 33
REMARK SMILES IDX 5 34 6 35 32 36 33 37 34 38 35 39 36 41 37 42 38 43 99 44
REMARK SMILES IDX 39 45 98 46 40 47 41 48 42 49 92 50 43 51 97 52 91 53 93 54
REMARK SMILES IDX 44 55 96 56 90 57 89 58 45 60 77 61 57 62 76 63 58 64 61 65
REMARK SMILES IDX 75 66 94 67 59 68 60 69 74 71 95 72 62 73 46 74 47 75 55 76
REMARK SMILES IDX 48 77 54 78 56 79 53 80 49 81 50 82 51 83 52 84 78 85 79 86
REMARK SMILES IDX 87 87 80 88 86 89 88 90 85 91 81 92 82 93 83 94 84 95 63 96
REMARK SMILES IDX 64 97 72 98 65 99 71 100 73 101 70 102 66 103 67 104 68 105
REMARK SMILES IDX 69 106
REMARK H PARENT 30 5 34 40 93 59 61 70
REMARK Flexibility Score: inf
ROOT
ATOM      1  C   UNL A   1      31.480  29.351  26.096  1.00  0.00     0.117 C 
ENDROOT
BRANCH   1   2
ATOM      2  N   UNL A   1      30.772  29.696  24.871  1.00  0.00    -0.356 N 
ATOM      3  C   UNL A   1      30.935  29.264  23.589  1.00  0.00     0.221 C 
ATOM      4  O   UNL A   1      30.255  29.798  22.708  1.00  0.00    -0.275 OA
ATOM      5  H   UNL A   1      30.050  30.354  24.989  1.00  0.00     0.163 HD
BRANCH   3   6
ATOM      6  C   UNL A   1      31.884  28.137  23.233  1.00  0.00     0.122 C 
BRANCH   6   7
ATOM      7  C   UNL A   1      31.212  26.756  23.291  1.00  0.00     0.137 C 
BRANCH   7   8
ATOM      8  N   UNL A   1      32.206  25.677  23.321  1.00  0.00    -0.292 N 
ATOM      9  C   UNL A   1      33.366  23.008  25.371  1.00  0.00     0.041 C 
ATOM     10  C   UNL A   1      33.306  23.896  24.368  1.00  0.00     0.081 C 
ATOM     11  S   UNL A   1      33.717  23.676  22.717  1.00  0.00    -0.054 SA
ATOM     12  C   UNL A   1      32.681  25.232  24.538  1.00  0.00     0.266 C 
ATOM     13  C   UNL A   1      32.723  25.039  22.210  1.00  0.00     0.148 C 
ATOM     14  O   UNL A   1      32.576  25.814  25.609  1.00  0.00    -0.268 OA
ATOM     15  S   UNL A   1      32.458  25.400  20.603  1.00  0.00    -0.052 S 
BRANCH   9  16
ATOM     16  C   UNL A   1      33.916  21.662  25.329  1.00  0.00     0.104 A 
ATOM     17  C   UNL A   1      35.197  21.318  25.060  1.00  0.00     0.234 A 
ATOM     18  N   UNL A   1      35.585  20.032  24.774  1.00  0.00    -0.194 NA
ATOM     19  C   UNL A   1      34.679  19.109  24.723  1.00  0.00     0.143 A 
ATOM     20  C   UNL A   1      32.928  20.553  25.462  1.00  0.00     0.269 A 
ATOM     21  C   UNL A   1      35.051  17.756  24.217  1.00  0.00     0.048 A 
ATOM     22  N   UNL A   1      33.361  19.297  25.089  1.00  0.00    -0.267 N 
ATOM     23  O   UNL A   1      31.778  20.809  25.828  1.00  0.00    -0.268 OA
ATOM     24  C   UNL A   1      34.121  16.797  24.138  1.00  0.00     0.005 A 
ATOM     25  C   UNL A   1      32.452  18.249  25.067  1.00  0.00     0.096 A 
ATOM     26  C   UNL A   1      32.781  17.040  24.600  1.00  0.00     0.019 A 
BRANCH  17  27
ATOM     27  O   UNL A   1      36.176  22.264  24.759  1.00  0.00    -0.438 OA
BRANCH  27  28
ATOM     28  C   UNL A   1      37.235  22.524  25.601  1.00  0.00     0.130 A 
ATOM     29  C   UNL A   1      39.022  25.363  27.368  1.00  0.00     0.044 C 
ATOM     30  C   UNL A   1      38.706  23.999  26.832  1.00  0.00    -0.047 A 
ATOM     31  C   UNL A   1      39.688  23.000  26.858  1.00  0.00     0.007 A 
ATOM     32  C   UNL A   1      37.466  23.738  26.235  1.00  0.00     0.050 A 
ATOM     33  C   UNL A   1      39.443  21.743  26.296  1.00  0.00    -0.047 A 
ATOM     34  C   UNL A   1      40.521  20.698  26.311  1.00  0.00     0.044 C 
ATOM     35  C   UNL A   1      38.209  21.515  25.670  1.00  0.00     0.050 A 
ENDBRANCH  27  28
ENDBRANCH  17  27
ENDBRANCH   9  16
ENDBRANCH   7   8
ENDBRANCH   6   7
ENDBRANCH   3   6
ENDBRANCH   1   2
BRANCH   1  36
ATOM     36  C   UNL A   1      31.871  30.595  26.888  1.00  0.00     0.042 C 
BRANCH  36  37
ATOM     37  C   UNL A   1      32.103  31.900  26.137  1.00  0.00     0.118 C 
BRANCH  37  38
ATOM     38  N   UNL A   1      32.202  33.060  27.012  1.00  0.00    -0.352 N 
ATOM     39  C   UNL A   1      33.104  33.500  27.956  1.00  0.00     0.251 C 
ATOM     40  H   UNL A   1      31.443  33.676  26.903  1.00  0.00     0.163 HD
ATOM     41  O   UNL A   1      32.775  34.519  28.570  1.00  0.00    -0.269 OA
BRANCH  39  42
ATOM     42  C   UNL A   1      34.410  32.852  28.304  1.00  0.00     0.039 A 
ATOM     43  C   UNL A   1      34.368  31.512  28.743  1.00  0.00     0.014 A 
ATOM     44  C   UNL A   1      35.640  33.508  28.357  1.00  0.00     0.014 A 
ATOM     45  C   UNL A   1      35.516  30.845  29.206  1.00  0.00     0.010 A 
ATOM     46  C   UNL A   1      36.797  32.836  28.803  1.00  0.00     0.010 A 
ATOM     47  C   UNL A   1      36.745  31.508  29.256  1.00  0.00    -0.014 A 
BRANCH  47  48
ATOM     48  C   UNL A   1      37.932  30.883  29.920  1.00  0.00     0.031 A 
ATOM     49  C   UNL A   1      38.184  31.162  31.376  1.00  0.00     0.074 A 
ATOM     50  C   UNL A   1      38.794  30.097  29.242  1.00  0.00     0.049 A 
ATOM     51  N   UNL A   1      39.192  30.801  32.127  1.00  0.00    -0.248 NA
ATOM     52  C   UNL A   1      37.179  31.982  32.069  1.00  0.00     0.031 C 
ATOM     53  C   UNL A   1      38.676  29.780  27.827  1.00  0.00     0.029 A 
ATOM     54  N   UNL A   1      39.935  29.434  29.633  1.00  0.00    -0.354 N 
ATOM     55  C   UNL A   1      38.971  31.389  33.367  1.00  0.00     0.074 A 
ATOM     56  C   UNL A   1      37.728  32.125  33.266  1.00  0.00     0.031 C 
ATOM     57  C   UNL A   1      39.675  28.955  27.473  1.00  0.00     0.029 A 
ATOM     58  C   UNL A   1      40.549  28.727  28.618  1.00  0.00     0.049 A 
ATOM     59  H   UNL A   1      40.281  29.460  30.554  1.00  0.00     0.167 HD
ATOM     60  C   UNL A   1      39.747  31.335  34.478  1.00  0.00     0.034 A 
ATOM     61  C   UNL A   1      41.696  28.011  28.600  1.00  0.00     0.034 A 
ATOM     62  C   UNL A   1      40.984  30.596  34.565  1.00  0.00     0.049 A 
ATOM     63  C   UNL A   1      42.539  27.974  29.857  1.00  0.00     0.074 A 
ATOM     64  C   UNL A   1      41.823  30.454  35.657  1.00  0.00     0.029 A 
ATOM     65  N   UNL A   1      41.570  29.892  33.522  1.00  0.00    -0.354 N 
ATOM     66  N   UNL A   1      42.295  28.512  31.030  1.00  0.00    -0.248 NA
ATOM     67  C   UNL A   1      43.819  27.254  29.784  1.00  0.00     0.031 C 
ATOM     68  C   UNL A   1      42.952  29.736  35.253  1.00  0.00     0.029 A 
ATOM     69  C   UNL A   1      42.777  29.347  33.935  1.00  0.00     0.049 A 
ATOM     70  H   UNL A   1      41.185  29.793  32.621  1.00  0.00     0.167 HD
ATOM     71  C   UNL A   1      43.386  28.182  31.833  1.00  0.00     0.074 A 
ATOM     72  C   UNL A   1      44.265  27.365  31.025  1.00  0.00     0.031 C 
ATOM     73  C   UNL A   1      43.646  28.534  33.118  1.00  0.00     0.034 A 
BRANCH  60  74
ATOM     74  C   UNL A   1      39.321  32.162  35.666  1.00  0.00     0.023 A 
ATOM     75  C   UNL A   1      38.626  31.608  36.753  1.00  0.00     0.031 A 
ATOM     76  C   UNL A   1      39.614  33.537  35.700  1.00  0.00     0.131 A 
ATOM     77  C   UNL A   1      38.197  32.437  37.801  1.00  0.00     0.055 A 
ATOM     78  C   UNL A   1      39.253  34.341  36.782  1.00  0.00     0.041 A 
ATOM     79  F   UNL A   1      40.254  34.125  34.677  1.00  0.00    -0.206 F 
ATOM     80  C   UNL A   1      38.530  33.794  37.836  1.00  0.00     0.022 A 
BRANCH  77  81
ATOM     81  S   UNL A   1      37.097  31.742  39.065  1.00  0.00     0.124 S 
ATOM     82  O   UNL A   1      36.845  30.405  38.532  1.00  0.00    -0.237 OA
ATOM     83  O   UNL A   1      37.917  31.806  40.269  1.00  0.00    -0.237 OA
ATOM     84  O   UNL A   1      35.944  32.641  39.047  1.00  0.00    -0.744 OA
ENDBRANCH  77  81
ENDBRANCH  60  74
BRANCH  61  85
ATOM     85  C   UNL A   1      42.178  27.316  27.358  1.00  0.00     0.023 A 
ATOM     86  C   UNL A   1      42.379  25.924  27.337  1.00  0.00     0.031 A 
ATOM     87  C   UNL A   1      42.546  28.039  26.209  1.00  0.00     0.131 A 
ATOM     88  C   UNL A   1      42.991  25.314  26.227  1.00  0.00     0.055 A 
ATOM     89  C   UNL A   1      43.077  27.416  25.075  1.00  0.00     0.041 A 
ATOM     90  F   UNL A   1      42.405  29.373  26.169  1.00  0.00    -0.206 F 
ATOM     91  C   UNL A   1      43.321  26.048  25.087  1.00  0.00     0.022 A 
BRANCH  88  92
ATOM     92  S   UNL A   1      43.490  23.571  26.352  1.00  0.00     0.124 S 
ATOM     93  O   UNL A   1      42.960  23.022  25.109  1.00  0.00    -0.237 OA
ATOM     94  O   UNL A   1      44.942  23.680  26.438  1.00  0.00    -0.237 OA
ATOM     95  O   UNL A   1      42.826  23.114  27.570  1.00  0.00    -0.744 OA
ENDBRANCH  88  92
ENDBRANCH  61  85
BRANCH  73  96
ATOM     96  C   UNL A   1      44.912  27.993  33.738  1.00  0.00     0.023 A 
ATOM     97  C   UNL A   1      44.938  26.765  34.423  1.00  0.00     0.031 A 
ATOM     98  C   UNL A   1      46.110  28.725  33.648  1.00  0.00     0.131 A 
ATOM     99  C   UNL A   1      46.121  26.336  35.043  1.00  0.00     0.055 A 
ATOM    100  C   UNL A   1      47.300  28.260  34.208  1.00  0.00     0.041 A 
ATOM    101  F   UNL A   1      46.142  29.906  33.010  1.00  0.00    -0.206 F 
ATOM    102  C   UNL A   1      47.307  27.066  34.923  1.00  0.00     0.022 A 
BRANCH  99 103
ATOM    103  S   UNL A   1      46.070  24.860  36.096  1.00  0.00     0.124 S 
ATOM    104  O   UNL A   1      47.233  25.059  36.954  1.00  0.00    -0.237 OA
ATOM    105  O   UNL A   1      44.769  24.984  36.747  1.00  0.00    -0.237 OA
ATOM    106  O   UNL A   1      46.182  23.756  35.144  1.00  0.00    -0.744 OA
ENDBRANCH  99 103
ENDBRANCH  73  96
ENDBRANCH  47  48
ENDBRANCH  39  42
ENDBRANCH  37  38
ENDBRANCH  36  37
ENDBRANCH   1  36
TORSDOF 18
ENDMDL
MODEL 2
REMARK VINA RESULT:     -12.3      4.577     10.124
REMARK SMILES Cc1cc(C)cc(Oc2nc3ccccn3c(=O)c2/C=C2\SC(=S)N(CCC(=O)NCCCNC(=O)c3ccc(-c4c5nc(c(-c6cc(S(=O)(=O)[O-])ccc6F)c6ccc([nH]6)c(-c6cc(S(=O)(=O)[O-])ccc6F)c6nc(c(-c7cc(S(=O)(=O)[O-])ccc7F)c7ccc4[nH]7)C=C6)C=C5)cc3)C2=O)c1
REMARK SMILES IDX 31 1 30 2 28 3 29 4 27 6 26 7 25 8 20 9 21 10 22 11 100 12
REMARK SMILES IDX 23 13 101 14 24 15 19 16 9 17 10 18 11 19 17 20 12 21 16 22
REMARK SMILES IDX 18 23 13 24 15 25 14 26 8 27 7 28 1 29 2 30 3 31 102 32 4 33
REMARK SMILES IDX 5 34 6 35 32 36 33 37 34 38 35 39 36 41 37 42 38 43 99 44
REMARK SMILES IDX 39 45 98 46 40 47 41 48 42 49 92 50 43 51 97 52 91 53 93 54
REMARK SMILES IDX 44 55 96 56 90 57 89 58 45 60 77 61 57 62 76 63 58 64 61 65
REMARK SMILES IDX 75 66 94 67 59 68 60 69 74 71 95 72 62 73 46 74 47 75 55 76
REMARK SMILES IDX 48 77 54 78 56 79 53 80 49 81 50 82 51 83 52 84 78 85 79 86
REMARK SMILES IDX 87 87 80 88 86 89 88 90 85 91 81 92 82 93 83 94 84 95 63 96
REMARK SMILES IDX 64 97 72 98 65 99 71 100 73 101 70 102 66 103 67 104 68 105
REMARK SMILES IDX 69 106
REMARK H PARENT 30 5 34 40 93 59 61 70
REMARK Flexibility Score: inf
ROOT
ATOM      1  C   UNL A   1      37.568  21.870  25.771  1.00  0.00     0.117 C 
ENDROOT
BRANCH   1   2
ATOM      2  N   UNL A   1      36.616  22.907  26.138  1.00  0.00    -0.356 N 
ATOM      3  C   UNL A   1      35.254  22.897  26.194  1.00  0.00     0.221 C 
ATOM      4  O   UNL A   1      34.677  23.958  26.447  1.00  0.00    -0.275 OA
ATOM      5  H   UNL A   1      37.026  23.766  26.391  1.00  0.00     0.163 HD
BRANCH   3   6
ATOM      6  C   UNL A   1      34.451  21.626  25.998  1.00  0.00     0.122 C 
BRANCH   6   7
ATOM      7  C   UNL A   1      33.004  21.757  26.500  1.00  0.00     0.137 C 
BRANCH   7   8
ATOM      8  N   UNL A   1      32.204  22.611  25.613  1.00  0.00    -0.292 N 
ATOM      9  C   UNL A   1      31.040  25.957  25.267  1.00  0.00     0.041 C 
ATOM     10  C   UNL A   1      31.184  24.642  25.052  1.00  0.00     0.081 C 
ATOM     11  S   UNL A   1      31.189  23.795  23.559  1.00  0.00    -0.054 SA
ATOM     12  C   UNL A   1      31.545  23.702  26.143  1.00  0.00     0.266 C 
ATOM     13  C   UNL A   1      32.050  22.424  24.253  1.00  0.00     0.148 C 
ATOM     14  O   UNL A   1      31.320  23.901  27.329  1.00  0.00    -0.268 OA
ATOM     15  S   UNL A   1      32.606  21.158  23.321  1.00  0.00    -0.052 S 
BRANCH   9  16
ATOM     16  C   UNL A   1      30.726  26.985  24.287  1.00  0.00     0.104 A 
ATOM     17  C   UNL A   1      31.565  27.935  23.812  1.00  0.00     0.234 A 
ATOM     18  N   UNL A   1      31.135  29.027  23.100  1.00  0.00    -0.194 NA
ATOM     19  C   UNL A   1      29.865  29.177  22.902  1.00  0.00     0.143 A 
ATOM     20  C   UNL A   1      29.295  27.074  23.875  1.00  0.00     0.269 A 
ATOM     21  C   UNL A   1      29.369  30.454  22.312  1.00  0.00     0.048 A 
ATOM     22  N   UNL A   1      28.914  28.230  23.227  1.00  0.00    -0.267 N 
ATOM     23  O   UNL A   1      28.522  26.163  24.181  1.00  0.00    -0.268 OA
ATOM     24  C   UNL A   1      28.056  30.633  22.122  1.00  0.00     0.005 A 
ATOM     25  C   UNL A   1      27.572  28.429  22.935  1.00  0.00     0.096 A 
ATOM     26  C   UNL A   1      27.125  29.578  22.419  1.00  0.00     0.019 A 
BRANCH  17  27
ATOM     27  O   UNL A   1      32.884  28.051  24.247  1.00  0.00    -0.438 OA
BRANCH  27  28
ATOM     28  C   UNL A   1      33.263  28.946  25.224  1.00  0.00     0.130 A 
ATOM     29  C   UNL A   1      35.601  29.328  28.184  1.00  0.00     0.044 C 
ATOM     30  C   UNL A   1      34.507  29.596  27.195  1.00  0.00    -0.047 A 
ATOM     31  C   UNL A   1      33.570  30.606  27.454  1.00  0.00     0.007 A 
ATOM     32  C   UNL A   1      34.367  28.796  26.054  1.00  0.00     0.050 A 
ATOM     33  C   UNL A   1      32.497  30.824  26.585  1.00  0.00    -0.047 A 
ATOM     34  C   UNL A   1      31.491  31.893  26.899  1.00  0.00     0.044 C 
ATOM     35  C   UNL A   1      32.354  29.988  25.468  1.00  0.00     0.050 A 
ENDBRANCH  27  28
ENDBRANCH  17  27
ENDBRANCH   9  16
ENDBRANCH   7   8
ENDBRANCH   6   7
ENDBRANCH   3   6
ENDBRANCH   1   2
BRANCH   1  36
ATOM     36  C   UNL A   1      38.999  22.272  26.116  1.00  0.00     0.042 C 
BRANCH  36  37
ATOM     37  C   UNL A   1      40.010  21.181  26.443  1.00  0.00     0.118 C 
BRANCH  37  38
ATOM     38  N   UNL A   1      41.307  21.389  25.815  1.00  0.00    -0.352 N 
ATOM     39  C   UNL A   1      42.193  22.439  25.722  1.00  0.00     0.251 C 
ATOM     40  H   UNL A   1      41.627  20.586  25.344  1.00  0.00     0.163 HD
ATOM     41  O   UNL A   1      43.175  22.244  24.998  1.00  0.00    -0.269 OA
BRANCH  39  42
ATOM     42  C   UNL A   1      42.060  23.772  26.395  1.00  0.00     0.039 A 
ATOM     43  C   UNL A   1      41.916  24.902  25.563  1.00  0.00     0.014 A 
ATOM     44  C   UNL A   1      42.204  23.995  27.764  1.00  0.00     0.014 A 
ATOM     45  C   UNL A   1      41.901  26.210  26.081  1.00  0.00     0.010 A 
ATOM     46  C   UNL A   1      42.171  25.305  28.289  1.00  0.00     0.010 A 
ATOM     47  C   UNL A   1      42.045  26.426  27.454  1.00  0.00    -0.014 A 
BRANCH  47  48
ATOM     48  C   UNL A   1      42.223  27.807  28.002  1.00  0.00     0.031 A 
ATOM     49  C   UNL A   1      43.608  28.388  28.080  1.00  0.00     0.074 A 
ATOM     50  C   UNL A   1      41.179  28.534  28.450  1.00  0.00     0.049 A 
ATOM     51  N   UNL A   1      44.003  29.522  28.597  1.00  0.00    -0.248 NA
ATOM     52  C   UNL A   1      44.694  27.566  27.526  1.00  0.00     0.031 C 
ATOM     53  C   UNL A   1      39.799  28.071  28.458  1.00  0.00     0.029 A 
ATOM     54  N   UNL A   1      41.104  29.798  28.992  1.00  0.00    -0.354 N 
ATOM     55  C   UNL A   1      45.389  29.531  28.477  1.00  0.00     0.074 A 
ATOM     56  C   UNL A   1      45.762  28.290  27.832  1.00  0.00     0.031 C 
ATOM     57  C   UNL A   1      39.008  29.044  28.939  1.00  0.00     0.029 A 
ATOM     58  C   UNL A   1      39.825  30.185  29.337  1.00  0.00     0.049 A 
ATOM     59  H   UNL A   1      41.892  30.374  29.121  1.00  0.00     0.167 HD
ATOM     60  C   UNL A   1      46.266  30.479  28.889  1.00  0.00     0.034 A 
ATOM     61  C   UNL A   1      39.365  31.308  29.935  1.00  0.00     0.034 A 
ATOM     62  C   UNL A   1      45.881  31.714  29.531  1.00  0.00     0.049 A 
ATOM     63  C   UNL A   1      40.373  32.346  30.384  1.00  0.00     0.074 A 
ATOM     64  C   UNL A   1      46.694  32.751  29.954  1.00  0.00     0.029 A 
ATOM     65  N   UNL A   1      44.580  32.073  29.859  1.00  0.00    -0.354 N 
ATOM     66  N   UNL A   1      41.678  32.349  30.233  1.00  0.00    -0.248 NA
ATOM     67  C   UNL A   1      39.853  33.518  31.101  1.00  0.00     0.031 C 
ATOM     68  C   UNL A   1      45.898  33.695  30.608  1.00  0.00     0.029 A 
ATOM     69  C   UNL A   1      44.575  33.296  30.513  1.00  0.00     0.049 A 
ATOM     70  H   UNL A   1      43.779  31.537  29.657  1.00  0.00     0.167 HD
ATOM     71  C   UNL A   1      42.126  33.527  30.825  1.00  0.00     0.074 A 
ATOM     72  C   UNL A   1      40.952  34.228  31.296  1.00  0.00     0.031 C 
ATOM     73  C   UNL A   1      43.395  33.984  30.980  1.00  0.00     0.034 A 
BRANCH  60  74
ATOM     74  C   UNL A   1      47.737  30.184  28.730  1.00  0.00     0.023 A 
ATOM     75  C   UNL A   1      48.468  29.478  29.699  1.00  0.00     0.031 A 
ATOM     76  C   UNL A   1      48.418  30.628  27.582  1.00  0.00     0.131 A 
ATOM     77  C   UNL A   1      49.848  29.288  29.530  1.00  0.00     0.055 A 
ATOM     78  C   UNL A   1      49.775  30.369  27.383  1.00  0.00     0.041 A 
ATOM     79  F   UNL A   1      47.775  31.329  26.634  1.00  0.00    -0.206 F 
ATOM     80  C   UNL A   1      50.500  29.705  28.366  1.00  0.00     0.022 A 
BRANCH  77  81
ATOM     81  S   UNL A   1      50.805  28.592  30.904  1.00  0.00     0.124 S 
ATOM     82  O   UNL A   1      52.155  29.054  30.586  1.00  0.00    -0.237 OA
ATOM     83  O   UNL A   1      50.179  29.206  32.069  1.00  0.00    -0.237 OA
ATOM     84  O   UNL A   1      50.599  27.151  30.771  1.00  0.00    -0.744 OA
ENDBRANCH  77  81
ENDBRANCH  60  74
BRANCH  61  85
ATOM     85  C   UNL A   1      37.905  31.516  30.219  1.00  0.00     0.023 A 
ATOM     86  C   UNL A   1      37.115  32.338  29.395  1.00  0.00     0.031 A 
ATOM     87  C   UNL A   1      37.299  30.985  31.373  1.00  0.00     0.131 A 
ATOM     88  C   UNL A   1      35.797  32.659  29.769  1.00  0.00     0.055 A 
ATOM     89  C   UNL A   1      35.963  31.240  31.696  1.00  0.00     0.041 A 
ATOM     90  F   UNL A   1      38.000  30.213  32.217  1.00  0.00    -0.206 F 
ATOM     91  C   UNL A   1      35.209  32.097  30.903  1.00  0.00     0.022 A 
BRANCH  88  92
ATOM     92  S   UNL A   1      34.911  33.940  28.835  1.00  0.00     0.124 S 
ATOM     93  O   UNL A   1      35.129  33.508  27.459  1.00  0.00    -0.237 OA
ATOM     94  O   UNL A   1      33.551  33.797  29.344  1.00  0.00    -0.237 OA
ATOM     95  O   UNL A   1      35.593  35.174  29.218  1.00  0.00    -0.744 OA
ENDBRANCH  88  92
ENDBRANCH  61  85
BRANCH  73  96
ATOM     96  C   UNL A   1      43.567  35.329  31.645  1.00  0.00     0.023 A 
ATOM     97  C   UNL A   1      43.755  36.507  30.902  1.00  0.00     0.031 A 
ATOM     98  C   UNL A   1      43.551  35.428  33.048  1.00  0.00     0.131 A 
ATOM     99  C   UNL A   1      43.981  37.723  31.565  1.00  0.00     0.055 A 
ATOM    100  C   UNL A   1      43.708  36.651  33.701  1.00  0.00     0.041 A 
ATOM    101  F   UNL A   1      43.381  34.334  33.809  1.00  0.00    -0.206 F 
ATOM    102  C   UNL A   1      43.938  37.805  32.959  1.00  0.00     0.022 A 
BRANCH  99 103
ATOM    103  S   UNL A   1      44.430  39.182  30.585  1.00  0.00     0.124 S 
ATOM    104  O   UNL A   1      44.986  40.070  31.602  1.00  0.00    -0.237 OA
ATOM    105  O   UNL A   1      45.387  38.634  29.628  1.00  0.00    -0.237 OA
ATOM    106  O   UNL A   1      43.158  39.615  30.011  1.00  0.00    -0.744 OA
ENDBRANCH  99 103
ENDBRANCH  73  96
ENDBRANCH  47  48
ENDBRANCH  39  42
ENDBRANCH  37  38
ENDBRANCH  36  37
ENDBRANCH   1  36
TORSDOF 18
ENDMDL
MODEL 3
REMARK VINA RESULT:     -12.0      2.604      3.410
REMARK SMILES Cc1cc(C)cc(Oc2nc3ccccn3c(=O)c2/C=C2\SC(=S)N(CCC(=O)NCCCNC(=O)c3ccc(-c4c5nc(c(-c6cc(S(=O)(=O)[O-])ccc6F)c6ccc([nH]6)c(-c6cc(S(=O)(=O)[O-])ccc6F)c6nc(c(-c7cc(S(=O)(=O)[O-])ccc7F)c7ccc4[nH]7)C=C6)C=C5)cc3)C2=O)c1
REMARK SMILES IDX 31 1 30 2 28 3 29 4 27 6 26 7 25 8 20 9 21 10 22 11 100 12
REMARK SMILES IDX 23 13 101 14 24 15 19 16 9 17 10 18 11 19 17 20 12 21 16 22
REMARK SMILES IDX 18 23 13 24 15 25 14 26 8 27 7 28 1 29 2 30 3 31 102 32 4 33
REMARK SMILES IDX 5 34 6 35 32 36 33 37 34 38 35 39 36 41 37 42 38 43 99 44
REMARK SMILES IDX 39 45 98 46 40 47 41 48 42 49 92 50 43 51 97 52 91 53 93 54
REMARK SMILES IDX 44 55 96 56 90 57 89 58 45 60 77 61 57 62 76 63 58 64 61 65
REMARK SMILES IDX 75 66 94 67 59 68 60 69 74 71 95 72 62 73 46 74 47 75 55 76
REMARK SMILES IDX 48 77 54 78 56 79 53 80 49 81 50 82 51 83 52 84 78 85 79 86
REMARK SMILES IDX 87 87 80 88 86 89 88 90 85 91 81 92 82 93 83 94 84 95 63 96
REMARK SMILES IDX 64 97 72 98 65 99 71 100 73 101 70 102 66 103 67 104 68 105
REMARK SMILES IDX 69 106
REMARK H PARENT 30 5 34 40 93 59 61 70
REMARK Flexibility Score: inf
ROOT
ATOM      1  C   UNL A   1      34.588  29.472  26.859  1.00  0.00     0.117 C 
ENDROOT
BRANCH   1   2
ATOM      2  N   UNL A   1      33.260  29.910  26.452  1.00  0.00    -0.356 N 
ATOM      3  C   UNL A   1      32.541  29.662  25.321  1.00  0.00     0.221 C 
ATOM      4  O   UNL A   1      31.462  30.244  25.182  1.00  0.00    -0.275 OA
ATOM      5  H   UNL A   1      32.801  30.484  27.107  1.00  0.00     0.163 HD
BRANCH   3   6
ATOM      6  C   UNL A   1      33.009  28.674  24.270  1.00  0.00     0.122 C 
BRANCH   6   7
ATOM      7  C   UNL A   1      32.124  27.420  24.201  1.00  0.00     0.137 C 
BRANCH   7   8
ATOM      8  N   UNL A   1      32.926  26.209  23.989  1.00  0.00    -0.292 N 
ATOM      9  C   UNL A   1      34.262  23.407  25.733  1.00  0.00     0.041 C 
ATOM     10  C   UNL A   1      34.032  24.292  24.752  1.00  0.00     0.081 C 
ATOM     11  S   UNL A   1      33.906  24.010  23.064  1.00  0.00    -0.054 SA
ATOM     12  C   UNL A   1      33.672  25.704  25.035  1.00  0.00     0.266 C 
ATOM     13  C   UNL A   1      33.002  25.500  22.807  1.00  0.00     0.148 C 
ATOM     14  O   UNL A   1      33.966  26.299  26.064  1.00  0.00    -0.268 OA
ATOM     15  S   UNL A   1      32.329  25.890  21.331  1.00  0.00    -0.052 S 
BRANCH   9  16
ATOM     16  C   UNL A   1      34.586  21.996  25.594  1.00  0.00     0.104 A 
ATOM     17  C   UNL A   1      35.771  21.472  25.204  1.00  0.00     0.234 A 
ATOM     18  N   UNL A   1      35.927  20.158  24.838  1.00  0.00    -0.194 NA
ATOM     19  C   UNL A   1      34.885  19.389  24.830  1.00  0.00     0.143 A 
ATOM     20  C   UNL A   1      33.448  21.048  25.769  1.00  0.00     0.269 A 
ATOM     21  C   UNL A   1      34.997  18.023  24.244  1.00  0.00     0.048 A 
ATOM     22  N   UNL A   1      33.646  19.761  25.314  1.00  0.00    -0.267 N 
ATOM     23  O   UNL A   1      32.386  21.461  26.242  1.00  0.00    -0.268 OA
ATOM     24  C   UNL A   1      33.923  17.224  24.209  1.00  0.00     0.005 A 
ATOM     25  C   UNL A   1      32.584  18.869  25.331  1.00  0.00     0.096 A 
ATOM     26  C   UNL A   1      32.679  17.648  24.793  1.00  0.00     0.019 A 
BRANCH  17  27
ATOM     27  O   UNL A   1      36.861  22.268  24.856  1.00  0.00    -0.438 OA
BRANCH  27  28
ATOM     28  C   UNL A   1      37.835  22.625  25.762  1.00  0.00     0.130 A 
ATOM     29  C   UNL A   1      39.372  25.643  27.467  1.00  0.00     0.044 C 
ATOM     30  C   UNL A   1      39.147  24.235  27.005  1.00  0.00    -0.047 A 
ATOM     31  C   UNL A   1      40.154  23.277  27.184  1.00  0.00     0.007 A 
ATOM     32  C   UNL A   1      37.972  23.888  26.326  1.00  0.00     0.050 A 
ATOM     33  C   UNL A   1      39.998  21.977  26.694  1.00  0.00    -0.047 A 
ATOM     34  C   UNL A   1      41.103  20.977  26.873  1.00  0.00     0.044 C 
ATOM     35  C   UNL A   1      38.830  21.660  25.985  1.00  0.00     0.050 A 
ENDBRANCH  27  28
ENDBRANCH  17  27
ENDBRANCH   9  16
ENDBRANCH   7   8
ENDBRANCH   6   7
ENDBRANCH   3   6
ENDBRANCH   1   2
BRANCH   1  36
ATOM     36  C   UNL A   1      35.204  30.423  27.880  1.00  0.00     0.042 C 
BRANCH  36  37
ATOM     37  C   UNL A   1      34.630  31.827  28.016  1.00  0.00     0.118 C 
BRANCH  37  38
ATOM     38  N   UNL A   1      34.399  32.226  29.397  1.00  0.00    -0.352 N 
ATOM     39  C   UNL A   1      35.078  32.077  30.586  1.00  0.00     0.251 C 
ATOM     40  H   UNL A   1      33.555  32.721  29.507  1.00  0.00     0.163 HD
ATOM     41  O   UNL A   1      34.488  32.488  31.590  1.00  0.00    -0.269 OA
BRANCH  39  42
ATOM     42  C   UNL A   1      36.431  31.457  30.761  1.00  0.00     0.039 A 
ATOM     43  C   UNL A   1      36.502  30.269  31.520  1.00  0.00     0.014 A 
ATOM     44  C   UNL A   1      37.634  32.031  30.351  1.00  0.00     0.014 A 
ATOM     45  C   UNL A   1      37.731  29.668  31.846  1.00  0.00     0.010 A 
ATOM     46  C   UNL A   1      38.868  31.421  30.660  1.00  0.00     0.010 A 
ATOM     47  C   UNL A   1      38.933  30.249  31.431  1.00  0.00    -0.014 A 
BRANCH  47  48
ATOM     48  C   UNL A   1      40.248  29.735  31.925  1.00  0.00     0.031 A 
ATOM     49  C   UNL A   1      40.832  30.317  33.184  1.00  0.00     0.074 A 
ATOM     50  C   UNL A   1      40.935  28.783  31.261  1.00  0.00     0.049 A 
ATOM     51  N   UNL A   1      41.992  30.086  33.742  1.00  0.00    -0.248 NA
ATOM     52  C   UNL A   1      40.010  31.311  33.888  1.00  0.00     0.031 C 
ATOM     53  C   UNL A   1      40.492  28.167  30.019  1.00  0.00     0.029 A 
ATOM     54  N   UNL A   1      42.143  28.173  31.516  1.00  0.00    -0.354 N 
ATOM     55  C   UNL A   1      42.062  30.942  34.836  1.00  0.00     0.074 A 
ATOM     56  C   UNL A   1      40.823  31.691  34.863  1.00  0.00     0.031 C 
ATOM     57  C   UNL A   1      41.388  27.242  29.638  1.00  0.00     0.029 A 
ATOM     58  C   UNL A   1      42.509  27.235  30.572  1.00  0.00     0.049 A 
ATOM     59  H   UNL A   1      42.696  28.387  32.302  1.00  0.00     0.167 HD
ATOM     60  C   UNL A   1      43.078  31.101  35.721  1.00  0.00     0.034 A 
ATOM     61  C   UNL A   1      43.626  26.484  30.450  1.00  0.00     0.034 A 
ATOM     62  C   UNL A   1      44.308  30.347  35.683  1.00  0.00     0.049 A 
ATOM     63  C   UNL A   1      44.742  26.688  31.454  1.00  0.00     0.074 A 
ATOM     64  C   UNL A   1      45.382  30.413  36.555  1.00  0.00     0.029 A 
ATOM     65  N   UNL A   1      44.640  29.406  34.718  1.00  0.00    -0.354 N 
ATOM     66  N   UNL A   1      44.775  27.481  32.501  1.00  0.00    -0.248 NA
ATOM     67  C   UNL A   1      45.976  25.916  31.251  1.00  0.00     0.031 C 
ATOM     68  C   UNL A   1      46.391  29.576  36.073  1.00  0.00     0.029 A 
ATOM     69  C   UNL A   1      45.916  28.914  34.953  1.00  0.00     0.049 A 
ATOM     70  H   UNL A   1      44.056  29.128  33.976  1.00  0.00     0.167 HD
ATOM     71  C   UNL A   1      46.026  27.290  33.083  1.00  0.00     0.074 A 
ATOM     72  C   UNL A   1      46.699  26.278  32.298  1.00  0.00     0.031 C 
ATOM     73  C   UNL A   1      46.577  27.905  34.160  1.00  0.00     0.034 A 
BRANCH  60  74
ATOM     74  C   UNL A   1      42.934  32.187  36.758  1.00  0.00     0.023 A 
ATOM     75  C   UNL A   1      42.262  31.977  37.973  1.00  0.00     0.031 A 
ATOM     76  C   UNL A   1      43.479  33.461  36.516  1.00  0.00     0.131 A 
ATOM     77  C   UNL A   1      42.102  33.042  38.874  1.00  0.00     0.055 A 
ATOM     78  C   UNL A   1      43.384  34.493  37.449  1.00  0.00     0.041 A 
ATOM     79  F   UNL A   1      44.111  33.725  35.361  1.00  0.00    -0.206 F 
ATOM     80  C   UNL A   1      42.682  34.290  38.632  1.00  0.00     0.022 A 
BRANCH  77  81
ATOM     81  S   UNL A   1      41.024  32.808  40.314  1.00  0.00     0.124 S 
ATOM     82  O   UNL A   1      41.189  34.080  41.014  1.00  0.00    -0.237 OA
ATOM     83  O   UNL A   1      39.720  32.581  39.700  1.00  0.00    -0.237 OA
ATOM     84  O   UNL A   1      41.604  31.650  40.992  1.00  0.00    -0.744 OA
ENDBRANCH  77  81
ENDBRANCH  60  74
BRANCH  61  85
ATOM     85  C   UNL A   1      43.811  25.513  29.319  1.00  0.00     0.023 A 
ATOM     86  C   UNL A   1      44.004  25.962  28.000  1.00  0.00     0.031 A 
ATOM     87  C   UNL A   1      43.690  24.124  29.517  1.00  0.00     0.131 A 
ATOM     88  C   UNL A   1      44.003  25.045  26.932  1.00  0.00     0.055 A 
ATOM     89  C   UNL A   1      43.774  23.211  28.462  1.00  0.00     0.041 A 
ATOM     90  F   UNL A   1      43.479  23.627  30.745  1.00  0.00    -0.206 F 
ATOM     91  C   UNL A   1      43.911  23.671  27.157  1.00  0.00     0.022 A 
BRANCH  88  92
ATOM     92  S   UNL A   1      43.972  25.684  25.232  1.00  0.00     0.124 S 
ATOM     93  O   UNL A   1      44.682  26.950  25.379  1.00  0.00    -0.237 OA
ATOM     94  O   UNL A   1      44.676  24.635  24.504  1.00  0.00    -0.237 OA
ATOM     95  O   UNL A   1      42.546  25.799  24.938  1.00  0.00    -0.744 OA
ENDBRANCH  88  92
ENDBRANCH  61  85
BRANCH  73  96
ATOM     96  C   UNL A   1      47.959  27.460  34.576  1.00  0.00     0.023 A 
ATOM     97  C   UNL A   1      49.120  28.073  34.072  1.00  0.00     0.031 A 
ATOM     98  C   UNL A   1      48.113  26.397  35.484  1.00  0.00     0.131 A 
ATOM     99  C   UNL A   1      50.383  27.579  34.434  1.00  0.00     0.055 A 
ATOM    100  C   UNL A   1      49.372  25.955  35.893  1.00  0.00     0.041 A 
ATOM    101  F   UNL A   1      47.039  25.771  35.993  1.00  0.00    -0.206 F 
ATOM    102  C   UNL A   1      50.516  26.538  35.356  1.00  0.00     0.022 A 
BRANCH  99 103
ATOM    103  S   UNL A   1      51.852  28.250  33.607  1.00  0.00     0.124 S 
ATOM    104  O   UNL A   1      52.592  28.827  34.725  1.00  0.00    -0.237 OA
ATOM    105  O   UNL A   1      52.441  27.059  33.001  1.00  0.00    -0.237 OA
ATOM    106  O   UNL A   1      51.301  29.218  32.661  1.00  0.00    -0.744 OA
ENDBRANCH  99 103
ENDBRANCH  73  96
ENDBRANCH  47  48
ENDBRANCH  39  42
ENDBRANCH  37  38
ENDBRANCH  36  37
ENDBRANCH   1  36
TORSDOF 18
ENDMDL
