MODEL 1
REMARK VINA RESULT:     -11.5      0.000      0.000
REMARK SMILES CCCC1(C(=O)N2CCO[C@@H](CC(=O)NCCCNC(=O)c3ccc(-c4c5nc(c(-c6cc(S(=O)(=O)[O-])ccc6F)c6ccc([nH]6)c(-c6cc(S(=O)(=O)[O-])ccc6F)c6nc(c(-c7cc(S(=O)(=O)[O-])ccc7F)c7ccc4[nH]7)C=C6)C=C5)cc3)C2)CC[NH2+]CC1
REMARK SMILES IDX 16 1 15 2 13 3 14 4 12 6 11 7 7 8 8 9 85 10 9 11 10 12 5 13
REMARK SMILES IDX 6 14 4 15 86 16 90 17 87 18 89 19 88 20 3 23 2 24 1 25 17 26
REMARK SMILES IDX 18 27 19 28 20 29 21 31 22 32 23 33 84 34 24 35 83 36 25 37
REMARK SMILES IDX 26 38 27 39 77 40 28 41 82 42 76 43 78 44 29 45 81 46 75 47
REMARK SMILES IDX 74 48 30 50 62 51 42 52 61 53 43 54 46 55 60 56 79 57 44 58
REMARK SMILES IDX 45 59 59 61 80 62 47 63 31 64 32 65 40 66 33 67 39 68 41 69
REMARK SMILES IDX 38 70 34 71 35 72 36 73 37 74 63 75 64 76 72 77 65 78 71 79
REMARK SMILES IDX 73 80 70 81 66 82 67 83 68 84 69 85 48 86 49 87 57 88 50 89
REMARK SMILES IDX 56 90 58 91 55 92 51 93 52 94 53 95 54 96
REMARK H PARENT 15 5 88 21 88 22 19 30 78 49 46 60
REMARK Flexibility Score: inf
ROOT
ATOM      1  C   UNL A   1      31.507  30.562  25.848  1.00  0.00     0.117 C 
ENDROOT
BRANCH   1   2
ATOM      2  N   UNL A   1      30.766  30.580  24.589  1.00  0.00    -0.356 N 
ATOM      3  C   UNL A   1      30.303  29.567  23.800  1.00  0.00     0.222 C 
ATOM      4  O   UNL A   1      29.706  29.865  22.763  1.00  0.00    -0.275 OA
ATOM      5  H   UNL A   1      30.564  31.481  24.251  1.00  0.00     0.163 HD
BRANCH   3   6
ATOM      6  C   UNL A   1      30.546  28.119  24.159  1.00  0.00     0.133 C 
BRANCH   6   7
ATOM      7  C   UNL A   1      32.003  27.702  23.949  1.00  0.00     0.147 C 
ATOM      8  N   UNL A   1      33.401  25.951  22.860  1.00  0.00    -0.337 N 
ATOM      9  C   UNL A   1      33.983  26.971  22.000  1.00  0.00     0.148 C 
ATOM     10  C   UNL A   1      32.077  26.308  23.319  1.00  0.00     0.152 C 
ATOM     11  C   UNL A   1      33.963  28.313  22.733  1.00  0.00     0.182 C 
ATOM     12  O   UNL A   1      32.617  28.686  23.083  1.00  0.00    -0.374 OA
BRANCH   8  13
ATOM     13  C   UNL A   1      33.577  24.605  22.568  1.00  0.00     0.229 C 
ATOM     14  O   UNL A   1      33.217  24.153  21.482  1.00  0.00    -0.274 OA
BRANCH  13  15
ATOM     15  C   UNL A   1      34.229  23.741  23.691  1.00  0.00     0.060 C 
ATOM     16  C   UNL A   1      35.414  22.998  23.023  1.00  0.00     0.078 C 
ATOM     17  C   UNL A   1      34.705  24.658  24.850  1.00  0.00     0.078 C 
ATOM     18  C   UNL A   1      36.567  22.616  23.942  1.00  0.00     0.261 C 
ATOM     19  C   UNL A   1      35.865  24.111  25.672  1.00  0.00     0.261 C 
ATOM     20  N   UNL A   1      36.971  23.728  24.799  1.00  0.00    -0.346 N 
ATOM     21  H   UNL A   1      37.233  24.524  24.217  1.00  0.00     0.346 HD
ATOM     22  H   UNL A   1      37.765  23.441  25.370  1.00  0.00     0.346 HD
BRANCH  15  23
ATOM     23  C   UNL A   1      33.112  22.739  24.155  1.00  0.00     0.017 C 
BRANCH  23  24
ATOM     24  C   UNL A   1      33.439  21.247  24.284  1.00  0.00    -0.002 C 
ATOM     25  C   UNL A   1      32.390  20.329  23.669  1.00  0.00     0.004 C 
ENDBRANCH  23  24
ENDBRANCH  15  23
ENDBRANCH  13  15
ENDBRANCH   8  13
ENDBRANCH   6   7
ENDBRANCH   3   6
ENDBRANCH   1   2
BRANCH   1  26
ATOM     26  C   UNL A   1      31.399  31.880  26.620  1.00  0.00     0.042 C 
BRANCH  26  27
ATOM     27  C   UNL A   1      32.719  32.395  27.180  1.00  0.00     0.118 C 
BRANCH  27  28
ATOM     28  N   UNL A   1      32.635  33.799  27.542  1.00  0.00    -0.352 N 
ATOM     29  C   UNL A   1      33.252  34.483  28.564  1.00  0.00     0.251 C 
ATOM     30  H   UNL A   1      32.049  34.342  26.969  1.00  0.00     0.163 HD
ATOM     31  O   UNL A   1      32.827  35.597  28.860  1.00  0.00    -0.269 OA
BRANCH  29  32
ATOM     32  C   UNL A   1      34.400  33.905  29.312  1.00  0.00     0.039 A 
ATOM     33  C   UNL A   1      35.695  34.328  28.986  1.00  0.00     0.014 A 
ATOM     34  C   UNL A   1      34.233  32.900  30.269  1.00  0.00     0.014 A 
ATOM     35  C   UNL A   1      36.804  33.777  29.640  1.00  0.00     0.010 A 
ATOM     36  C   UNL A   1      35.333  32.410  30.978  1.00  0.00     0.010 A 
ATOM     37  C   UNL A   1      36.633  32.828  30.660  1.00  0.00    -0.014 A 
BRANCH  37  38
ATOM     38  C   UNL A   1      37.800  32.234  31.374  1.00  0.00     0.031 A 
ATOM     39  C   UNL A   1      38.601  31.133  30.726  1.00  0.00     0.074 A 
ATOM     40  C   UNL A   1      38.113  32.644  32.619  1.00  0.00     0.049 A 
ATOM     41  N   UNL A   1      39.586  30.422  31.216  1.00  0.00    -0.248 NA
ATOM     42  C   UNL A   1      38.221  30.764  29.354  1.00  0.00     0.031 C 
ATOM     43  C   UNL A   1      37.405  33.682  33.370  1.00  0.00     0.029 A 
ATOM     44  N   UNL A   1      39.103  32.232  33.479  1.00  0.00    -0.354 N 
ATOM     45  C   UNL A   1      39.926  29.506  30.223  1.00  0.00     0.074 A 
ATOM     46  C   UNL A   1      39.007  29.721  29.126  1.00  0.00     0.031 C 
ATOM     47  C   UNL A   1      37.994  33.840  34.566  1.00  0.00     0.029 A 
ATOM     48  C   UNL A   1      39.091  32.883  34.691  1.00  0.00     0.049 A 
ATOM     49  H   UNL A   1      39.760  31.536  33.248  1.00  0.00     0.167 HD
ATOM     50  C   UNL A   1      40.924  28.586  30.218  1.00  0.00     0.034 A 
ATOM     51  C   UNL A   1      39.862  32.718  35.785  1.00  0.00     0.034 A 
ATOM     52  C   UNL A   1      41.853  28.399  31.307  1.00  0.00     0.049 A 
ATOM     53  C   UNL A   1      40.955  31.679  35.763  1.00  0.00     0.074 A 
ATOM     54  C   UNL A   1      42.933  27.536  31.382  1.00  0.00     0.029 A 
ATOM     55  N   UNL A   1      41.809  29.081  32.517  1.00  0.00    -0.354 N 
ATOM     56  N   UNL A   1      41.285  30.845  34.803  1.00  0.00    -0.248 NA
ATOM     57  C   UNL A   1      41.784  31.563  36.971  1.00  0.00     0.031 C 
ATOM     58  C   UNL A   1      43.501  27.650  32.655  1.00  0.00     0.029 A 
ATOM     59  C   UNL A   1      42.824  28.636  33.352  1.00  0.00     0.049 A 
ATOM     60  H   UNL A   1      41.153  29.779  32.748  1.00  0.00     0.167 HD
ATOM     61  C   UNL A   1      42.378  30.128  35.283  1.00  0.00     0.074 A 
ATOM     62  C   UNL A   1      42.659  30.635  36.609  1.00  0.00     0.031 C 
ATOM     63  C   UNL A   1      43.088  29.142  34.678  1.00  0.00     0.034 A 
BRANCH  50  64
ATOM     64  C   UNL A   1      41.042  27.693  29.005  1.00  0.00     0.023 A 
ATOM     65  C   UNL A   1      42.033  27.895  28.028  1.00  0.00     0.031 A 
ATOM     66  C   UNL A   1      40.135  26.635  28.810  1.00  0.00     0.131 A 
ATOM     67  C   UNL A   1      42.045  27.107  26.867  1.00  0.00     0.055 A 
ATOM     68  C   UNL A   1      40.204  25.800  27.692  1.00  0.00     0.041 A 
ATOM     69  F   UNL A   1      39.155  26.402  29.699  1.00  0.00    -0.206 F 
ATOM     70  C   UNL A   1      41.153  26.045  26.705  1.00  0.00     0.022 A 
BRANCH  67  71
ATOM     71  S   UNL A   1      43.150  27.581  25.510  1.00  0.00     0.124 S 
ATOM     72  O   UNL A   1      42.227  28.262  24.604  1.00  0.00    -0.237 OA
ATOM     73  O   UNL A   1      44.129  28.427  26.180  1.00  0.00    -0.237 OA
ATOM     74  O   UNL A   1      43.660  26.302  25.020  1.00  0.00    -0.744 OA
ENDBRANCH  67  71
ENDBRANCH  50  64
BRANCH  51  75
ATOM     75  C   UNL A   1      39.622  33.540  37.007  1.00  0.00     0.023 A 
ATOM     76  C   UNL A   1      40.395  34.680  37.276  1.00  0.00     0.031 A 
ATOM     77  C   UNL A   1      38.644  33.169  37.948  1.00  0.00     0.131 A 
ATOM     78  C   UNL A   1      40.209  35.385  38.476  1.00  0.00     0.055 A 
ATOM     79  C   UNL A   1      38.427  33.903  39.114  1.00  0.00     0.041 A 
ATOM     80  F   UNL A   1      37.876  32.087  37.740  1.00  0.00    -0.206 F 
ATOM     81  C   UNL A   1      39.222  35.012  39.390  1.00  0.00     0.022 A 
BRANCH  78  82
ATOM     82  S   UNL A   1      41.340  36.748  38.867  1.00  0.00     0.124 S 
ATOM     83  O   UNL A   1      42.128  36.179  39.954  1.00  0.00    -0.237 OA
ATOM     84  O   UNL A   1      42.037  36.936  37.599  1.00  0.00    -0.237 OA
ATOM     85  O   UNL A   1      40.443  37.836  39.250  1.00  0.00    -0.744 OA
ENDBRANCH  78  82
ENDBRANCH  51  75
BRANCH  63  86
ATOM     86  C   UNL A   1      44.268  28.581  35.435  1.00  0.00     0.023 A 
ATOM     87  C   UNL A   1      44.111  27.598  36.426  1.00  0.00     0.031 A 
ATOM     88  C   UNL A   1      45.566  29.044  35.159  1.00  0.00     0.131 A 
ATOM     89  C   UNL A   1      45.230  27.142  37.141  1.00  0.00     0.055 A 
ATOM     90  C   UNL A   1      46.683  28.548  35.834  1.00  0.00     0.041 A 
ATOM     91  F   UNL A   1      45.773  29.983  34.221  1.00  0.00    -0.206 F 
ATOM     92  C   UNL A   1      46.516  27.600  36.841  1.00  0.00     0.022 A 
BRANCH  89  93
ATOM     93  S   UNL A   1      44.975  25.998  38.526  1.00  0.00     0.124 S 
ATOM     94  O   UNL A   1      43.682  26.432  39.044  1.00  0.00    -0.237 OA
ATOM     95  O   UNL A   1      44.993  24.697  37.864  1.00  0.00    -0.237 OA
ATOM     96  O   UNL A   1      46.115  26.261  39.403  1.00  0.00    -0.744 OA
ENDBRANCH  89  93
ENDBRANCH  63  86
ENDBRANCH  37  38
ENDBRANCH  29  32
ENDBRANCH  27  28
ENDBRANCH  26  27
ENDBRANCH   1  26
TORSDOF 18
ENDMDL
MODEL 2
REMARK VINA RESULT:     -11.3      1.446      1.977
REMARK SMILES CCCC1(C(=O)N2CCO[C@@H](CC(=O)NCCCNC(=O)c3ccc(-c4c5nc(c(-c6cc(S(=O)(=O)[O-])ccc6F)c6ccc([nH]6)c(-c6cc(S(=O)(=O)[O-])ccc6F)c6nc(c(-c7cc(S(=O)(=O)[O-])ccc7F)c7ccc4[nH]7)C=C6)C=C5)cc3)C2)CC[NH2+]CC1
REMARK SMILES IDX 16 1 15 2 13 3 14 4 12 6 11 7 7 8 8 9 85 10 9 11 10 12 5 13
REMARK SMILES IDX 6 14 4 15 86 16 90 17 87 18 89 19 88 20 3 23 2 24 1 25 17 26
REMARK SMILES IDX 18 27 19 28 20 29 21 31 22 32 23 33 84 34 24 35 83 36 25 37
REMARK SMILES IDX 26 38 27 39 77 40 28 41 82 42 76 43 78 44 29 45 81 46 75 47
REMARK SMILES IDX 74 48 30 50 62 51 42 52 61 53 43 54 46 55 60 56 79 57 44 58
REMARK SMILES IDX 45 59 59 61 80 62 47 63 31 64 32 65 40 66 33 67 39 68 41 69
REMARK SMILES IDX 38 70 34 71 35 72 36 73 37 74 63 75 64 76 72 77 65 78 71 79
REMARK SMILES IDX 73 80 70 81 66 82 67 83 68 84 69 85 48 86 49 87 57 88 50 89
REMARK SMILES IDX 56 90 58 91 55 92 51 93 52 94 53 95 54 96
REMARK H PARENT 15 5 88 21 88 22 19 30 78 49 46 60
REMARK Flexibility Score: inf
ROOT
ATOM      1  C   UNL A   1      31.373  30.695  25.753  1.00  0.00     0.117 C 
ENDROOT
BRANCH   1   2
ATOM      2  N   UNL A   1      30.603  30.687  24.511  1.00  0.00    -0.356 N 
ATOM      3  C   UNL A   1      30.107  29.659  23.764  1.00  0.00     0.222 C 
ATOM      4  O   UNL A   1      29.491  29.935  22.732  1.00  0.00    -0.275 OA
ATOM      5  H   UNL A   1      30.407  31.581  24.151  1.00  0.00     0.163 HD
BRANCH   3   6
ATOM      6  C   UNL A   1      30.336  28.218  24.160  1.00  0.00     0.133 C 
BRANCH   6   7
ATOM      7  C   UNL A   1      31.785  27.777  23.942  1.00  0.00     0.147 C 
ATOM      8  N   UNL A   1      33.148  26.030  22.802  1.00  0.00    -0.337 N 
ATOM      9  C   UNL A   1      33.755  27.064  21.977  1.00  0.00     0.148 C 
ATOM     10  C   UNL A   1      31.830  26.401  23.268  1.00  0.00     0.152 C 
ATOM     11  C   UNL A   1      33.763  28.382  22.752  1.00  0.00     0.182 C 
ATOM     12  O   UNL A   1      32.423  28.774  23.109  1.00  0.00    -0.374 OA
BRANCH   8  13
ATOM     13  C   UNL A   1      33.296  24.691  22.467  1.00  0.00     0.229 C 
ATOM     14  O   UNL A   1      33.183  24.327  21.298  1.00  0.00    -0.274 OA
BRANCH  13  15
ATOM     15  C   UNL A   1      33.587  23.718  23.652  1.00  0.00     0.060 C 
ATOM     16  C   UNL A   1      33.916  24.618  24.871  1.00  0.00     0.078 C 
ATOM     17  C   UNL A   1      32.345  22.824  23.916  1.00  0.00     0.078 C 
ATOM     18  C   UNL A   1      33.618  24.023  26.241  1.00  0.00     0.261 C 
ATOM     19  C   UNL A   1      32.211  22.309  25.343  1.00  0.00     0.261 C 
ATOM     20  N   UNL A   1      32.290  23.416  26.292  1.00  0.00    -0.346 N 
ATOM     21  H   UNL A   1      31.588  24.118  26.052  1.00  0.00     0.346 HD
ATOM     22  H   UNL A   1      32.118  23.064  27.233  1.00  0.00     0.346 HD
BRANCH  15  23
ATOM     23  C   UNL A   1      34.835  22.874  23.208  1.00  0.00     0.017 C 
BRANCH  23  24
ATOM     24  C   UNL A   1      35.769  22.285  24.272  1.00  0.00    -0.002 C 
ATOM     25  C   UNL A   1      37.102  23.011  24.394  1.00  0.00     0.004 C 
ENDBRANCH  23  24
ENDBRANCH  15  23
ENDBRANCH  13  15
ENDBRANCH   8  13
ENDBRANCH   6   7
ENDBRANCH   3   6
ENDBRANCH   1   2
BRANCH   1  26
ATOM     26  C   UNL A   1      31.276  32.026  26.504  1.00  0.00     0.042 C 
BRANCH  26  27
ATOM     27  C   UNL A   1      32.561  32.455  27.200  1.00  0.00     0.118 C 
BRANCH  27  28
ATOM     28  N   UNL A   1      32.514  33.849  27.602  1.00  0.00    -0.352 N 
ATOM     29  C   UNL A   1      33.198  34.501  28.602  1.00  0.00     0.251 C 
ATOM     30  H   UNL A   1      31.899  34.412  27.080  1.00  0.00     0.163 HD
ATOM     31  O   UNL A   1      32.802  35.611  28.951  1.00  0.00    -0.269 OA
BRANCH  29  32
ATOM     32  C   UNL A   1      34.384  33.896  29.263  1.00  0.00     0.039 A 
ATOM     33  C   UNL A   1      34.180  32.901  30.228  1.00  0.00     0.014 A 
ATOM     34  C   UNL A   1      35.684  34.344  29.013  1.00  0.00     0.014 A 
ATOM     35  C   UNL A   1      35.270  32.335  30.901  1.00  0.00     0.010 A 
ATOM     36  C   UNL A   1      36.776  33.723  29.626  1.00  0.00     0.010 A 
ATOM     37  C   UNL A   1      36.582  32.724  30.591  1.00  0.00    -0.014 A 
BRANCH  37  38
ATOM     38  C   UNL A   1      37.756  32.130  31.292  1.00  0.00     0.031 A 
ATOM     39  C   UNL A   1      38.536  31.012  30.646  1.00  0.00     0.074 A 
ATOM     40  C   UNL A   1      38.095  32.554  32.525  1.00  0.00     0.049 A 
ATOM     41  N   UNL A   1      39.523  30.300  31.129  1.00  0.00    -0.248 NA
ATOM     42  C   UNL A   1      38.129  30.627  29.287  1.00  0.00     0.031 C 
ATOM     43  C   UNL A   1      37.408  33.610  33.274  1.00  0.00     0.029 A 
ATOM     44  N   UNL A   1      39.096  32.146  33.373  1.00  0.00    -0.354 N 
ATOM     45  C   UNL A   1      39.838  29.367  30.143  1.00  0.00     0.074 A 
ATOM     46  C   UNL A   1      38.901  29.574  29.059  1.00  0.00     0.031 C 
ATOM     47  C   UNL A   1      38.021  33.779  34.457  1.00  0.00     0.029 A 
ATOM     48  C   UNL A   1      39.111  32.814  34.576  1.00  0.00     0.049 A 
ATOM     49  H   UNL A   1      39.742  31.441  33.141  1.00  0.00     0.167 HD
ATOM     50  C   UNL A   1      40.827  28.438  30.135  1.00  0.00     0.034 A 
ATOM     51  C   UNL A   1      39.899  32.658  35.659  1.00  0.00     0.034 A 
ATOM     52  C   UNL A   1      41.773  28.258  31.210  1.00  0.00     0.049 A 
ATOM     53  C   UNL A   1      40.983  31.609  35.633  1.00  0.00     0.074 A 
ATOM     54  C   UNL A   1      42.847  27.387  31.277  1.00  0.00     0.029 A 
ATOM     55  N   UNL A   1      41.757  28.957  32.410  1.00  0.00    -0.354 N 
ATOM     56  N   UNL A   1      41.288  30.759  34.680  1.00  0.00    -0.248 NA
ATOM     57  C   UNL A   1      41.832  31.502  36.828  1.00  0.00     0.031 C 
ATOM     58  C   UNL A   1      43.439  27.513  32.539  1.00  0.00     0.029 A 
ATOM     59  C   UNL A   1      42.782  28.515  33.233  1.00  0.00     0.049 A 
ATOM     60  H   UNL A   1      41.112  29.664  32.642  1.00  0.00     0.167 HD
ATOM     61  C   UNL A   1      42.384  30.038  35.150  1.00  0.00     0.074 A 
ATOM     62  C   UNL A   1      42.692  30.562  36.464  1.00  0.00     0.031 C 
ATOM     63  C   UNL A   1      43.074  29.038  34.548  1.00  0.00     0.034 A 
BRANCH  50  64
ATOM     64  C   UNL A   1      40.915  27.527  28.932  1.00  0.00     0.023 A 
ATOM     65  C   UNL A   1      41.888  27.709  27.933  1.00  0.00     0.031 A 
ATOM     66  C   UNL A   1      39.999  26.471  28.771  1.00  0.00     0.131 A 
ATOM     67  C   UNL A   1      41.872  26.904  26.784  1.00  0.00     0.055 A 
ATOM     68  C   UNL A   1      40.041  25.620  27.664  1.00  0.00     0.041 A 
ATOM     69  F   UNL A   1      39.036  26.257  29.682  1.00  0.00    -0.206 F 
ATOM     70  C   UNL A   1      40.971  25.844  26.655  1.00  0.00     0.022 A 
BRANCH  67  71
ATOM     71  S   UNL A   1      42.953  27.351  25.398  1.00  0.00     0.124 S 
ATOM     72  O   UNL A   1      44.157  27.796  26.096  1.00  0.00    -0.237 OA
ATOM     73  O   UNL A   1      43.065  26.096  24.665  1.00  0.00    -0.237 OA
ATOM     74  O   UNL A   1      42.213  28.411  24.715  1.00  0.00    -0.744 OA
ENDBRANCH  67  71
ENDBRANCH  50  64
BRANCH  51  75
ATOM     75  C   UNL A   1      39.688  33.499  36.873  1.00  0.00     0.023 A 
ATOM     76  C   UNL A   1      39.046  32.981  38.009  1.00  0.00     0.031 A 
ATOM     77  C   UNL A   1      40.084  34.848  36.897  1.00  0.00     0.131 A 
ATOM     78  C   UNL A   1      38.780  33.818  39.105  1.00  0.00     0.055 A 
ATOM     79  C   UNL A   1      39.865  35.662  38.009  1.00  0.00     0.041 A 
ATOM     80  F   UNL A   1      40.703  35.394  35.837  1.00  0.00    -0.206 F 
ATOM     81  C   UNL A   1      39.197  35.150  39.118  1.00  0.00     0.022 A 
BRANCH  78  82
ATOM     82  S   UNL A   1      37.799  33.160  40.483  1.00  0.00     0.124 S 
ATOM     83  O   UNL A   1      38.516  31.929  40.797  1.00  0.00    -0.237 OA
ATOM     84  O   UNL A   1      37.903  34.233  41.466  1.00  0.00    -0.237 OA
ATOM     85  O   UNL A   1      36.472  32.979  39.899  1.00  0.00    -0.744 OA
ENDBRANCH  78  82
ENDBRANCH  51  75
BRANCH  63  86
ATOM     86  C   UNL A   1      44.262  28.477  35.291  1.00  0.00     0.023 A 
ATOM     87  C   UNL A   1      44.145  27.366  36.143  1.00  0.00     0.031 A 
ATOM     88  C   UNL A   1      45.528  29.069  35.145  1.00  0.00     0.131 A 
ATOM     89  C   UNL A   1      45.265  26.910  36.856  1.00  0.00     0.055 A 
ATOM     90  C   UNL A   1      46.652  28.579  35.813  1.00  0.00     0.041 A 
ATOM     91  F   UNL A   1      45.697  30.134  34.344  1.00  0.00    -0.206 F 
ATOM     92  C   UNL A   1      46.521  27.500  36.684  1.00  0.00     0.022 A 
BRANCH  89  93
ATOM     93  S   UNL A   1      45.046  25.582  38.072  1.00  0.00     0.124 S 
ATOM     94  O   UNL A   1      44.422  26.290  39.185  1.00  0.00    -0.237 OA
ATOM     95  O   UNL A   1      44.191  24.641  37.356  1.00  0.00    -0.237 OA
ATOM     96  O   UNL A   1      46.408  25.115  38.320  1.00  0.00    -0.744 OA
ENDBRANCH  89  93
ENDBRANCH  63  86
ENDBRANCH  37  38
ENDBRANCH  29  32
ENDBRANCH  27  28
ENDBRANCH  26  27
ENDBRANCH   1  26
TORSDOF 18
ENDMDL
MODEL 3
REMARK VINA RESULT:     -11.2      6.030      9.698
REMARK SMILES CCCC1(C(=O)N2CCO[C@@H](CC(=O)NCCCNC(=O)c3ccc(-c4c5nc(c(-c6cc(S(=O)(=O)[O-])ccc6F)c6ccc([nH]6)c(-c6cc(S(=O)(=O)[O-])ccc6F)c6nc(c(-c7cc(S(=O)(=O)[O-])ccc7F)c7ccc4[nH]7)C=C6)C=C5)cc3)C2)CC[NH2+]CC1
REMARK SMILES IDX 16 1 15 2 13 3 14 4 12 6 11 7 7 8 8 9 85 10 9 11 10 12 5 13
REMARK SMILES IDX 6 14 4 15 86 16 90 17 87 18 89 19 88 20 3 23 2 24 1 25 17 26
REMARK SMILES IDX 18 27 19 28 20 29 21 31 22 32 23 33 84 34 24 35 83 36 25 37
REMARK SMILES IDX 26 38 27 39 77 40 28 41 82 42 76 43 78 44 29 45 81 46 75 47
REMARK SMILES IDX 74 48 30 50 62 51 42 52 61 53 43 54 46 55 60 56 79 57 44 58
REMARK SMILES IDX 45 59 59 61 80 62 47 63 31 64 32 65 40 66 33 67 39 68 41 69
REMARK SMILES IDX 38 70 34 71 35 72 36 73 37 74 63 75 64 76 72 77 65 78 71 79
REMARK SMILES IDX 73 80 70 81 66 82 67 83 68 84 69 85 48 86 49 87 57 88 50 89
REMARK SMILES IDX 56 90 58 91 55 92 51 93 52 94 53 95 54 96
REMARK H PARENT 15 5 88 21 88 22 19 30 78 49 46 60
REMARK Flexibility Score: inf
ROOT
ATOM      1  C   UNL A   1      36.640  20.263  24.781  1.00  0.00     0.117 C 
ENDROOT
BRANCH   1   2
ATOM      2  N   UNL A   1      35.479  19.397  24.973  1.00  0.00    -0.356 N 
ATOM      3  C   UNL A   1      34.149  19.609  24.755  1.00  0.00     0.222 C 
ATOM      4  O   UNL A   1      33.364  18.695  25.017  1.00  0.00    -0.275 OA
ATOM      5  H   UNL A   1      35.695  18.503  25.320  1.00  0.00     0.163 HD
BRANCH   3   6
ATOM      6  C   UNL A   1      33.639  20.938  24.244  1.00  0.00     0.133 C 
BRANCH   6   7
ATOM      7  C   UNL A   1      33.733  22.042  25.299  1.00  0.00     0.147 C 
ATOM      8  N   UNL A   1      32.349  23.752  26.470  1.00  0.00    -0.337 N 
ATOM      9  C   UNL A   1      32.605  23.072  27.732  1.00  0.00     0.148 C 
ATOM     10  C   UNL A   1      32.436  22.858  25.337  1.00  0.00     0.152 C 
ATOM     11  C   UNL A   1      33.958  22.363  27.653  1.00  0.00     0.182 C 
ATOM     12  O   UNL A   1      33.972  21.406  26.577  1.00  0.00    -0.374 OA
BRANCH   8  13
ATOM     13  C   UNL A   1      31.353  24.714  26.383  1.00  0.00     0.229 C 
ATOM     14  O   UNL A   1      30.188  24.429  26.659  1.00  0.00    -0.274 OA
BRANCH  13  15
ATOM     15  C   UNL A   1      31.808  26.129  25.909  1.00  0.00     0.060 C 
ATOM     16  C   UNL A   1      31.128  27.139  26.869  1.00  0.00     0.078 C 
ATOM     17  C   UNL A   1      33.357  26.231  25.970  1.00  0.00     0.078 C 
ATOM     18  C   UNL A   1      31.850  28.466  27.063  1.00  0.00     0.261 C 
ATOM     19  C   UNL A   1      33.905  27.639  26.160  1.00  0.00     0.261 C 
ATOM     20  N   UNL A   1      33.277  28.278  27.314  1.00  0.00    -0.346 N 
ATOM     21  H   UNL A   1      33.400  27.686  28.136  1.00  0.00     0.346 HD
ATOM     22  H   UNL A   1      33.712  29.185  27.473  1.00  0.00     0.346 HD
BRANCH  15  23
ATOM     23  C   UNL A   1      31.267  26.278  24.442  1.00  0.00     0.017 C 
BRANCH  23  24
ATOM     24  C   UNL A   1      30.510  27.549  24.039  1.00  0.00    -0.002 C 
ATOM     25  C   UNL A   1      31.402  28.645  23.471  1.00  0.00     0.004 C 
ENDBRANCH  23  24
ENDBRANCH  15  23
ENDBRANCH  13  15
ENDBRANCH   8  13
ENDBRANCH   6   7
ENDBRANCH   3   6
ENDBRANCH   1   2
BRANCH   1  26
ATOM     26  C   UNL A   1      37.968  19.534  24.999  1.00  0.00     0.042 C 
BRANCH  26  27
ATOM     27  C   UNL A   1      39.033  20.358  25.712  1.00  0.00     0.118 C 
BRANCH  27  28
ATOM     28  N   UNL A   1      40.181  19.548  26.078  1.00  0.00    -0.352 N 
ATOM     29  C   UNL A   1      41.469  19.930  26.380  1.00  0.00     0.251 C 
ATOM     30  H   UNL A   1      40.013  18.580  26.115  1.00  0.00     0.163 HD
ATOM     31  O   UNL A   1      42.346  19.069  26.386  1.00  0.00    -0.269 OA
BRANCH  29  32
ATOM     32  C   UNL A   1      41.815  21.343  26.686  1.00  0.00     0.039 A 
ATOM     33  C   UNL A   1      41.915  21.735  28.027  1.00  0.00     0.014 A 
ATOM     34  C   UNL A   1      41.961  22.306  25.683  1.00  0.00     0.014 A 
ATOM     35  C   UNL A   1      42.199  23.066  28.355  1.00  0.00     0.010 A 
ATOM     36  C   UNL A   1      42.324  23.616  26.009  1.00  0.00     0.010 A 
ATOM     37  C   UNL A   1      42.430  24.017  27.348  1.00  0.00    -0.014 A 
BRANCH  37  38
ATOM     38  C   UNL A   1      42.740  25.438  27.676  1.00  0.00     0.031 A 
ATOM     39  C   UNL A   1      44.149  25.956  27.534  1.00  0.00     0.074 A 
ATOM     40  C   UNL A   1      41.774  26.250  28.148  1.00  0.00     0.049 A 
ATOM     41  N   UNL A   1      44.641  27.125  27.858  1.00  0.00    -0.248 NA
ATOM     42  C   UNL A   1      45.140  25.022  26.981  1.00  0.00     0.031 C 
ATOM     43  C   UNL A   1      40.376  25.868  28.358  1.00  0.00     0.029 A 
ATOM     44  N   UNL A   1      41.819  27.565  28.546  1.00  0.00    -0.354 N 
ATOM     45  C   UNL A   1      46.003  27.059  27.571  1.00  0.00     0.074 A 
ATOM     46  C   UNL A   1      46.263  25.716  27.097  1.00  0.00     0.031 C 
ATOM     47  C   UNL A   1      39.695  26.927  28.825  1.00  0.00     0.029 A 
ATOM     48  C   UNL A   1      40.613  28.051  28.995  1.00  0.00     0.049 A 
ATOM     49  H   UNL A   1      42.639  28.108  28.513  1.00  0.00     0.167 HD
ATOM     50  C   UNL A   1      46.944  28.031  27.675  1.00  0.00     0.034 A 
ATOM     51  C   UNL A   1      40.284  29.256  29.503  1.00  0.00     0.034 A 
ATOM     52  C   UNL A   1      46.669  29.375  28.124  1.00  0.00     0.049 A 
ATOM     53  C   UNL A   1      41.351  30.317  29.624  1.00  0.00     0.074 A 
ATOM     54  C   UNL A   1      47.536  30.450  28.212  1.00  0.00     0.029 A 
ATOM     55  N   UNL A   1      45.432  29.828  28.567  1.00  0.00    -0.354 N 
ATOM     56  N   UNL A   1      42.625  30.247  29.316  1.00  0.00    -0.248 NA
ATOM     57  C   UNL A   1      40.931  31.621  30.155  1.00  0.00     0.031 C 
ATOM     58  C   UNL A   1      46.843  31.532  28.767  1.00  0.00     0.029 A 
ATOM     59  C   UNL A   1      45.524  31.157  28.957  1.00  0.00     0.049 A 
ATOM     60  H   UNL A   1      44.611  29.286  28.599  1.00  0.00     0.167 HD
ATOM     61  C   UNL A   1      43.151  31.507  29.590  1.00  0.00     0.074 A 
ATOM     62  C   UNL A   1      42.055  32.319  30.074  1.00  0.00     0.031 C 
ATOM     63  C   UNL A   1      44.424  31.954  29.448  1.00  0.00     0.034 A 
BRANCH  50  64
ATOM     64  C   UNL A   1      48.367  27.663  27.322  1.00  0.00     0.023 A 
ATOM     65  C   UNL A   1      48.889  27.874  26.034  1.00  0.00     0.031 A 
ATOM     66  C   UNL A   1      49.208  27.071  28.282  1.00  0.00     0.131 A 
ATOM     67  C   UNL A   1      50.182  27.427  25.719  1.00  0.00     0.055 A 
ATOM     68  C   UNL A   1      50.522  26.704  27.986  1.00  0.00     0.041 A 
ATOM     69  F   UNL A   1      48.761  26.828  29.525  1.00  0.00    -0.206 F 
ATOM     70  C   UNL A   1      51.010  26.866  26.693  1.00  0.00     0.022 A 
BRANCH  67  71
ATOM     71  S   UNL A   1      50.711  27.457  23.985  1.00  0.00     0.124 S 
ATOM     72  O   UNL A   1      51.900  26.609  24.025  1.00  0.00    -0.237 OA
ATOM     73  O   UNL A   1      49.554  26.904  23.291  1.00  0.00    -0.237 OA
ATOM     74  O   UNL A   1      50.974  28.873  23.732  1.00  0.00    -0.744 OA
ENDBRANCH  67  71
ENDBRANCH  50  64
BRANCH  51  75
ATOM     75  C   UNL A   1      38.890  29.528  29.958  1.00  0.00     0.023 A 
ATOM     76  C   UNL A   1      37.981  30.211  29.135  1.00  0.00     0.031 A 
ATOM     77  C   UNL A   1      38.460  29.148  31.242  1.00  0.00     0.131 A 
ATOM     78  C   UNL A   1      36.703  30.533  29.619  1.00  0.00     0.055 A 
ATOM     79  C   UNL A   1      37.171  29.424  31.700  1.00  0.00     0.041 A 
ATOM     80  F   UNL A   1      39.289  28.492  32.070  1.00  0.00    -0.206 F 
ATOM     81  C   UNL A   1      36.288  30.132  30.891  1.00  0.00     0.022 A 
BRANCH  78  82
ATOM     82  S   UNL A   1      35.618  31.563  28.593  1.00  0.00     0.124 S 
ATOM     83  O   UNL A   1      36.541  32.589  28.121  1.00  0.00    -0.237 OA
ATOM     84  O   UNL A   1      35.153  30.609  27.593  1.00  0.00    -0.237 OA
ATOM     85  O   UNL A   1      34.599  32.025  29.533  1.00  0.00    -0.744 OA
ENDBRANCH  78  82
ENDBRANCH  51  75
BRANCH  63  86
ATOM     86  C   UNL A   1      44.686  33.403  29.781  1.00  0.00     0.023 A 
ATOM     87  C   UNL A   1      44.566  34.418  28.817  1.00  0.00     0.031 A 
ATOM     88  C   UNL A   1      45.065  33.769  31.085  1.00  0.00     0.131 A 
ATOM     89  C   UNL A   1      44.871  35.745  29.157  1.00  0.00     0.055 A 
ATOM     90  C   UNL A   1      45.314  35.097  31.433  1.00  0.00     0.041 A 
ATOM     91  F   UNL A   1      45.196  32.839  32.045  1.00  0.00    -0.206 F 
ATOM     92  C   UNL A   1      45.228  36.093  30.463  1.00  0.00     0.022 A 
BRANCH  89  93
ATOM     93  S   UNL A   1      44.868  37.004  27.852  1.00  0.00     0.124 S 
ATOM     94  O   UNL A   1      45.600  38.098  28.484  1.00  0.00    -0.237 OA
ATOM     95  O   UNL A   1      45.557  36.324  26.760  1.00  0.00    -0.237 OA
ATOM     96  O   UNL A   1      43.447  37.260  27.623  1.00  0.00    -0.744 OA
ENDBRANCH  89  93
ENDBRANCH  63  86
ENDBRANCH  37  38
ENDBRANCH  29  32
ENDBRANCH  27  28
ENDBRANCH  26  27
ENDBRANCH   1  26
TORSDOF 18
ENDMDL
