MODEL 1
REMARK VINA RESULT:     -13.0      0.000      0.000
REMARK SMILES CC1(C)S[C@H]2[C@H](NC(=O)[C@H](NN3CCNC3=O)c3ccccc3)C(=O)N2[C@H]1C(=O)NCCCNC(=O)c1ccc(-c2c3nc(c(-c4cc(S(=O)(=O)[O-])ccc4F)c4ccc([nH]4)c(-c4cc(S(=O)(=O)[O-])ccc4F)c4nc(c(-c5cc(S(=O)(=O)[O-])ccc5F)c5ccc2[nH]5)C=C4)C=C3)cc1
REMARK SMILES IDX 31 1 30 2 28 3 29 4 27 6 1 7 2 8 3 9 4 10 5 11 26 12 6 13
REMARK SMILES IDX 24 14 25 15 7 16 8 17 9 19 10 20 18 21 19 22 23 23 20 24
REMARK SMILES IDX 22 25 21 26 11 27 12 29 13 30 16 31 14 32 15 33 17 34 32 36
REMARK SMILES IDX 33 37 34 38 35 39 36 41 37 42 38 43 99 44 39 45 98 46 40 47
REMARK SMILES IDX 41 48 42 49 92 50 43 51 97 52 91 53 93 54 44 55 96 56 90 57
REMARK SMILES IDX 89 58 45 60 77 61 57 62 76 63 58 64 61 65 75 66 94 67 59 68
REMARK SMILES IDX 60 69 74 71 95 72 62 73 46 74 47 75 55 76 48 77 54 78 56 79
REMARK SMILES IDX 53 80 49 81 50 82 51 83 52 84 78 85 79 86 87 87 80 88 86 89
REMARK SMILES IDX 88 90 85 91 81 92 82 93 83 94 84 95 63 96 64 97 72 98 65 99
REMARK SMILES IDX 71 100 73 101 70 102 66 103 67 104 68 105 69 106
REMARK H PARENT 30 5 7 18 11 28 15 35 34 40 93 59 61 70
REMARK Flexibility Score: inf
ROOT
ATOM      1  C   UNL A   1      37.204  20.856  24.810  1.00  0.00     0.117 C 
ENDROOT
BRANCH   1   2
ATOM      2  N   UNL A   1      36.077  20.900  25.734  1.00  0.00    -0.354 N 
ATOM      3  C   UNL A   1      34.751  21.156  25.576  1.00  0.00     0.244 C 
ATOM      4  O   UNL A   1      34.072  21.145  26.613  1.00  0.00    -0.273 OA
ATOM      5  H   UNL A   1      36.328  20.702  26.666  1.00  0.00     0.163 HD
BRANCH   3   6
ATOM      6  C   UNL A   1      34.091  21.613  24.254  1.00  0.00     0.191 C 
ATOM      7  C   UNL A   1      32.185  20.003  23.779  1.00  0.00     0.026 C 
ATOM      8  C   UNL A   1      32.550  21.444  24.177  1.00  0.00     0.042 C 
ATOM      9  C   UNL A   1      31.748  21.821  25.423  1.00  0.00     0.026 C 
ATOM     10  S   UNL A   1      31.967  22.572  22.821  1.00  0.00    -0.125 SA
ATOM     11  C   UNL A   1      33.538  23.471  22.664  1.00  0.00     0.176 C 
ATOM     12  N   UNL A   1      34.487  22.850  23.592  1.00  0.00    -0.313 N 
ATOM     13  C   UNL A   1      33.652  24.756  23.526  1.00  0.00     0.205 C 
ATOM     14  C   UNL A   1      34.895  24.030  24.111  1.00  0.00     0.249 C 
ATOM     15  O   UNL A   1      35.820  24.311  24.834  1.00  0.00    -0.272 OA
BRANCH  13  16
ATOM     16  N   UNL A   1      33.920  26.015  22.800  1.00  0.00    -0.340 N 
ATOM     17  C   UNL A   1      33.173  27.174  22.812  1.00  0.00     0.244 C 
ATOM     18  H   UNL A   1      34.730  26.029  22.241  1.00  0.00     0.164 HD
ATOM     19  O   UNL A   1      33.654  28.150  22.228  1.00  0.00    -0.273 OA
BRANCH  17  20
ATOM     20  C   UNL A   1      31.809  27.196  23.570  1.00  0.00     0.194 C 
BRANCH  20  21
ATOM     21  C   UNL A   1      31.835  27.956  24.902  1.00  0.00    -0.020 A 
ATOM     22  C   UNL A   1      31.525  27.342  26.129  1.00  0.00     0.006 A 
ATOM     23  C   UNL A   1      32.186  29.322  24.922  1.00  0.00     0.006 A 
ATOM     24  C   UNL A   1      31.573  28.068  27.326  1.00  0.00     0.000 A 
ATOM     25  C   UNL A   1      32.242  30.043  26.122  1.00  0.00     0.000 A 
ATOM     26  C   UNL A   1      31.934  29.415  27.324  1.00  0.00     0.000 A 
ENDBRANCH  20  21
BRANCH  20  27
ATOM     27  N   UNL A   1      30.745  27.581  22.602  1.00  0.00    -0.213 NA
ATOM     28  H   UNL A   1      30.795  26.944  21.807  1.00  0.00     0.149 HD
BRANCH  27  29
ATOM     29  N   UNL A   1      29.439  27.538  23.115  1.00  0.00    -0.257 N 
ATOM     30  C   UNL A   1      28.415  28.518  22.863  1.00  0.00     0.163 C 
ATOM     31  C   UNL A   1      28.906  26.359  23.664  1.00  0.00     0.331 C 
ATOM     32  C   UNL A   1      27.196  27.941  23.586  1.00  0.00     0.141 C 
ATOM     33  N   UNL A   1      27.561  26.584  23.898  1.00  0.00    -0.335 N 
ATOM     34  O   UNL A   1      29.510  25.322  23.876  1.00  0.00    -0.247 OA
ATOM     35  H   UNL A   1      26.935  25.904  24.236  1.00  0.00     0.165 HD
ENDBRANCH  27  29
ENDBRANCH  20  27
ENDBRANCH  17  20
ENDBRANCH  13  16
ENDBRANCH   3   6
ENDBRANCH   1   2
BRANCH   1  36
ATOM     36  C   UNL A   1      38.173  19.716  25.111  1.00  0.00     0.042 C 
BRANCH  36  37
ATOM     37  C   UNL A   1      39.306  20.121  26.048  1.00  0.00     0.118 C 
BRANCH  37  38
ATOM     38  N   UNL A   1      40.430  19.196  25.990  1.00  0.00    -0.352 N 
ATOM     39  C   UNL A   1      41.787  19.412  26.046  1.00  0.00     0.251 C 
ATOM     40  H   UNL A   1      40.172  18.250  25.894  1.00  0.00     0.163 HD
ATOM     41  O   UNL A   1      42.541  18.487  25.749  1.00  0.00    -0.269 OA
BRANCH  39  42
ATOM     42  C   UNL A   1      42.360  20.729  26.424  1.00  0.00     0.039 A 
ATOM     43  C   UNL A   1      42.710  21.624  25.403  1.00  0.00     0.014 A 
ATOM     44  C   UNL A   1      42.637  21.069  27.748  1.00  0.00     0.014 A 
ATOM     45  C   UNL A   1      43.268  22.872  25.715  1.00  0.00     0.010 A 
ATOM     46  C   UNL A   1      43.115  22.342  28.064  1.00  0.00     0.010 A 
ATOM     47  C   UNL A   1      43.444  23.257  27.052  1.00  0.00    -0.014 A 
BRANCH  47  48
ATOM     48  C   UNL A   1      44.000  24.587  27.427  1.00  0.00     0.031 A 
ATOM     49  C   UNL A   1      43.093  25.646  28.000  1.00  0.00     0.074 A 
ATOM     50  C   UNL A   1      45.285  24.888  27.157  1.00  0.00     0.049 A 
ATOM     51  N   UNL A   1      43.312  26.926  28.170  1.00  0.00    -0.248 NA
ATOM     52  C   UNL A   1      41.744  25.210  28.389  1.00  0.00     0.031 C 
ATOM     53  C   UNL A   1      46.269  23.977  26.569  1.00  0.00     0.029 A 
ATOM     54  N   UNL A   1      45.978  26.062  27.323  1.00  0.00    -0.354 N 
ATOM     55  C   UNL A   1      42.106  27.462  28.612  1.00  0.00     0.074 A 
ATOM     56  C   UNL A   1      41.162  26.364  28.679  1.00  0.00     0.031 C 
ATOM     57  C   UNL A   1      47.439  24.622  26.432  1.00  0.00     0.029 A 
ATOM     58  C   UNL A   1      47.277  26.001  26.880  1.00  0.00     0.049 A 
ATOM     59  H   UNL A   1      45.581  26.870  27.722  1.00  0.00     0.167 HD
ATOM     60  C   UNL A   1      41.811  28.749  28.929  1.00  0.00     0.034 A 
ATOM     61  C   UNL A   1      48.227  26.954  26.817  1.00  0.00     0.034 A 
ATOM     62  C   UNL A   1      42.776  29.821  28.944  1.00  0.00     0.049 A 
ATOM     63  C   UNL A   1      47.907  28.351  27.265  1.00  0.00     0.074 A 
ATOM     64  C   UNL A   1      42.604  31.136  29.345  1.00  0.00     0.029 A 
ATOM     65  N   UNL A   1      44.102  29.697  28.555  1.00  0.00    -0.354 N 
ATOM     66  N   UNL A   1      46.761  28.844  27.668  1.00  0.00    -0.248 NA
ATOM     67  C   UNL A   1      49.012  29.320  27.244  1.00  0.00     0.031 C 
ATOM     68  C   UNL A   1      43.821  31.812  29.177  1.00  0.00     0.029 A 
ATOM     69  C   UNL A   1      44.758  30.909  28.700  1.00  0.00     0.049 A 
ATOM     70  H   UNL A   1      44.517  28.868  28.223  1.00  0.00     0.167 HD
ATOM     71  C   UNL A   1      47.007  30.182  27.954  1.00  0.00     0.074 A 
ATOM     72  C   UNL A   1      48.411  30.418  27.682  1.00  0.00     0.031 C 
ATOM     73  C   UNL A   1      46.151  31.128  28.409  1.00  0.00     0.034 A 
BRANCH  60  74
ATOM     74  C   UNL A   1      40.371  29.064  29.243  1.00  0.00     0.023 A 
ATOM     75  C   UNL A   1      39.896  29.112  30.564  1.00  0.00     0.031 A 
ATOM     76  C   UNL A   1      39.451  29.256  28.195  1.00  0.00     0.131 A 
ATOM     77  C   UNL A   1      38.521  29.257  30.802  1.00  0.00     0.055 A 
ATOM     78  C   UNL A   1      38.094  29.476  28.440  1.00  0.00     0.041 A 
ATOM     79  F   UNL A   1      39.851  29.203  26.914  1.00  0.00    -0.206 F 
ATOM     80  C   UNL A   1      37.620  29.460  29.750  1.00  0.00     0.022 A 
BRANCH  77  81
ATOM     81  S   UNL A   1      37.912  29.034  32.498  1.00  0.00     0.124 S 
ATOM     82  O   UNL A   1      38.902  29.786  33.267  1.00  0.00    -0.237 OA
ATOM     83  O   UNL A   1      36.576  29.617  32.436  1.00  0.00    -0.237 OA
ATOM     84  O   UNL A   1      37.954  27.586  32.688  1.00  0.00    -0.744 OA
ENDBRANCH  77  81
ENDBRANCH  60  74
BRANCH  61  85
ATOM     85  C   UNL A   1      49.571  26.627  26.278  1.00  0.00     0.023 A 
ATOM     86  C   UNL A   1      49.945  27.046  24.991  1.00  0.00     0.031 A 
ATOM     87  C   UNL A   1      50.488  25.883  27.043  1.00  0.00     0.131 A 
ATOM     88  C   UNL A   1      51.207  26.698  24.489  1.00  0.00     0.055 A 
ATOM     89  C   UNL A   1      51.750  25.556  26.548  1.00  0.00     0.041 A 
ATOM     90  F   UNL A   1      50.170  25.478  28.283  1.00  0.00    -0.206 F 
ATOM     91  C   UNL A   1      52.113  25.960  25.261  1.00  0.00     0.022 A 
BRANCH  88  92
ATOM     92  S   UNL A   1      51.636  27.205  22.792  1.00  0.00     0.124 S 
ATOM     93  O   UNL A   1      51.998  28.606  22.975  1.00  0.00    -0.237 OA
ATOM     94  O   UNL A   1      52.735  26.299  22.471  1.00  0.00    -0.237 OA
ATOM     95  O   UNL A   1      50.403  26.971  22.045  1.00  0.00    -0.744 OA
ENDBRANCH  88  92
ENDBRANCH  61  85
BRANCH  73  96
ATOM     96  C   UNL A   1      46.733  32.489  28.668  1.00  0.00     0.023 A 
ATOM     97  C   UNL A   1      46.871  33.432  27.633  1.00  0.00     0.031 A 
ATOM     98  C   UNL A   1      47.182  32.827  29.957  1.00  0.00     0.131 A 
ATOM     99  C   UNL A   1      47.479  34.667  27.900  1.00  0.00     0.055 A 
ATOM    100  C   UNL A   1      47.763  34.067  30.223  1.00  0.00     0.041 A 
ATOM    101  F   UNL A   1      47.072  31.951  30.969  1.00  0.00    -0.206 F 
ATOM    102  C   UNL A   1      47.920  34.991  29.190  1.00  0.00     0.022 A 
BRANCH  99 103
ATOM    103  S   UNL A   1      47.722  35.835  26.527  1.00  0.00     0.124 S 
ATOM    104  O   UNL A   1      47.253  35.064  25.381  1.00  0.00    -0.237 OA
ATOM    105  O   UNL A   1      46.886  36.964  26.921  1.00  0.00    -0.237 OA
ATOM    106  O   UNL A   1      49.161  36.096  26.551  1.00  0.00    -0.744 OA
ENDBRANCH  99 103
ENDBRANCH  73  96
ENDBRANCH  47  48
ENDBRANCH  39  42
ENDBRANCH  37  38
ENDBRANCH  36  37
ENDBRANCH   1  36
TORSDOF 18
ENDMDL
MODEL 2
REMARK VINA RESULT:     -13.0      5.646     11.377
REMARK SMILES CC1(C)S[C@H]2[C@H](NC(=O)[C@H](NN3CCNC3=O)c3ccccc3)C(=O)N2[C@H]1C(=O)NCCCNC(=O)c1ccc(-c2c3nc(c(-c4cc(S(=O)(=O)[O-])ccc4F)c4ccc([nH]4)c(-c4cc(S(=O)(=O)[O-])ccc4F)c4nc(c(-c5cc(S(=O)(=O)[O-])ccc5F)c5ccc2[nH]5)C=C4)C=C3)cc1
REMARK SMILES IDX 31 1 30 2 28 3 29 4 27 6 1 7 2 8 3 9 4 10 5 11 26 12 6 13
REMARK SMILES IDX 24 14 25 15 7 16 8 17 9 19 10 20 18 21 19 22 23 23 20 24
REMARK SMILES IDX 22 25 21 26 11 27 12 29 13 30 16 31 14 32 15 33 17 34 32 36
REMARK SMILES IDX 33 37 34 38 35 39 36 41 37 42 38 43 99 44 39 45 98 46 40 47
REMARK SMILES IDX 41 48 42 49 92 50 43 51 97 52 91 53 93 54 44 55 96 56 90 57
REMARK SMILES IDX 89 58 45 60 77 61 57 62 76 63 58 64 61 65 75 66 94 67 59 68
REMARK SMILES IDX 60 69 74 71 95 72 62 73 46 74 47 75 55 76 48 77 54 78 56 79
REMARK SMILES IDX 53 80 49 81 50 82 51 83 52 84 78 85 79 86 87 87 80 88 86 89
REMARK SMILES IDX 88 90 85 91 81 92 82 93 83 94 84 95 63 96 64 97 72 98 65 99
REMARK SMILES IDX 71 100 73 101 70 102 66 103 67 104 68 105 69 106
REMARK H PARENT 30 5 7 18 11 28 15 35 34 40 93 59 61 70
REMARK Flexibility Score: inf
ROOT
ATOM      1  C   UNL A   1      31.493  30.616  26.516  1.00  0.00     0.117 C 
ENDROOT
BRANCH   1   2
ATOM      2  N   UNL A   1      32.252  30.260  25.323  1.00  0.00    -0.354 N 
ATOM      3  C   UNL A   1      32.160  29.239  24.431  1.00  0.00     0.244 C 
ATOM      4  O   UNL A   1      33.017  29.226  23.536  1.00  0.00    -0.273 OA
ATOM      5  H   UNL A   1      32.982  30.891  25.123  1.00  0.00     0.163 HD
BRANCH   3   6
ATOM      6  C   UNL A   1      31.192  28.039  24.557  1.00  0.00     0.191 C 
ATOM      7  C   UNL A   1      29.925  27.872  22.362  1.00  0.00     0.026 C 
ATOM      8  C   UNL A   1      30.979  27.206  23.264  1.00  0.00     0.042 C 
ATOM      9  C   UNL A   1      32.219  26.905  22.422  1.00  0.00     0.026 C 
ATOM     10  S   UNL A   1      30.306  25.562  23.807  1.00  0.00    -0.125 SA
ATOM     11  C   UNL A   1      30.665  25.808  25.571  1.00  0.00     0.176 C 
ATOM     12  N   UNL A   1      31.220  27.156  25.717  1.00  0.00    -0.313 N 
ATOM     13  C   UNL A   1      32.040  25.271  26.046  1.00  0.00     0.205 C 
ATOM     14  C   UNL A   1      32.257  26.747  26.481  1.00  0.00     0.249 C 
ATOM     15  O   UNL A   1      33.065  27.363  27.134  1.00  0.00    -0.272 OA
BRANCH  13  16
ATOM     16  N   UNL A   1      32.018  24.271  27.134  1.00  0.00    -0.340 N 
ATOM     17  C   UNL A   1      32.287  22.922  27.050  1.00  0.00     0.244 C 
ATOM     18  H   UNL A   1      31.783  24.610  28.028  1.00  0.00     0.164 HD
ATOM     19  O   UNL A   1      32.333  22.298  28.115  1.00  0.00    -0.273 OA
BRANCH  17  20
ATOM     20  C   UNL A   1      32.543  22.281  25.651  1.00  0.00     0.194 C 
BRANCH  20  21
ATOM     21  C   UNL A   1      34.022  22.195  25.253  1.00  0.00    -0.020 A 
ATOM     22  C   UNL A   1      34.972  21.498  26.021  1.00  0.00     0.006 A 
ATOM     23  C   UNL A   1      34.468  22.826  24.073  1.00  0.00     0.006 A 
ATOM     24  C   UNL A   1      36.311  21.431  25.616  1.00  0.00     0.000 A 
ATOM     25  C   UNL A   1      35.806  22.750  23.665  1.00  0.00     0.000 A 
ATOM     26  C   UNL A   1      36.728  22.053  24.440  1.00  0.00     0.000 A 
ENDBRANCH  20  21
BRANCH  20  27
ATOM     27  N   UNL A   1      31.754  21.021  25.565  1.00  0.00    -0.213 NA
ATOM     28  H   UNL A   1      30.866  21.233  25.111  1.00  0.00     0.149 HD
BRANCH  27  29
ATOM     29  N   UNL A   1      32.375  19.985  24.848  1.00  0.00    -0.257 N 
ATOM     30  C   UNL A   1      32.811  18.732  25.408  1.00  0.00     0.163 C 
ATOM     31  C   UNL A   1      32.337  19.941  23.445  1.00  0.00     0.331 C 
ATOM     32  C   UNL A   1      33.329  17.968  24.188  1.00  0.00     0.141 C 
ATOM     33  N   UNL A   1      32.860  18.721  23.054  1.00  0.00    -0.335 N 
ATOM     34  O   UNL A   1      31.904  20.808  22.704  1.00  0.00    -0.247 OA
ATOM     35  H   UNL A   1      32.906  18.408  22.123  1.00  0.00     0.165 HD
ENDBRANCH  27  29
ENDBRANCH  20  27
ENDBRANCH  17  20
ENDBRANCH  13  16
ENDBRANCH   3   6
ENDBRANCH   1   2
BRANCH   1  36
ATOM     36  C   UNL A   1      31.437  32.122  26.755  1.00  0.00     0.042 C 
BRANCH  36  37
ATOM     37  C   UNL A   1      32.766  32.709  27.219  1.00  0.00     0.118 C 
BRANCH  37  38
ATOM     38  N   UNL A   1      32.632  34.081  27.690  1.00  0.00    -0.352 N 
ATOM     39  C   UNL A   1      33.280  34.764  28.692  1.00  0.00     0.251 C 
ATOM     40  H   UNL A   1      31.959  34.612  27.205  1.00  0.00     0.163 HD
ATOM     41  O   UNL A   1      32.831  35.852  29.047  1.00  0.00    -0.269 OA
BRANCH  39  42
ATOM     42  C   UNL A   1      34.482  34.214  29.371  1.00  0.00     0.039 A 
ATOM     43  C   UNL A   1      34.299  33.378  30.482  1.00  0.00     0.014 A 
ATOM     44  C   UNL A   1      35.777  34.566  28.993  1.00  0.00     0.014 A 
ATOM     45  C   UNL A   1      35.405  32.850  31.161  1.00  0.00     0.010 A 
ATOM     46  C   UNL A   1      36.879  33.975  29.617  1.00  0.00     0.010 A 
ATOM     47  C   UNL A   1      36.707  33.116  30.713  1.00  0.00    -0.014 A 
BRANCH  47  48
ATOM     48  C   UNL A   1      37.909  32.546  31.384  1.00  0.00     0.031 A 
ATOM     49  C   UNL A   1      38.690  31.442  30.716  1.00  0.00     0.074 A 
ATOM     50  C   UNL A   1      38.240  32.933  32.631  1.00  0.00     0.049 A 
ATOM     51  N   UNL A   1      39.607  30.652  31.216  1.00  0.00    -0.248 NA
ATOM     52  C   UNL A   1      38.356  31.164  29.312  1.00  0.00     0.031 C 
ATOM     53  C   UNL A   1      37.553  33.962  33.415  1.00  0.00     0.029 A 
ATOM     54  N   UNL A   1      39.230  32.484  33.469  1.00  0.00    -0.354 N 
ATOM     55  C   UNL A   1      39.905  29.735  30.213  1.00  0.00     0.074 A 
ATOM     56  C   UNL A   1      39.065  30.069  29.080  1.00  0.00     0.031 C 
ATOM     57  C   UNL A   1      38.148  34.071  34.614  1.00  0.00     0.029 A 
ATOM     58  C   UNL A   1      39.227  33.093  34.700  1.00  0.00     0.049 A 
ATOM     59  H   UNL A   1      39.882  31.792  33.211  1.00  0.00     0.167 HD
ATOM     60  C   UNL A   1      40.792  28.707  30.235  1.00  0.00     0.034 A 
ATOM     61  C   UNL A   1      39.989  32.873  35.789  1.00  0.00     0.034 A 
ATOM     62  C   UNL A   1      41.687  28.433  31.333  1.00  0.00     0.049 A 
ATOM     63  C   UNL A   1      41.034  31.795  35.757  1.00  0.00     0.074 A 
ATOM     64  C   UNL A   1      42.690  27.481  31.416  1.00  0.00     0.029 A 
ATOM     65  N   UNL A   1      41.697  29.124  32.536  1.00  0.00    -0.354 N 
ATOM     66  N   UNL A   1      41.294  30.928  34.808  1.00  0.00    -0.248 NA
ATOM     67  C   UNL A   1      41.883  31.663  36.950  1.00  0.00     0.031 C 
ATOM     68  C   UNL A   1      43.292  27.583  32.678  1.00  0.00     0.029 A 
ATOM     69  C   UNL A   1      42.683  28.617  33.369  1.00  0.00     0.049 A 
ATOM     70  H   UNL A   1      41.092  29.865  32.766  1.00  0.00     0.167 HD
ATOM     71  C   UNL A   1      42.342  30.150  35.287  1.00  0.00     0.074 A 
ATOM     72  C   UNL A   1      42.668  30.652  36.607  1.00  0.00     0.031 C 
ATOM     73  C   UNL A   1      42.982  29.119  34.685  1.00  0.00     0.034 A 
BRANCH  60  74
ATOM     74  C   UNL A   1      40.799  27.783  29.045  1.00  0.00     0.023 A 
ATOM     75  C   UNL A   1      41.753  27.902  28.021  1.00  0.00     0.031 A 
ATOM     76  C   UNL A   1      39.790  26.809  28.908  1.00  0.00     0.131 A 
ATOM     77  C   UNL A   1      41.629  27.122  26.862  1.00  0.00     0.055 A 
ATOM     78  C   UNL A   1      39.717  25.982  27.785  1.00  0.00     0.041 A 
ATOM     79  F   UNL A   1      38.845  26.666  29.850  1.00  0.00    -0.206 F 
ATOM     80  C   UNL A   1      40.630  26.148  26.746  1.00  0.00     0.022 A 
BRANCH  77  81
ATOM     81  S   UNL A   1      42.708  27.498  25.451  1.00  0.00     0.124 S 
ATOM     82  O   UNL A   1      42.655  26.245  24.699  1.00  0.00    -0.237 OA
ATOM     83  O   UNL A   1      42.042  28.640  24.835  1.00  0.00    -0.237 OA
ATOM     84  O   UNL A   1      43.997  27.788  26.075  1.00  0.00    -0.744 OA
ENDBRANCH  77  81
ENDBRANCH  60  74
BRANCH  61  85
ATOM     85  C   UNL A   1      39.775  33.676  37.019  1.00  0.00     0.023 A 
ATOM     86  C   UNL A   1      39.080  33.134  38.112  1.00  0.00     0.031 A 
ATOM     87  C   UNL A   1      40.254  34.995  37.107  1.00  0.00     0.131 A 
ATOM     88  C   UNL A   1      38.859  33.920  39.252  1.00  0.00     0.055 A 
ATOM     89  C   UNL A   1      40.050  35.768  38.250  1.00  0.00     0.041 A 
ATOM     90  F   UNL A   1      40.936  35.542  36.087  1.00  0.00    -0.206 F 
ATOM     91  C   UNL A   1      39.344  35.232  39.329  1.00  0.00     0.022 A 
BRANCH  88  92
ATOM     92  S   UNL A   1      37.900  33.206  40.627  1.00  0.00     0.124 S 
ATOM     93  O   UNL A   1      37.988  34.255  41.637  1.00  0.00    -0.237 OA
ATOM     94  O   UNL A   1      36.587  33.016  40.017  1.00  0.00    -0.237 OA
ATOM     95  O   UNL A   1      38.620  31.975  40.942  1.00  0.00    -0.744 OA
ENDBRANCH  88  92
ENDBRANCH  61  85
BRANCH  73  96
ATOM     96  C   UNL A   1      44.118  28.499  35.448  1.00  0.00     0.023 A 
ATOM     97  C   UNL A   1      45.430  28.994  35.331  1.00  0.00     0.031 A 
ATOM     98  C   UNL A   1      43.885  27.384  36.273  1.00  0.00     0.131 A 
ATOM     99  C   UNL A   1      46.474  28.349  36.008  1.00  0.00     0.055 A 
ATOM    100  C   UNL A   1      44.924  26.761  36.964  1.00  0.00     0.041 A 
ATOM    101  F   UNL A   1      42.647  26.880  36.406  1.00  0.00    -0.206 F 
ATOM    102  C   UNL A   1      46.227  27.239  36.828  1.00  0.00     0.022 A 
BRANCH  99 103
ATOM    103  S   UNL A   1      48.173  28.955  35.773  1.00  0.00     0.124 S 
ATOM    104  O   UNL A   1      48.576  29.275  37.139  1.00  0.00    -0.237 OA
ATOM    105  O   UNL A   1      48.838  27.806  35.166  1.00  0.00    -0.237 OA
ATOM    106  O   UNL A   1      48.007  30.108  34.890  1.00  0.00    -0.744 OA
ENDBRANCH  99 103
ENDBRANCH  73  96
ENDBRANCH  47  48
ENDBRANCH  39  42
ENDBRANCH  37  38
ENDBRANCH  36  37
ENDBRANCH   1  36
TORSDOF 18
ENDMDL
MODEL 3
REMARK VINA RESULT:     -12.6      4.742      8.669
REMARK SMILES CC1(C)S[C@H]2[C@H](NC(=O)[C@H](NN3CCNC3=O)c3ccccc3)C(=O)N2[C@H]1C(=O)NCCCNC(=O)c1ccc(-c2c3nc(c(-c4cc(S(=O)(=O)[O-])ccc4F)c4ccc([nH]4)c(-c4cc(S(=O)(=O)[O-])ccc4F)c4nc(c(-c5cc(S(=O)(=O)[O-])ccc5F)c5ccc2[nH]5)C=C4)C=C3)cc1
REMARK SMILES IDX 31 1 30 2 28 3 29 4 27 6 1 7 2 8 3 9 4 10 5 11 26 12 6 13
REMARK SMILES IDX 24 14 25 15 7 16 8 17 9 19 10 20 18 21 19 22 23 23 20 24
REMARK SMILES IDX 22 25 21 26 11 27 12 29 13 30 16 31 14 32 15 33 17 34 32 36
REMARK SMILES IDX 33 37 34 38 35 39 36 41 37 42 38 43 99 44 39 45 98 46 40 47
REMARK SMILES IDX 41 48 42 49 92 50 43 51 97 52 91 53 93 54 44 55 96 56 90 57
REMARK SMILES IDX 89 58 45 60 77 61 57 62 76 63 58 64 61 65 75 66 94 67 59 68
REMARK SMILES IDX 60 69 74 71 95 72 62 73 46 74 47 75 55 76 48 77 54 78 56 79
REMARK SMILES IDX 53 80 49 81 50 82 51 83 52 84 78 85 79 86 87 87 80 88 86 89
REMARK SMILES IDX 88 90 85 91 81 92 82 93 83 94 84 95 63 96 64 97 72 98 65 99
REMARK SMILES IDX 71 100 73 101 70 102 66 103 67 104 68 105 69 106
REMARK H PARENT 30 5 7 18 11 28 15 35 34 40 93 59 61 70
REMARK Flexibility Score: inf
ROOT
ATOM      1  C   UNL A   1      32.708  28.530  24.629  1.00  0.00     0.117 C 
ENDROOT
BRANCH   1   2
ATOM      2  N   UNL A   1      31.685  28.675  23.599  1.00  0.00    -0.354 N 
ATOM      3  C   UNL A   1      30.944  27.782  22.890  1.00  0.00     0.244 C 
ATOM      4  O   UNL A   1      30.177  28.268  22.047  1.00  0.00    -0.273 OA
ATOM      5  H   UNL A   1      31.491  29.613  23.371  1.00  0.00     0.163 HD
BRANCH   3   6
ATOM      6  C   UNL A   1      31.116  26.247  22.949  1.00  0.00     0.191 C 
ATOM      7  C   UNL A   1      32.048  25.516  20.701  1.00  0.00     0.026 C 
ATOM      8  C   UNL A   1      32.353  25.678  22.201  1.00  0.00     0.042 C 
ATOM      9  C   UNL A   1      33.666  26.447  22.349  1.00  0.00     0.026 C 
ATOM     10  S   UNL A   1      32.656  23.986  22.904  1.00  0.00    -0.125 SA
ATOM     11  C   UNL A   1      31.531  24.186  24.316  1.00  0.00     0.176 C 
ATOM     12  N   UNL A   1      30.898  25.501  24.182  1.00  0.00    -0.313 N 
ATOM     13  C   UNL A   1      32.190  24.718  25.615  1.00  0.00     0.205 C 
ATOM     14  C   UNL A   1      31.133  25.848  25.468  1.00  0.00     0.249 C 
ATOM     15  O   UNL A   1      30.723  26.764  26.139  1.00  0.00    -0.272 OA
BRANCH  13  16
ATOM     16  N   UNL A   1      32.063  23.866  26.816  1.00  0.00    -0.340 N 
ATOM     17  C   UNL A   1      32.613  22.620  27.032  1.00  0.00     0.244 C 
ATOM     18  H   UNL A   1      31.520  24.232  27.551  1.00  0.00     0.164 HD
ATOM     19  O   UNL A   1      32.480  22.144  28.163  1.00  0.00    -0.273 OA
BRANCH  17  20
ATOM     20  C   UNL A   1      33.380  21.913  25.872  1.00  0.00     0.194 C 
BRANCH  20  21
ATOM     21  C   UNL A   1      34.768  22.498  25.580  1.00  0.00    -0.020 A 
ATOM     22  C   UNL A   1      35.470  23.280  26.514  1.00  0.00     0.006 A 
ATOM     23  C   UNL A   1      35.385  22.251  24.336  1.00  0.00     0.006 A 
ATOM     24  C   UNL A   1      36.742  23.785  26.215  1.00  0.00     0.000 A 
ATOM     25  C   UNL A   1      36.661  22.749  24.042  1.00  0.00     0.000 A 
ATOM     26  C   UNL A   1      37.339  23.518  24.983  1.00  0.00     0.000 A 
ENDBRANCH  20  21
BRANCH  20  27
ATOM     27  N   UNL A   1      33.308  20.443  26.094  1.00  0.00    -0.213 NA
ATOM     28  H   UNL A   1      32.726  20.275  26.915  1.00  0.00     0.149 HD
BRANCH  27  29
ATOM     29  N   UNL A   1      32.774  19.710  25.022  1.00  0.00    -0.257 N 
ATOM     30  C   UNL A   1      32.590  20.209  23.684  1.00  0.00     0.163 C 
ATOM     31  C   UNL A   1      32.667  18.310  25.073  1.00  0.00     0.331 C 
ATOM     32  C   UNL A   1      32.062  18.989  22.928  1.00  0.00     0.141 C 
ATOM     33  N   UNL A   1      32.291  17.878  23.814  1.00  0.00    -0.335 N 
ATOM     34  O   UNL A   1      32.885  17.602  26.042  1.00  0.00    -0.247 OA
ATOM     35  H   UNL A   1      32.192  16.933  23.557  1.00  0.00     0.165 HD
ENDBRANCH  27  29
ENDBRANCH  20  27
ENDBRANCH  17  20
ENDBRANCH  13  16
ENDBRANCH   3   6
ENDBRANCH   1   2
BRANCH   1  36
ATOM     36  C   UNL A   1      32.535  29.518  25.779  1.00  0.00     0.042 C 
BRANCH  36  37
ATOM     37  C   UNL A   1      33.841  29.844  26.495  1.00  0.00     0.118 C 
BRANCH  37  38
ATOM     38  N   UNL A   1      33.841  31.186  27.063  1.00  0.00    -0.352 N 
ATOM     39  C   UNL A   1      34.617  31.755  28.045  1.00  0.00     0.251 C 
ATOM     40  H   UNL A   1      33.169  31.790  26.674  1.00  0.00     0.163 HD
ATOM     41  O   UNL A   1      34.274  32.842  28.507  1.00  0.00    -0.269 OA
BRANCH  39  42
ATOM     42  C   UNL A   1      35.830  31.084  28.580  1.00  0.00     0.039 A 
ATOM     43  C   UNL A   1      35.665  29.991  29.443  1.00  0.00     0.014 A 
ATOM     44  C   UNL A   1      37.117  31.554  28.319  1.00  0.00     0.014 A 
ATOM     45  C   UNL A   1      36.783  29.339  29.981  1.00  0.00     0.010 A 
ATOM     46  C   UNL A   1      38.231  30.855  28.789  1.00  0.00     0.010 A 
ATOM     47  C   UNL A   1      38.079  29.743  29.631  1.00  0.00    -0.014 A 
BRANCH  47  48
ATOM     48  C   UNL A   1      39.293  29.055  30.153  1.00  0.00     0.031 A 
ATOM     49  C   UNL A   1      39.978  29.576  31.390  1.00  0.00     0.074 A 
ATOM     50  C   UNL A   1      39.845  28.035  29.466  1.00  0.00     0.049 A 
ATOM     51  N   UNL A   1      41.160  29.283  31.872  1.00  0.00    -0.248 NA
ATOM     52  C   UNL A   1      39.253  30.599  32.157  1.00  0.00     0.031 C 
ATOM     53  C   UNL A   1      39.314  27.450  28.233  1.00  0.00     0.029 A 
ATOM     54  N   UNL A   1      40.996  27.326  29.700  1.00  0.00    -0.354 N 
ATOM     55  C   UNL A   1      41.352  30.138  32.953  1.00  0.00     0.074 A 
ATOM     56  C   UNL A   1      40.163  30.962  33.048  1.00  0.00     0.031 C 
ATOM     57  C   UNL A   1      40.132  26.467  27.825  1.00  0.00     0.029 A 
ATOM     58  C   UNL A   1      41.264  26.380  28.740  1.00  0.00     0.049 A 
ATOM     59  H   UNL A   1      41.574  27.479  30.482  1.00  0.00     0.167 HD
ATOM     60  C   UNL A   1      42.420  30.232  33.785  1.00  0.00     0.034 A 
ATOM     61  C   UNL A   1      42.317  25.553  28.595  1.00  0.00     0.034 A 
ATOM     62  C   UNL A   1      43.563  29.352  33.740  1.00  0.00     0.049 A 
ATOM     63  C   UNL A   1      43.444  25.605  29.586  1.00  0.00     0.074 A 
ATOM     64  C   UNL A   1      44.649  29.297  34.598  1.00  0.00     0.029 A 
ATOM     65  N   UNL A   1      43.758  28.359  32.791  1.00  0.00    -0.354 N 
ATOM     66  N   UNL A   1      43.617  26.427  30.593  1.00  0.00    -0.248 NA
ATOM     67  C   UNL A   1      44.521  24.620  29.414  1.00  0.00     0.031 C 
ATOM     68  C   UNL A   1      45.512  28.285  34.154  1.00  0.00     0.029 A 
ATOM     69  C   UNL A   1      44.948  27.691  33.037  1.00  0.00     0.049 A 
ATOM     70  H   UNL A   1      43.143  28.158  32.050  1.00  0.00     0.167 HD
ATOM     71  C   UNL A   1      44.821  26.054  31.180  1.00  0.00     0.074 A 
ATOM     72  C   UNL A   1      45.330  24.932  30.417  1.00  0.00     0.031 C 
ATOM     73  C   UNL A   1      45.446  26.587  32.257  1.00  0.00     0.034 A 
BRANCH  60  74
ATOM     74  C   UNL A   1      42.411  31.357  34.787  1.00  0.00     0.023 A 
ATOM     75  C   UNL A   1      42.852  32.649  34.453  1.00  0.00     0.031 A 
ATOM     76  C   UNL A   1      42.012  31.111  36.115  1.00  0.00     0.131 A 
ATOM     77  C   UNL A   1      42.969  33.623  35.455  1.00  0.00     0.055 A 
ATOM     78  C   UNL A   1      42.058  32.107  37.092  1.00  0.00     0.041 A 
ATOM     79  F   UNL A   1      41.598  29.890  36.490  1.00  0.00    -0.206 F 
ATOM     80  C   UNL A   1      42.556  33.367  36.768  1.00  0.00     0.022 A 
BRANCH  77  81
ATOM     81  S   UNL A   1      43.802  35.184  35.046  1.00  0.00     0.124 S 
ATOM     82  O   UNL A   1      42.922  36.162  35.684  1.00  0.00    -0.237 OA
ATOM     83  O   UNL A   1      45.115  35.014  35.656  1.00  0.00    -0.237 OA
ATOM     84  O   UNL A   1      43.788  35.205  33.585  1.00  0.00    -0.744 OA
ENDBRANCH  77  81
ENDBRANCH  60  74
BRANCH  61  85
ATOM     85  C   UNL A   1      42.371  24.615  27.445  1.00  0.00     0.023 A 
ATOM     86  C   UNL A   1      41.684  23.391  27.489  1.00  0.00     0.031 A 
ATOM     87  C   UNL A   1      43.120  24.931  26.297  1.00  0.00     0.131 A 
ATOM     88  C   UNL A   1      41.775  22.506  26.406  1.00  0.00     0.055 A 
ATOM     89  C   UNL A   1      43.193  24.057  25.213  1.00  0.00     0.041 A 
ATOM     90  F   UNL A   1      43.778  26.099  26.214  1.00  0.00    -0.206 F 
ATOM     91  C   UNL A   1      42.522  22.833  25.267  1.00  0.00     0.022 A 
BRANCH  88  92
ATOM     92  S   UNL A   1      40.921  20.900  26.523  1.00  0.00     0.124 S 
ATOM     93  O   UNL A   1      39.636  21.192  25.897  1.00  0.00    -0.237 OA
ATOM     94  O   UNL A   1      41.813  20.024  25.770  1.00  0.00    -0.237 OA
ATOM     95  O   UNL A   1      40.871  20.645  27.960  1.00  0.00    -0.744 OA
ENDBRANCH  88  92
ENDBRANCH  61  85
BRANCH  73  96
ATOM     96  C   UNL A   1      46.728  25.929  32.681  1.00  0.00     0.023 A 
ATOM     97  C   UNL A   1      47.945  26.227  32.044  1.00  0.00     0.031 A 
ATOM     98  C   UNL A   1      46.719  24.973  33.712  1.00  0.00     0.131 A 
ATOM     99  C   UNL A   1      49.110  25.545  32.424  1.00  0.00     0.055 A 
ATOM    100  C   UNL A   1      47.884  24.314  34.103  1.00  0.00     0.041 A 
ATOM    101  F   UNL A   1      45.575  24.658  34.341  1.00  0.00    -0.206 F 
ATOM    102  C   UNL A   1      49.086  24.595  33.454  1.00  0.00     0.022 A 
BRANCH  99 103
ATOM    103  S   UNL A   1      50.655  25.886  31.526  1.00  0.00     0.124 S 
ATOM    104  O   UNL A   1      51.160  27.064  32.224  1.00  0.00    -0.237 OA
ATOM    105  O   UNL A   1      51.413  24.655  31.723  1.00  0.00    -0.237 OA
ATOM    106  O   UNL A   1      50.209  26.123  30.154  1.00  0.00    -0.744 OA
ENDBRANCH  99 103
ENDBRANCH  73  96
ENDBRANCH  47  48
ENDBRANCH  39  42
ENDBRANCH  37  38
ENDBRANCH  36  37
ENDBRANCH   1  36
TORSDOF 18
ENDMDL
