MODEL 1
REMARK VINA RESULT:     -12.1      0.000      0.000
REMARK SMILES COc1ccc(F)c(-n2nnc3cc(C(=O)NCCCNC(=O)c4ccc(-c5c6nc(c(-c7cc(S(=O)(=O)[O-])ccc7F)c7ccc([nH]7)c(-c7cc(S(=O)(=O)[O-])ccc7F)c7nc(c(-c8cc(S(=O)(=O)[O-])ccc8F)c8ccc5[nH]8)C=C7)C=C6)cc4)ccc32)c1
REMARK SMILES IDX 19 1 18 2 17 3 15 4 16 5 14 7 9 8 10 9 89 10 11 11 12 12
REMARK SMILES IDX 88 13 13 14 87 15 8 16 3 17 4 18 90 19 5 20 6 21 7 22 2 23
REMARK SMILES IDX 1 24 20 25 21 26 22 27 23 29 24 30 25 31 86 32 26 33 85 34
REMARK SMILES IDX 27 35 28 36 29 37 79 38 30 39 84 40 78 41 80 42 31 43 83 44
REMARK SMILES IDX 77 45 76 46 32 48 64 49 44 50 63 51 45 52 48 53 62 54 81 55
REMARK SMILES IDX 46 56 47 57 61 59 82 60 49 61 33 62 34 63 42 64 35 65 41 66
REMARK SMILES IDX 43 67 40 68 36 69 37 70 38 71 39 72 65 73 66 74 74 75 67 76
REMARK SMILES IDX 73 77 75 78 72 79 68 80 69 81 70 82 71 83 50 84 51 85 59 86
REMARK SMILES IDX 52 87 58 88 60 89 57 90 53 91 54 92 55 93 56 94
REMARK H PARENT 17 6 21 28 80 47 48 58
REMARK Flexibility Score: inf
ROOT
ATOM      1  C   UNL A   1      34.479  35.699  28.673  1.00  0.00     0.042 C 
ENDROOT
BRANCH   1   2
ATOM      2  C   UNL A   1      33.039  35.315  29.030  1.00  0.00     0.118 C 
BRANCH   2   3
ATOM      3  N   UNL A   1      32.592  35.987  30.242  1.00  0.00    -0.352 N 
ATOM      4  C   UNL A   1      32.982  35.960  31.555  1.00  0.00     0.251 C 
ATOM      5  O   UNL A   1      32.382  36.716  32.323  1.00  0.00    -0.269 OA
ATOM      6  H   UNL A   1      31.839  36.602  30.081  1.00  0.00     0.163 HD
BRANCH   4   7
ATOM      7  C   UNL A   1      34.088  35.117  32.099  1.00  0.00     0.042 A 
ATOM      8  N   UNL A   1      36.815  32.314  33.390  1.00  0.00    -0.210 N 
ATOM      9  N   UNL A   1      36.473  31.261  32.610  1.00  0.00    -0.061 NA
ATOM     10  C   UNL A   1      36.033  33.409  33.088  1.00  0.00     0.095 A 
ATOM     11  N   UNL A   1      35.341  31.575  31.985  1.00  0.00    -0.130 NA
ATOM     12  C   UNL A   1      35.068  32.894  32.240  1.00  0.00     0.114 A 
ATOM     13  C   UNL A   1      36.123  34.765  33.408  1.00  0.00     0.031 A 
ATOM     14  C   UNL A   1      34.052  33.742  31.772  1.00  0.00     0.046 A 
ATOM     15  C   UNL A   1      35.158  35.610  32.852  1.00  0.00     0.016 A 
BRANCH   8  16
ATOM     16  C   UNL A   1      37.907  32.291  34.263  1.00  0.00     0.106 A 
ATOM     17  C   UNL A   1      38.783  32.080  36.497  1.00  0.00     0.121 A 
ATOM     18  C   UNL A   1      40.071  31.931  35.967  1.00  0.00     0.049 A 
ATOM     19  C   UNL A   1      37.696  32.282  35.643  1.00  0.00     0.078 A 
ATOM     20  C   UNL A   1      40.276  31.988  34.585  1.00  0.00     0.045 A 
ATOM     21  C   UNL A   1      39.191  32.154  33.738  1.00  0.00     0.149 A 
ATOM     22  F   UNL A   1      39.401  32.215  32.416  1.00  0.00    -0.205 F 
BRANCH  17  23
ATOM     23  O   UNL A   1      38.456  31.956  37.818  1.00  0.00    -0.497 OA
ATOM     24  C   UNL A   1      38.907  32.998  38.672  1.00  0.00     0.278 C 
ENDBRANCH  17  23
ENDBRANCH   8  16
ENDBRANCH   4   7
ENDBRANCH   2   3
ENDBRANCH   1   2
BRANCH   1  25
ATOM     25  C   UNL A   1      35.342  34.491  28.298  1.00  0.00     0.118 C 
BRANCH  25  26
ATOM     26  N   UNL A   1      34.579  33.284  28.044  1.00  0.00    -0.352 N 
ATOM     27  C   UNL A   1      34.797  31.942  28.182  1.00  0.00     0.251 C 
ATOM     28  H   UNL A   1      33.684  33.479  27.683  1.00  0.00     0.163 HD
ATOM     29  O   UNL A   1      33.849  31.217  27.863  1.00  0.00    -0.269 OA
BRANCH  27  30
ATOM     30  C   UNL A   1      36.069  31.308  28.626  1.00  0.00     0.039 A 
ATOM     31  C   UNL A   1      37.225  31.980  29.027  1.00  0.00     0.014 A 
ATOM     32  C   UNL A   1      36.087  29.900  28.600  1.00  0.00     0.014 A 
ATOM     33  C   UNL A   1      38.395  31.270  29.291  1.00  0.00     0.010 A 
ATOM     34  C   UNL A   1      37.247  29.187  28.882  1.00  0.00     0.010 A 
ATOM     35  C   UNL A   1      38.418  29.878  29.173  1.00  0.00    -0.014 A 
BRANCH  35  36
ATOM     36  C   UNL A   1      39.677  29.176  29.416  1.00  0.00     0.031 A 
ATOM     37  C   UNL A   1      40.057  29.000  30.848  1.00  0.00     0.074 A 
ATOM     38  C   UNL A   1      40.410  28.616  28.430  1.00  0.00     0.049 A 
ATOM     39  N   UNL A   1      41.100  29.455  31.461  1.00  0.00    -0.248 NA
ATOM     40  C   UNL A   1      39.108  28.301  31.728  1.00  0.00     0.031 C 
ATOM     41  C   UNL A   1      40.065  28.469  27.013  1.00  0.00     0.029 A 
ATOM     42  N   UNL A   1      41.602  27.961  28.520  1.00  0.00    -0.354 N 
ATOM     43  C   UNL A   1      41.040  28.957  32.762  1.00  0.00     0.074 A 
ATOM     44  C   UNL A   1      39.735  28.363  32.904  1.00  0.00     0.031 C 
ATOM     45  C   UNL A   1      40.907  27.580  26.436  1.00  0.00     0.029 A 
ATOM     46  C   UNL A   1      41.931  27.208  27.398  1.00  0.00     0.049 A 
ATOM     47  H   UNL A   1      42.181  28.017  29.314  1.00  0.00     0.167 HD
ATOM     48  C   UNL A   1      42.129  28.919  33.581  1.00  0.00     0.034 A 
ATOM     49  C   UNL A   1      42.939  26.301  27.291  1.00  0.00     0.034 A 
ATOM     50  C   UNL A   1      43.178  29.790  33.121  1.00  0.00     0.049 A 
ATOM     51  C   UNL A   1      43.944  26.666  28.321  1.00  0.00     0.074 A 
ATOM     52  C   UNL A   1      43.291  31.154  32.930  1.00  0.00     0.029 A 
ATOM     53  N   UNL A   1      44.221  29.237  32.416  1.00  0.00    -0.354 N 
ATOM     54  N   UNL A   1      44.608  27.790  28.310  1.00  0.00    -0.248 NA
ATOM     55  C   UNL A   1      43.872  25.997  29.609  1.00  0.00     0.031 C 
ATOM     56  C   UNL A   1      44.044  31.294  31.728  1.00  0.00     0.029 A 
ATOM     57  C   UNL A   1      44.397  30.013  31.295  1.00  0.00     0.049 A 
ATOM     58  H   UNL A   1      44.741  28.441  32.667  1.00  0.00     0.167 HD
ATOM     59  C   UNL A   1      44.667  28.181  29.639  1.00  0.00     0.074 A 
ATOM     60  C   UNL A   1      44.273  26.996  30.400  1.00  0.00     0.031 C 
ATOM     61  C   UNL A   1      44.767  29.495  29.993  1.00  0.00     0.034 A 
BRANCH  48  62
ATOM     62  C   UNL A   1      42.354  27.886  34.657  1.00  0.00     0.023 A 
ATOM     63  C   UNL A   1      43.072  26.715  34.344  1.00  0.00     0.031 A 
ATOM     64  C   UNL A   1      41.667  27.881  35.892  1.00  0.00     0.131 A 
ATOM     65  C   UNL A   1      43.057  25.607  35.214  1.00  0.00     0.055 A 
ATOM     66  C   UNL A   1      41.702  26.802  36.778  1.00  0.00     0.041 A 
ATOM     67  F   UNL A   1      40.851  28.880  36.255  1.00  0.00    -0.206 F 
ATOM     68  C   UNL A   1      42.383  25.648  36.432  1.00  0.00     0.022 A 
BRANCH  65  69
ATOM     69  S   UNL A   1      43.823  24.054  34.670  1.00  0.00     0.124 S 
ATOM     70  O   UNL A   1      42.657  23.239  34.349  1.00  0.00    -0.237 OA
ATOM     71  O   UNL A   1      44.632  24.495  33.538  1.00  0.00    -0.237 OA
ATOM     72  O   UNL A   1      44.580  23.621  35.842  1.00  0.00    -0.744 OA
ENDBRANCH  65  69
ENDBRANCH  48  62
BRANCH  49  73
ATOM     73  C   UNL A   1      42.881  24.956  26.646  1.00  0.00     0.023 A 
ATOM     74  C   UNL A   1      43.932  24.462  25.841  1.00  0.00     0.031 A 
ATOM     75  C   UNL A   1      41.895  24.020  27.035  1.00  0.00     0.131 A 
ATOM     76  C   UNL A   1      43.970  23.097  25.470  1.00  0.00     0.055 A 
ATOM     77  C   UNL A   1      41.936  22.674  26.662  1.00  0.00     0.041 A 
ATOM     78  F   UNL A   1      40.902  24.358  27.869  1.00  0.00    -0.206 F 
ATOM     79  C   UNL A   1      42.983  22.202  25.887  1.00  0.00     0.022 A 
BRANCH  76  80
ATOM     80  S   UNL A   1      45.387  22.426  24.539  1.00  0.00     0.124 S 
ATOM     81  O   UNL A   1      45.924  23.625  23.899  1.00  0.00    -0.237 OA
ATOM     82  O   UNL A   1      46.205  21.831  25.584  1.00  0.00    -0.237 OA
ATOM     83  O   UNL A   1      44.767  21.467  23.624  1.00  0.00    -0.744 OA
ENDBRANCH  76  80
ENDBRANCH  49  73
BRANCH  61  84
ATOM     84  C   UNL A   1      45.081  30.517  28.918  1.00  0.00     0.023 A 
ATOM     85  C   UNL A   1      46.382  30.945  28.561  1.00  0.00     0.031 A 
ATOM     86  C   UNL A   1      44.007  30.955  28.125  1.00  0.00     0.131 A 
ATOM     87  C   UNL A   1      46.563  31.783  27.438  1.00  0.00     0.055 A 
ATOM     88  C   UNL A   1      44.193  31.771  27.010  1.00  0.00     0.041 A 
ATOM     89  F   UNL A   1      42.754  30.555  28.396  1.00  0.00    -0.206 F 
ATOM     90  C   UNL A   1      45.471  32.190  26.663  1.00  0.00     0.022 A 
BRANCH  87  91
ATOM     91  S   UNL A   1      48.230  32.336  26.942  1.00  0.00     0.124 S 
ATOM     92  O   UNL A   1      48.746  32.976  28.146  1.00  0.00    -0.237 OA
ATOM     93  O   UNL A   1      48.882  31.089  26.545  1.00  0.00    -0.237 OA
ATOM     94  O   UNL A   1      47.972  33.254  25.829  1.00  0.00    -0.744 OA
ENDBRANCH  87  91
ENDBRANCH  61  84
ENDBRANCH  35  36
ENDBRANCH  27  30
ENDBRANCH  25  26
ENDBRANCH   1  25
TORSDOF 15
ENDMDL
MODEL 2
REMARK VINA RESULT:     -12.1      4.578      7.424
REMARK SMILES COc1ccc(F)c(-n2nnc3cc(C(=O)NCCCNC(=O)c4ccc(-c5c6nc(c(-c7cc(S(=O)(=O)[O-])ccc7F)c7ccc([nH]7)c(-c7cc(S(=O)(=O)[O-])ccc7F)c7nc(c(-c8cc(S(=O)(=O)[O-])ccc8F)c8ccc5[nH]8)C=C7)C=C6)cc4)ccc32)c1
REMARK SMILES IDX 19 1 18 2 17 3 15 4 16 5 14 7 9 8 10 9 89 10 11 11 12 12
REMARK SMILES IDX 88 13 13 14 87 15 8 16 3 17 4 18 90 19 5 20 6 21 7 22 2 23
REMARK SMILES IDX 1 24 20 25 21 26 22 27 23 29 24 30 25 31 86 32 26 33 85 34
REMARK SMILES IDX 27 35 28 36 29 37 79 38 30 39 84 40 78 41 80 42 31 43 83 44
REMARK SMILES IDX 77 45 76 46 32 48 64 49 44 50 63 51 45 52 48 53 62 54 81 55
REMARK SMILES IDX 46 56 47 57 61 59 82 60 49 61 33 62 34 63 42 64 35 65 41 66
REMARK SMILES IDX 43 67 40 68 36 69 37 70 38 71 39 72 65 73 66 74 74 75 67 76
REMARK SMILES IDX 73 77 75 78 72 79 68 80 69 81 70 82 71 83 50 84 51 85 59 86
REMARK SMILES IDX 52 87 58 88 60 89 57 90 53 91 54 92 55 93 56 94
REMARK H PARENT 17 6 21 28 80 47 48 58
REMARK Flexibility Score: inf
ROOT
ATOM      1  C   UNL A   1      31.853  29.133  26.465  1.00  0.00     0.042 C 
ENDROOT
BRANCH   1   2
ATOM      2  C   UNL A   1      31.921  29.655  25.026  1.00  0.00     0.118 C 
BRANCH   2   3
ATOM      3  N   UNL A   1      30.734  29.285  24.267  1.00  0.00    -0.352 N 
ATOM      4  C   UNL A   1      30.303  28.135  23.659  1.00  0.00     0.251 C 
ATOM      5  O   UNL A   1      29.192  28.178  23.124  1.00  0.00    -0.269 OA
ATOM      6  H   UNL A   1      30.097  30.029  24.169  1.00  0.00     0.163 HD
BRANCH   4   7
ATOM      7  C   UNL A   1      31.060  26.848  23.631  1.00  0.00     0.042 A 
ATOM      8  N   UNL A   1      33.161  23.373  22.945  1.00  0.00    -0.210 N 
ATOM      9  N   UNL A   1      33.653  23.623  21.708  1.00  0.00    -0.061 NA
ATOM     10  C   UNL A   1      32.437  24.454  23.402  1.00  0.00     0.095 A 
ATOM     11  N   UNL A   1      33.071  24.734  21.262  1.00  0.00    -0.130 NA
ATOM     12  C   UNL A   1      32.345  25.275  22.291  1.00  0.00     0.114 A 
ATOM     13  C   UNL A   1      31.938  24.809  24.656  1.00  0.00     0.031 A 
ATOM     14  C   UNL A   1      31.610  26.467  22.385  1.00  0.00     0.046 A 
ATOM     15  C   UNL A   1      31.294  26.046  24.752  1.00  0.00     0.016 A 
BRANCH   8  16
ATOM     16  C   UNL A   1      33.485  22.225  23.674  1.00  0.00     0.106 A 
ATOM     17  C   UNL A   1      33.007  19.947  24.294  1.00  0.00     0.121 A 
ATOM     18  C   UNL A   1      34.281  19.845  24.866  1.00  0.00     0.049 A 
ATOM     19  C   UNL A   1      32.596  21.149  23.712  1.00  0.00     0.078 A 
ATOM     20  C   UNL A   1      35.145  20.944  24.863  1.00  0.00     0.045 A 
ATOM     21  C   UNL A   1      34.748  22.126  24.254  1.00  0.00     0.149 A 
ATOM     22  F   UNL A   1      35.582  23.174  24.264  1.00  0.00    -0.205 F 
BRANCH  17  23
ATOM     23  O   UNL A   1      32.118  18.917  24.164  1.00  0.00    -0.497 OA
ATOM     24  C   UNL A   1      32.490  17.691  24.778  1.00  0.00     0.278 C 
ENDBRANCH  17  23
ENDBRANCH   8  16
ENDBRANCH   4   7
ENDBRANCH   2   3
ENDBRANCH   1   2
BRANCH   1  25
ATOM     25  C   UNL A   1      33.192  29.234  27.200  1.00  0.00     0.118 C 
BRANCH  25  26
ATOM     26  N   UNL A   1      33.509  30.575  27.653  1.00  0.00    -0.352 N 
ATOM     27  C   UNL A   1      34.643  31.235  28.034  1.00  0.00     0.251 C 
ATOM     28  H   UNL A   1      32.712  31.152  27.696  1.00  0.00     0.163 HD
ATOM     29  O   UNL A   1      34.486  32.423  28.338  1.00  0.00    -0.269 OA
BRANCH  27  30
ATOM     30  C   UNL A   1      36.001  30.636  28.155  1.00  0.00     0.039 A 
ATOM     31  C   UNL A   1      36.365  29.345  27.770  1.00  0.00     0.014 A 
ATOM     32  C   UNL A   1      36.979  31.461  28.743  1.00  0.00     0.014 A 
ATOM     33  C   UNL A   1      37.638  28.857  28.061  1.00  0.00     0.010 A 
ATOM     34  C   UNL A   1      38.256  30.985  29.017  1.00  0.00     0.010 A 
ATOM     35  C   UNL A   1      38.567  29.662  28.726  1.00  0.00    -0.014 A 
BRANCH  35  36
ATOM     36  C   UNL A   1      39.876  29.097  29.051  1.00  0.00     0.031 A 
ATOM     37  C   UNL A   1      40.181  28.960  30.505  1.00  0.00     0.074 A 
ATOM     38  C   UNL A   1      40.725  28.621  28.116  1.00  0.00     0.049 A 
ATOM     39  N   UNL A   1      41.128  29.522  31.182  1.00  0.00    -0.248 NA
ATOM     40  C   UNL A   1      39.257  28.161  31.327  1.00  0.00     0.031 C 
ATOM     41  C   UNL A   1      40.489  28.441  26.681  1.00  0.00     0.029 A 
ATOM     42  N   UNL A   1      41.972  28.097  28.285  1.00  0.00    -0.354 N 
ATOM     43  C   UNL A   1      41.038  29.018  32.478  1.00  0.00     0.074 A 
ATOM     44  C   UNL A   1      39.799  28.287  32.540  1.00  0.00     0.031 C 
ATOM     45  C   UNL A   1      41.456  27.648  26.163  1.00  0.00     0.029 A 
ATOM     46  C   UNL A   1      42.450  27.385  27.189  1.00  0.00     0.049 A 
ATOM     47  H   UNL A   1      42.491  28.212  29.114  1.00  0.00     0.167 HD
ATOM     48  C   UNL A   1      42.071  29.094  33.365  1.00  0.00     0.034 A 
ATOM     49  C   UNL A   1      43.554  26.592  27.151  1.00  0.00     0.034 A 
ATOM     50  C   UNL A   1      43.049  30.073  32.968  1.00  0.00     0.049 A 
ATOM     51  C   UNL A   1      44.447  27.060  28.240  1.00  0.00     0.074 A 
ATOM     52  C   UNL A   1      43.027  31.442  32.779  1.00  0.00     0.029 A 
ATOM     53  N   UNL A   1      44.187  29.636  32.334  1.00  0.00    -0.354 N 
ATOM     54  N   UNL A   1      44.987  28.248  28.267  1.00  0.00    -0.248 NA
ATOM     55  C   UNL A   1      44.365  26.384  29.525  1.00  0.00     0.031 C 
ATOM     56  C   UNL A   1      43.836  31.664  31.626  1.00  0.00     0.029 A 
ATOM     57  C   UNL A   1      44.350  30.429  31.222  1.00  0.00     0.049 A 
ATOM     58  H   UNL A   1      44.772  28.899  32.620  1.00  0.00     0.167 HD
ATOM     59  C   UNL A   1      44.919  28.640  29.595  1.00  0.00     0.074 A 
ATOM     60  C   UNL A   1      44.606  27.418  30.335  1.00  0.00     0.031 C 
ATOM     61  C   UNL A   1      44.856  29.957  29.949  1.00  0.00     0.034 A 
BRANCH  48  62
ATOM     62  C   UNL A   1      42.337  28.088  34.457  1.00  0.00     0.023 A 
ATOM     63  C   UNL A   1      43.031  26.904  34.145  1.00  0.00     0.031 A 
ATOM     64  C   UNL A   1      41.705  28.123  35.721  1.00  0.00     0.131 A 
ATOM     65  C   UNL A   1      43.047  25.819  35.045  1.00  0.00     0.055 A 
ATOM     66  C   UNL A   1      41.772  27.068  36.635  1.00  0.00     0.041 A 
ATOM     67  F   UNL A   1      40.914  29.138  36.093  1.00  0.00    -0.206 F 
ATOM     68  C   UNL A   1      42.428  25.899  36.290  1.00  0.00     0.022 A 
BRANCH  65  69
ATOM     69  S   UNL A   1      43.775  24.246  34.510  1.00  0.00     0.124 S 
ATOM     70  O   UNL A   1      44.200  24.557  33.151  1.00  0.00    -0.237 OA
ATOM     71  O   UNL A   1      44.840  24.056  35.491  1.00  0.00    -0.237 OA
ATOM     72  O   UNL A   1      42.662  23.304  34.613  1.00  0.00    -0.744 OA
ENDBRANCH  65  69
ENDBRANCH  48  62
BRANCH  49  73
ATOM     73  C   UNL A   1      43.681  25.249  26.510  1.00  0.00     0.023 A 
ATOM     74  C   UNL A   1      42.865  24.158  26.883  1.00  0.00     0.031 A 
ATOM     75  C   UNL A   1      44.435  25.094  25.323  1.00  0.00     0.131 A 
ATOM     76  C   UNL A   1      42.821  22.990  26.084  1.00  0.00     0.055 A 
ATOM     77  C   UNL A   1      44.390  23.937  24.542  1.00  0.00     0.041 A 
ATOM     78  F   UNL A   1      45.175  26.097  24.829  1.00  0.00    -0.206 F 
ATOM     79  C   UNL A   1      43.572  22.882  24.912  1.00  0.00     0.022 A 
BRANCH  76  80
ATOM     80  S   UNL A   1      41.677  21.630  26.489  1.00  0.00     0.124 S 
ATOM     81  O   UNL A   1      42.140  20.569  25.597  1.00  0.00    -0.237 OA
ATOM     82  O   UNL A   1      41.912  21.426  27.911  1.00  0.00    -0.237 OA
ATOM     83  O   UNL A   1      40.364  22.183  26.158  1.00  0.00    -0.744 OA
ENDBRANCH  76  80
ENDBRANCH  49  73
BRANCH  61  84
ATOM     84  C   UNL A   1      45.127  31.009  28.892  1.00  0.00     0.023 A 
ATOM     85  C   UNL A   1      46.411  31.463  28.510  1.00  0.00     0.031 A 
ATOM     86  C   UNL A   1      44.026  31.451  28.138  1.00  0.00     0.131 A 
ATOM     87  C   UNL A   1      46.551  32.330  27.403  1.00  0.00     0.055 A 
ATOM     88  C   UNL A   1      44.170  32.296  27.039  1.00  0.00     0.041 A 
ATOM     89  F   UNL A   1      42.786  31.027  28.434  1.00  0.00    -0.206 F 
ATOM     90  C   UNL A   1      45.433  32.741  26.669  1.00  0.00     0.022 A 
BRANCH  87  91
ATOM     91  S   UNL A   1      48.196  32.919  26.876  1.00  0.00     0.124 S 
ATOM     92  O   UNL A   1      47.896  33.803  25.757  1.00  0.00    -0.237 OA
ATOM     93  O   UNL A   1      48.715  33.559  28.083  1.00  0.00    -0.237 OA
ATOM     94  O   UNL A   1      48.900  31.688  26.505  1.00  0.00    -0.744 OA
ENDBRANCH  87  91
ENDBRANCH  61  84
ENDBRANCH  35  36
ENDBRANCH  27  30
ENDBRANCH  25  26
ENDBRANCH   1  25
TORSDOF 15
ENDMDL
MODEL 3
REMARK VINA RESULT:     -12.0      3.958      6.706
REMARK SMILES COc1ccc(F)c(-n2nnc3cc(C(=O)NCCCNC(=O)c4ccc(-c5c6nc(c(-c7cc(S(=O)(=O)[O-])ccc7F)c7ccc([nH]7)c(-c7cc(S(=O)(=O)[O-])ccc7F)c7nc(c(-c8cc(S(=O)(=O)[O-])ccc8F)c8ccc5[nH]8)C=C7)C=C6)cc4)ccc32)c1
REMARK SMILES IDX 19 1 18 2 17 3 15 4 16 5 14 7 9 8 10 9 89 10 11 11 12 12
REMARK SMILES IDX 88 13 13 14 87 15 8 16 3 17 4 18 90 19 5 20 6 21 7 22 2 23
REMARK SMILES IDX 1 24 20 25 21 26 22 27 23 29 24 30 25 31 86 32 26 33 85 34
REMARK SMILES IDX 27 35 28 36 29 37 79 38 30 39 84 40 78 41 80 42 31 43 83 44
REMARK SMILES IDX 77 45 76 46 32 48 64 49 44 50 63 51 45 52 48 53 62 54 81 55
REMARK SMILES IDX 46 56 47 57 61 59 82 60 49 61 33 62 34 63 42 64 35 65 41 66
REMARK SMILES IDX 43 67 40 68 36 69 37 70 38 71 39 72 65 73 66 74 74 75 67 76
REMARK SMILES IDX 73 77 75 78 72 79 68 80 69 81 70 82 71 83 50 84 51 85 59 86
REMARK SMILES IDX 52 87 58 88 60 89 57 90 53 91 54 92 55 93 56 94
REMARK H PARENT 17 6 21 28 80 47 48 58
REMARK Flexibility Score: inf
ROOT
ATOM      1  C   UNL A   1      32.020  30.260  26.338  1.00  0.00     0.042 C 
ENDROOT
BRANCH   1   2
ATOM      2  C   UNL A   1      32.316  29.686  24.949  1.00  0.00     0.118 C 
BRANCH   2   3
ATOM      3  N   UNL A   1      31.098  29.244  24.283  1.00  0.00    -0.352 N 
ATOM      4  C   UNL A   1      30.543  28.022  24.008  1.00  0.00     0.251 C 
ATOM      5  O   UNL A   1      29.446  28.030  23.444  1.00  0.00    -0.269 OA
ATOM      6  H   UNL A   1      30.549  29.994  23.956  1.00  0.00     0.163 HD
BRANCH   4   7
ATOM      7  C   UNL A   1      31.151  26.707  24.372  1.00  0.00     0.042 A 
ATOM      8  N   UNL A   1      32.640  23.206  25.948  1.00  0.00    -0.210 N 
ATOM      9  N   UNL A   1      31.923  23.127  27.094  1.00  0.00    -0.061 NA
ATOM     10  C   UNL A   1      32.264  24.316  25.220  1.00  0.00     0.095 A 
ATOM     11  N   UNL A   1      31.268  24.277  27.237  1.00  0.00    -0.130 NA
ATOM     12  C   UNL A   1      31.438  25.007  26.089  1.00  0.00     0.114 A 
ATOM     13  C   UNL A   1      32.501  24.723  23.906  1.00  0.00     0.031 A 
ATOM     14  C   UNL A   1      30.908  26.243  25.686  1.00  0.00     0.046 A 
ATOM     15  C   UNL A   1      31.883  25.906  23.491  1.00  0.00     0.016 A 
BRANCH   8  16
ATOM     16  C   UNL A   1      33.526  22.205  25.534  1.00  0.00     0.106 A 
ATOM     17  C   UNL A   1      35.764  21.325  25.414  1.00  0.00     0.121 A 
ATOM     18  C   UNL A   1      35.246  20.091  24.999  1.00  0.00     0.049 A 
ATOM     19  C   UNL A   1      34.902  22.396  25.663  1.00  0.00     0.078 A 
ATOM     20  C   UNL A   1      33.868  19.927  24.828  1.00  0.00     0.045 A 
ATOM     21  C   UNL A   1      33.013  20.981  25.110  1.00  0.00     0.149 A 
ATOM     22  F   UNL A   1      31.695  20.813  24.936  1.00  0.00    -0.205 F 
BRANCH  17  23
ATOM     23  O   UNL A   1      37.079  21.572  25.695  1.00  0.00    -0.497 OA
ATOM     24  C   UNL A   1      37.453  22.941  25.764  1.00  0.00     0.278 C 
ENDBRANCH  17  23
ENDBRANCH   8  16
ENDBRANCH   4   7
ENDBRANCH   2   3
ENDBRANCH   1   2
BRANCH   1  25
ATOM     25  C   UNL A   1      33.173  30.058  27.325  1.00  0.00     0.118 C 
BRANCH  25  26
ATOM     26  N   UNL A   1      33.599  31.278  27.984  1.00  0.00    -0.352 N 
ATOM     27  C   UNL A   1      34.771  31.751  28.503  1.00  0.00     0.251 C 
ATOM     28  H   UNL A   1      32.861  31.924  28.082  1.00  0.00     0.163 HD
ATOM     29  O   UNL A   1      34.717  32.892  28.974  1.00  0.00    -0.269 OA
BRANCH  27  30
ATOM     30  C   UNL A   1      36.052  30.999  28.586  1.00  0.00     0.039 A 
ATOM     31  C   UNL A   1      36.225  29.640  28.318  1.00  0.00     0.014 A 
ATOM     32  C   UNL A   1      37.170  31.746  29.007  1.00  0.00     0.014 A 
ATOM     33  C   UNL A   1      37.452  29.025  28.564  1.00  0.00     0.010 A 
ATOM     34  C   UNL A   1      38.400  31.141  29.234  1.00  0.00     0.010 A 
ATOM     35  C   UNL A   1      38.525  29.766  29.066  1.00  0.00    -0.014 A 
BRANCH  35  36
ATOM     36  C   UNL A   1      39.781  29.074  29.351  1.00  0.00     0.031 A 
ATOM     37  C   UNL A   1      40.130  28.931  30.795  1.00  0.00     0.074 A 
ATOM     38  C   UNL A   1      40.537  28.497  28.394  1.00  0.00     0.049 A 
ATOM     39  N   UNL A   1      41.157  29.404  31.421  1.00  0.00    -0.248 NA
ATOM     40  C   UNL A   1      39.164  28.247  31.669  1.00  0.00     0.031 C 
ATOM     41  C   UNL A   1      40.225  28.317  26.973  1.00  0.00     0.029 A 
ATOM     42  N   UNL A   1      41.729  27.849  28.525  1.00  0.00    -0.354 N 
ATOM     43  C   UNL A   1      41.070  28.934  32.731  1.00  0.00     0.074 A 
ATOM     44  C   UNL A   1      39.765  28.337  32.857  1.00  0.00     0.031 C 
ATOM     45  C   UNL A   1      41.082  27.420  26.435  1.00  0.00     0.029 A 
ATOM     46  C   UNL A   1      42.086  27.072  27.426  1.00  0.00     0.049 A 
ATOM     47  H   UNL A   1      42.291  27.923  29.329  1.00  0.00     0.167 HD
ATOM     48  C   UNL A   1      42.141  28.917  33.574  1.00  0.00     0.034 A 
ATOM     49  C   UNL A   1      43.100  26.168  27.362  1.00  0.00     0.034 A 
ATOM     50  C   UNL A   1      43.197  29.783  33.118  1.00  0.00     0.049 A 
ATOM     51  C   UNL A   1      44.080  26.559  28.405  1.00  0.00     0.074 A 
ATOM     52  C   UNL A   1      43.309  31.143  32.901  1.00  0.00     0.029 A 
ATOM     53  N   UNL A   1      44.257  29.219  32.449  1.00  0.00    -0.354 N 
ATOM     54  N   UNL A   1      44.741  27.685  28.385  1.00  0.00    -0.248 NA
ATOM     55  C   UNL A   1      43.982  25.918  29.706  1.00  0.00     0.031 C 
ATOM     56  C   UNL A   1      44.088  31.259  31.713  1.00  0.00     0.029 A 
ATOM     57  C   UNL A   1      44.455  29.971  31.316  1.00  0.00     0.049 A 
ATOM     58  H   UNL A   1      44.775  28.430  32.728  1.00  0.00     0.167 HD
ATOM     59  C   UNL A   1      44.768  28.105  29.706  1.00  0.00     0.074 A 
ATOM     60  C   UNL A   1      44.362  26.935  30.483  1.00  0.00     0.031 C 
ATOM     61  C   UNL A   1      44.856  29.427  30.034  1.00  0.00     0.034 A 
BRANCH  48  62
ATOM     62  C   UNL A   1      42.346  27.908  34.677  1.00  0.00     0.023 A 
ATOM     63  C   UNL A   1      43.065  26.728  34.402  1.00  0.00     0.031 A 
ATOM     64  C   UNL A   1      41.641  27.935  35.901  1.00  0.00     0.131 A 
ATOM     65  C   UNL A   1      43.032  25.641  35.297  1.00  0.00     0.055 A 
ATOM     66  C   UNL A   1      41.658  26.876  36.812  1.00  0.00     0.041 A 
ATOM     67  F   UNL A   1      40.824  28.945  36.229  1.00  0.00    -0.206 F 
ATOM     68  C   UNL A   1      42.340  25.712  36.503  1.00  0.00     0.022 A 
BRANCH  65  69
ATOM     69  S   UNL A   1      43.799  24.073  34.800  1.00  0.00     0.124 S 
ATOM     70  O   UNL A   1      42.636  23.256  34.478  1.00  0.00    -0.237 OA
ATOM     71  O   UNL A   1      44.630  24.486  33.673  1.00  0.00    -0.237 OA
ATOM     72  O   UNL A   1      44.535  23.662  35.995  1.00  0.00    -0.744 OA
ENDBRANCH  65  69
ENDBRANCH  48  62
BRANCH  49  73
ATOM     73  C   UNL A   1      43.061  24.809  26.745  1.00  0.00     0.023 A 
ATOM     74  C   UNL A   1      43.959  24.420  25.726  1.00  0.00     0.031 A 
ATOM     75  C   UNL A   1      42.304  23.775  27.343  1.00  0.00     0.131 A 
ATOM     76  C   UNL A   1      44.076  23.059  25.354  1.00  0.00     0.055 A 
ATOM     77  C   UNL A   1      42.421  22.434  26.969  1.00  0.00     0.041 A 
ATOM     78  F   UNL A   1      41.486  24.017  28.378  1.00  0.00    -0.206 F 
ATOM     79  C   UNL A   1      43.319  22.067  25.980  1.00  0.00     0.022 A 
BRANCH  76  80
ATOM     80  S   UNL A   1      45.321  22.534  24.131  1.00  0.00     0.124 S 
ATOM     81  O   UNL A   1      46.033  21.483  24.855  1.00  0.00    -0.237 OA
ATOM     82  O   UNL A   1      44.505  22.103  23.006  1.00  0.00    -0.237 OA
ATOM     83  O   UNL A   1      46.098  23.751  23.895  1.00  0.00    -0.744 OA
ENDBRANCH  76  80
ENDBRANCH  49  73
BRANCH  61  84
ATOM     84  C   UNL A   1      45.190  30.427  28.944  1.00  0.00     0.023 A 
ATOM     85  C   UNL A   1      46.498  30.838  28.593  1.00  0.00     0.031 A 
ATOM     86  C   UNL A   1      44.128  30.859  28.131  1.00  0.00     0.131 A 
ATOM     87  C   UNL A   1      46.698  31.653  27.457  1.00  0.00     0.055 A 
ATOM     88  C   UNL A   1      44.332  31.654  27.004  1.00  0.00     0.041 A 
ATOM     89  F   UNL A   1      42.869  30.474  28.396  1.00  0.00    -0.206 F 
ATOM     90  C   UNL A   1      45.618  32.056  26.664  1.00  0.00     0.022 A 
BRANCH  87  91
ATOM     91  S   UNL A   1      48.375  32.184  26.969  1.00  0.00     0.124 S 
ATOM     92  O   UNL A   1      48.923  32.743  28.199  1.00  0.00    -0.237 OA
ATOM     93  O   UNL A   1      48.984  30.942  26.497  1.00  0.00    -0.237 OA
ATOM     94  O   UNL A   1      48.131  33.168  25.911  1.00  0.00    -0.744 OA
ENDBRANCH  87  91
ENDBRANCH  61  84
ENDBRANCH  35  36
ENDBRANCH  27  30
ENDBRANCH  25  26
ENDBRANCH   1  25
TORSDOF 15
ENDMDL
