MODEL 1
REMARK VINA RESULT:     -12.2      0.000      0.000
REMARK SMILES O=C(NCCCNC(=O)c1cccnc1C(=O)Nc1ccc(Cl)cn1)c1ccc(-c2c3nc(c(-c4cc(S(=O)(=O)[O-])ccc4F)c4ccc([nH]4)c(-c4cc(S(=O)(=O)[O-])ccc4F)c4nc(c(-c5cc(S(=O)(=O)[O-])ccc5F)c5ccc2[nH]5)C=C4)C=C3)cc1
REMARK SMILES IDX 4 1 3 2 1 3 2 4 26 6 27 7 88 8 28 9 87 10 29 11 30 12 31 13
REMARK SMILES IDX 81 14 32 15 86 16 80 17 82 18 33 19 85 20 79 21 78 22 34 24
REMARK SMILES IDX 66 25 46 26 65 27 47 28 50 29 64 30 83 31 48 32 49 33 63 35
REMARK SMILES IDX 84 36 51 37 35 38 36 39 44 40 37 41 43 42 45 43 42 44 38 45
REMARK SMILES IDX 39 46 40 47 41 48 67 49 68 50 76 51 69 52 75 53 77 54 74 55
REMARK SMILES IDX 70 56 71 57 72 58 73 59 52 60 53 61 61 62 54 63 60 64 62 65
REMARK SMILES IDX 59 66 55 67 56 68 57 69 58 70 5 71 6 72 7 73 8 74 9 76 10 77
REMARK SMILES IDX 11 78 15 79 12 80 14 81 13 82 16 83 17 84 18 85 19 87 20 88
REMARK SMILES IDX 25 89 21 90 24 91 22 92 23 93
REMARK H PARENT 3 5 82 23 50 34 7 75 18 86
REMARK Flexibility Score: inf
ROOT
ATOM      1  C   UNL A   1      32.801  29.237  25.863  1.00  0.00     0.118 C 
ENDROOT
BRANCH   1   2
ATOM      2  N   UNL A   1      32.454  30.585  26.285  1.00  0.00    -0.352 N 
ATOM      3  O   UNL A   1      32.695  32.533  27.396  1.00  0.00    -0.269 OA
ATOM      4  C   UNL A   1      33.166  31.438  27.099  1.00  0.00     0.251 C 
ATOM      5  H   UNL A   1      31.597  30.931  25.946  1.00  0.00     0.163 HD
BRANCH   4   6
ATOM      6  C   UNL A   1      34.478  31.018  27.637  1.00  0.00     0.039 A 
ATOM      7  C   UNL A   1      34.710  29.688  27.996  1.00  0.00     0.014 A 
ATOM      8  C   UNL A   1      35.480  31.977  27.805  1.00  0.00     0.014 A 
ATOM      9  C   UNL A   1      35.890  29.349  28.656  1.00  0.00     0.010 A 
ATOM     10  C   UNL A   1      36.687  31.621  28.417  1.00  0.00     0.010 A 
ATOM     11  C   UNL A   1      36.882  30.315  28.893  1.00  0.00    -0.014 A 
BRANCH  11  12
ATOM     12  C   UNL A   1      38.100  29.942  29.660  1.00  0.00     0.031 A 
ATOM     13  C   UNL A   1      38.319  30.472  31.054  1.00  0.00     0.074 A 
ATOM     14  C   UNL A   1      38.991  29.091  29.118  1.00  0.00     0.049 A 
ATOM     15  N   UNL A   1      39.289  30.215  31.895  1.00  0.00    -0.248 NA
ATOM     16  C   UNL A   1      37.320  31.422  31.564  1.00  0.00     0.031 C 
ATOM     17  C   UNL A   1      38.894  28.513  27.775  1.00  0.00     0.029 A 
ATOM     18  N   UNL A   1      40.142  28.549  29.631  1.00  0.00    -0.354 N 
ATOM     19  C   UNL A   1      39.027  30.980  33.028  1.00  0.00     0.074 A 
ATOM     20  C   UNL A   1      37.825  31.738  32.746  1.00  0.00     0.031 C 
ATOM     21  C   UNL A   1      39.921  27.670  27.587  1.00  0.00     0.029 A 
ATOM     22  C   UNL A   1      40.773  27.680  28.772  1.00  0.00     0.049 A 
ATOM     23  H   UNL A   1      40.485  28.762  30.529  1.00  0.00     0.167 HD
ATOM     24  C   UNL A   1      39.715  31.034  34.197  1.00  0.00     0.034 A 
ATOM     25  C   UNL A   1      41.911  26.973  28.917  1.00  0.00     0.034 A 
ATOM     26  C   UNL A   1      40.910  30.267  34.466  1.00  0.00     0.049 A 
ATOM     27  C   UNL A   1      42.673  27.074  30.212  1.00  0.00     0.074 A 
ATOM     28  C   UNL A   1      41.657  30.216  35.631  1.00  0.00     0.029 A 
ATOM     29  N   UNL A   1      41.540  29.428  33.557  1.00  0.00    -0.354 N 
ATOM     30  N   UNL A   1      42.391  27.773  31.287  1.00  0.00    -0.248 NA
ATOM     31  C   UNL A   1      43.905  26.281  30.314  1.00  0.00     0.031 C 
ATOM     32  C   UNL A   1      42.772  29.399  35.405  1.00  0.00     0.029 A 
ATOM     33  C   UNL A   1      42.684  28.882  34.122  1.00  0.00     0.049 A 
ATOM     34  H   UNL A   1      41.223  29.247  32.642  1.00  0.00     0.167 HD
ATOM     35  C   UNL A   1      43.396  27.480  32.204  1.00  0.00     0.074 A 
ATOM     36  C   UNL A   1      44.281  26.530  31.560  1.00  0.00     0.031 C 
ATOM     37  C   UNL A   1      43.570  27.950  33.466  1.00  0.00     0.034 A 
BRANCH  24  38
ATOM     38  C   UNL A   1      39.213  31.990  35.254  1.00  0.00     0.023 A 
ATOM     39  C   UNL A   1      39.692  33.309  35.351  1.00  0.00     0.031 A 
ATOM     40  C   UNL A   1      38.261  31.567  36.198  1.00  0.00     0.131 A 
ATOM     41  C   UNL A   1      39.274  34.130  36.411  1.00  0.00     0.055 A 
ATOM     42  C   UNL A   1      37.789  32.414  37.203  1.00  0.00     0.041 A 
ATOM     43  F   UNL A   1      37.781  30.313  36.170  1.00  0.00    -0.206 F 
ATOM     44  C   UNL A   1      38.307  33.700  37.322  1.00  0.00     0.022 A 
BRANCH  41  45
ATOM     45  S   UNL A   1      40.123  35.714  36.666  1.00  0.00     0.124 S 
ATOM     46  O   UNL A   1      41.526  35.308  36.627  1.00  0.00    -0.237 OA
ATOM     47  O   UNL A   1      39.656  36.508  35.537  1.00  0.00    -0.237 OA
ATOM     48  O   UNL A   1      39.648  36.150  37.978  1.00  0.00    -0.744 OA
ENDBRANCH  41  45
ENDBRANCH  24  38
BRANCH  25  49
ATOM     49  C   UNL A   1      42.408  26.116  27.806  1.00  0.00     0.023 A 
ATOM     50  C   UNL A   1      41.956  24.796  27.653  1.00  0.00     0.031 A 
ATOM     51  C   UNL A   1      43.369  26.596  26.899  1.00  0.00     0.131 A 
ATOM     52  C   UNL A   1      42.494  23.987  26.641  1.00  0.00     0.055 A 
ATOM     53  C   UNL A   1      43.866  25.804  25.864  1.00  0.00     0.041 A 
ATOM     54  F   UNL A   1      43.829  27.853  27.001  1.00  0.00    -0.206 F 
ATOM     55  C   UNL A   1      43.436  24.487  25.738  1.00  0.00     0.022 A 
BRANCH  52  56
ATOM     56  S   UNL A   1      41.996  22.246  26.565  1.00  0.00     0.124 S 
ATOM     57  O   UNL A   1      42.491  21.739  27.839  1.00  0.00    -0.237 OA
ATOM     58  O   UNL A   1      40.546  22.351  26.436  1.00  0.00    -0.237 OA
ATOM     59  O   UNL A   1      42.690  21.745  25.381  1.00  0.00    -0.744 OA
ENDBRANCH  52  56
ENDBRANCH  25  49
BRANCH  37  60
ATOM     60  C   UNL A   1      44.744  27.402  34.239  1.00  0.00     0.023 A 
ATOM     61  C   UNL A   1      44.635  26.245  35.031  1.00  0.00     0.031 A 
ATOM     62  C   UNL A   1      45.982  28.069  34.212  1.00  0.00     0.131 A 
ATOM     63  C   UNL A   1      45.722  25.827  35.813  1.00  0.00     0.055 A 
ATOM     64  C   UNL A   1      47.079  27.615  34.947  1.00  0.00     0.041 A 
ATOM     65  F   UNL A   1      46.143  29.180  33.476  1.00  0.00    -0.206 F 
ATOM     66  C   UNL A   1      46.947  26.496  35.766  1.00  0.00     0.022 A 
BRANCH  63  67
ATOM     67  S   UNL A   1      45.483  24.454  36.976  1.00  0.00     0.124 S 
ATOM     68  O   UNL A   1      44.520  25.017  37.918  1.00  0.00    -0.237 OA
ATOM     69  O   UNL A   1      44.980  23.394  36.108  1.00  0.00    -0.237 OA
ATOM     70  O   UNL A   1      46.821  24.228  37.520  1.00  0.00    -0.744 OA
ENDBRANCH  63  67
ENDBRANCH  37  60
ENDBRANCH  11  12
ENDBRANCH   4   6
ENDBRANCH   1   2
BRANCH   1  71
ATOM     71  C   UNL A   1      31.893  28.111  26.359  1.00  0.00     0.042 C 
BRANCH  71  72
ATOM     72  C   UNL A   1      32.357  26.672  26.181  1.00  0.00     0.118 C 
BRANCH  72  73
ATOM     73  N   UNL A   1      31.411  25.631  26.571  1.00  0.00    -0.352 N 
ATOM     74  C   UNL A   1      31.563  24.260  26.612  1.00  0.00     0.253 C 
ATOM     75  H   UNL A   1      30.526  25.959  26.848  1.00  0.00     0.163 HD
ATOM     76  O   UNL A   1      30.777  23.567  27.251  1.00  0.00    -0.269 OA
BRANCH  74  77
ATOM     77  C   UNL A   1      32.721  23.630  25.987  1.00  0.00     0.071 A 
ATOM     78  C   UNL A   1      33.774  23.349  26.884  1.00  0.00     0.018 A 
ATOM     79  C   UNL A   1      32.840  23.222  24.660  1.00  0.00     0.141 A 
ATOM     80  C   UNL A   1      34.951  22.765  26.442  1.00  0.00     0.021 A 
ATOM     81  N   UNL A   1      34.030  22.675  24.235  1.00  0.00    -0.250 NA
ATOM     82  C   UNL A   1      35.038  22.464  25.105  1.00  0.00     0.112 A 
BRANCH  79  83
ATOM     83  C   UNL A   1      31.806  23.112  23.540  1.00  0.00     0.276 C 
ATOM     84  O   UNL A   1      31.780  22.070  22.869  1.00  0.00    -0.267 OA
ATOM     85  N   UNL A   1      30.728  23.934  23.374  1.00  0.00    -0.305 N 
ATOM     86  H   UNL A   1      29.870  23.449  23.385  1.00  0.00     0.171 HD
BRANCH  85  87
ATOM     87  C   UNL A   1      30.573  25.296  23.196  1.00  0.00     0.132 A 
ATOM     88  C   UNL A   1      31.400  26.062  22.392  1.00  0.00     0.049 A 
ATOM     89  N   UNL A   1      29.511  25.806  23.854  1.00  0.00    -0.238 NA
ATOM     90  C   UNL A   1      31.208  27.448  22.380  1.00  0.00     0.026 A 
ATOM     91  C   UNL A   1      29.375  27.153  23.861  1.00  0.00     0.134 A 
ATOM     92  C   UNL A   1      30.206  28.007  23.164  1.00  0.00     0.059 A 
ATOM     93  Cl  UNL A   1      30.027  29.708  23.273  1.00  0.00    -0.083 Cl
ENDBRANCH  85  87
ENDBRANCH  79  83
ENDBRANCH  74  77
ENDBRANCH  72  73
ENDBRANCH  71  72
ENDBRANCH   1  71
TORSDOF 15
ENDMDL
MODEL 2
REMARK VINA RESULT:     -12.2      1.375      1.638
REMARK SMILES O=C(NCCCNC(=O)c1cccnc1C(=O)Nc1ccc(Cl)cn1)c1ccc(-c2c3nc(c(-c4cc(S(=O)(=O)[O-])ccc4F)c4ccc([nH]4)c(-c4cc(S(=O)(=O)[O-])ccc4F)c4nc(c(-c5cc(S(=O)(=O)[O-])ccc5F)c5ccc2[nH]5)C=C4)C=C3)cc1
REMARK SMILES IDX 4 1 3 2 1 3 2 4 26 6 27 7 88 8 28 9 87 10 29 11 30 12 31 13
REMARK SMILES IDX 81 14 32 15 86 16 80 17 82 18 33 19 85 20 79 21 78 22 34 24
REMARK SMILES IDX 66 25 46 26 65 27 47 28 50 29 64 30 83 31 48 32 49 33 63 35
REMARK SMILES IDX 84 36 51 37 35 38 36 39 44 40 37 41 43 42 45 43 42 44 38 45
REMARK SMILES IDX 39 46 40 47 41 48 67 49 68 50 76 51 69 52 75 53 77 54 74 55
REMARK SMILES IDX 70 56 71 57 72 58 73 59 52 60 53 61 61 62 54 63 60 64 62 65
REMARK SMILES IDX 59 66 55 67 56 68 57 69 58 70 5 71 6 72 7 73 8 74 9 76 10 77
REMARK SMILES IDX 11 78 15 79 12 80 14 81 13 82 16 83 17 84 18 85 19 87 20 88
REMARK SMILES IDX 25 89 21 90 24 91 22 92 23 93
REMARK H PARENT 3 5 82 23 50 34 7 75 18 86
REMARK Flexibility Score: inf
ROOT
ATOM      1  C   UNL A   1      33.077  29.237  26.053  1.00  0.00     0.118 C 
ENDROOT
BRANCH   1   2
ATOM      2  N   UNL A   1      32.762  30.573  26.534  1.00  0.00    -0.352 N 
ATOM      3  O   UNL A   1      33.081  32.488  27.683  1.00  0.00    -0.269 OA
ATOM      4  C   UNL A   1      33.528  31.401  27.325  1.00  0.00     0.251 C 
ATOM      5  H   UNL A   1      31.888  30.932  26.259  1.00  0.00     0.163 HD
BRANCH   4   6
ATOM      6  C   UNL A   1      34.869  30.962  27.769  1.00  0.00     0.039 A 
ATOM      7  C   UNL A   1      35.133  29.613  28.016  1.00  0.00     0.014 A 
ATOM      8  C   UNL A   1      35.867  31.921  27.961  1.00  0.00     0.014 A 
ATOM      9  C   UNL A   1      36.347  29.244  28.592  1.00  0.00     0.010 A 
ATOM     10  C   UNL A   1      37.105  31.539  28.487  1.00  0.00     0.010 A 
ATOM     11  C   UNL A   1      37.338  30.204  28.854  1.00  0.00    -0.014 A 
BRANCH  11  12
ATOM     12  C   UNL A   1      38.596  29.794  29.533  1.00  0.00     0.031 A 
ATOM     13  C   UNL A   1      38.931  30.319  30.906  1.00  0.00     0.074 A 
ATOM     14  C   UNL A   1      39.418  28.914  28.932  1.00  0.00     0.049 A 
ATOM     15  N   UNL A   1      39.950  30.033  31.676  1.00  0.00    -0.248 NA
ATOM     16  C   UNL A   1      38.002  31.300  31.482  1.00  0.00     0.031 C 
ATOM     17  C   UNL A   1      39.206  28.338  27.602  1.00  0.00     0.029 A 
ATOM     18  N   UNL A   1      40.585  28.336  29.363  1.00  0.00    -0.354 N 
ATOM     19  C   UNL A   1      39.795  30.807  32.822  1.00  0.00     0.074 A 
ATOM     20  C   UNL A   1      38.601  31.603  32.624  1.00  0.00     0.031 C 
ATOM     21  C   UNL A   1      40.190  27.462  27.343  1.00  0.00     0.029 A 
ATOM     22  C   UNL A   1      41.125  27.446  28.464  1.00  0.00     0.049 A 
ATOM     23  H   UNL A   1      40.998  28.540  30.233  1.00  0.00     0.167 HD
ATOM     24  C   UNL A   1      40.567  30.841  33.938  1.00  0.00     0.034 A 
ATOM     25  C   UNL A   1      42.247  26.704  28.530  1.00  0.00     0.034 A 
ATOM     26  C   UNL A   1      41.753  30.037  34.124  1.00  0.00     0.049 A 
ATOM     27  C   UNL A   1      43.104  26.783  29.767  1.00  0.00     0.074 A 
ATOM     28  C   UNL A   1      42.580  29.963  35.232  1.00  0.00     0.029 A 
ATOM     29  N   UNL A   1      42.289  29.176  33.175  1.00  0.00    -0.354 N 
ATOM     30  N   UNL A   1      42.922  27.492  30.856  1.00  0.00    -0.248 NA
ATOM     31  C   UNL A   1      44.313  25.950  29.783  1.00  0.00     0.031 C 
ATOM     32  C   UNL A   1      43.649  29.111  34.930  1.00  0.00     0.029 A 
ATOM     33  C   UNL A   1      43.453  28.595  33.659  1.00  0.00     0.049 A 
ATOM     34  H   UNL A   1      41.901  29.005  32.286  1.00  0.00     0.167 HD
ATOM     35  C   UNL A   1      43.980  27.168  31.699  1.00  0.00     0.074 A 
ATOM     36  C   UNL A   1      44.786  26.189  30.997  1.00  0.00     0.031 C 
ATOM     37  C   UNL A   1      44.260  27.634  32.944  1.00  0.00     0.034 A 
BRANCH  24  38
ATOM     38  C   UNL A   1      40.173  31.814  35.025  1.00  0.00     0.023 A 
ATOM     39  C   UNL A   1      39.313  31.447  36.075  1.00  0.00     0.031 A 
ATOM     40  C   UNL A   1      40.643  33.139  34.994  1.00  0.00     0.131 A 
ATOM     41  C   UNL A   1      38.893  32.411  37.007  1.00  0.00     0.055 A 
ATOM     42  C   UNL A   1      40.285  34.073  35.969  1.00  0.00     0.041 A 
ATOM     43  F   UNL A   1      41.451  33.555  34.005  1.00  0.00    -0.206 F 
ATOM     44  C   UNL A   1      39.393  33.714  36.975  1.00  0.00     0.022 A 
BRANCH  41  45
ATOM     45  S   UNL A   1      37.570  31.973  38.169  1.00  0.00     0.124 S 
ATOM     46  O   UNL A   1      36.529  32.932  37.809  1.00  0.00    -0.237 OA
ATOM     47  O   UNL A   1      37.301  30.580  37.831  1.00  0.00    -0.237 OA
ATOM     48  O   UNL A   1      38.178  32.192  39.480  1.00  0.00    -0.744 OA
ENDBRANCH  41  45
ENDBRANCH  24  38
BRANCH  25  49
ATOM     49  C   UNL A   1      42.636  25.829  27.389  1.00  0.00     0.023 A 
ATOM     50  C   UNL A   1      42.194  24.500  27.314  1.00  0.00     0.031 A 
ATOM     51  C   UNL A   1      43.483  26.304  26.373  1.00  0.00     0.131 A 
ATOM     52  C   UNL A   1      42.633  23.677  26.266  1.00  0.00     0.055 A 
ATOM     53  C   UNL A   1      43.879  25.496  25.306  1.00  0.00     0.041 A 
ATOM     54  F   UNL A   1      43.930  27.570  26.397  1.00  0.00    -0.206 F 
ATOM     55  C   UNL A   1      43.462  24.170  25.255  1.00  0.00     0.022 A 
BRANCH  52  56
ATOM     56  S   UNL A   1      42.161  21.926  26.282  1.00  0.00     0.124 S 
ATOM     57  O   UNL A   1      42.511  21.536  27.643  1.00  0.00    -0.237 OA
ATOM     58  O   UNL A   1      40.735  21.995  25.980  1.00  0.00    -0.237 OA
ATOM     59  O   UNL A   1      42.991  21.341  25.231  1.00  0.00    -0.744 OA
ENDBRANCH  52  56
ENDBRANCH  25  49
BRANCH  37  60
ATOM     60  C   UNL A   1      45.468  27.050  33.633  1.00  0.00     0.023 A 
ATOM     61  C   UNL A   1      45.384  25.884  34.415  1.00  0.00     0.031 A 
ATOM     62  C   UNL A   1      46.716  27.692  33.536  1.00  0.00     0.131 A 
ATOM     63  C   UNL A   1      46.510  25.432  35.120  1.00  0.00     0.055 A 
ATOM     64  C   UNL A   1      47.847  27.204  34.192  1.00  0.00     0.041 A 
ATOM     65  F   UNL A   1      46.855  28.809  32.804  1.00  0.00    -0.206 F 
ATOM     66  C   UNL A   1      47.744  26.076  35.003  1.00  0.00     0.022 A 
BRANCH  63  67
ATOM     67  S   UNL A   1      46.315  24.048  36.278  1.00  0.00     0.124 S 
ATOM     68  O   UNL A   1      46.834  22.926  35.502  1.00  0.00    -0.237 OA
ATOM     69  O   UNL A   1      47.133  24.472  37.410  1.00  0.00    -0.237 OA
ATOM     70  O   UNL A   1      44.876  24.013  36.532  1.00  0.00    -0.744 OA
ENDBRANCH  63  67
ENDBRANCH  37  60
ENDBRANCH  11  12
ENDBRANCH   4   6
ENDBRANCH   1   2
BRANCH   1  71
ATOM     71  C   UNL A   1      32.090  28.129  26.422  1.00  0.00     0.042 C 
BRANCH  71  72
ATOM     72  C   UNL A   1      32.466  26.687  26.109  1.00  0.00     0.118 C 
BRANCH  72  73
ATOM     73  N   UNL A   1      31.512  25.663  26.521  1.00  0.00    -0.352 N 
ATOM     74  C   UNL A   1      31.653  24.291  26.588  1.00  0.00     0.253 C 
ATOM     75  H   UNL A   1      30.630  26.003  26.793  1.00  0.00     0.163 HD
ATOM     76  O   UNL A   1      30.862  23.618  27.242  1.00  0.00    -0.269 OA
BRANCH  74  77
ATOM     77  C   UNL A   1      32.804  23.639  25.974  1.00  0.00     0.071 A 
ATOM     78  C   UNL A   1      33.858  23.369  26.873  1.00  0.00     0.018 A 
ATOM     79  C   UNL A   1      32.916  23.203  24.655  1.00  0.00     0.141 A 
ATOM     80  C   UNL A   1      35.028  22.766  26.440  1.00  0.00     0.021 A 
ATOM     81  N   UNL A   1      34.100  22.637  24.238  1.00  0.00    -0.250 NA
ATOM     82  C   UNL A   1      35.109  22.437  25.109  1.00  0.00     0.112 A 
BRANCH  79  83
ATOM     83  C   UNL A   1      31.878  23.077  23.540  1.00  0.00     0.276 C 
ATOM     84  O   UNL A   1      31.865  22.036  22.868  1.00  0.00    -0.267 OA
ATOM     85  N   UNL A   1      30.784  23.881  23.382  1.00  0.00    -0.305 N 
ATOM     86  H   UNL A   1      29.936  23.382  23.396  1.00  0.00     0.171 HD
BRANCH  85  87
ATOM     87  C   UNL A   1      30.606  25.241  23.208  1.00  0.00     0.132 A 
ATOM     88  C   UNL A   1      31.407  26.020  22.391  1.00  0.00     0.049 A 
ATOM     89  N   UNL A   1      29.547  25.734  23.884  1.00  0.00    -0.238 NA
ATOM     90  C   UNL A   1      31.193  27.403  22.383  1.00  0.00     0.026 A 
ATOM     91  C   UNL A   1      29.391  27.079  23.894  1.00  0.00     0.134 A 
ATOM     92  C   UNL A   1      30.197  27.946  23.184  1.00  0.00     0.059 A 
ATOM     93  Cl  UNL A   1      29.992  29.644  23.297  1.00  0.00    -0.083 Cl
ENDBRANCH  85  87
ENDBRANCH  79  83
ENDBRANCH  74  77
ENDBRANCH  72  73
ENDBRANCH  71  72
ENDBRANCH   1  71
TORSDOF 15
ENDMDL
MODEL 3
REMARK VINA RESULT:     -12.1      4.876      9.844
REMARK SMILES O=C(NCCCNC(=O)c1cccnc1C(=O)Nc1ccc(Cl)cn1)c1ccc(-c2c3nc(c(-c4cc(S(=O)(=O)[O-])ccc4F)c4ccc([nH]4)c(-c4cc(S(=O)(=O)[O-])ccc4F)c4nc(c(-c5cc(S(=O)(=O)[O-])ccc5F)c5ccc2[nH]5)C=C4)C=C3)cc1
REMARK SMILES IDX 4 1 3 2 1 3 2 4 26 6 27 7 88 8 28 9 87 10 29 11 30 12 31 13
REMARK SMILES IDX 81 14 32 15 86 16 80 17 82 18 33 19 85 20 79 21 78 22 34 24
REMARK SMILES IDX 66 25 46 26 65 27 47 28 50 29 64 30 83 31 48 32 49 33 63 35
REMARK SMILES IDX 84 36 51 37 35 38 36 39 44 40 37 41 43 42 45 43 42 44 38 45
REMARK SMILES IDX 39 46 40 47 41 48 67 49 68 50 76 51 69 52 75 53 77 54 74 55
REMARK SMILES IDX 70 56 71 57 72 58 73 59 52 60 53 61 61 62 54 63 60 64 62 65
REMARK SMILES IDX 59 66 55 67 56 68 57 69 58 70 5 71 6 72 7 73 8 74 9 76 10 77
REMARK SMILES IDX 11 78 15 79 12 80 14 81 13 82 16 83 17 84 18 85 19 87 20 88
REMARK SMILES IDX 25 89 21 90 24 91 22 92 23 93
REMARK H PARENT 3 5 82 23 50 34 7 75 18 86
REMARK Flexibility Score: inf
ROOT
ATOM      1  C   UNL A   1      36.606  22.255  25.349  1.00  0.00     0.118 C 
ENDROOT
BRANCH   1   2
ATOM      2  N   UNL A   1      37.585  21.185  25.443  1.00  0.00    -0.352 N 
ATOM      3  O   UNL A   1      39.584  20.241  25.897  1.00  0.00    -0.269 OA
ATOM      4  C   UNL A   1      38.868  21.239  25.941  1.00  0.00     0.251 C 
ATOM      5  H   UNL A   1      37.293  20.307  25.107  1.00  0.00     0.163 HD
BRANCH   4   6
ATOM      6  C   UNL A   1      39.390  22.508  26.494  1.00  0.00     0.039 A 
ATOM      7  C   UNL A   1      38.851  23.735  26.099  1.00  0.00     0.014 A 
ATOM      8  C   UNL A   1      40.450  22.466  27.404  1.00  0.00     0.014 A 
ATOM      9  C   UNL A   1      39.466  24.919  26.501  1.00  0.00     0.010 A 
ATOM     10  C   UNL A   1      41.030  23.658  27.850  1.00  0.00     0.010 A 
ATOM     11  C   UNL A   1      40.574  24.894  27.364  1.00  0.00    -0.014 A 
BRANCH  11  12
ATOM     12  C   UNL A   1      41.255  26.167  27.721  1.00  0.00     0.031 A 
ATOM     13  C   UNL A   1      42.625  26.481  27.179  1.00  0.00     0.074 A 
ATOM     14  C   UNL A   1      40.620  27.062  28.502  1.00  0.00     0.049 A 
ATOM     15  N   UNL A   1      43.350  27.560  27.335  1.00  0.00    -0.248 NA
ATOM     16  C   UNL A   1      43.267  25.442  26.362  1.00  0.00     0.031 C 
ATOM     17  C   UNL A   1      39.293  26.871  29.092  1.00  0.00     0.029 A 
ATOM     18  N   UNL A   1      40.993  28.314  28.919  1.00  0.00    -0.354 N 
ATOM     19  C   UNL A   1      44.538  27.327  26.649  1.00  0.00     0.074 A 
ATOM     20  C   UNL A   1      44.447  25.986  26.109  1.00  0.00     0.031 C 
ATOM     21  C   UNL A   1      38.950  27.982  29.763  1.00  0.00     0.029 A 
ATOM     22  C   UNL A   1      40.045  28.944  29.690  1.00  0.00     0.049 A 
ATOM     23  H   UNL A   1      41.859  28.723  28.689  1.00  0.00     0.167 HD
ATOM     24  C   UNL A   1      45.598  28.157  26.474  1.00  0.00     0.034 A 
ATOM     25  C   UNL A   1      40.056  30.156  30.278  1.00  0.00     0.034 A 
ATOM     26  C   UNL A   1      45.673  29.495  27.014  1.00  0.00     0.049 A 
ATOM     27  C   UNL A   1      41.257  31.047  30.095  1.00  0.00     0.074 A 
ATOM     28  C   UNL A   1      46.681  30.432  26.858  1.00  0.00     0.029 A 
ATOM     29  N   UNL A   1      44.710  30.083  27.823  1.00  0.00    -0.354 N 
ATOM     30  N   UNL A   1      42.356  30.825  29.411  1.00  0.00    -0.248 NA
ATOM     31  C   UNL A   1      41.212  32.357  30.756  1.00  0.00     0.031 C 
ATOM     32  C   UNL A   1      46.358  31.559  27.625  1.00  0.00     0.029 A 
ATOM     33  C   UNL A   1      45.114  31.356  28.202  1.00  0.00     0.049 A 
ATOM     34  H   UNL A   1      43.863  29.659  28.090  1.00  0.00     0.167 HD
ATOM     35  C   UNL A   1      43.120  31.981  29.539  1.00  0.00     0.074 A 
ATOM     36  C   UNL A   1      42.350  32.901  30.350  1.00  0.00     0.031 C 
ATOM     37  C   UNL A   1      44.347  32.259  29.027  1.00  0.00     0.034 A 
BRANCH  24  38
ATOM     38  C   UNL A   1      46.781  27.619  25.702  1.00  0.00     0.023 A 
ATOM     39  C   UNL A   1      47.059  28.031  24.386  1.00  0.00     0.031 A 
ATOM     40  C   UNL A   1      47.629  26.658  26.282  1.00  0.00     0.131 A 
ATOM     41  C   UNL A   1      48.108  27.430  23.671  1.00  0.00     0.055 A 
ATOM     42  C   UNL A   1      48.719  26.123  25.593  1.00  0.00     0.041 A 
ATOM     43  F   UNL A   1      47.403  26.211  27.528  1.00  0.00    -0.206 F 
ATOM     44  C   UNL A   1      48.955  26.498  24.274  1.00  0.00     0.022 A 
BRANCH  41  45
ATOM     45  S   UNL A   1      48.256  27.777  21.896  1.00  0.00     0.124 S 
ATOM     46  O   UNL A   1      48.491  26.442  21.351  1.00  0.00    -0.237 OA
ATOM     47  O   UNL A   1      46.964  28.376  21.583  1.00  0.00    -0.237 OA
ATOM     48  O   UNL A   1      49.401  28.682  21.817  1.00  0.00    -0.744 OA
ENDBRANCH  41  45
ENDBRANCH  24  38
BRANCH  25  49
ATOM     49  C   UNL A   1      38.899  30.599  31.105  1.00  0.00     0.023 A 
ATOM     50  C   UNL A   1      37.782  31.211  30.516  1.00  0.00     0.031 A 
ATOM     51  C   UNL A   1      38.911  30.445  32.502  1.00  0.00     0.131 A 
ATOM     52  C   UNL A   1      36.738  31.683  31.325  1.00  0.00     0.055 A 
ATOM     53  C   UNL A   1      37.848  30.872  33.298  1.00  0.00     0.041 A 
ATOM     54  F   UNL A   1      39.955  29.862  33.112  1.00  0.00    -0.206 F 
ATOM     55  C   UNL A   1      36.758  31.506  32.711  1.00  0.00     0.022 A 
BRANCH  52  56
ATOM     56  S   UNL A   1      35.381  32.598  30.545  1.00  0.00     0.124 S 
ATOM     57  O   UNL A   1      35.986  33.909  30.339  1.00  0.00    -0.237 OA
ATOM     58  O   UNL A   1      35.136  31.809  29.342  1.00  0.00    -0.237 OA
ATOM     59  O   UNL A   1      34.318  32.550  31.547  1.00  0.00    -0.744 OA
ENDBRANCH  52  56
ENDBRANCH  25  49
BRANCH  37  60
ATOM     60  C   UNL A   1      44.902  33.634  29.303  1.00  0.00     0.023 A 
ATOM     61  C   UNL A   1      44.509  34.756  28.552  1.00  0.00     0.031 A 
ATOM     62  C   UNL A   1      45.869  33.818  30.308  1.00  0.00     0.131 A 
ATOM     63  C   UNL A   1      45.124  35.998  28.773  1.00  0.00     0.055 A 
ATOM     64  C   UNL A   1      46.435  35.068  30.564  1.00  0.00     0.041 A 
ATOM     65  F   UNL A   1      46.284  32.782  31.055  1.00  0.00    -0.206 F 
ATOM     66  C   UNL A   1      46.075  36.164  29.784  1.00  0.00     0.022 A 
BRANCH  63  67
ATOM     67  S   UNL A   1      44.742  37.373  27.653  1.00  0.00     0.124 S 
ATOM     68  O   UNL A   1      46.048  37.661  27.068  1.00  0.00    -0.237 OA
ATOM     69  O   UNL A   1      43.758  36.778  26.754  1.00  0.00    -0.237 OA
ATOM     70  O   UNL A   1      44.221  38.408  28.544  1.00  0.00    -0.744 OA
ENDBRANCH  63  67
ENDBRANCH  37  60
ENDBRANCH  11  12
ENDBRANCH   4   6
ENDBRANCH   1   2
BRANCH   1  71
ATOM     71  C   UNL A   1      36.030  22.533  23.960  1.00  0.00     0.042 C 
BRANCH  71  72
ATOM     72  C   UNL A   1      34.546  22.852  23.839  1.00  0.00     0.118 C 
BRANCH  72  73
ATOM     73  N   UNL A   1      34.155  23.711  22.726  1.00  0.00    -0.352 N 
ATOM     74  C   UNL A   1      33.626  24.986  22.729  1.00  0.00     0.253 C 
ATOM     75  H   UNL A   1      34.289  23.320  21.834  1.00  0.00     0.163 HD
ATOM     76  O   UNL A   1      33.645  25.669  21.709  1.00  0.00    -0.269 OA
BRANCH  74  77
ATOM     77  C   UNL A   1      33.137  25.576  23.971  1.00  0.00     0.071 A 
ATOM     78  C   UNL A   1      34.109  26.320  24.674  1.00  0.00     0.018 A 
ATOM     79  C   UNL A   1      31.832  25.543  24.459  1.00  0.00     0.141 A 
ATOM     80  C   UNL A   1      33.805  26.931  25.880  1.00  0.00     0.021 A 
ATOM     81  N   UNL A   1      31.560  26.126  25.675  1.00  0.00    -0.250 NA
ATOM     82  C   UNL A   1      32.521  26.789  26.349  1.00  0.00     0.112 A 
BRANCH  79  83
ATOM     83  C   UNL A   1      30.522  25.092  23.812  1.00  0.00     0.276 C 
ATOM     84  O   UNL A   1      30.439  23.920  23.416  1.00  0.00    -0.267 OA
ATOM     85  N   UNL A   1      29.337  25.769  23.870  1.00  0.00    -0.305 N 
ATOM     86  H   UNL A   1      28.612  25.239  24.274  1.00  0.00     0.171 HD
BRANCH  85  87
ATOM     87  C   UNL A   1      28.931  27.034  23.488  1.00  0.00     0.132 A 
ATOM     88  C   UNL A   1      27.636  27.501  23.638  1.00  0.00     0.049 A 
ATOM     89  N   UNL A   1      29.930  27.789  22.985  1.00  0.00    -0.238 NA
ATOM     90  C   UNL A   1      27.324  28.759  23.111  1.00  0.00     0.026 A 
ATOM     91  C   UNL A   1      29.591  28.983  22.445  1.00  0.00     0.134 A 
ATOM     92  C   UNL A   1      28.309  29.493  22.464  1.00  0.00     0.059 A 
ATOM     93  Cl  UNL A   1      27.931  30.978  21.695  1.00  0.00    -0.083 Cl
ENDBRANCH  85  87
ENDBRANCH  79  83
ENDBRANCH  74  77
ENDBRANCH  72  73
ENDBRANCH  71  72
ENDBRANCH   1  71
TORSDOF 15
ENDMDL
