MODEL 1
REMARK VINA RESULT:     -12.6      0.000      0.000
REMARK SMILES Cc1cc(F)cc(N[C@](C)(C(=O)NCCCNC(=O)c2ccc(-c3c4nc(c(-c5cc(S(=O)(=O)[O-])ccc5F)c5ccc([nH]5)c(-c5cc(S(=O)(=O)[O-])ccc5F)c5nc(c(-c6cc(S(=O)(=O)[O-])ccc6F)c6ccc3[nH]6)C=C5)C=C4)cc2)c2cccc(F)c2)c1
REMARK SMILES IDX 15 1 14 2 13 3 11 4 12 5 9 7 10 8 8 9 7 11 1 12 2 13 3 14
REMARK SMILES IDX 90 15 4 16 5 17 6 18 83 19 84 20 89 21 85 22 87 23 86 24
REMARK SMILES IDX 88 25 16 26 17 27 18 28 19 30 20 31 21 32 82 33 22 34 81 35
REMARK SMILES IDX 23 36 24 37 25 38 75 39 26 40 80 41 74 42 76 43 27 44 79 45
REMARK SMILES IDX 73 46 72 47 28 49 60 50 40 51 59 52 41 53 44 54 58 55 77 56
REMARK SMILES IDX 42 57 43 58 57 60 78 61 45 62 29 63 30 64 38 65 31 66 37 67
REMARK SMILES IDX 39 68 36 69 32 70 33 71 34 72 35 73 61 74 62 75 70 76 63 77
REMARK SMILES IDX 69 78 71 79 68 80 64 81 65 82 66 83 67 84 46 85 47 86 55 87
REMARK SMILES IDX 48 88 54 89 56 90 53 91 49 92 50 93 51 94 52 95
REMARK H PARENT 13 6 8 10 17 29 76 48 44 59
REMARK Flexibility Score: inf
ROOT
ATOM      1  C   UNL A   1      31.370  31.881  26.342  1.00  0.00     0.042 C 
ENDROOT
BRANCH   1   2
ATOM      2  C   UNL A   1      31.374  30.398  25.979  1.00  0.00     0.117 C 
BRANCH   2   3
ATOM      3  N   UNL A   1      32.365  30.110  24.963  1.00  0.00    -0.354 N 
ATOM      4  C   UNL A   1      32.541  29.051  24.129  1.00  0.00     0.250 C 
ATOM      5  O   UNL A   1      33.686  28.958  23.656  1.00  0.00    -0.272 OA
ATOM      6  H   UNL A   1      33.043  30.816  24.857  1.00  0.00     0.163 HD
BRANCH   4   7
ATOM      7  C   UNL A   1      31.424  27.977  23.757  1.00  0.00     0.139 C 
ATOM      8  C   UNL A   1      31.823  26.809  22.822  1.00  0.00     0.051 C 
BRANCH   7   9
ATOM      9  N   UNL A   1      31.026  27.328  25.056  1.00  0.00    -0.368 N 
ATOM     10  H   UNL A   1      30.356  27.807  25.596  1.00  0.00     0.161 HD
BRANCH   9  11
ATOM     11  C   UNL A   1      31.499  26.125  25.582  1.00  0.00     0.038 A 
ATOM     12  C   UNL A   1      29.867  22.940  26.966  1.00  0.00     0.044 C 
ATOM     13  C   UNL A   1      30.906  23.924  26.519  1.00  0.00    -0.046 A 
ATOM     14  C   UNL A   1      32.259  23.613  26.650  1.00  0.00     0.042 A 
ATOM     15  C   UNL A   1      30.544  25.167  25.971  1.00  0.00     0.029 A 
ATOM     16  C   UNL A   1      33.210  24.541  26.250  1.00  0.00     0.125 A 
ATOM     17  F   UNL A   1      34.511  24.244  26.382  1.00  0.00    -0.207 F 
ATOM     18  C   UNL A   1      32.843  25.779  25.725  1.00  0.00     0.065 A 
ENDBRANCH   9  11
ENDBRANCH   7   9
BRANCH   7  19
ATOM     19  C   UNL A   1      30.212  28.756  23.146  1.00  0.00    -0.011 A 
ATOM     20  C   UNL A   1      30.344  29.767  22.171  1.00  0.00     0.007 A 
ATOM     21  C   UNL A   1      28.890  28.395  23.481  1.00  0.00     0.046 A 
ATOM     22  C   UNL A   1      29.225  30.368  21.568  1.00  0.00     0.003 A 
ATOM     23  C   UNL A   1      27.785  28.980  22.865  1.00  0.00     0.123 A 
ATOM     24  C   UNL A   1      27.940  29.964  21.909  1.00  0.00     0.039 A 
ATOM     25  F   UNL A   1      26.556  28.560  23.195  1.00  0.00    -0.207 F 
ENDBRANCH   7  19
ENDBRANCH   4   7
ENDBRANCH   2   3
ENDBRANCH   1   2
BRANCH   1  26
ATOM     26  C   UNL A   1      32.632  32.343  27.060  1.00  0.00     0.118 C 
BRANCH  26  27
ATOM     27  N   UNL A   1      32.567  33.748  27.422  1.00  0.00    -0.352 N 
ATOM     28  C   UNL A   1      33.181  34.433  28.442  1.00  0.00     0.251 C 
ATOM     29  H   UNL A   1      31.989  34.298  26.844  1.00  0.00     0.163 HD
ATOM     30  O   UNL A   1      32.782  35.562  28.714  1.00  0.00    -0.269 OA
BRANCH  28  31
ATOM     31  C   UNL A   1      34.295  33.831  29.215  1.00  0.00     0.039 A 
ATOM     32  C   UNL A   1      35.605  34.217  28.913  1.00  0.00     0.014 A 
ATOM     33  C   UNL A   1      34.073  32.846  30.182  1.00  0.00     0.014 A 
ATOM     34  C   UNL A   1      36.680  33.646  29.600  1.00  0.00     0.010 A 
ATOM     35  C   UNL A   1      35.138  32.342  30.928  1.00  0.00     0.010 A 
ATOM     36  C   UNL A   1      36.455  32.718  30.628  1.00  0.00    -0.014 A 
BRANCH  36  37
ATOM     37  C   UNL A   1      37.590  32.101  31.365  1.00  0.00     0.031 A 
ATOM     38  C   UNL A   1      38.380  30.980  30.742  1.00  0.00     0.074 A 
ATOM     39  C   UNL A   1      37.885  32.522  32.610  1.00  0.00     0.049 A 
ATOM     40  N   UNL A   1      39.386  30.300  31.232  1.00  0.00    -0.248 NA
ATOM     41  C   UNL A   1      37.956  30.544  29.404  1.00  0.00     0.031 C 
ATOM     42  C   UNL A   1      37.164  33.567  33.341  1.00  0.00     0.029 A 
ATOM     43  N   UNL A   1      38.869  32.126  33.481  1.00  0.00    -0.354 N 
ATOM     44  C   UNL A   1      39.704  29.347  30.269  1.00  0.00     0.074 A 
ATOM     45  C   UNL A   1      38.732  29.491  29.206  1.00  0.00     0.031 C 
ATOM     46  C   UNL A   1      37.756  33.758  34.530  1.00  0.00     0.029 A 
ATOM     47  C   UNL A   1      38.870  32.825  34.666  1.00  0.00     0.049 A 
ATOM     48  H   UNL A   1      39.512  31.410  33.277  1.00  0.00     0.167 HD
ATOM     49  C   UNL A   1      40.727  28.454  30.257  1.00  0.00     0.034 A 
ATOM     50  C   UNL A   1      39.682  32.729  35.737  1.00  0.00     0.034 A 
ATOM     51  C   UNL A   1      41.695  28.335  31.322  1.00  0.00     0.049 A 
ATOM     52  C   UNL A   1      40.803  31.725  35.714  1.00  0.00     0.074 A 
ATOM     53  C   UNL A   1      42.807  27.514  31.393  1.00  0.00     0.029 A 
ATOM     54  N   UNL A   1      41.658  29.052  32.512  1.00  0.00    -0.354 N 
ATOM     55  N   UNL A   1      41.128  30.868  34.773  1.00  0.00    -0.248 NA
ATOM     56  C   UNL A   1      41.674  31.683  36.896  1.00  0.00     0.031 C 
ATOM     57  C   UNL A   1      43.402  27.687  32.648  1.00  0.00     0.029 A 
ATOM     58  C   UNL A   1      42.707  28.671  33.335  1.00  0.00     0.049 A 
ATOM     59  H   UNL A   1      40.984  29.734  32.738  1.00  0.00     0.167 HD
ATOM     60  C   UNL A   1      42.260  30.205  35.237  1.00  0.00     0.074 A 
ATOM     61  C   UNL A   1      42.565  30.769  36.538  1.00  0.00     0.031 C 
ATOM     62  C   UNL A   1      42.987  29.227  34.639  1.00  0.00     0.034 A 
BRANCH  49  63
ATOM     63  C   UNL A   1      40.821  27.529  29.063  1.00  0.00     0.023 A 
ATOM     64  C   UNL A   1      41.767  27.734  28.041  1.00  0.00     0.031 A 
ATOM     65  C   UNL A   1      39.910  26.469  28.904  1.00  0.00     0.131 A 
ATOM     66  C   UNL A   1      41.709  26.971  26.866  1.00  0.00     0.055 A 
ATOM     67  C   UNL A   1      39.922  25.648  27.774  1.00  0.00     0.041 A 
ATOM     68  F   UNL A   1      38.972  26.229  29.833  1.00  0.00    -0.206 F 
ATOM     69  C   UNL A   1      40.811  25.912  26.735  1.00  0.00     0.022 A 
BRANCH  66  70
ATOM     70  S   UNL A   1      42.694  27.511  25.439  1.00  0.00     0.124 S 
ATOM     71  O   UNL A   1      42.667  26.319  24.595  1.00  0.00    -0.237 OA
ATOM     72  O   UNL A   1      41.937  28.658  24.951  1.00  0.00    -0.237 OA
ATOM     73  O   UNL A   1      43.997  27.823  26.021  1.00  0.00    -0.744 OA
ENDBRANCH  66  70
ENDBRANCH  49  63
BRANCH  50  74
ATOM     74  C   UNL A   1      39.476  33.622  36.910  1.00  0.00     0.023 A 
ATOM     75  C   UNL A   1      38.849  33.149  38.073  1.00  0.00     0.031 A 
ATOM     76  C   UNL A   1      39.900  34.962  36.885  1.00  0.00     0.131 A 
ATOM     77  C   UNL A   1      38.638  34.016  39.156  1.00  0.00     0.055 A 
ATOM     78  C   UNL A   1      39.725  35.810  37.981  1.00  0.00     0.041 A 
ATOM     79  F   UNL A   1      40.513  35.460  35.799  1.00  0.00    -0.206 F 
ATOM     80  C   UNL A   1      39.084  35.340  39.122  1.00  0.00     0.022 A 
BRANCH  77  81
ATOM     81  S   UNL A   1      37.730  33.399  40.600  1.00  0.00     0.124 S 
ATOM     82  O   UNL A   1      38.553  32.266  41.005  1.00  0.00    -0.237 OA
ATOM     83  O   UNL A   1      37.749  34.557  41.488  1.00  0.00    -0.237 OA
ATOM     84  O   UNL A   1      36.419  33.056  40.056  1.00  0.00    -0.744 OA
ENDBRANCH  77  81
ENDBRANCH  50  74
BRANCH  62  85
ATOM     85  C   UNL A   1      44.207  28.735  35.379  1.00  0.00     0.023 A 
ATOM     86  C   UNL A   1      44.132  27.695  36.322  1.00  0.00     0.031 A 
ATOM     87  C   UNL A   1      45.461  29.328  35.145  1.00  0.00     0.131 A 
ATOM     88  C   UNL A   1      45.279  27.317  37.037  1.00  0.00     0.055 A 
ATOM     89  C   UNL A   1      46.609  28.907  35.817  1.00  0.00     0.041 A 
ATOM     90  F   UNL A   1      45.590  30.326  34.257  1.00  0.00    -0.206 F 
ATOM     91  C   UNL A   1      46.520  27.905  36.779  1.00  0.00     0.022 A 
BRANCH  88  92
ATOM     92  S   UNL A   1      45.111  26.104  38.376  1.00  0.00     0.124 S 
ATOM     93  O   UNL A   1      44.440  24.997  37.701  1.00  0.00    -0.237 OA
ATOM     94  O   UNL A   1      46.499  25.870  38.761  1.00  0.00    -0.237 OA
ATOM     95  O   UNL A   1      44.301  26.804  39.373  1.00  0.00    -0.744 OA
ENDBRANCH  88  92
ENDBRANCH  62  85
ENDBRANCH  36  37
ENDBRANCH  28  31
ENDBRANCH  26  27
ENDBRANCH   1  26
TORSDOF 16
ENDMDL
MODEL 2
REMARK VINA RESULT:     -12.5      3.281      8.482
REMARK SMILES Cc1cc(F)cc(N[C@](C)(C(=O)NCCCNC(=O)c2ccc(-c3c4nc(c(-c5cc(S(=O)(=O)[O-])ccc5F)c5ccc([nH]5)c(-c5cc(S(=O)(=O)[O-])ccc5F)c5nc(c(-c6cc(S(=O)(=O)[O-])ccc6F)c6ccc3[nH]6)C=C5)C=C4)cc2)c2cccc(F)c2)c1
REMARK SMILES IDX 15 1 14 2 13 3 11 4 12 5 9 7 10 8 8 9 7 11 1 12 2 13 3 14
REMARK SMILES IDX 90 15 4 16 5 17 6 18 83 19 84 20 89 21 85 22 87 23 86 24
REMARK SMILES IDX 88 25 16 26 17 27 18 28 19 30 20 31 21 32 82 33 22 34 81 35
REMARK SMILES IDX 23 36 24 37 25 38 75 39 26 40 80 41 74 42 76 43 27 44 79 45
REMARK SMILES IDX 73 46 72 47 28 49 60 50 40 51 59 52 41 53 44 54 58 55 77 56
REMARK SMILES IDX 42 57 43 58 57 60 78 61 45 62 29 63 30 64 38 65 31 66 37 67
REMARK SMILES IDX 39 68 36 69 32 70 33 71 34 72 35 73 61 74 62 75 70 76 63 77
REMARK SMILES IDX 69 78 71 79 68 80 64 81 65 82 66 83 67 84 46 85 47 86 55 87
REMARK SMILES IDX 48 88 54 89 56 90 53 91 49 92 50 93 51 94 52 95
REMARK H PARENT 13 6 8 10 17 29 76 48 44 59
REMARK Flexibility Score: inf
ROOT
ATOM      1  C   UNL A   1      33.188  28.130  26.819  1.00  0.00     0.042 C 
ENDROOT
BRANCH   1   2
ATOM      2  C   UNL A   1      31.679  28.220  26.607  1.00  0.00     0.117 C 
BRANCH   2   3
ATOM      3  N   UNL A   1      31.034  26.953  26.882  1.00  0.00    -0.354 N 
ATOM      4  C   UNL A   1      30.489  26.007  26.072  1.00  0.00     0.250 C 
ATOM      5  O   UNL A   1      29.701  25.236  26.646  1.00  0.00    -0.272 OA
ATOM      6  H   UNL A   1      30.979  26.735  27.841  1.00  0.00     0.163 HD
BRANCH   4   7
ATOM      7  C   UNL A   1      30.781  25.852  24.513  1.00  0.00     0.139 C 
ATOM      8  C   UNL A   1      32.253  25.927  24.041  1.00  0.00     0.051 C 
BRANCH   7   9
ATOM      9  N   UNL A   1      30.315  24.470  24.142  1.00  0.00    -0.368 N 
ATOM     10  H   UNL A   1      29.346  24.357  24.009  1.00  0.00     0.161 HD
BRANCH   9  11
ATOM     11  C   UNL A   1      31.100  23.330  23.965  1.00  0.00     0.038 A 
ATOM     12  C   UNL A   1      33.303  21.171  26.248  1.00  0.00     0.044 C 
ATOM     13  C   UNL A   1      32.579  21.673  25.035  1.00  0.00    -0.046 A 
ATOM     14  C   UNL A   1      32.721  21.011  23.817  1.00  0.00     0.042 A 
ATOM     15  C   UNL A   1      31.758  22.813  25.098  1.00  0.00     0.029 A 
ATOM     16  C   UNL A   1      32.061  21.498  22.699  1.00  0.00     0.125 A 
ATOM     17  F   UNL A   1      32.203  20.863  21.526  1.00  0.00    -0.207 F 
ATOM     18  C   UNL A   1      31.263  22.639  22.764  1.00  0.00     0.065 A 
ENDBRANCH   9  11
ENDBRANCH   7   9
BRANCH   7  19
ATOM     19  C   UNL A   1      29.928  26.932  23.768  1.00  0.00    -0.011 A 
ATOM     20  C   UNL A   1      28.522  27.007  23.843  1.00  0.00     0.007 A 
ATOM     21  C   UNL A   1      30.561  27.968  23.050  1.00  0.00     0.046 A 
ATOM     22  C   UNL A   1      27.801  28.055  23.246  1.00  0.00     0.003 A 
ATOM     23  C   UNL A   1      29.843  29.017  22.478  1.00  0.00     0.123 A 
ATOM     24  C   UNL A   1      28.465  29.071  22.570  1.00  0.00     0.039 A 
ATOM     25  F   UNL A   1      30.507  29.995  21.849  1.00  0.00    -0.207 F 
ENDBRANCH   7  19
ENDBRANCH   4   7
ENDBRANCH   2   3
ENDBRANCH   1   2
BRANCH   1  26
ATOM     26  C   UNL A   1      33.982  29.182  26.055  1.00  0.00     0.118 C 
BRANCH  26  27
ATOM     27  N   UNL A   1      33.804  30.510  26.618  1.00  0.00    -0.352 N 
ATOM     28  C   UNL A   1      34.449  31.125  27.662  1.00  0.00     0.251 C 
ATOM     29  H   UNL A   1      33.110  31.055  26.181  1.00  0.00     0.163 HD
ATOM     30  O   UNL A   1      33.962  32.153  28.128  1.00  0.00    -0.269 OA
BRANCH  28  31
ATOM     31  C   UNL A   1      35.700  30.570  28.234  1.00  0.00     0.039 A 
ATOM     32  C   UNL A   1      36.914  30.869  27.607  1.00  0.00     0.014 A 
ATOM     33  C   UNL A   1      35.688  29.706  29.334  1.00  0.00     0.014 A 
ATOM     34  C   UNL A   1      38.107  30.335  28.100  1.00  0.00     0.010 A 
ATOM     35  C   UNL A   1      36.885  29.246  29.878  1.00  0.00     0.010 A 
ATOM     36  C   UNL A   1      38.107  29.534  29.253  1.00  0.00    -0.014 A 
BRANCH  36  37
ATOM     37  C   UNL A   1      39.370  28.959  29.787  1.00  0.00     0.031 A 
ATOM     38  C   UNL A   1      39.998  29.531  31.030  1.00  0.00     0.074 A 
ATOM     39  C   UNL A   1      39.972  27.947  29.133  1.00  0.00     0.049 A 
ATOM     40  N   UNL A   1      41.104  29.184  31.638  1.00  0.00    -0.248 NA
ATOM     41  C   UNL A   1      39.305  30.670  31.650  1.00  0.00     0.031 C 
ATOM     42  C   UNL A   1      39.488  27.337  27.892  1.00  0.00     0.029 A 
ATOM     43  N   UNL A   1      41.119  27.250  29.419  1.00  0.00    -0.354 N 
ATOM     44  C   UNL A   1      41.248  30.071  32.701  1.00  0.00     0.074 A 
ATOM     45  C   UNL A   1      40.156  31.016  32.602  1.00  0.00     0.031 C 
ATOM     46  C   UNL A   1      40.308  26.332  27.548  1.00  0.00     0.029 A 
ATOM     47  C   UNL A   1      41.396  26.250  28.518  1.00  0.00     0.049 A 
ATOM     48  H   UNL A   1      41.689  27.449  30.196  1.00  0.00     0.167 HD
ATOM     49  C   UNL A   1      42.184  30.081  33.684  1.00  0.00     0.034 A 
ATOM     50  C   UNL A   1      42.409  25.363  28.480  1.00  0.00     0.034 A 
ATOM     51  C   UNL A   1      43.259  29.120  33.772  1.00  0.00     0.049 A 
ATOM     52  C   UNL A   1      43.448  25.395  29.569  1.00  0.00     0.074 A 
ATOM     53  C   UNL A   1      44.227  28.993  34.752  1.00  0.00     0.029 A 
ATOM     54  N   UNL A   1      43.515  28.127  32.833  1.00  0.00    -0.354 N 
ATOM     55  N   UNL A   1      43.540  26.204  30.601  1.00  0.00    -0.248 NA
ATOM     56  C   UNL A   1      44.513  24.387  29.494  1.00  0.00     0.031 C 
ATOM     57  C   UNL A   1      45.104  27.968  34.375  1.00  0.00     0.029 A 
ATOM     58  C   UNL A   1      44.642  27.404  33.195  1.00  0.00     0.049 A 
ATOM     59  H   UNL A   1      42.973  27.960  32.028  1.00  0.00     0.167 HD
ATOM     60  C   UNL A   1      44.658  25.782  31.314  1.00  0.00     0.074 A 
ATOM     61  C   UNL A   1      45.200  24.643  30.599  1.00  0.00     0.031 C 
ATOM     62  C   UNL A   1      45.184  26.283  32.461  1.00  0.00     0.034 A 
BRANCH  49  63
ATOM     63  C   UNL A   1      42.089  31.184  34.716  1.00  0.00     0.023 A 
ATOM     64  C   UNL A   1      41.046  31.223  35.661  1.00  0.00     0.031 A 
ATOM     65  C   UNL A   1      43.008  32.247  34.716  1.00  0.00     0.131 A 
ATOM     66  C   UNL A   1      40.884  32.349  36.482  1.00  0.00     0.055 A 
ATOM     67  C   UNL A   1      42.898  33.319  35.605  1.00  0.00     0.041 A 
ATOM     68  F   UNL A   1      44.017  32.280  33.830  1.00  0.00    -0.206 F 
ATOM     69  C   UNL A   1      41.817  33.386  36.480  1.00  0.00     0.022 A 
BRANCH  66  70
ATOM     70  S   UNL A   1      39.332  32.523  37.409  1.00  0.00     0.124 S 
ATOM     71  O   UNL A   1      39.819  32.627  38.782  1.00  0.00    -0.237 OA
ATOM     72  O   UNL A   1      38.760  33.737  36.839  1.00  0.00    -0.237 OA
ATOM     73  O   UNL A   1      38.612  31.289  37.104  1.00  0.00    -0.744 OA
ENDBRANCH  66  70
ENDBRANCH  49  63
BRANCH  50  74
ATOM     74  C   UNL A   1      42.478  24.357  27.384  1.00  0.00     0.023 A 
ATOM     75  C   UNL A   1      41.690  23.196  27.422  1.00  0.00     0.031 A 
ATOM     76  C   UNL A   1      43.334  24.539  26.283  1.00  0.00     0.131 A 
ATOM     77  C   UNL A   1      41.793  22.247  26.395  1.00  0.00     0.055 A 
ATOM     78  C   UNL A   1      43.402  23.612  25.243  1.00  0.00     0.041 A 
ATOM     79  F   UNL A   1      44.101  25.637  26.196  1.00  0.00    -0.206 F 
ATOM     80  C   UNL A   1      42.634  22.453  25.298  1.00  0.00     0.022 A 
BRANCH  77  81
ATOM     81  S   UNL A   1      40.839  20.710  26.532  1.00  0.00     0.124 S 
ATOM     82  O   UNL A   1      40.885  20.459  27.968  1.00  0.00    -0.237 OA
ATOM     83  O   UNL A   1      39.543  21.108  25.991  1.00  0.00    -0.237 OA
ATOM     84  O   UNL A   1      41.593  19.768  25.709  1.00  0.00    -0.744 OA
ENDBRANCH  77  81
ENDBRANCH  50  74
BRANCH  62  85
ATOM     85  C   UNL A   1      46.388  25.572  33.028  1.00  0.00     0.023 A 
ATOM     86  C   UNL A   1      46.259  24.517  33.947  1.00  0.00     0.031 A 
ATOM     87  C   UNL A   1      47.684  25.969  32.651  1.00  0.00     0.131 A 
ATOM     88  C   UNL A   1      47.407  23.930  34.502  1.00  0.00     0.055 A 
ATOM     89  C   UNL A   1      48.821  25.343  33.163  1.00  0.00     0.041 A 
ATOM     90  F   UNL A   1      47.865  26.973  31.779  1.00  0.00    -0.206 F 
ATOM     91  C   UNL A   1      48.687  24.325  34.103  1.00  0.00     0.022 A 
BRANCH  88  92
ATOM     92  S   UNL A   1      47.208  22.701  35.821  1.00  0.00     0.124 S 
ATOM     93  O   UNL A   1      47.768  21.502  35.207  1.00  0.00    -0.237 OA
ATOM     94  O   UNL A   1      47.986  23.283  36.910  1.00  0.00    -0.237 OA
ATOM     95  O   UNL A   1      45.762  22.667  36.043  1.00  0.00    -0.744 OA
ENDBRANCH  88  92
ENDBRANCH  62  85
ENDBRANCH  36  37
ENDBRANCH  28  31
ENDBRANCH  26  27
ENDBRANCH   1  26
TORSDOF 16
ENDMDL
MODEL 3
REMARK VINA RESULT:     -12.5      2.407      7.798
REMARK SMILES Cc1cc(F)cc(N[C@](C)(C(=O)NCCCNC(=O)c2ccc(-c3c4nc(c(-c5cc(S(=O)(=O)[O-])ccc5F)c5ccc([nH]5)c(-c5cc(S(=O)(=O)[O-])ccc5F)c5nc(c(-c6cc(S(=O)(=O)[O-])ccc6F)c6ccc3[nH]6)C=C5)C=C4)cc2)c2cccc(F)c2)c1
REMARK SMILES IDX 15 1 14 2 13 3 11 4 12 5 9 7 10 8 8 9 7 11 1 12 2 13 3 14
REMARK SMILES IDX 90 15 4 16 5 17 6 18 83 19 84 20 89 21 85 22 87 23 86 24
REMARK SMILES IDX 88 25 16 26 17 27 18 28 19 30 20 31 21 32 82 33 22 34 81 35
REMARK SMILES IDX 23 36 24 37 25 38 75 39 26 40 80 41 74 42 76 43 27 44 79 45
REMARK SMILES IDX 73 46 72 47 28 49 60 50 40 51 59 52 41 53 44 54 58 55 77 56
REMARK SMILES IDX 42 57 43 58 57 60 78 61 45 62 29 63 30 64 38 65 31 66 37 67
REMARK SMILES IDX 39 68 36 69 32 70 33 71 34 72 35 73 61 74 62 75 70 76 63 77
REMARK SMILES IDX 69 78 71 79 68 80 64 81 65 82 66 83 67 84 46 85 47 86 55 87
REMARK SMILES IDX 48 88 54 89 56 90 53 91 49 92 50 93 51 94 52 95
REMARK H PARENT 13 6 8 10 17 29 76 48 44 59
REMARK Flexibility Score: inf
ROOT
ATOM      1  C   UNL A   1      31.954  29.871  25.277  1.00  0.00     0.042 C 
ENDROOT
BRANCH   1   2
ATOM      2  C   UNL A   1      33.211  29.036  25.042  1.00  0.00     0.117 C 
BRANCH   2   3
ATOM      3  N   UNL A   1      33.602  29.060  23.648  1.00  0.00    -0.354 N 
ATOM      4  C   UNL A   1      33.477  28.150  22.645  1.00  0.00     0.250 C 
ATOM      5  O   UNL A   1      34.243  28.340  21.685  1.00  0.00    -0.272 OA
ATOM      6  H   UNL A   1      34.046  29.895  23.374  1.00  0.00     0.163 HD
BRANCH   4   7
ATOM      7  C   UNL A   1      32.467  26.918  22.641  1.00  0.00     0.139 C 
ATOM      8  C   UNL A   1      32.488  25.967  21.420  1.00  0.00     0.051 C 
BRANCH   7   9
ATOM      9  N   UNL A   1      32.852  26.064  23.818  1.00  0.00    -0.368 N 
ATOM     10  H   UNL A   1      32.866  26.510  24.695  1.00  0.00     0.161 HD
BRANCH   9  11
ATOM     11  C   UNL A   1      33.192  24.711  23.807  1.00  0.00     0.038 A 
ATOM     12  C   UNL A   1      36.456  22.735  23.393  1.00  0.00     0.044 C 
ATOM     13  C   UNL A   1      35.008  23.054  23.612  1.00  0.00    -0.046 A 
ATOM     14  C   UNL A   1      34.087  22.022  23.781  1.00  0.00     0.042 A 
ATOM     15  C   UNL A   1      34.552  24.384  23.644  1.00  0.00     0.029 A 
ATOM     16  C   UNL A   1      32.747  22.331  23.963  1.00  0.00     0.125 A 
ATOM     17  F   UNL A   1      31.860  21.337  24.119  1.00  0.00    -0.207 F 
ATOM     18  C   UNL A   1      32.300  23.651  23.975  1.00  0.00     0.065 A 
ENDBRANCH   9  11
ENDBRANCH   7   9
BRANCH   7  19
ATOM     19  C   UNL A   1      31.025  27.496  22.837  1.00  0.00    -0.011 A 
ATOM     20  C   UNL A   1      30.573  28.691  22.240  1.00  0.00     0.007 A 
ATOM     21  C   UNL A   1      30.058  26.766  23.561  1.00  0.00     0.046 A 
ATOM     22  C   UNL A   1      29.239  29.120  22.354  1.00  0.00     0.003 A 
ATOM     23  C   UNL A   1      28.732  27.186  23.653  1.00  0.00     0.123 A 
ATOM     24  C   UNL A   1      28.312  28.358  23.054  1.00  0.00     0.039 A 
ATOM     25  F   UNL A   1      27.852  26.425  24.316  1.00  0.00    -0.207 F 
ENDBRANCH   7  19
ENDBRANCH   4   7
ENDBRANCH   2   3
ENDBRANCH   1   2
BRANCH   1  26
ATOM     26  C   UNL A   1      31.824  30.400  26.700  1.00  0.00     0.118 C 
BRANCH  26  27
ATOM     27  N   UNL A   1      31.906  31.850  26.748  1.00  0.00    -0.352 N 
ATOM     28  C   UNL A   1      32.737  32.669  27.471  1.00  0.00     0.251 C 
ATOM     29  H   UNL A   1      31.261  32.321  26.170  1.00  0.00     0.163 HD
ATOM     30  O   UNL A   1      32.459  33.863  27.551  1.00  0.00    -0.269 OA
BRANCH  28  31
ATOM     31  C   UNL A   1      33.941  32.138  28.156  1.00  0.00     0.039 A 
ATOM     32  C   UNL A   1      34.697  33.006  28.950  1.00  0.00     0.014 A 
ATOM     33  C   UNL A   1      34.372  30.821  27.974  1.00  0.00     0.014 A 
ATOM     34  C   UNL A   1      35.856  32.547  29.583  1.00  0.00     0.010 A 
ATOM     35  C   UNL A   1      35.476  30.340  28.675  1.00  0.00     0.010 A 
ATOM     36  C   UNL A   1      36.245  31.204  29.468  1.00  0.00    -0.014 A 
BRANCH  36  37
ATOM     37  C   UNL A   1      37.477  30.703  30.135  1.00  0.00     0.031 A 
ATOM     38  C   UNL A   1      37.807  31.133  31.540  1.00  0.00     0.074 A 
ATOM     39  C   UNL A   1      38.317  29.892  29.463  1.00  0.00     0.049 A 
ATOM     40  N   UNL A   1      38.840  30.824  32.282  1.00  0.00    -0.248 NA
ATOM     41  C   UNL A   1      36.865  32.062  32.179  1.00  0.00     0.031 C 
ATOM     42  C   UNL A   1      38.132  29.442  28.081  1.00  0.00     0.029 A 
ATOM     43  N   UNL A   1      39.493  29.299  29.850  1.00  0.00    -0.354 N 
ATOM     44  C   UNL A   1      38.681  31.534  33.468  1.00  0.00     0.074 A 
ATOM     45  C   UNL A   1      37.493  32.346  33.309  1.00  0.00     0.031 C 
ATOM     46  C   UNL A   1      39.135  28.612  27.752  1.00  0.00     0.029 A 
ATOM     47  C   UNL A   1      40.054  28.502  28.881  1.00  0.00     0.049 A 
ATOM     48  H   UNL A   1      39.896  29.434  30.738  1.00  0.00     0.167 HD
ATOM     49  C   UNL A   1      39.436  31.493  34.596  1.00  0.00     0.034 A 
ATOM     50  C   UNL A   1      41.179  27.761  28.901  1.00  0.00     0.034 A 
ATOM     51  C   UNL A   1      40.611  30.667  34.739  1.00  0.00     0.049 A 
ATOM     52  C   UNL A   1      42.013  27.736  30.154  1.00  0.00     0.074 A 
ATOM     53  C   UNL A   1      41.418  30.495  35.851  1.00  0.00     0.029 A 
ATOM     54  N   UNL A   1      41.156  29.880  33.731  1.00  0.00    -0.354 N 
ATOM     55  N   UNL A   1      41.820  28.369  31.290  1.00  0.00    -0.248 NA
ATOM     56  C   UNL A   1      43.212  26.889  30.131  1.00  0.00     0.031 C 
ATOM     57  C   UNL A   1      42.484  29.659  35.496  1.00  0.00     0.029 A 
ATOM     58  C   UNL A   1      42.305  29.246  34.185  1.00  0.00     0.049 A 
ATOM     59  H   UNL A   1      40.781  29.785  32.826  1.00  0.00     0.167 HD
ATOM     60  C   UNL A   1      42.858  27.971  32.126  1.00  0.00     0.074 A 
ATOM     61  C   UNL A   1      43.668  27.038  31.367  1.00  0.00     0.031 C 
ATOM     62  C   UNL A   1      43.114  28.335  33.409  1.00  0.00     0.034 A 
BRANCH  49  63
ATOM     63  C   UNL A   1      39.016  32.391  35.740  1.00  0.00     0.023 A 
ATOM     64  C   UNL A   1      39.418  33.738  35.807  1.00  0.00     0.031 A 
ATOM     65  C   UNL A   1      38.266  31.880  36.813  1.00  0.00     0.131 A 
ATOM     66  C   UNL A   1      39.166  34.489  36.965  1.00  0.00     0.055 A 
ATOM     67  C   UNL A   1      37.933  32.664  37.921  1.00  0.00     0.041 A 
ATOM     68  F   UNL A   1      37.865  30.599  36.820  1.00  0.00    -0.206 F 
ATOM     69  C   UNL A   1      38.404  33.971  38.012  1.00  0.00     0.022 A 
BRANCH  66  70
ATOM     70  S   UNL A   1      40.017  36.082  37.161  1.00  0.00     0.124 S 
ATOM     71  O   UNL A   1      41.379  35.652  37.468  1.00  0.00    -0.237 OA
ATOM     72  O   UNL A   1      39.821  36.705  35.857  1.00  0.00    -0.237 OA
ATOM     73  O   UNL A   1      39.307  36.715  38.270  1.00  0.00    -0.744 OA
ENDBRANCH  66  70
ENDBRANCH  49  63
BRANCH  50  74
ATOM     74  C   UNL A   1      41.568  26.965  27.705  1.00  0.00     0.023 A 
ATOM     75  C   UNL A   1      41.349  25.580  27.659  1.00  0.00     0.031 A 
ATOM     76  C   UNL A   1      42.167  27.577  26.589  1.00  0.00     0.131 A 
ATOM     77  C   UNL A   1      41.752  24.844  26.535  1.00  0.00     0.055 A 
ATOM     78  C   UNL A   1      42.528  26.848  25.455  1.00  0.00     0.041 A 
ATOM     79  F   UNL A   1      42.389  28.901  26.580  1.00  0.00    -0.206 F 
ATOM     80  C   UNL A   1      42.328  25.471  25.426  1.00  0.00     0.022 A 
BRANCH  77  81
ATOM     81  S   UNL A   1      41.550  23.041  26.556  1.00  0.00     0.124 S 
ATOM     82  O   UNL A   1      42.215  22.684  27.804  1.00  0.00    -0.237 OA
ATOM     83  O   UNL A   1      40.098  22.898  26.538  1.00  0.00    -0.237 OA
ATOM     84  O   UNL A   1      42.232  22.609  25.339  1.00  0.00    -0.744 OA
ENDBRANCH  77  81
ENDBRANCH  50  74
BRANCH  62  85
ATOM     85  C   UNL A   1      44.303  27.689  34.077  1.00  0.00     0.023 A 
ATOM     86  C   UNL A   1      44.192  26.469  34.767  1.00  0.00     0.031 A 
ATOM     87  C   UNL A   1      45.563  28.313  34.034  1.00  0.00     0.131 A 
ATOM     88  C   UNL A   1      45.307  25.939  35.433  1.00  0.00     0.055 A 
ATOM     89  C   UNL A   1      46.682  27.752  34.650  1.00  0.00     0.041 A 
ATOM     90  F   UNL A   1      45.725  29.481  33.392  1.00  0.00    -0.206 F 
ATOM     91  C   UNL A   1      46.556  26.564  35.365  1.00  0.00     0.022 A 
BRANCH  88  92
ATOM     92  S   UNL A   1      45.087  24.465  36.468  1.00  0.00     0.124 S 
ATOM     93  O   UNL A   1      44.856  25.051  37.785  1.00  0.00    -0.237 OA
ATOM     94  O   UNL A   1      43.936  23.817  35.846  1.00  0.00    -0.237 OA
ATOM     95  O   UNL A   1      46.354  23.750  36.321  1.00  0.00    -0.744 OA
ENDBRANCH  88  92
ENDBRANCH  62  85
ENDBRANCH  36  37
ENDBRANCH  28  31
ENDBRANCH  26  27
ENDBRANCH   1  26
TORSDOF 16
ENDMDL
