MODEL 1
REMARK VINA RESULT:     -13.0      0.000      0.000
REMARK SMILES Cc1cc(C)c2c(c1)C=C(C(=O)NCCCNC(=O)c1ccc(-c3c4nc(c(-c5cc(S(=O)(=O)[O-])ccc5F)c5ccc([nH]5)c(-c5cc(S(=O)(=O)[O-])ccc5F)c5nc(c(-c6cc(S(=O)(=O)[O-])ccc6F)c6ccc3[nH]6)C=C5)C=C4)cc1)[C@@H](C(F)(F)F)O2
REMARK SMILES IDX 16 1 15 2 14 3 13 4 11 5 12 6 10 8 1 9 2 10 3 11 8 12 4 13
REMARK SMILES IDX 7 14 5 15 6 16 9 17 88 18 83 19 84 20 85 21 86 22 87 23
REMARK SMILES IDX 17 24 18 25 19 27 20 28 21 29 82 30 22 31 81 32 23 33 24 34
REMARK SMILES IDX 25 35 75 36 26 37 80 38 74 39 76 40 27 41 79 42 73 43 72 44
REMARK SMILES IDX 28 46 60 47 40 48 59 49 41 50 44 51 58 52 77 53 42 54 43 55
REMARK SMILES IDX 57 57 78 58 45 59 29 60 30 61 38 62 31 63 37 64 39 65 36 66
REMARK SMILES IDX 32 67 33 68 34 69 35 70 61 71 62 72 70 73 63 74 69 75 71 76
REMARK SMILES IDX 68 77 64 78 65 79 66 80 67 81 46 82 47 83 55 84 48 85 54 86
REMARK SMILES IDX 56 87 53 88 49 89 50 90 51 91 52 92
REMARK H PARENT 13 7 17 26 76 45 44 56
REMARK Flexibility Score: inf
ROOT
ATOM      1  C   UNL A   1      33.299  28.917  24.815  1.00  0.00     0.118 C 
ENDROOT
BRANCH   1   2
ATOM      2  C   UNL A   1      33.199  28.846  23.296  1.00  0.00     0.042 C 
BRANCH   2   3
ATOM      3  C   UNL A   1      32.028  27.990  22.839  1.00  0.00     0.118 C 
BRANCH   3   4
ATOM      4  N   UNL A   1      32.416  27.049  21.797  1.00  0.00    -0.352 N 
ATOM      5  C   UNL A   1      32.907  25.791  21.727  1.00  0.00     0.251 C 
ATOM      6  O   UNL A   1      33.100  25.366  20.583  1.00  0.00    -0.270 OA
ATOM      7  H   UNL A   1      32.285  27.433  20.900  1.00  0.00     0.163 HD
BRANCH   5   8
ATOM      8  C   UNL A   1      33.209  24.920  22.899  1.00  0.00     0.067 C 
ATOM      9  C   UNL A   1      37.404  20.841  24.892  1.00  0.00     0.044 C 
ATOM     10  C   UNL A   1      36.213  21.749  24.982  1.00  0.00    -0.050 A 
ATOM     11  C   UNL A   1      35.404  21.743  26.127  1.00  0.00     0.010 A 
ATOM     12  C   UNL A   1      35.873  22.576  23.904  1.00  0.00     0.015 A 
ATOM     13  C   UNL A   1      34.280  22.576  26.216  1.00  0.00    -0.008 A 
ATOM     14  C   UNL A   1      34.750  23.406  23.975  1.00  0.00     0.018 A 
ATOM     15  C   UNL A   1      33.422  22.576  27.448  1.00  0.00     0.048 C 
ATOM     16  C   UNL A   1      33.963  23.399  25.129  1.00  0.00     0.130 A 
ATOM     17  C   UNL A   1      34.403  24.301  22.878  1.00  0.00     0.025 C 
ATOM     18  O   UNL A   1      32.881  24.223  25.268  1.00  0.00    -0.475 OA
ATOM     19  C   UNL A   1      32.261  24.684  24.039  1.00  0.00     0.314 C 
BRANCH  19  20
ATOM     20  C   UNL A   1      31.110  23.729  23.664  1.00  0.00     0.429 C 
ATOM     21  F   UNL A   1      30.650  23.085  24.766  1.00  0.00    -0.167 F 
ATOM     22  F   UNL A   1      30.048  24.376  23.128  1.00  0.00    -0.167 F 
ATOM     23  F   UNL A   1      31.480  22.785  22.770  1.00  0.00    -0.167 F 
ENDBRANCH  19  20
ENDBRANCH   5   8
ENDBRANCH   3   4
ENDBRANCH   2   3
ENDBRANCH   1   2
BRANCH   1  24
ATOM     24  N   UNL A   1      32.709  30.148  25.335  1.00  0.00    -0.352 N 
ATOM     25  C   UNL A   1      32.954  30.817  26.508  1.00  0.00     0.251 C 
ATOM     26  H   UNL A   1      32.032  30.563  24.753  1.00  0.00     0.163 HD
ATOM     27  O   UNL A   1      32.143  31.649  26.910  1.00  0.00    -0.269 OA
BRANCH  25  28
ATOM     28  C   UNL A   1      34.178  30.529  27.281  1.00  0.00     0.039 A 
ATOM     29  C   UNL A   1      35.039  31.574  27.626  1.00  0.00     0.014 A 
ATOM     30  C   UNL A   1      34.490  29.216  27.642  1.00  0.00     0.014 A 
ATOM     31  C   UNL A   1      36.176  31.306  28.390  1.00  0.00     0.010 A 
ATOM     32  C   UNL A   1      35.563  28.965  28.485  1.00  0.00     0.010 A 
ATOM     33  C   UNL A   1      36.427  30.004  28.854  1.00  0.00    -0.014 A 
BRANCH  33  34
ATOM     34  C   UNL A   1      37.615  29.696  29.685  1.00  0.00     0.031 A 
ATOM     35  C   UNL A   1      38.701  28.811  29.135  1.00  0.00     0.074 A 
ATOM     36  C   UNL A   1      37.698  30.181  30.939  1.00  0.00     0.049 A 
ATOM     37  N   UNL A   1      39.791  28.382  29.716  1.00  0.00    -0.248 NA
ATOM     38  C   UNL A   1      38.522  28.320  27.759  1.00  0.00     0.031 C 
ATOM     39  C   UNL A   1      36.691  31.026  31.587  1.00  0.00     0.029 A 
ATOM     40  N   UNL A   1      38.679  30.049  31.887  1.00  0.00    -0.354 N 
ATOM     41  C   UNL A   1      40.425  27.577  28.778  1.00  0.00     0.074 A 
ATOM     42  C   UNL A   1      39.555  27.505  27.625  1.00  0.00     0.031 C 
ATOM     43  C   UNL A   1      37.137  31.386  32.801  1.00  0.00     0.029 A 
ATOM     44  C   UNL A   1      38.436  30.764  33.037  1.00  0.00     0.049 A 
ATOM     45  H   UNL A   1      39.482  29.494  31.759  1.00  0.00     0.167 HD
ATOM     46  C   UNL A   1      41.641  26.987  28.850  1.00  0.00     0.034 A 
ATOM     47  C   UNL A   1      39.182  30.907  34.149  1.00  0.00     0.034 A 
ATOM     48  C   UNL A   1      42.508  27.086  29.995  1.00  0.00     0.049 A 
ATOM     49  C   UNL A   1      40.502  30.191  34.236  1.00  0.00     0.074 A 
ATOM     50  C   UNL A   1      43.772  26.553  30.168  1.00  0.00     0.029 A 
ATOM     51  N   UNL A   1      42.197  27.769  31.163  1.00  0.00    -0.354 N 
ATOM     52  N   UNL A   1      41.089  29.435  33.338  1.00  0.00    -0.248 NA
ATOM     53  C   UNL A   1      41.257  30.337  35.488  1.00  0.00     0.031 C 
ATOM     54  C   UNL A   1      44.205  26.871  31.459  1.00  0.00     0.029 A 
ATOM     55  C   UNL A   1      43.235  27.649  32.071  1.00  0.00     0.049 A 
ATOM     56  H   UNL A   1      41.362  28.266  31.321  1.00  0.00     0.167 HD
ATOM     57  C   UNL A   1      42.290  29.029  33.909  1.00  0.00     0.074 A 
ATOM     58  C   UNL A   1      42.347  29.626  35.229  1.00  0.00     0.031 C 
ATOM     59  C   UNL A   1      43.259  28.238  33.387  1.00  0.00     0.034 A 
BRANCH  46  60
ATOM     60  C   UNL A   1      42.097  26.196  27.652  1.00  0.00     0.023 A 
ATOM     61  C   UNL A   1      41.759  24.839  27.508  1.00  0.00     0.031 A 
ATOM     62  C   UNL A   1      42.896  26.787  26.659  1.00  0.00     0.131 A 
ATOM     63  C   UNL A   1      42.277  24.098  26.436  1.00  0.00     0.055 A 
ATOM     64  C   UNL A   1      43.346  26.064  25.552  1.00  0.00     0.041 A 
ATOM     65  F   UNL A   1      43.264  28.074  26.754  1.00  0.00    -0.206 F 
ATOM     66  C   UNL A   1      43.048  24.708  25.444  1.00  0.00     0.022 A 
BRANCH  63  67
ATOM     67  S   UNL A   1      42.027  22.303  26.426  1.00  0.00     0.124 S 
ATOM     68  O   UNL A   1      42.429  21.944  27.783  1.00  0.00    -0.237 OA
ATOM     69  O   UNL A   1      40.604  22.183  26.127  1.00  0.00    -0.237 OA
ATOM     70  O   UNL A   1      42.926  21.838  25.371  1.00  0.00    -0.744 OA
ENDBRANCH  63  67
ENDBRANCH  46  60
BRANCH  47  71
ATOM     71  C   UNL A   1      38.706  31.783  35.254  1.00  0.00     0.023 A 
ATOM     72  C   UNL A   1      38.155  31.226  36.417  1.00  0.00     0.031 A 
ATOM     73  C   UNL A   1      38.818  33.182  35.175  1.00  0.00     0.131 A 
ATOM     74  C   UNL A   1      37.719  32.065  37.454  1.00  0.00     0.055 A 
ATOM     75  C   UNL A   1      38.413  34.012  36.222  1.00  0.00     0.041 A 
ATOM     76  F   UNL A   1      39.351  33.760  34.087  1.00  0.00    -0.206 F 
ATOM     77  C   UNL A   1      37.855  33.452  37.369  1.00  0.00     0.022 A 
BRANCH  74  78
ATOM     78  S   UNL A   1      36.957  31.315  38.918  1.00  0.00     0.124 S 
ATOM     79  O   UNL A   1      36.817  29.925  38.501  1.00  0.00    -0.237 OA
ATOM     80  O   UNL A   1      37.953  31.580  39.951  1.00  0.00    -0.237 OA
ATOM     81  O   UNL A   1      35.704  32.053  39.064  1.00  0.00    -0.744 OA
ENDBRANCH  74  78
ENDBRANCH  47  71
BRANCH  59  82
ATOM     82  C   UNL A   1      44.471  27.973  34.237  1.00  0.00     0.023 A 
ATOM     83  C   UNL A   1      44.523  26.867  35.101  1.00  0.00     0.031 A 
ATOM     84  C   UNL A   1      45.609  28.790  34.122  1.00  0.00     0.131 A 
ATOM     85  C   UNL A   1      45.693  26.612  35.830  1.00  0.00     0.055 A 
ATOM     86  C   UNL A   1      46.783  28.508  34.820  1.00  0.00     0.041 A 
ATOM     87  F   UNL A   1      45.605  29.854  33.303  1.00  0.00    -0.206 F 
ATOM     88  C   UNL A   1      46.828  27.414  35.682  1.00  0.00     0.022 A 
BRANCH  85  89
ATOM     89  S   UNL A   1      45.712  25.215  36.985  1.00  0.00     0.124 S 
ATOM     90  O   UNL A   1      46.258  24.146  36.155  1.00  0.00    -0.237 OA
ATOM     91  O   UNL A   1      46.579  25.697  38.055  1.00  0.00    -0.237 OA
ATOM     92  O   UNL A   1      44.307  25.057  37.354  1.00  0.00    -0.744 OA
ENDBRANCH  85  89
ENDBRANCH  59  82
ENDBRANCH  33  34
ENDBRANCH  25  28
ENDBRANCH   1  24
TORSDOF 14
ENDMDL
MODEL 2
REMARK VINA RESULT:     -12.9      5.115     10.102
REMARK SMILES Cc1cc(C)c2c(c1)C=C(C(=O)NCCCNC(=O)c1ccc(-c3c4nc(c(-c5cc(S(=O)(=O)[O-])ccc5F)c5ccc([nH]5)c(-c5cc(S(=O)(=O)[O-])ccc5F)c5nc(c(-c6cc(S(=O)(=O)[O-])ccc6F)c6ccc3[nH]6)C=C5)C=C4)cc1)[C@@H](C(F)(F)F)O2
REMARK SMILES IDX 16 1 15 2 14 3 13 4 11 5 12 6 10 8 1 9 2 10 3 11 8 12 4 13
REMARK SMILES IDX 7 14 5 15 6 16 9 17 88 18 83 19 84 20 85 21 86 22 87 23
REMARK SMILES IDX 17 24 18 25 19 27 20 28 21 29 82 30 22 31 81 32 23 33 24 34
REMARK SMILES IDX 25 35 75 36 26 37 80 38 74 39 76 40 27 41 79 42 73 43 72 44
REMARK SMILES IDX 28 46 60 47 40 48 59 49 41 50 44 51 58 52 77 53 42 54 43 55
REMARK SMILES IDX 57 57 78 58 45 59 29 60 30 61 38 62 31 63 37 64 39 65 36 66
REMARK SMILES IDX 32 67 33 68 34 69 35 70 61 71 62 72 70 73 63 74 69 75 71 76
REMARK SMILES IDX 68 77 64 78 65 79 66 80 67 81 46 82 47 83 55 84 48 85 54 86
REMARK SMILES IDX 56 87 53 88 49 89 50 90 51 91 52 92
REMARK H PARENT 13 7 17 26 76 45 44 56
REMARK Flexibility Score: inf
ROOT
ATOM      1  C   UNL A   1      35.591  22.094  26.153  1.00  0.00     0.118 C 
ENDROOT
BRANCH   1   2
ATOM      2  C   UNL A   1      34.304  21.550  26.762  1.00  0.00     0.042 C 
BRANCH   2   3
ATOM      3  C   UNL A   1      33.125  21.667  25.808  1.00  0.00     0.118 C 
BRANCH   3   4
ATOM      4  N   UNL A   1      31.947  22.218  26.465  1.00  0.00    -0.352 N 
ATOM      5  C   UNL A   1      31.317  23.412  26.538  1.00  0.00     0.251 C 
ATOM      6  O   UNL A   1      30.305  23.429  27.247  1.00  0.00    -0.270 OA
ATOM      7  H   UNL A   1      31.485  21.535  27.003  1.00  0.00     0.163 HD
BRANCH   5   8
ATOM      8  C   UNL A   1      31.747  24.654  25.834  1.00  0.00     0.067 C 
ATOM      9  C   UNL A   1      31.869  30.789  26.576  1.00  0.00     0.044 C 
ATOM     10  C   UNL A   1      32.174  29.474  25.922  1.00  0.00    -0.050 A 
ATOM     11  C   UNL A   1      32.816  29.433  24.677  1.00  0.00     0.010 A 
ATOM     12  C   UNL A   1      31.779  28.275  26.530  1.00  0.00     0.015 A 
ATOM     13  C   UNL A   1      33.092  28.211  24.050  1.00  0.00    -0.008 A 
ATOM     14  C   UNL A   1      32.040  27.048  25.914  1.00  0.00     0.018 A 
ATOM     15  C   UNL A   1      33.790  28.171  22.722  1.00  0.00     0.048 C 
ATOM     16  C   UNL A   1      32.693  27.026  24.680  1.00  0.00     0.130 A 
ATOM     17  C   UNL A   1      31.669  25.790  26.550  1.00  0.00     0.025 C 
ATOM     18  O   UNL A   1      33.012  25.852  24.055  1.00  0.00    -0.475 OA
ATOM     19  C   UNL A   1      32.207  24.697  24.406  1.00  0.00     0.314 C 
BRANCH  19  20
ATOM     20  C   UNL A   1      31.044  24.568  23.403  1.00  0.00     0.429 C 
ATOM     21  F   UNL A   1      29.928  25.164  23.891  1.00  0.00    -0.167 F 
ATOM     22  F   UNL A   1      31.310  25.165  22.216  1.00  0.00    -0.167 F 
ATOM     23  F   UNL A   1      30.729  23.283  23.127  1.00  0.00    -0.167 F 
ENDBRANCH  19  20
ENDBRANCH   5   8
ENDBRANCH   3   4
ENDBRANCH   2   3
ENDBRANCH   1   2
BRANCH   1  24
ATOM     24  N   UNL A   1      36.562  21.032  25.911  1.00  0.00    -0.352 N 
ATOM     25  C   UNL A   1      37.921  21.104  25.730  1.00  0.00     0.251 C 
ATOM     26  H   UNL A   1      36.185  20.124  25.873  1.00  0.00     0.163 HD
ATOM     27  O   UNL A   1      38.515  20.150  25.229  1.00  0.00    -0.269 OA
BRANCH  25  28
ATOM     28  C   UNL A   1      38.656  22.320  26.128  1.00  0.00     0.039 A 
ATOM     29  C   UNL A   1      39.834  22.203  26.870  1.00  0.00     0.014 A 
ATOM     30  C   UNL A   1      38.164  23.582  25.788  1.00  0.00     0.014 A 
ATOM     31  C   UNL A   1      40.549  23.353  27.212  1.00  0.00     0.010 A 
ATOM     32  C   UNL A   1      38.926  24.715  26.039  1.00  0.00     0.010 A 
ATOM     33  C   UNL A   1      40.117  24.614  26.768  1.00  0.00    -0.014 A 
BRANCH  33  34
ATOM     34  C   UNL A   1      40.870  25.848  27.099  1.00  0.00     0.031 A 
ATOM     35  C   UNL A   1      40.240  26.892  27.981  1.00  0.00     0.074 A 
ATOM     36  C   UNL A   1      42.097  26.042  26.579  1.00  0.00     0.049 A 
ATOM     37  N   UNL A   1      40.707  28.057  28.345  1.00  0.00    -0.248 NA
ATOM     38  C   UNL A   1      38.892  26.598  28.497  1.00  0.00     0.031 C 
ATOM     39  C   UNL A   1      42.795  25.111  25.689  1.00  0.00     0.029 A 
ATOM     40  N   UNL A   1      42.982  27.077  26.736  1.00  0.00    -0.354 N 
ATOM     41  C   UNL A   1      39.716  28.630  29.132  1.00  0.00     0.074 A 
ATOM     42  C   UNL A   1      38.588  27.725  29.118  1.00  0.00     0.031 C 
ATOM     43  C   UNL A   1      44.023  25.588  25.431  1.00  0.00     0.029 A 
ATOM     44  C   UNL A   1      44.184  26.877  26.097  1.00  0.00     0.049 A 
ATOM     45  H   UNL A   1      42.778  27.887  27.257  1.00  0.00     0.167 HD
ATOM     46  C   UNL A   1      39.756  29.784  29.840  1.00  0.00     0.034 A 
ATOM     47  C   UNL A   1      45.291  27.643  26.062  1.00  0.00     0.034 A 
ATOM     48  C   UNL A   1      40.894  30.664  29.865  1.00  0.00     0.049 A 
ATOM     49  C   UNL A   1      45.293  28.953  26.803  1.00  0.00     0.074 A 
ATOM     50  C   UNL A   1      41.056  31.844  30.567  1.00  0.00     0.029 A 
ATOM     51  N   UNL A   1      42.068  30.456  29.154  1.00  0.00    -0.354 N 
ATOM     52  N   UNL A   1      44.347  29.479  27.545  1.00  0.00    -0.248 NA
ATOM     53  C   UNL A   1      46.504  29.777  26.695  1.00  0.00     0.031 C 
ATOM     54  C   UNL A   1      42.309  32.375  30.243  1.00  0.00     0.029 A 
ATOM     55  C   UNL A   1      42.950  31.498  29.381  1.00  0.00     0.049 A 
ATOM     56  H   UNL A   1      42.248  29.680  28.575  1.00  0.00     0.167 HD
ATOM     57  C   UNL A   1      44.855  30.688  28.007  1.00  0.00     0.074 A 
ATOM     58  C   UNL A   1      46.193  30.813  27.462  1.00  0.00     0.031 C 
ATOM     59  C   UNL A   1      44.270  31.609  28.812  1.00  0.00     0.034 A 
BRANCH  46  60
ATOM     60  C   UNL A   1      38.535  30.142  30.646  1.00  0.00     0.023 A 
ATOM     61  C   UNL A   1      37.524  30.958  30.109  1.00  0.00     0.031 A 
ATOM     62  C   UNL A   1      38.386  29.691  31.968  1.00  0.00     0.131 A 
ATOM     63  C   UNL A   1      36.447  31.359  30.910  1.00  0.00     0.055 A 
ATOM     64  C   UNL A   1      37.271  30.030  32.738  1.00  0.00     0.041 A 
ATOM     65  F   UNL A   1      39.328  28.924  32.539  1.00  0.00    -0.206 F 
ATOM     66  C   UNL A   1      36.301  30.880  32.214  1.00  0.00     0.022 A 
BRANCH  63  67
ATOM     67  S   UNL A   1      35.306  32.609  30.262  1.00  0.00     0.124 S 
ATOM     68  O   UNL A   1      34.380  32.768  31.381  1.00  0.00    -0.237 OA
ATOM     69  O   UNL A   1      36.189  33.738  29.997  1.00  0.00    -0.237 OA
ATOM     70  O   UNL A   1      34.737  31.971  29.076  1.00  0.00    -0.744 OA
ENDBRANCH  63  67
ENDBRANCH  46  60
BRANCH  47  71
ATOM     71  C   UNL A   1      46.493  27.176  25.320  1.00  0.00     0.023 A 
ATOM     72  C   UNL A   1      46.811  27.718  24.066  1.00  0.00     0.031 A 
ATOM     73  C   UNL A   1      47.353  26.204  25.861  1.00  0.00     0.131 A 
ATOM     74  C   UNL A   1      47.953  27.274  23.382  1.00  0.00     0.055 A 
ATOM     75  C   UNL A   1      48.506  25.789  25.192  1.00  0.00     0.041 A 
ATOM     76  F   UNL A   1      47.097  25.667  27.064  1.00  0.00    -0.206 F 
ATOM     77  C   UNL A   1      48.808  26.322  23.943  1.00  0.00     0.022 A 
BRANCH  74  78
ATOM     78  S   UNL A   1      48.302  27.952  21.738  1.00  0.00     0.124 S 
ATOM     79  O   UNL A   1      48.278  26.751  20.911  1.00  0.00    -0.237 OA
ATOM     80  O   UNL A   1      47.195  28.885  21.550  1.00  0.00    -0.237 OA
ATOM     81  O   UNL A   1      49.615  28.574  21.898  1.00  0.00    -0.744 OA
ENDBRANCH  74  78
ENDBRANCH  47  71
BRANCH  59  82
ATOM     82  C   UNL A   1      45.070  32.833  29.161  1.00  0.00     0.023 A 
ATOM     83  C   UNL A   1      44.971  34.006  28.397  1.00  0.00     0.031 A 
ATOM     84  C   UNL A   1      45.876  32.848  30.313  1.00  0.00     0.131 A 
ATOM     85  C   UNL A   1      45.681  35.150  28.789  1.00  0.00     0.055 A 
ATOM     86  C   UNL A   1      46.547  34.000  30.720  1.00  0.00     0.041 A 
ATOM     87  F   UNL A   1      45.994  31.749  31.077  1.00  0.00    -0.206 F 
ATOM     88  C   UNL A   1      46.453  35.160  29.954  1.00  0.00     0.022 A 
BRANCH  85  89
ATOM     89  S   UNL A   1      45.585  36.633  27.750  1.00  0.00     0.124 S 
ATOM     90  O   UNL A   1      45.806  37.698  28.723  1.00  0.00    -0.237 OA
ATOM     91  O   UNL A   1      46.660  36.418  26.787  1.00  0.00    -0.237 OA
ATOM     92  O   UNL A   1      44.236  36.573  27.191  1.00  0.00    -0.744 OA
ENDBRANCH  85  89
ENDBRANCH  59  82
ENDBRANCH  33  34
ENDBRANCH  25  28
ENDBRANCH   1  24
TORSDOF 14
ENDMDL
MODEL 3
REMARK VINA RESULT:     -12.6      2.615      3.530
REMARK SMILES Cc1cc(C)c2c(c1)C=C(C(=O)NCCCNC(=O)c1ccc(-c3c4nc(c(-c5cc(S(=O)(=O)[O-])ccc5F)c5ccc([nH]5)c(-c5cc(S(=O)(=O)[O-])ccc5F)c5nc(c(-c6cc(S(=O)(=O)[O-])ccc6F)c6ccc3[nH]6)C=C5)C=C4)cc1)[C@@H](C(F)(F)F)O2
REMARK SMILES IDX 16 1 15 2 14 3 13 4 11 5 12 6 10 8 1 9 2 10 3 11 8 12 4 13
REMARK SMILES IDX 7 14 5 15 6 16 9 17 88 18 83 19 84 20 85 21 86 22 87 23
REMARK SMILES IDX 17 24 18 25 19 27 20 28 21 29 82 30 22 31 81 32 23 33 24 34
REMARK SMILES IDX 25 35 75 36 26 37 80 38 74 39 76 40 27 41 79 42 73 43 72 44
REMARK SMILES IDX 28 46 60 47 40 48 59 49 41 50 44 51 58 52 77 53 42 54 43 55
REMARK SMILES IDX 57 57 78 58 45 59 29 60 30 61 38 62 31 63 37 64 39 65 36 66
REMARK SMILES IDX 32 67 33 68 34 69 35 70 61 71 62 72 70 73 63 74 69 75 71 76
REMARK SMILES IDX 68 77 64 78 65 79 66 80 67 81 46 82 47 83 55 84 48 85 54 86
REMARK SMILES IDX 56 87 53 88 49 89 50 90 51 91 52 92
REMARK H PARENT 13 7 17 26 76 45 44 56
REMARK Flexibility Score: inf
ROOT
ATOM      1  C   UNL A   1      32.813  32.748  27.237  1.00  0.00     0.118 C 
ENDROOT
BRANCH   1   2
ATOM      2  C   UNL A   1      31.496  32.132  26.776  1.00  0.00     0.042 C 
BRANCH   2   3
ATOM      3  C   UNL A   1      31.627  30.642  26.501  1.00  0.00     0.118 C 
BRANCH   3   4
ATOM      4  N   UNL A   1      31.354  30.321  25.106  1.00  0.00    -0.352 N 
ATOM      5  C   UNL A   1      31.294  29.211  24.336  1.00  0.00     0.251 C 
ATOM      6  O   UNL A   1      31.017  29.412  23.148  1.00  0.00    -0.270 OA
ATOM      7  H   UNL A   1      31.161  31.132  24.584  1.00  0.00     0.163 HD
BRANCH   5   8
ATOM      8  C   UNL A   1      31.522  27.818  24.816  1.00  0.00     0.067 C 
ATOM      9  C   UNL A   1      36.071  23.719  25.654  1.00  0.00     0.044 C 
ATOM     10  C   UNL A   1      34.680  24.272  25.750  1.00  0.00    -0.050 A 
ATOM     11  C   UNL A   1      33.636  23.482  26.250  1.00  0.00     0.010 A 
ATOM     12  C   UNL A   1      34.405  25.570  25.298  1.00  0.00     0.015 A 
ATOM     13  C   UNL A   1      32.330  23.984  26.329  1.00  0.00    -0.008 A 
ATOM     14  C   UNL A   1      33.106  26.081  25.364  1.00  0.00     0.018 A 
ATOM     15  C   UNL A   1      31.216  23.139  26.875  1.00  0.00     0.048 C 
ATOM     16  C   UNL A   1      32.080  25.286  25.877  1.00  0.00     0.130 A 
ATOM     17  C   UNL A   1      32.808  27.442  24.933  1.00  0.00     0.025 C 
ATOM     18  O   UNL A   1      30.801  25.752  26.005  1.00  0.00    -0.475 OA
ATOM     19  C   UNL A   1      30.424  26.844  25.126  1.00  0.00     0.314 C 
BRANCH  19  20
ATOM     20  C   UNL A   1      29.768  26.265  23.856  1.00  0.00     0.429 C 
ATOM     21  F   UNL A   1      28.472  26.657  23.770  1.00  0.00    -0.167 F 
ATOM     22  F   UNL A   1      30.371  26.687  22.719  1.00  0.00    -0.167 F 
ATOM     23  F   UNL A   1      29.785  24.914  23.825  1.00  0.00    -0.167 F 
ENDBRANCH  19  20
ENDBRANCH   5   8
ENDBRANCH   3   4
ENDBRANCH   2   3
ENDBRANCH   1   2
BRANCH   1  24
ATOM     24  N   UNL A   1      32.644  34.144  27.630  1.00  0.00    -0.352 N 
ATOM     25  C   UNL A   1      33.133  34.818  28.721  1.00  0.00     0.251 C 
ATOM     26  H   UNL A   1      32.098  34.685  27.017  1.00  0.00     0.163 HD
ATOM     27  O   UNL A   1      32.628  35.892  29.043  1.00  0.00    -0.269 OA
BRANCH  25  28
ATOM     28  C   UNL A   1      34.248  34.249  29.503  1.00  0.00     0.039 A 
ATOM     29  C   UNL A   1      33.976  33.502  30.652  1.00  0.00     0.014 A 
ATOM     30  C   UNL A   1      35.569  34.479  29.113  1.00  0.00     0.014 A 
ATOM     31  C   UNL A   1      35.030  32.933  31.368  1.00  0.00     0.010 A 
ATOM     32  C   UNL A   1      36.608  33.829  29.765  1.00  0.00     0.010 A 
ATOM     33  C   UNL A   1      36.351  33.063  30.909  1.00  0.00    -0.014 A 
BRANCH  33  34
ATOM     34  C   UNL A   1      37.487  32.450  31.638  1.00  0.00     0.031 A 
ATOM     35  C   UNL A   1      38.245  31.309  31.015  1.00  0.00     0.074 A 
ATOM     36  C   UNL A   1      37.810  32.894  32.868  1.00  0.00     0.049 A 
ATOM     37  N   UNL A   1      39.230  30.605  31.507  1.00  0.00    -0.248 NA
ATOM     38  C   UNL A   1      37.816  30.884  29.672  1.00  0.00     0.031 C 
ATOM     39  C   UNL A   1      37.127  33.975  33.582  1.00  0.00     0.029 A 
ATOM     40  N   UNL A   1      38.804  32.505  33.728  1.00  0.00    -0.354 N 
ATOM     41  C   UNL A   1      39.539  29.661  30.535  1.00  0.00     0.074 A 
ATOM     42  C   UNL A   1      38.579  29.824  29.466  1.00  0.00     0.031 C 
ATOM     43  C   UNL A   1      37.762  34.203  34.743  1.00  0.00     0.029 A 
ATOM     44  C   UNL A   1      38.865  33.258  34.878  1.00  0.00     0.049 A 
ATOM     45  H   UNL A   1      39.416  31.757  33.542  1.00  0.00     0.167 HD
ATOM     46  C   UNL A   1      40.558  28.769  30.513  1.00  0.00     0.034 A 
ATOM     47  C   UNL A   1      39.721  33.197  35.915  1.00  0.00     0.034 A 
ATOM     48  C   UNL A   1      41.521  28.633  31.574  1.00  0.00     0.049 A 
ATOM     49  C   UNL A   1      40.807  32.155  35.902  1.00  0.00     0.074 A 
ATOM     50  C   UNL A   1      42.609  27.783  31.646  1.00  0.00     0.029 A 
ATOM     51  N   UNL A   1      41.511  29.372  32.748  1.00  0.00    -0.354 N 
ATOM     52  N   UNL A   1      41.088  31.271  34.973  1.00  0.00    -0.248 NA
ATOM     53  C   UNL A   1      41.686  32.094  37.078  1.00  0.00     0.031 C 
ATOM     54  C   UNL A   1      43.228  27.973  32.886  1.00  0.00     0.029 A 
ATOM     55  C   UNL A   1      42.558  28.981  33.563  1.00  0.00     0.049 A 
ATOM     56  H   UNL A   1      40.856  30.074  32.968  1.00  0.00     0.167 HD
ATOM     57  C   UNL A   1      42.186  30.561  35.445  1.00  0.00     0.074 A 
ATOM     58  C   UNL A   1      42.520  31.120  36.740  1.00  0.00     0.031 C 
ATOM     59  C   UNL A   1      42.859  29.540  34.858  1.00  0.00     0.034 A 
BRANCH  46  60
ATOM     60  C   UNL A   1      40.675  27.886  29.298  1.00  0.00     0.023 A 
ATOM     61  C   UNL A   1      41.613  28.163  28.288  1.00  0.00     0.031 A 
ATOM     62  C   UNL A   1      39.831  26.777  29.128  1.00  0.00     0.131 A 
ATOM     63  C   UNL A   1      41.637  27.387  27.121  1.00  0.00     0.055 A 
ATOM     64  C   UNL A   1      39.910  25.960  27.998  1.00  0.00     0.041 A 
ATOM     65  F   UNL A   1      38.904  26.475  30.051  1.00  0.00    -0.206 F 
ATOM     66  C   UNL A   1      40.808  26.272  26.980  1.00  0.00     0.022 A 
BRANCH  63  67
ATOM     67  S   UNL A   1      42.682  27.930  25.743  1.00  0.00     0.124 S 
ATOM     68  O   UNL A   1      42.279  29.326  25.603  1.00  0.00    -0.237 OA
ATOM     69  O   UNL A   1      44.028  27.701  26.256  1.00  0.00    -0.237 OA
ATOM     70  O   UNL A   1      42.278  27.056  24.643  1.00  0.00    -0.744 OA
ENDBRANCH  63  67
ENDBRANCH  46  60
BRANCH  47  71
ATOM     71  C   UNL A   1      39.599  34.167  37.037  1.00  0.00     0.023 A 
ATOM     72  C   UNL A   1      39.034  33.773  38.260  1.00  0.00     0.031 A 
ATOM     73  C   UNL A   1      40.062  35.488  36.914  1.00  0.00     0.131 A 
ATOM     74  C   UNL A   1      38.933  34.697  39.311  1.00  0.00     0.055 A 
ATOM     75  C   UNL A   1      39.990  36.394  37.973  1.00  0.00     0.041 A 
ATOM     76  F   UNL A   1      40.621  35.906  35.767  1.00  0.00    -0.206 F 
ATOM     77  C   UNL A   1      39.418  36.000  39.179  1.00  0.00     0.022 A 
BRANCH  74  78
ATOM     78  S   UNL A   1      38.146  34.173  40.858  1.00  0.00     0.124 S 
ATOM     79  O   UNL A   1      37.030  33.372  40.366  1.00  0.00    -0.237 OA
ATOM     80  O   UNL A   1      39.223  33.440  41.516  1.00  0.00    -0.237 OA
ATOM     81  O   UNL A   1      37.777  35.435  41.496  1.00  0.00    -0.744 OA
ENDBRANCH  74  78
ENDBRANCH  47  71
BRANCH  59  82
ATOM     82  C   UNL A   1      44.030  28.962  35.603  1.00  0.00     0.023 A 
ATOM     83  C   UNL A   1      43.873  27.857  36.454  1.00  0.00     0.031 A 
ATOM     84  C   UNL A   1      45.323  29.473  35.397  1.00  0.00     0.131 A 
ATOM     85  C   UNL A   1      44.997  27.302  37.083  1.00  0.00     0.055 A 
ATOM     86  C   UNL A   1      46.441  28.892  35.993  1.00  0.00     0.041 A 
ATOM     87  F   UNL A   1      45.519  30.525  34.586  1.00  0.00    -0.206 F 
ATOM     88  C   UNL A   1      46.281  27.800  36.844  1.00  0.00     0.022 A 
BRANCH  85  89
ATOM     89  S   UNL A   1      44.759  25.916  38.226  1.00  0.00     0.124 S 
ATOM     90  O   UNL A   1      44.507  24.809  37.309  1.00  0.00    -0.237 OA
ATOM     91  O   UNL A   1      46.029  25.871  38.943  1.00  0.00    -0.237 OA
ATOM     92  O   UNL A   1      43.610  26.328  39.030  1.00  0.00    -0.744 OA
ENDBRANCH  85  89
ENDBRANCH  59  82
ENDBRANCH  33  34
ENDBRANCH  25  28
ENDBRANCH   1  24
TORSDOF 14
ENDMDL
