MODEL 1
REMARK VINA RESULT:     -12.3      0.000      0.000
REMARK SMILES Cn1ccc(NC(=O)[C@@H]2CCCC[C@@H]2C(=O)NCCCNC(=O)c2ccc(-c3c4nc(c(-c5cc(S(=O)(=O)[O-])ccc5F)c5ccc([nH]5)c(-c5cc(S(=O)(=O)[O-])ccc5F)c5nc(c(-c6cc(S(=O)(=O)[O-])ccc6F)c6ccc3[nH]6)C=C5)C=C4)cc2)n1
REMARK SMILES IDX 19 1 18 2 17 3 15 4 16 5 14 7 9 8 10 9 11 10 13 11 12 12
REMARK SMILES IDX 7 13 6 14 8 16 5 17 1 18 2 19 3 20 87 21 4 22 20 23 21 24
REMARK SMILES IDX 22 25 23 27 24 28 25 29 86 30 26 31 85 32 27 33 28 34 29 35
REMARK SMILES IDX 79 36 30 37 84 38 78 39 80 40 31 41 83 42 77 43 76 44 32 46
REMARK SMILES IDX 64 47 44 48 63 49 45 50 48 51 62 52 81 53 46 54 47 55 61 57
REMARK SMILES IDX 82 58 49 59 33 60 34 61 42 62 35 63 41 64 43 65 40 66 36 67
REMARK SMILES IDX 37 68 38 69 39 70 65 71 66 72 74 73 67 74 73 75 75 76 72 77
REMARK SMILES IDX 68 78 69 79 70 80 71 81 50 82 51 83 59 84 52 85 58 86 60 87
REMARK SMILES IDX 57 88 53 89 54 90 55 91 56 92
REMARK H PARENT 17 6 6 15 21 26 80 45 48 56
REMARK Flexibility Score: inf
ROOT
ATOM      1  C   UNL A   1      31.557  31.940  26.667  1.00  0.00     0.042 C 
ENDROOT
BRANCH   1   2
ATOM      2  C   UNL A   1      31.839  30.569  26.074  1.00  0.00     0.117 C 
BRANCH   2   3
ATOM      3  N   UNL A   1      31.706  29.540  27.073  1.00  0.00    -0.356 N 
ATOM      4  C   UNL A   1      31.536  28.200  26.942  1.00  0.00     0.223 C 
ATOM      5  O   UNL A   1      31.538  27.561  27.997  1.00  0.00    -0.275 OA
ATOM      6  H   UNL A   1      31.748  29.860  28.003  1.00  0.00     0.163 HD
BRANCH   4   7
ATOM      7  C   UNL A   1      31.460  27.525  25.559  1.00  0.00     0.091 C 
ATOM      8  C   UNL A   1      31.570  25.979  25.479  1.00  0.00     0.091 C 
ATOM      9  C   UNL A   1      32.883  25.548  26.155  1.00  0.00     0.014 C 
ATOM     10  C   UNL A   1      34.083  26.101  25.385  1.00  0.00     0.001 C 
ATOM     11  C   UNL A   1      32.600  28.076  24.663  1.00  0.00     0.014 C 
ATOM     12  C   UNL A   1      33.995  27.598  25.092  1.00  0.00     0.001 C 
BRANCH   8  13
ATOM     13  C   UNL A   1      30.393  25.089  25.898  1.00  0.00     0.229 C 
ATOM     14  N   UNL A   1      30.297  23.774  25.548  1.00  0.00    -0.309 N 
ATOM     15  H   UNL A   1      29.492  23.308  25.872  1.00  0.00     0.171 HD
ATOM     16  O   UNL A   1      29.471  25.541  26.586  1.00  0.00    -0.274 OA
BRANCH  14  17
ATOM     17  C   UNL A   1      31.163  23.010  24.810  1.00  0.00     0.154 A 
ATOM     18  C   UNL A   1      34.044  21.086  24.542  1.00  0.00     0.173 C 
ATOM     19  N   UNL A   1      32.843  21.841  24.285  1.00  0.00    -0.274 N 
ATOM     20  C   UNL A   1      32.457  22.415  23.113  1.00  0.00     0.110 A 
ATOM     21  N   UNL A   1      32.040  22.146  25.315  1.00  0.00    -0.155 NA
ATOM     22  C   UNL A   1      31.316  23.127  23.406  1.00  0.00     0.068 A 
ENDBRANCH  14  17
ENDBRANCH   8  13
ENDBRANCH   4   7
ENDBRANCH   2   3
ENDBRANCH   1   2
BRANCH   1  23
ATOM     23  C   UNL A   1      32.784  32.577  27.291  1.00  0.00     0.118 C 
BRANCH  23  24
ATOM     24  N   UNL A   1      32.557  33.977  27.621  1.00  0.00    -0.352 N 
ATOM     25  C   UNL A   1      33.115  34.743  28.611  1.00  0.00     0.251 C 
ATOM     26  H   UNL A   1      31.906  34.442  27.047  1.00  0.00     0.163 HD
ATOM     27  O   UNL A   1      32.617  35.839  28.869  1.00  0.00    -0.269 OA
BRANCH  25  28
ATOM     28  C   UNL A   1      34.279  34.246  29.377  1.00  0.00     0.039 A 
ATOM     29  C   UNL A   1      34.057  33.530  30.555  1.00  0.00     0.014 A 
ATOM     30  C   UNL A   1      35.585  34.487  28.944  1.00  0.00     0.014 A 
ATOM     31  C   UNL A   1      35.142  33.006  31.261  1.00  0.00     0.010 A 
ATOM     32  C   UNL A   1      36.654  33.874  29.585  1.00  0.00     0.010 A 
ATOM     33  C   UNL A   1      36.448  33.139  30.761  1.00  0.00    -0.014 A 
BRANCH  33  34
ATOM     34  C   UNL A   1      37.612  32.542  31.462  1.00  0.00     0.031 A 
ATOM     35  C   UNL A   1      38.363  31.400  30.830  1.00  0.00     0.074 A 
ATOM     36  C   UNL A   1      37.954  32.986  32.687  1.00  0.00     0.049 A 
ATOM     37  N   UNL A   1      39.353  30.691  31.311  1.00  0.00    -0.248 NA
ATOM     38  C   UNL A   1      37.919  30.976  29.492  1.00  0.00     0.031 C 
ATOM     39  C   UNL A   1      37.274  34.061  33.417  1.00  0.00     0.029 A 
ATOM     40  N   UNL A   1      38.954  32.591  33.541  1.00  0.00    -0.354 N 
ATOM     41  C   UNL A   1      39.634  29.730  30.345  1.00  0.00     0.074 A 
ATOM     42  C   UNL A   1      38.667  29.904  29.284  1.00  0.00     0.031 C 
ATOM     43  C   UNL A   1      37.898  34.260  34.588  1.00  0.00     0.029 A 
ATOM     44  C   UNL A   1      38.983  33.295  34.723  1.00  0.00     0.049 A 
ATOM     45  H   UNL A   1      39.589  31.871  33.327  1.00  0.00     0.167 HD
ATOM     46  C   UNL A   1      40.625  28.805  30.335  1.00  0.00     0.034 A 
ATOM     47  C   UNL A   1      39.785  33.167  35.799  1.00  0.00     0.034 A 
ATOM     48  C   UNL A   1      41.589  28.658  31.397  1.00  0.00     0.049 A 
ATOM     49  C   UNL A   1      40.858  32.107  35.778  1.00  0.00     0.074 A 
ATOM     50  C   UNL A   1      42.670  27.797  31.467  1.00  0.00     0.029 A 
ATOM     51  N   UNL A   1      41.583  29.384  32.583  1.00  0.00    -0.354 N 
ATOM     52  N   UNL A   1      41.148  31.242  34.833  1.00  0.00    -0.248 NA
ATOM     53  C   UNL A   1      41.719  32.014  36.963  1.00  0.00     0.031 C 
ATOM     54  C   UNL A   1      43.266  27.944  32.723  1.00  0.00     0.029 A 
ATOM     55  C   UNL A   1      42.618  28.962  33.404  1.00  0.00     0.049 A 
ATOM     56  H   UNL A   1      40.938  30.093  32.807  1.00  0.00     0.167 HD
ATOM     57  C   UNL A   1      42.248  30.526  35.298  1.00  0.00     0.074 A 
ATOM     58  C   UNL A   1      42.577  31.072  36.599  1.00  0.00     0.031 C 
ATOM     59  C   UNL A   1      42.928  29.512  34.703  1.00  0.00     0.034 A 
BRANCH  46  60
ATOM     60  C   UNL A   1      40.694  27.868  29.150  1.00  0.00     0.023 A 
ATOM     61  C   UNL A   1      41.633  28.044  28.119  1.00  0.00     0.031 A 
ATOM     62  C   UNL A   1      39.791  26.795  29.040  1.00  0.00     0.131 A 
ATOM     63  C   UNL A   1      41.598  27.212  26.988  1.00  0.00     0.055 A 
ATOM     64  C   UNL A   1      39.819  25.916  27.954  1.00  0.00     0.041 A 
ATOM     65  F   UNL A   1      38.855  26.588  29.980  1.00  0.00    -0.206 F 
ATOM     66  C   UNL A   1      40.716  26.132  26.912  1.00  0.00     0.022 A 
BRANCH  63  67
ATOM     67  S   UNL A   1      42.615  27.656  25.555  1.00  0.00     0.124 S 
ATOM     68  O   UNL A   1      41.906  28.826  25.040  1.00  0.00    -0.237 OA
ATOM     69  O   UNL A   1      43.917  27.915  26.159  1.00  0.00    -0.237 OA
ATOM     70  O   UNL A   1      42.545  26.471  24.704  1.00  0.00    -0.744 OA
ENDBRANCH  63  67
ENDBRANCH  46  60
BRANCH  47  71
ATOM     71  C   UNL A   1      39.605  34.047  36.991  1.00  0.00     0.023 A 
ATOM     72  C   UNL A   1      39.036  33.552  38.175  1.00  0.00     0.031 A 
ATOM     73  C   UNL A   1      39.957  35.408  36.949  1.00  0.00     0.131 A 
ATOM     74  C   UNL A   1      38.785  34.422  39.248  1.00  0.00     0.055 A 
ATOM     75  C   UNL A   1      39.763  36.255  38.041  1.00  0.00     0.041 A 
ATOM     76  F   UNL A   1      40.507  35.934  35.842  1.00  0.00    -0.206 F 
ATOM     77  C   UNL A   1      39.160  35.766  39.195  1.00  0.00     0.022 A 
BRANCH  74  78
ATOM     78  S   UNL A   1      37.867  33.791  40.679  1.00  0.00     0.124 S 
ATOM     79  O   UNL A   1      38.837  32.882  41.278  1.00  0.00    -0.237 OA
ATOM     80  O   UNL A   1      37.587  35.014  41.423  1.00  0.00    -0.237 OA
ATOM     81  O   UNL A   1      36.699  33.150  40.077  1.00  0.00    -0.744 OA
ENDBRANCH  74  78
ENDBRANCH  47  71
BRANCH  59  82
ATOM     82  C   UNL A   1      44.131  28.968  35.436  1.00  0.00     0.023 A 
ATOM     83  C   UNL A   1      44.011  27.997  36.444  1.00  0.00     0.031 A 
ATOM     84  C   UNL A   1      45.420  29.434  35.118  1.00  0.00     0.131 A 
ATOM     85  C   UNL A   1      45.152  27.567  37.139  1.00  0.00     0.055 A 
ATOM     86  C   UNL A   1      46.557  28.951  35.764  1.00  0.00     0.041 A 
ATOM     87  F   UNL A   1      45.595  30.365  34.165  1.00  0.00    -0.206 F 
ATOM     88  C   UNL A   1      46.426  28.022  36.791  1.00  0.00     0.022 A 
BRANCH  85  89
ATOM     89  S   UNL A   1      44.939  26.478  38.574  1.00  0.00     0.124 S 
ATOM     90  O   UNL A   1      45.542  25.235  38.103  1.00  0.00    -0.237 OA
ATOM     91  O   UNL A   1      45.672  27.187  39.617  1.00  0.00    -0.237 OA
ATOM     92  O   UNL A   1      43.489  26.432  38.757  1.00  0.00    -0.744 OA
ENDBRANCH  85  89
ENDBRANCH  59  82
ENDBRANCH  33  34
ENDBRANCH  25  28
ENDBRANCH  23  24
ENDBRANCH   1  23
TORSDOF 15
ENDMDL
MODEL 2
REMARK VINA RESULT:     -12.3      5.538      9.086
REMARK SMILES Cn1ccc(NC(=O)[C@@H]2CCCC[C@@H]2C(=O)NCCCNC(=O)c2ccc(-c3c4nc(c(-c5cc(S(=O)(=O)[O-])ccc5F)c5ccc([nH]5)c(-c5cc(S(=O)(=O)[O-])ccc5F)c5nc(c(-c6cc(S(=O)(=O)[O-])ccc6F)c6ccc3[nH]6)C=C5)C=C4)cc2)n1
REMARK SMILES IDX 19 1 18 2 17 3 15 4 16 5 14 7 9 8 10 9 11 10 13 11 12 12
REMARK SMILES IDX 7 13 6 14 8 16 5 17 1 18 2 19 3 20 87 21 4 22 20 23 21 24
REMARK SMILES IDX 22 25 23 27 24 28 25 29 86 30 26 31 85 32 27 33 28 34 29 35
REMARK SMILES IDX 79 36 30 37 84 38 78 39 80 40 31 41 83 42 77 43 76 44 32 46
REMARK SMILES IDX 64 47 44 48 63 49 45 50 48 51 62 52 81 53 46 54 47 55 61 57
REMARK SMILES IDX 82 58 49 59 33 60 34 61 42 62 35 63 41 64 43 65 40 66 36 67
REMARK SMILES IDX 37 68 38 69 39 70 65 71 66 72 74 73 67 74 73 75 75 76 72 77
REMARK SMILES IDX 68 78 69 79 70 80 71 81 50 82 51 83 59 84 52 85 58 86 60 87
REMARK SMILES IDX 57 88 53 89 54 90 55 91 56 92
REMARK H PARENT 17 6 6 15 21 26 80 45 48 56
REMARK Flexibility Score: inf
ROOT
ATOM      1  C   UNL A   1      36.506  20.750  24.985  1.00  0.00     0.042 C 
ENDROOT
BRANCH   1   2
ATOM      2  C   UNL A   1      35.655  21.417  26.054  1.00  0.00     0.117 C 
BRANCH   2   3
ATOM      3  N   UNL A   1      34.274  21.025  25.930  1.00  0.00    -0.356 N 
ATOM      4  C   UNL A   1      33.179  21.750  25.587  1.00  0.00     0.223 C 
ATOM      5  O   UNL A   1      32.131  21.108  25.487  1.00  0.00    -0.275 OA
ATOM      6  H   UNL A   1      34.096  20.077  26.125  1.00  0.00     0.163 HD
BRANCH   4   7
ATOM      7  C   UNL A   1      33.276  23.247  25.238  1.00  0.00     0.091 C 
ATOM      8  C   UNL A   1      31.967  24.076  25.150  1.00  0.00     0.091 C 
ATOM      9  C   UNL A   1      31.031  23.402  24.131  1.00  0.00     0.014 C 
ATOM     10  C   UNL A   1      31.653  23.438  22.735  1.00  0.00     0.001 C 
ATOM     11  C   UNL A   1      33.967  23.403  23.858  1.00  0.00     0.014 C 
ATOM     12  C   UNL A   1      33.095  22.934  22.684  1.00  0.00     0.001 C 
BRANCH   8  13
ATOM     13  C   UNL A   1      31.219  24.494  26.422  1.00  0.00     0.229 C 
ATOM     14  N   UNL A   1      30.889  25.789  26.697  1.00  0.00    -0.309 N 
ATOM     15  H   UNL A   1      30.414  25.933  27.547  1.00  0.00     0.171 HD
ATOM     16  O   UNL A   1      30.877  23.653  27.261  1.00  0.00    -0.274 OA
BRANCH  14  17
ATOM     17  C   UNL A   1      31.126  26.917  25.955  1.00  0.00     0.154 A 
ATOM     18  C   UNL A   1      31.843  30.309  25.730  1.00  0.00     0.173 C 
ATOM     19  N   UNL A   1      31.505  28.935  25.457  1.00  0.00    -0.274 N 
ATOM     20  C   UNL A   1      30.847  28.442  24.372  1.00  0.00     0.110 A 
ATOM     21  N   UNL A   1      31.730  28.014  26.405  1.00  0.00    -0.155 NA
ATOM     22  C   UNL A   1      30.650  27.104  24.633  1.00  0.00     0.068 A 
ENDBRANCH  14  17
ENDBRANCH   8  13
ENDBRANCH   4   7
ENDBRANCH   2   3
ENDBRANCH   1   2
BRANCH   1  23
ATOM     23  C   UNL A   1      37.952  21.207  25.013  1.00  0.00     0.118 C 
BRANCH  23  24
ATOM     24  N   UNL A   1      38.794  20.288  25.767  1.00  0.00    -0.352 N 
ATOM     25  C   UNL A   1      39.923  20.540  26.503  1.00  0.00     0.251 C 
ATOM     26  H   UNL A   1      38.510  19.346  25.744  1.00  0.00     0.163 HD
ATOM     27  O   UNL A   1      40.618  19.594  26.870  1.00  0.00    -0.269 OA
BRANCH  25  28
ATOM     28  C   UNL A   1      40.312  21.931  26.825  1.00  0.00     0.039 A 
ATOM     29  C   UNL A   1      41.301  22.152  27.785  1.00  0.00     0.014 A 
ATOM     30  C   UNL A   1      39.703  23.017  26.190  1.00  0.00     0.014 A 
ATOM     31  C   UNL A   1      41.719  23.455  28.061  1.00  0.00     0.010 A 
ATOM     32  C   UNL A   1      40.195  24.302  26.385  1.00  0.00     0.010 A 
ATOM     33  C   UNL A   1      41.198  24.538  27.335  1.00  0.00    -0.014 A 
BRANCH  33  34
ATOM     34  C   UNL A   1      41.668  25.928  27.570  1.00  0.00     0.031 A 
ATOM     35  C   UNL A   1      42.993  26.375  27.011  1.00  0.00     0.074 A 
ATOM     36  C   UNL A   1      40.933  26.762  28.331  1.00  0.00     0.049 A 
ATOM     37  N   UNL A   1      43.616  27.515  27.168  1.00  0.00    -0.248 NA
ATOM     38  C   UNL A   1      43.731  25.398  26.195  1.00  0.00     0.031 C 
ATOM     39  C   UNL A   1      39.652  26.425  28.959  1.00  0.00     0.029 A 
ATOM     40  N   UNL A   1      41.155  28.061  28.714  1.00  0.00    -0.354 N 
ATOM     41  C   UNL A   1      44.823  27.383  26.488  1.00  0.00     0.074 A 
ATOM     42  C   UNL A   1      44.873  26.031  25.978  1.00  0.00     0.031 C 
ATOM     43  C   UNL A   1      39.188  27.500  29.616  1.00  0.00     0.029 A 
ATOM     44  C   UNL A   1      40.160  28.582  29.507  1.00  0.00     0.049 A 
ATOM     45  H   UNL A   1      41.953  28.571  28.444  1.00  0.00     0.167 HD
ATOM     46  C   UNL A   1      45.788  28.314  26.289  1.00  0.00     0.034 A 
ATOM     47  C   UNL A   1      40.050  29.792  30.094  1.00  0.00     0.034 A 
ATOM     48  C   UNL A   1      45.712  29.662  26.795  1.00  0.00     0.049 A 
ATOM     49  C   UNL A   1      41.153  30.799  29.885  1.00  0.00     0.074 A 
ATOM     50  C   UNL A   1      46.601  30.705  26.604  1.00  0.00     0.029 A 
ATOM     51  N   UNL A   1      44.692  30.152  27.603  1.00  0.00    -0.354 N 
ATOM     52  N   UNL A   1      42.263  30.678  29.192  1.00  0.00    -0.248 NA
ATOM     53  C   UNL A   1      40.985  32.107  30.527  1.00  0.00     0.031 C 
ATOM     54  C   UNL A   1      46.162  31.797  27.360  1.00  0.00     0.029 A 
ATOM     55  C   UNL A   1      44.951  31.470  27.948  1.00  0.00     0.049 A 
ATOM     56  H   UNL A   1      43.902  29.639  27.887  1.00  0.00     0.167 HD
ATOM     57  C   UNL A   1      42.906  31.909  29.288  1.00  0.00     0.074 A 
ATOM     58  C   UNL A   1      42.052  32.760  30.092  1.00  0.00     0.031 C 
ATOM     59  C   UNL A   1      44.093  32.303  28.757  1.00  0.00     0.034 A 
BRANCH  46  60
ATOM     60  C   UNL A   1      47.016  27.893  25.513  1.00  0.00     0.023 A 
ATOM     61  C   UNL A   1      47.168  28.188  24.147  1.00  0.00     0.031 A 
ATOM     62  C   UNL A   1      48.039  27.163  26.144  1.00  0.00     0.131 A 
ATOM     63  C   UNL A   1      48.274  27.692  23.440  1.00  0.00     0.055 A 
ATOM     64  C   UNL A   1      49.181  26.748  25.455  1.00  0.00     0.041 A 
ATOM     65  F   UNL A   1      47.942  26.828  27.441  1.00  0.00    -0.206 F 
ATOM     66  C   UNL A   1      49.297  26.999  24.091  1.00  0.00     0.022 A 
BRANCH  63  67
ATOM     67  S   UNL A   1      48.282  27.834  21.632  1.00  0.00     0.124 S 
ATOM     68  O   UNL A   1      46.895  28.204  21.359  1.00  0.00    -0.237 OA
ATOM     69  O   UNL A   1      49.276  28.875  21.401  1.00  0.00    -0.237 OA
ATOM     70  O   UNL A   1      48.661  26.496  21.184  1.00  0.00    -0.744 OA
ENDBRANCH  63  67
ENDBRANCH  46  60
BRANCH  47  71
ATOM     71  C   UNL A   1      38.867  30.121  30.942  1.00  0.00     0.023 A 
ATOM     72  C   UNL A   1      37.777  30.831  30.416  1.00  0.00     0.031 A 
ATOM     73  C   UNL A   1      38.828  29.770  32.303  1.00  0.00     0.131 A 
ATOM     74  C   UNL A   1      36.720  31.216  31.256  1.00  0.00     0.055 A 
ATOM     75  C   UNL A   1      37.746  30.101  33.121  1.00  0.00     0.041 A 
ATOM     76  F   UNL A   1      39.843  29.088  32.859  1.00  0.00    -0.206 F 
ATOM     77  C   UNL A   1      36.690  30.842  32.601  1.00  0.00     0.022 A 
BRANCH  74  78
ATOM     78  S   UNL A   1      35.432  32.304  30.587  1.00  0.00     0.124 S 
ATOM     79  O   UNL A   1      35.029  31.583  29.385  1.00  0.00    -0.237 OA
ATOM     80  O   UNL A   1      34.462  32.330  31.676  1.00  0.00    -0.237 OA
ATOM     81  O   UNL A   1      36.137  33.562  30.354  1.00  0.00    -0.744 OA
ENDBRANCH  74  78
ENDBRANCH  47  71
BRANCH  59  82
ATOM     82  C   UNL A   1      44.506  33.738  28.986  1.00  0.00     0.023 A 
ATOM     83  C   UNL A   1      43.909  34.803  28.292  1.00  0.00     0.031 A 
ATOM     84  C   UNL A   1      45.518  34.040  29.915  1.00  0.00     0.131 A 
ATOM     85  C   UNL A   1      44.369  36.114  28.493  1.00  0.00     0.055 A 
ATOM     86  C   UNL A   1      45.922  35.351  30.163  1.00  0.00     0.041 A 
ATOM     87  F   UNL A   1      46.128  33.061  30.605  1.00  0.00    -0.206 F 
ATOM     88  C   UNL A   1      45.357  36.396  29.439  1.00  0.00     0.022 A 
BRANCH  85  89
ATOM     89  S   UNL A   1      43.728  37.435  27.429  1.00  0.00     0.124 S 
ATOM     90  O   UNL A   1      43.057  38.302  28.393  1.00  0.00    -0.237 OA
ATOM     91  O   UNL A   1      44.945  37.971  26.828  1.00  0.00    -0.237 OA
ATOM     92  O   UNL A   1      42.839  36.731  26.505  1.00  0.00    -0.744 OA
ENDBRANCH  85  89
ENDBRANCH  59  82
ENDBRANCH  33  34
ENDBRANCH  25  28
ENDBRANCH  23  24
ENDBRANCH   1  23
TORSDOF 15
ENDMDL
MODEL 3
REMARK VINA RESULT:     -12.2      5.138      8.195
REMARK SMILES Cn1ccc(NC(=O)[C@@H]2CCCC[C@@H]2C(=O)NCCCNC(=O)c2ccc(-c3c4nc(c(-c5cc(S(=O)(=O)[O-])ccc5F)c5ccc([nH]5)c(-c5cc(S(=O)(=O)[O-])ccc5F)c5nc(c(-c6cc(S(=O)(=O)[O-])ccc6F)c6ccc3[nH]6)C=C5)C=C4)cc2)n1
REMARK SMILES IDX 19 1 18 2 17 3 15 4 16 5 14 7 9 8 10 9 11 10 13 11 12 12
REMARK SMILES IDX 7 13 6 14 8 16 5 17 1 18 2 19 3 20 87 21 4 22 20 23 21 24
REMARK SMILES IDX 22 25 23 27 24 28 25 29 86 30 26 31 85 32 27 33 28 34 29 35
REMARK SMILES IDX 79 36 30 37 84 38 78 39 80 40 31 41 83 42 77 43 76 44 32 46
REMARK SMILES IDX 64 47 44 48 63 49 45 50 48 51 62 52 81 53 46 54 47 55 61 57
REMARK SMILES IDX 82 58 49 59 33 60 34 61 42 62 35 63 41 64 43 65 40 66 36 67
REMARK SMILES IDX 37 68 38 69 39 70 65 71 66 72 74 73 67 74 73 75 75 76 72 77
REMARK SMILES IDX 68 78 69 79 70 80 71 81 50 82 51 83 59 84 52 85 58 86 60 87
REMARK SMILES IDX 57 88 53 89 54 90 55 91 56 92
REMARK H PARENT 17 6 6 15 21 26 80 45 48 56
REMARK Flexibility Score: inf
ROOT
ATOM      1  C   UNL A   1      34.741  23.119  25.790  1.00  0.00     0.042 C 
ENDROOT
BRANCH   1   2
ATOM      2  C   UNL A   1      33.673  24.197  25.692  1.00  0.00     0.117 C 
BRANCH   2   3
ATOM      3  N   UNL A   1      34.244  25.506  25.881  1.00  0.00    -0.356 N 
ATOM      4  C   UNL A   1      33.664  26.732  25.866  1.00  0.00     0.223 C 
ATOM      5  O   UNL A   1      34.410  27.673  26.145  1.00  0.00    -0.275 OA
ATOM      6  H   UNL A   1      35.214  25.511  26.050  1.00  0.00     0.163 HD
BRANCH   4   7
ATOM      7  C   UNL A   1      32.152  26.909  25.627  1.00  0.00     0.091 C 
ATOM      8  C   UNL A   1      31.685  27.850  24.485  1.00  0.00     0.091 C 
ATOM      9  C   UNL A   1      32.304  29.240  24.715  1.00  0.00     0.014 C 
ATOM     10  C   UNL A   1      31.773  29.849  26.012  1.00  0.00     0.001 C 
ATOM     11  C   UNL A   1      31.495  27.458  26.920  1.00  0.00     0.014 C 
ATOM     12  C   UNL A   1      31.868  28.917  27.220  1.00  0.00     0.001 C 
BRANCH   8  13
ATOM     13  C   UNL A   1      31.793  27.414  23.018  1.00  0.00     0.229 C 
ATOM     14  N   UNL A   1      30.947  27.862  22.046  1.00  0.00    -0.309 N 
ATOM     15  H   UNL A   1      31.113  27.506  21.143  1.00  0.00     0.171 HD
ATOM     16  O   UNL A   1      32.672  26.623  22.656  1.00  0.00    -0.274 OA
BRANCH  14  17
ATOM     17  C   UNL A   1      29.900  28.740  22.150  1.00  0.00     0.154 A 
ATOM     18  C   UNL A   1      28.599  31.955  21.935  1.00  0.00     0.173 C 
ATOM     19  N   UNL A   1      28.804  30.546  22.163  1.00  0.00    -0.274 N 
ATOM     20  C   UNL A   1      28.119  29.735  23.015  1.00  0.00     0.110 A 
ATOM     21  N   UNL A   1      29.856  29.946  21.588  1.00  0.00    -0.155 NA
ATOM     22  C   UNL A   1      28.766  28.521  22.972  1.00  0.00     0.068 A 
ENDBRANCH  14  17
ENDBRANCH   8  13
ENDBRANCH   4   7
ENDBRANCH   2   3
ENDBRANCH   1   2
BRANCH   1  23
ATOM     23  C   UNL A   1      36.141  23.686  25.923  1.00  0.00     0.118 C 
BRANCH  23  24
ATOM     24  N   UNL A   1      37.139  22.634  26.057  1.00  0.00    -0.352 N 
ATOM     25  C   UNL A   1      38.476  22.728  26.347  1.00  0.00     0.251 C 
ATOM     26  H   UNL A   1      36.804  21.719  25.918  1.00  0.00     0.163 HD
ATOM     27  O   UNL A   1      39.192  21.741  26.184  1.00  0.00    -0.269 OA
BRANCH  25  28
ATOM     28  C   UNL A   1      39.051  24.007  26.820  1.00  0.00     0.039 A 
ATOM     29  C   UNL A   1      39.727  24.822  25.909  1.00  0.00     0.014 A 
ATOM     30  C   UNL A   1      38.933  24.402  28.154  1.00  0.00     0.014 A 
ATOM     31  C   UNL A   1      40.228  26.057  26.326  1.00  0.00     0.010 A 
ATOM     32  C   UNL A   1      39.334  25.675  28.540  1.00  0.00     0.010 A 
ATOM     33  C   UNL A   1      40.001  26.512  27.635  1.00  0.00    -0.014 A 
BRANCH  33  34
ATOM     34  C   UNL A   1      40.473  27.846  28.086  1.00  0.00     0.031 A 
ATOM     35  C   UNL A   1      41.943  28.173  28.047  1.00  0.00     0.074 A 
ATOM     36  C   UNL A   1      39.591  28.735  28.582  1.00  0.00     0.049 A 
ATOM     37  N   UNL A   1      42.565  29.245  28.467  1.00  0.00    -0.248 NA
ATOM     38  C   UNL A   1      42.835  27.142  27.493  1.00  0.00     0.031 C 
ATOM     39  C   UNL A   1      38.147  28.513  28.707  1.00  0.00     0.029 A 
ATOM     40  N   UNL A   1      39.772  30.001  29.081  1.00  0.00    -0.354 N 
ATOM     41  C   UNL A   1      43.918  29.009  28.245  1.00  0.00     0.074 A 
ATOM     42  C   UNL A   1      44.030  27.667  27.719  1.00  0.00     0.031 C 
ATOM     43  C   UNL A   1      37.574  29.617  29.211  1.00  0.00     0.029 A 
ATOM     44  C   UNL A   1      38.609  30.602  29.501  1.00  0.00     0.049 A 
ATOM     45  H   UNL A   1      40.654  30.436  29.132  1.00  0.00     0.167 HD
ATOM     46  C   UNL A   1      44.966  29.846  28.440  1.00  0.00     0.034 A 
ATOM     47  C   UNL A   1      38.402  31.807  30.070  1.00  0.00     0.034 A 
ATOM     48  C   UNL A   1      44.831  31.187  28.952  1.00  0.00     0.049 A 
ATOM     49  C   UNL A   1      39.589  32.707  30.308  1.00  0.00     0.074 A 
ATOM     50  C   UNL A   1      45.814  32.143  29.135  1.00  0.00     0.029 A 
ATOM     51  N   UNL A   1      43.636  31.760  29.376  1.00  0.00    -0.354 N 
ATOM     52  N   UNL A   1      40.857  32.491  30.041  1.00  0.00    -0.248 NA
ATOM     53  C   UNL A   1      39.317  34.016  30.914  1.00  0.00     0.031 C 
ATOM     54  C   UNL A   1      45.231  33.260  29.742  1.00  0.00     0.029 A 
ATOM     55  C   UNL A   1      43.868  33.041  29.854  1.00  0.00     0.049 A 
ATOM     56  H   UNL A   1      42.757  31.320  29.342  1.00  0.00     0.167 HD
ATOM     57  C   UNL A   1      41.526  33.653  30.415  1.00  0.00     0.074 A 
ATOM     58  C   UNL A   1      40.520  34.570  30.911  1.00  0.00     0.031 C 
ATOM     59  C   UNL A   1      42.853  33.940  30.352  1.00  0.00     0.034 A 
BRANCH  46  60
ATOM     60  C   UNL A   1      46.348  29.321  28.122  1.00  0.00     0.023 A 
ATOM     61  C   UNL A   1      46.734  28.996  26.810  1.00  0.00     0.031 A 
ATOM     62  C   UNL A   1      47.286  29.121  29.150  1.00  0.00     0.131 A 
ATOM     63  C   UNL A   1      47.990  28.417  26.571  1.00  0.00     0.055 A 
ATOM     64  C   UNL A   1      48.567  28.627  28.894  1.00  0.00     0.041 A 
ATOM     65  F   UNL A   1      46.970  29.390  30.427  1.00  0.00    -0.206 F 
ATOM     66  C   UNL A   1      48.921  28.257  27.600  1.00  0.00     0.022 A 
BRANCH  63  67
ATOM     67  S   UNL A   1      48.331  27.736  24.925  1.00  0.00     0.124 S 
ATOM     68  O   UNL A   1      49.709  28.170  24.705  1.00  0.00    -0.237 OA
ATOM     69  O   UNL A   1      48.137  26.305  25.128  1.00  0.00    -0.237 OA
ATOM     70  O   UNL A   1      47.338  28.386  24.072  1.00  0.00    -0.744 OA
ENDBRANCH  63  67
ENDBRANCH  46  60
BRANCH  47  71
ATOM     71  C   UNL A   1      37.029  32.235  30.467  1.00  0.00     0.023 A 
ATOM     72  C   UNL A   1      36.157  32.820  29.536  1.00  0.00     0.031 A 
ATOM     73  C   UNL A   1      36.583  32.108  31.795  1.00  0.00     0.131 A 
ATOM     74  C   UNL A   1      34.908  33.305  29.953  1.00  0.00     0.055 A 
ATOM     75  C   UNL A   1      35.314  32.535  32.193  1.00  0.00     0.041 A 
ATOM     76  F   UNL A   1      37.374  31.554  32.728  1.00  0.00    -0.206 F 
ATOM     77  C   UNL A   1      34.474  33.152  31.272  1.00  0.00     0.022 A 
BRANCH  74  78
ATOM     78  S   UNL A   1      33.897  34.233  28.767  1.00  0.00     0.124 S 
ATOM     79  O   UNL A   1      33.518  33.191  27.820  1.00  0.00    -0.237 OA
ATOM     80  O   UNL A   1      32.829  34.748  29.617  1.00  0.00    -0.237 OA
ATOM     81  O   UNL A   1      34.820  35.242  28.251  1.00  0.00    -0.744 OA
ENDBRANCH  74  78
ENDBRANCH  47  71
BRANCH  59  82
ATOM     82  C   UNL A   1      43.279  35.325  30.780  1.00  0.00     0.023 A 
ATOM     83  C   UNL A   1      43.452  35.665  32.132  1.00  0.00     0.031 A 
ATOM     84  C   UNL A   1      43.511  36.320  29.813  1.00  0.00     0.131 A 
ATOM     85  C   UNL A   1      43.788  36.981  32.484  1.00  0.00     0.055 A 
ATOM     86  C   UNL A   1      43.914  37.608  30.166  1.00  0.00     0.041 A 
ATOM     87  F   UNL A   1      43.357  36.054  28.506  1.00  0.00    -0.206 F 
ATOM     88  C   UNL A   1      44.041  37.948  31.509  1.00  0.00     0.022 A 
BRANCH  85  89
ATOM     89  S   UNL A   1      43.794  37.439  34.239  1.00  0.00     0.124 S 
ATOM     90  O   UNL A   1      43.387  36.192  34.879  1.00  0.00    -0.237 OA
ATOM     91  O   UNL A   1      45.180  37.842  34.453  1.00  0.00    -0.237 OA
ATOM     92  O   UNL A   1      42.814  38.522  34.314  1.00  0.00    -0.744 OA
ENDBRANCH  85  89
ENDBRANCH  59  82
ENDBRANCH  33  34
ENDBRANCH  25  28
ENDBRANCH  23  24
ENDBRANCH   1  23
TORSDOF 15
ENDMDL
