MODEL 1
REMARK VINA RESULT:     -12.3      0.000      0.000
REMARK SMILES Cn1ncc(C(=O)NCc2ccc(F)cc2)c1C(=O)NCCCNC(=O)c1ccc(-c2c3nc(c(-c4cc(S(=O)(=O)[O-])ccc4F)c4ccc([nH]4)c(-c4cc(S(=O)(=O)[O-])ccc4F)c4nc(c(-c5cc(S(=O)(=O)[O-])ccc5F)c5ccc2[nH]5)C=C4)C=C3)cc1
REMARK SMILES IDX 22 1 21 2 20 3 18 4 19 5 17 7 1 8 2 9 3 10 4 11 5 12 6 13
REMARK SMILES IDX 7 14 8 15 9 17 10 18 11 19 16 20 12 21 15 22 13 23 14 24
REMARK SMILES IDX 23 25 24 26 25 27 26 29 27 30 28 31 89 32 29 33 88 34 30 35
REMARK SMILES IDX 31 36 32 37 82 38 33 39 87 40 81 41 83 42 34 43 86 44 80 45
REMARK SMILES IDX 79 46 35 48 67 49 47 50 66 51 48 52 51 53 65 54 84 55 49 56
REMARK SMILES IDX 50 57 64 59 85 60 52 61 36 62 37 63 45 64 38 65 44 66 46 67
REMARK SMILES IDX 43 68 39 69 40 70 41 71 42 72 68 73 69 74 77 75 70 76 76 77
REMARK SMILES IDX 78 78 75 79 71 80 72 81 73 82 74 83 53 84 54 85 62 86 55 87
REMARK SMILES IDX 61 88 63 89 60 90 56 91 57 92 58 93 59 94
REMARK H PARENT 20 6 8 16 24 28 83 47 51 58
REMARK Flexibility Score: inf
ROOT
ATOM      1  C   UNL A   1      36.055  22.839  24.233  1.00  0.00     0.042 C 
ENDROOT
BRANCH   1   2
ATOM      2  C   UNL A   1      34.658  22.832  23.614  1.00  0.00     0.118 C 
BRANCH   2   3
ATOM      3  N   UNL A   1      34.025  24.138  23.729  1.00  0.00    -0.351 N 
ATOM      4  C   UNL A   1      33.845  24.768  24.942  1.00  0.00     0.270 C 
ATOM      5  O   UNL A   1      34.741  25.494  25.364  1.00  0.00    -0.268 OA
ATOM      6  H   UNL A   1      33.715  24.587  22.911  1.00  0.00     0.163 HD
BRANCH   4   7
ATOM      7  C   UNL A   1      32.501  24.778  25.475  1.00  0.00     0.138 A 
ATOM      8  C   UNL A   1      31.657  27.047  24.664  1.00  0.00     0.174 C 
ATOM      9  N   UNL A   1      31.538  25.750  25.284  1.00  0.00    -0.262 N 
ATOM     10  N   UNL A   1      30.311  25.388  25.693  1.00  0.00    -0.180 NA
ATOM     11  C   UNL A   1      30.503  24.201  26.252  1.00  0.00     0.149 A 
ATOM     12  C   UNL A   1      31.858  23.789  26.231  1.00  0.00     0.090 A 
BRANCH  12  13
ATOM     13  C   UNL A   1      32.287  22.541  26.850  1.00  0.00     0.255 C 
ATOM     14  O   UNL A   1      32.612  22.522  28.039  1.00  0.00    -0.269 OA
ATOM     15  N   UNL A   1      32.497  21.386  26.143  1.00  0.00    -0.348 N 
ATOM     16  H   UNL A   1      32.954  20.679  26.652  1.00  0.00     0.164 HD
BRANCH  15  17
ATOM     17  C   UNL A   1      32.168  21.025  24.793  1.00  0.00     0.152 C 
BRANCH  17  18
ATOM     18  C   UNL A   1      32.666  19.669  24.368  1.00  0.00    -0.029 A 
ATOM     19  C   UNL A   1      32.098  19.007  23.270  1.00  0.00     0.008 A 
ATOM     20  C   UNL A   1      33.807  19.127  24.984  1.00  0.00     0.008 A 
ATOM     21  C   UNL A   1      32.689  17.844  22.771  1.00  0.00     0.039 A 
ATOM     22  C   UNL A   1      34.396  17.968  24.479  1.00  0.00     0.039 A 
ATOM     23  C   UNL A   1      33.838  17.344  23.371  1.00  0.00     0.123 A 
ATOM     24  F   UNL A   1      34.423  16.251  22.866  1.00  0.00    -0.207 F 
ENDBRANCH  17  18
ENDBRANCH  15  17
ENDBRANCH  12  13
ENDBRANCH   4   7
ENDBRANCH   2   3
ENDBRANCH   1   2
BRANCH   1  25
ATOM     25  C   UNL A   1      36.096  22.306  25.664  1.00  0.00     0.118 C 
BRANCH  25  26
ATOM     26  N   UNL A   1      37.020  21.190  25.791  1.00  0.00    -0.352 N 
ATOM     27  C   UNL A   1      38.389  21.188  25.913  1.00  0.00     0.251 C 
ATOM     28  H   UNL A   1      36.600  20.300  25.792  1.00  0.00     0.163 HD
ATOM     29  O   UNL A   1      38.996  20.141  25.708  1.00  0.00    -0.269 OA
BRANCH  27  30
ATOM     30  C   UNL A   1      39.133  22.418  26.274  1.00  0.00     0.039 A 
ATOM     31  C   UNL A   1      40.162  22.331  27.218  1.00  0.00     0.014 A 
ATOM     32  C   UNL A   1      38.773  23.667  25.756  1.00  0.00     0.014 A 
ATOM     33  C   UNL A   1      40.858  23.481  27.606  1.00  0.00     0.010 A 
ATOM     34  C   UNL A   1      39.505  24.805  26.101  1.00  0.00     0.010 A 
ATOM     35  C   UNL A   1      40.550  24.725  27.034  1.00  0.00    -0.014 A 
BRANCH  35  36
ATOM     36  C   UNL A   1      41.290  25.957  27.418  1.00  0.00     0.031 A 
ATOM     37  C   UNL A   1      40.617  27.011  28.256  1.00  0.00     0.074 A 
ATOM     38  C   UNL A   1      42.549  26.150  26.979  1.00  0.00     0.049 A 
ATOM     39  N   UNL A   1      41.046  28.201  28.590  1.00  0.00    -0.248 NA
ATOM     40  C   UNL A   1      39.274  26.691  28.764  1.00  0.00     0.031 C 
ATOM     41  C   UNL A   1      43.312  25.211  26.155  1.00  0.00     0.029 A 
ATOM     42  N   UNL A   1      43.408  27.205  27.161  1.00  0.00    -0.354 N 
ATOM     43  C   UNL A   1      40.020  28.782  29.329  1.00  0.00     0.074 A 
ATOM     44  C   UNL A   1      38.936  27.823  29.364  1.00  0.00     0.031 C 
ATOM     45  C   UNL A   1      44.533  25.719  25.926  1.00  0.00     0.029 A 
ATOM     46  C   UNL A   1      44.628  27.038  26.546  1.00  0.00     0.049 A 
ATOM     47  H   UNL A   1      43.175  28.007  27.683  1.00  0.00     0.167 HD
ATOM     48  C   UNL A   1      39.990  29.995  29.932  1.00  0.00     0.034 A 
ATOM     49  C   UNL A   1      45.695  27.856  26.479  1.00  0.00     0.034 A 
ATOM     50  C   UNL A   1      41.085  30.933  29.920  1.00  0.00     0.049 A 
ATOM     51  C   UNL A   1      45.637  29.201  27.149  1.00  0.00     0.074 A 
ATOM     52  C   UNL A   1      41.163  32.176  30.524  1.00  0.00     0.029 A 
ATOM     53  N   UNL A   1      42.298  30.726  29.279  1.00  0.00    -0.354 N 
ATOM     54  N   UNL A   1      44.647  29.746  27.815  1.00  0.00    -0.248 NA
ATOM     55  C   UNL A   1      46.838  30.042  27.056  1.00  0.00     0.031 C 
ATOM     56  C   UNL A   1      42.407  32.737  30.217  1.00  0.00     0.029 A 
ATOM     57  C   UNL A   1      43.125  31.823  29.463  1.00  0.00     0.049 A 
ATOM     58  H   UNL A   1      42.537  29.920  28.767  1.00  0.00     0.167 HD
ATOM     59  C   UNL A   1      45.111  30.988  28.233  1.00  0.00     0.074 A 
ATOM     60  C   UNL A   1      46.470  31.113  27.749  1.00  0.00     0.031 C 
ATOM     61  C   UNL A   1      44.471  31.937  28.960  1.00  0.00     0.034 A 
BRANCH  48  62
ATOM     62  C   UNL A   1      38.719  30.386  30.638  1.00  0.00     0.023 A 
ATOM     63  C   UNL A   1      37.682  31.053  29.967  1.00  0.00     0.031 A 
ATOM     64  C   UNL A   1      38.543  30.088  32.001  1.00  0.00     0.131 A 
ATOM     65  C   UNL A   1      36.536  31.451  30.673  1.00  0.00     0.055 A 
ATOM     66  C   UNL A   1      37.375  30.428  32.683  1.00  0.00     0.041 A 
ATOM     67  F   UNL A   1      39.512  29.466  32.693  1.00  0.00    -0.206 F 
ATOM     68  C   UNL A   1      36.366  31.123  32.021  1.00  0.00     0.022 A 
BRANCH  65  69
ATOM     69  S   UNL A   1      35.306  32.479  29.828  1.00  0.00     0.124 S 
ATOM     70  O   UNL A   1      34.404  32.818  30.927  1.00  0.00    -0.237 OA
ATOM     71  O   UNL A   1      36.110  33.575  29.302  1.00  0.00    -0.237 OA
ATOM     72  O   UNL A   1      34.743  31.580  28.822  1.00  0.00    -0.744 OA
ENDBRANCH  65  69
ENDBRANCH  48  62
BRANCH  49  73
ATOM     73  C   UNL A   1      46.909  27.430  25.735  1.00  0.00     0.023 A 
ATOM     74  C   UNL A   1      47.081  27.773  24.385  1.00  0.00     0.031 A 
ATOM     75  C   UNL A   1      47.914  26.678  26.365  1.00  0.00     0.131 A 
ATOM     76  C   UNL A   1      48.227  27.345  23.699  1.00  0.00     0.055 A 
ATOM     77  C   UNL A   1      49.067  26.280  25.686  1.00  0.00     0.041 A 
ATOM     78  F   UNL A   1      47.798  26.338  27.659  1.00  0.00    -0.206 F 
ATOM     79  C   UNL A   1      49.226  26.610  24.343  1.00  0.00     0.022 A 
BRANCH  76  80
ATOM     80  S   UNL A   1      48.393  27.754  21.940  1.00  0.00     0.124 S 
ATOM     81  O   UNL A   1      49.594  28.582  21.941  1.00  0.00    -0.237 OA
ATOM     82  O   UNL A   1      48.521  26.435  21.330  1.00  0.00    -0.237 OA
ATOM     83  O   UNL A   1      47.147  28.456  21.637  1.00  0.00    -0.744 OA
ENDBRANCH  76  80
ENDBRANCH  49  73
BRANCH  61  84
ATOM     84  C   UNL A   1      45.245  33.180  29.301  1.00  0.00     0.023 A 
ATOM     85  C   UNL A   1      45.288  34.279  28.427  1.00  0.00     0.031 A 
ATOM     86  C   UNL A   1      45.921  33.273  30.529  1.00  0.00     0.131 A 
ATOM     87  C   UNL A   1      46.020  35.420  28.785  1.00  0.00     0.055 A 
ATOM     88  C   UNL A   1      46.617  34.425  30.896  1.00  0.00     0.041 A 
ATOM     89  F   UNL A   1      45.905  32.247  31.396  1.00  0.00    -0.206 F 
ATOM     90  C   UNL A   1      46.673  35.505  30.019  1.00  0.00     0.022 A 
BRANCH  87  91
ATOM     91  S   UNL A   1      46.127  36.796  27.607  1.00  0.00     0.124 S 
ATOM     92  O   UNL A   1      46.454  37.916  28.483  1.00  0.00    -0.237 OA
ATOM     93  O   UNL A   1      47.189  36.361  26.706  1.00  0.00    -0.237 OA
ATOM     94  O   UNL A   1      44.793  36.841  27.012  1.00  0.00    -0.744 OA
ENDBRANCH  87  91
ENDBRANCH  61  84
ENDBRANCH  35  36
ENDBRANCH  27  30
ENDBRANCH  25  26
ENDBRANCH   1  25
TORSDOF 16
ENDMDL
MODEL 2
REMARK VINA RESULT:     -12.2      0.603      7.501
REMARK SMILES Cn1ncc(C(=O)NCc2ccc(F)cc2)c1C(=O)NCCCNC(=O)c1ccc(-c2c3nc(c(-c4cc(S(=O)(=O)[O-])ccc4F)c4ccc([nH]4)c(-c4cc(S(=O)(=O)[O-])ccc4F)c4nc(c(-c5cc(S(=O)(=O)[O-])ccc5F)c5ccc2[nH]5)C=C4)C=C3)cc1
REMARK SMILES IDX 22 1 21 2 20 3 18 4 19 5 17 7 1 8 2 9 3 10 4 11 5 12 6 13
REMARK SMILES IDX 7 14 8 15 9 17 10 18 11 19 16 20 12 21 15 22 13 23 14 24
REMARK SMILES IDX 23 25 24 26 25 27 26 29 27 30 28 31 89 32 29 33 88 34 30 35
REMARK SMILES IDX 31 36 32 37 82 38 33 39 87 40 81 41 83 42 34 43 86 44 80 45
REMARK SMILES IDX 79 46 35 48 67 49 47 50 66 51 48 52 51 53 65 54 84 55 49 56
REMARK SMILES IDX 50 57 64 59 85 60 52 61 36 62 37 63 45 64 38 65 44 66 46 67
REMARK SMILES IDX 43 68 39 69 40 70 41 71 42 72 68 73 69 74 77 75 70 76 76 77
REMARK SMILES IDX 78 78 75 79 71 80 72 81 73 82 74 83 53 84 54 85 62 86 55 87
REMARK SMILES IDX 61 88 63 89 60 90 56 91 57 92 58 93 59 94
REMARK H PARENT 20 6 8 16 24 28 83 47 51 58
REMARK Flexibility Score: inf
ROOT
ATOM      1  C   UNL A   1      35.799  21.842  24.633  1.00  0.00     0.042 C 
ENDROOT
BRANCH   1   2
ATOM      2  C   UNL A   1      35.034  22.555  23.519  1.00  0.00     0.118 C 
BRANCH   2   3
ATOM      3  N   UNL A   1      34.794  23.950  23.856  1.00  0.00    -0.351 N 
ATOM      4  C   UNL A   1      34.628  24.380  25.156  1.00  0.00     0.270 C 
ATOM      5  O   UNL A   1      35.624  24.704  25.797  1.00  0.00    -0.268 OA
ATOM      6  H   UNL A   1      34.748  24.612  23.129  1.00  0.00     0.163 HD
BRANCH   4   7
ATOM      7  C   UNL A   1      33.281  24.711  25.562  1.00  0.00     0.138 A 
ATOM      8  C   UNL A   1      33.077  27.110  24.711  1.00  0.00     0.174 C 
ATOM      9  N   UNL A   1      32.598  25.882  25.298  1.00  0.00    -0.262 N 
ATOM     10  N   UNL A   1      31.286  25.825  25.587  1.00  0.00    -0.180 NA
ATOM     11  C   UNL A   1      31.140  24.630  26.144  1.00  0.00     0.149 A 
ATOM     12  C   UNL A   1      32.354  23.908  26.242  1.00  0.00     0.090 A 
BRANCH  12  13
ATOM     13  C   UNL A   1      32.417  22.598  26.878  1.00  0.00     0.255 C 
ATOM     14  O   UNL A   1      32.612  22.512  28.092  1.00  0.00    -0.269 OA
ATOM     15  N   UNL A   1      32.417  21.422  26.176  1.00  0.00    -0.348 N 
ATOM     16  H   UNL A   1      32.644  20.630  26.715  1.00  0.00     0.164 HD
BRANCH  15  17
ATOM     17  C   UNL A   1      32.144  21.139  24.795  1.00  0.00     0.152 C 
BRANCH  17  18
ATOM     18  C   UNL A   1      32.534  19.755  24.350  1.00  0.00    -0.029 A 
ATOM     19  C   UNL A   1      32.127  19.259  23.102  1.00  0.00     0.008 A 
ATOM     20  C   UNL A   1      33.438  19.008  25.125  1.00  0.00     0.008 A 
ATOM     21  C   UNL A   1      32.649  18.057  22.622  1.00  0.00     0.039 A 
ATOM     22  C   UNL A   1      33.960  17.810  24.639  1.00  0.00     0.039 A 
ATOM     23  C   UNL A   1      33.568  17.351  23.388  1.00  0.00     0.123 A 
ATOM     24  F   UNL A   1      34.095  16.218  22.907  1.00  0.00    -0.207 F 
ENDBRANCH  17  18
ENDBRANCH  15  17
ENDBRANCH  12  13
ENDBRANCH   4   7
ENDBRANCH   2   3
ENDBRANCH   1   2
BRANCH   1  25
ATOM     25  C   UNL A   1      37.304  21.750  24.384  1.00  0.00     0.118 C 
BRANCH  25  26
ATOM     26  N   UNL A   1      37.935  20.793  25.278  1.00  0.00    -0.352 N 
ATOM     27  C   UNL A   1      39.058  20.923  26.060  1.00  0.00     0.251 C 
ATOM     28  H   UNL A   1      37.488  19.917  25.334  1.00  0.00     0.163 HD
ATOM     29  O   UNL A   1      39.585  19.908  26.507  1.00  0.00    -0.269 OA
BRANCH  27  30
ATOM     30  C   UNL A   1      39.638  22.253  26.360  1.00  0.00     0.039 A 
ATOM     31  C   UNL A   1      40.843  22.319  27.069  1.00  0.00     0.014 A 
ATOM     32  C   UNL A   1      38.968  23.434  26.026  1.00  0.00     0.014 A 
ATOM     33  C   UNL A   1      41.396  23.561  27.399  1.00  0.00     0.010 A 
ATOM     34  C   UNL A   1      39.549  24.673  26.306  1.00  0.00     0.010 A 
ATOM     35  C   UNL A   1      40.765  24.749  27.001  1.00  0.00    -0.014 A 
BRANCH  35  36
ATOM     36  C   UNL A   1      41.346  26.079  27.325  1.00  0.00     0.031 A 
ATOM     37  C   UNL A   1      42.714  26.449  26.815  1.00  0.00     0.074 A 
ATOM     38  C   UNL A   1      40.668  26.936  28.112  1.00  0.00     0.049 A 
ATOM     39  N   UNL A   1      43.442  27.502  27.089  1.00  0.00    -0.248 NA
ATOM     40  C   UNL A   1      43.355  25.496  25.897  1.00  0.00     0.031 C 
ATOM     41  C   UNL A   1      39.338  26.696  28.676  1.00  0.00     0.029 A 
ATOM     42  N   UNL A   1      41.006  28.183  28.578  1.00  0.00    -0.354 N 
ATOM     43  C   UNL A   1      44.634  27.331  26.393  1.00  0.00     0.074 A 
ATOM     44  C   UNL A   1      44.543  26.055  25.714  1.00  0.00     0.031 C 
ATOM     45  C   UNL A   1      38.964  27.770  29.389  1.00  0.00     0.029 A 
ATOM     46  C   UNL A   1      40.040  28.757  29.372  1.00  0.00     0.049 A 
ATOM     47  H   UNL A   1      41.859  28.625  28.365  1.00  0.00     0.167 HD
ATOM     48  C   UNL A   1      45.701  28.164  26.319  1.00  0.00     0.034 A 
ATOM     49  C   UNL A   1      40.027  29.936  30.021  1.00  0.00     0.034 A 
ATOM     50  C   UNL A   1      45.773  29.447  26.972  1.00  0.00     0.049 A 
ATOM     51  C   UNL A   1      41.224  30.842  29.931  1.00  0.00     0.074 A 
ATOM     52  C   UNL A   1      46.798  30.376  26.937  1.00  0.00     0.029 A 
ATOM     53  N   UNL A   1      44.776  29.985  27.773  1.00  0.00    -0.354 N 
ATOM     54  N   UNL A   1      42.356  30.648  29.297  1.00  0.00    -0.248 NA
ATOM     55  C   UNL A   1      41.144  32.123  30.647  1.00  0.00     0.031 C 
ATOM     56  C   UNL A   1      46.438  31.460  27.745  1.00  0.00     0.029 A 
ATOM     57  C   UNL A   1      45.167  31.228  28.245  1.00  0.00     0.049 A 
ATOM     58  H   UNL A   1      43.918  29.549  27.977  1.00  0.00     0.167 HD
ATOM     59  C   UNL A   1      43.116  31.789  29.524  1.00  0.00     0.074 A 
ATOM     60  C   UNL A   1      42.317  32.669  30.351  1.00  0.00     0.031 C 
ATOM     61  C   UNL A   1      44.364  32.085  29.081  1.00  0.00     0.034 A 
BRANCH  48  62
ATOM     62  C   UNL A   1      46.887  27.699  25.517  1.00  0.00     0.023 A 
ATOM     63  C   UNL A   1      47.043  28.049  24.166  1.00  0.00     0.031 A 
ATOM     64  C   UNL A   1      47.875  26.895  26.112  1.00  0.00     0.131 A 
ATOM     65  C   UNL A   1      48.133  27.550  23.437  1.00  0.00     0.055 A 
ATOM     66  C   UNL A   1      48.991  26.455  25.399  1.00  0.00     0.041 A 
ATOM     67  F   UNL A   1      47.765  26.518  27.396  1.00  0.00    -0.206 F 
ATOM     68  C   UNL A   1      49.120  26.774  24.051  1.00  0.00     0.022 A 
BRANCH  65  69
ATOM     69  S   UNL A   1      48.201  27.858  21.652  1.00  0.00     0.124 S 
ATOM     70  O   UNL A   1      49.288  28.830  21.565  1.00  0.00    -0.237 OA
ATOM     71  O   UNL A   1      48.484  26.535  21.109  1.00  0.00    -0.237 OA
ATOM     72  O   UNL A   1      46.873  28.387  21.346  1.00  0.00    -0.744 OA
ENDBRANCH  65  69
ENDBRANCH  48  62
BRANCH  49  73
ATOM     73  C   UNL A   1      38.841  30.324  30.829  1.00  0.00     0.023 A 
ATOM     74  C   UNL A   1      37.798  31.070  30.259  1.00  0.00     0.031 A 
ATOM     75  C   UNL A   1      38.733  29.952  32.179  1.00  0.00     0.131 A 
ATOM     76  C   UNL A   1      36.696  31.440  31.045  1.00  0.00     0.055 A 
ATOM     77  C   UNL A   1      37.622  30.297  32.949  1.00  0.00     0.041 A 
ATOM     78  F   UNL A   1      39.702  29.227  32.762  1.00  0.00    -0.206 F 
ATOM     79  C   UNL A   1      36.596  31.050  32.383  1.00  0.00     0.022 A 
BRANCH  76  80
ATOM     80  S   UNL A   1      35.392  32.453  30.296  1.00  0.00     0.124 S 
ATOM     81  O   UNL A   1      34.990  31.627  29.163  1.00  0.00    -0.237 OA
ATOM     82  O   UNL A   1      34.428  32.565  31.385  1.00  0.00    -0.237 OA
ATOM     83  O   UNL A   1      36.082  33.694  29.952  1.00  0.00    -0.744 OA
ENDBRANCH  76  80
ENDBRANCH  49  73
BRANCH  61  84
ATOM     84  C   UNL A   1      44.926  33.427  29.457  1.00  0.00     0.023 A 
ATOM     85  C   UNL A   1      44.703  34.564  28.662  1.00  0.00     0.031 A 
ATOM     86  C   UNL A   1      45.667  33.573  30.642  1.00  0.00     0.131 A 
ATOM     87  C   UNL A   1      45.243  35.798  29.050  1.00  0.00     0.055 A 
ATOM     88  C   UNL A   1      46.171  34.811  31.042  1.00  0.00     0.041 A 
ATOM     89  F   UNL A   1      45.902  32.514  31.434  1.00  0.00    -0.206 F 
ATOM     90  C   UNL A   1      45.963  35.931  30.242  1.00  0.00     0.022 A 
BRANCH  87  91
ATOM     91  S   UNL A   1      45.010  37.235  27.968  1.00  0.00     0.124 S 
ATOM     92  O   UNL A   1      43.979  36.757  27.053  1.00  0.00    -0.237 OA
ATOM     93  O   UNL A   1      44.598  38.275  28.904  1.00  0.00    -0.237 OA
ATOM     94  O   UNL A   1      46.329  37.431  27.370  1.00  0.00    -0.744 OA
ENDBRANCH  87  91
ENDBRANCH  61  84
ENDBRANCH  35  36
ENDBRANCH  27  30
ENDBRANCH  25  26
ENDBRANCH   1  25
TORSDOF 16
ENDMDL
MODEL 3
REMARK VINA RESULT:     -12.2      2.649      7.820
REMARK SMILES Cn1ncc(C(=O)NCc2ccc(F)cc2)c1C(=O)NCCCNC(=O)c1ccc(-c2c3nc(c(-c4cc(S(=O)(=O)[O-])ccc4F)c4ccc([nH]4)c(-c4cc(S(=O)(=O)[O-])ccc4F)c4nc(c(-c5cc(S(=O)(=O)[O-])ccc5F)c5ccc2[nH]5)C=C4)C=C3)cc1
REMARK SMILES IDX 22 1 21 2 20 3 18 4 19 5 17 7 1 8 2 9 3 10 4 11 5 12 6 13
REMARK SMILES IDX 7 14 8 15 9 17 10 18 11 19 16 20 12 21 15 22 13 23 14 24
REMARK SMILES IDX 23 25 24 26 25 27 26 29 27 30 28 31 89 32 29 33 88 34 30 35
REMARK SMILES IDX 31 36 32 37 82 38 33 39 87 40 81 41 83 42 34 43 86 44 80 45
REMARK SMILES IDX 79 46 35 48 67 49 47 50 66 51 48 52 51 53 65 54 84 55 49 56
REMARK SMILES IDX 50 57 64 59 85 60 52 61 36 62 37 63 45 64 38 65 44 66 46 67
REMARK SMILES IDX 43 68 39 69 40 70 41 71 42 72 68 73 69 74 77 75 70 76 76 77
REMARK SMILES IDX 78 78 75 79 71 80 72 81 73 82 74 83 53 84 54 85 62 86 55 87
REMARK SMILES IDX 61 88 63 89 60 90 56 91 57 92 58 93 59 94
REMARK H PARENT 20 6 8 16 24 28 83 47 51 58
REMARK Flexibility Score: inf
ROOT
ATOM      1  C   UNL A   1      35.633  23.316  25.119  1.00  0.00     0.042 C 
ENDROOT
BRANCH   1   2
ATOM      2  C   UNL A   1      34.709  23.427  23.907  1.00  0.00     0.118 C 
BRANCH   2   3
ATOM      3  N   UNL A   1      33.748  24.506  24.076  1.00  0.00    -0.351 N 
ATOM      4  C   UNL A   1      33.492  25.085  25.301  1.00  0.00     0.270 C 
ATOM      5  O   UNL A   1      34.180  26.040  25.652  1.00  0.00    -0.268 OA
ATOM      6  H   UNL A   1      33.262  24.836  23.285  1.00  0.00     0.163 HD
BRANCH   4   7
ATOM      7  C   UNL A   1      32.244  24.730  25.938  1.00  0.00     0.138 A 
ATOM      8  C   UNL A   1      30.851  26.827  25.514  1.00  0.00     0.174 C 
ATOM      9  N   UNL A   1      31.081  25.474  25.960  1.00  0.00    -0.262 N 
ATOM     10  N   UNL A   1      30.011  24.801  26.416  1.00  0.00    -0.180 NA
ATOM     11  C   UNL A   1      30.513  23.632  26.792  1.00  0.00     0.149 A 
ATOM     12  C   UNL A   1      31.914  23.541  26.604  1.00  0.00     0.090 A 
BRANCH  12  13
ATOM     13  C   UNL A   1      32.666  22.360  27.011  1.00  0.00     0.255 C 
ATOM     14  O   UNL A   1      33.291  22.363  28.073  1.00  0.00    -0.269 OA
ATOM     15  N   UNL A   1      32.846  21.270  26.200  1.00  0.00    -0.348 N 
ATOM     16  H   UNL A   1      33.518  20.630  26.528  1.00  0.00     0.164 HD
BRANCH  15  17
ATOM     17  C   UNL A   1      32.229  20.895  24.959  1.00  0.00     0.152 C 
BRANCH  17  18
ATOM     18  C   UNL A   1      32.859  19.710  24.279  1.00  0.00    -0.029 A 
ATOM     19  C   UNL A   1      34.038  19.138  24.778  1.00  0.00     0.008 A 
ATOM     20  C   UNL A   1      32.181  19.077  23.223  1.00  0.00     0.008 A 
ATOM     21  C   UNL A   1      34.507  17.930  24.256  1.00  0.00     0.039 A 
ATOM     22  C   UNL A   1      32.650  17.869  22.708  1.00  0.00     0.039 A 
ATOM     23  C   UNL A   1      33.802  17.302  23.237  1.00  0.00     0.123 A 
ATOM     24  F   UNL A   1      34.234  16.125  22.765  1.00  0.00    -0.207 F 
ENDBRANCH  17  18
ENDBRANCH  15  17
ENDBRANCH  12  13
ENDBRANCH   4   7
ENDBRANCH   2   3
ENDBRANCH   1   2
BRANCH   1  25
ATOM     25  C   UNL A   1      37.116  23.456  24.775  1.00  0.00     0.118 C 
BRANCH  25  26
ATOM     26  N   UNL A   1      37.922  22.476  25.486  1.00  0.00    -0.352 N 
ATOM     27  C   UNL A   1      39.059  22.649  26.238  1.00  0.00     0.251 C 
ATOM     28  H   UNL A   1      37.603  21.547  25.419  1.00  0.00     0.163 HD
ATOM     29  O   UNL A   1      39.745  21.664  26.501  1.00  0.00    -0.269 OA
BRANCH  27  30
ATOM     30  C   UNL A   1      39.468  23.988  26.723  1.00  0.00     0.039 A 
ATOM     31  C   UNL A   1      40.126  24.853  25.842  1.00  0.00     0.014 A 
ATOM     32  C   UNL A   1      39.285  24.368  28.056  1.00  0.00     0.014 A 
ATOM     33  C   UNL A   1      40.556  26.109  26.281  1.00  0.00     0.010 A 
ATOM     34  C   UNL A   1      39.664  25.644  28.479  1.00  0.00     0.010 A 
ATOM     35  C   UNL A   1      40.309  26.525  27.598  1.00  0.00    -0.014 A 
BRANCH  35  36
ATOM     36  C   UNL A   1      40.741  27.864  28.080  1.00  0.00     0.031 A 
ATOM     37  C   UNL A   1      42.202  28.227  28.089  1.00  0.00     0.074 A 
ATOM     38  C   UNL A   1      39.829  28.736  28.551  1.00  0.00     0.049 A 
ATOM     39  N   UNL A   1      42.787  29.288  28.583  1.00  0.00    -0.248 NA
ATOM     40  C   UNL A   1      43.126  27.256  27.484  1.00  0.00     0.031 C 
ATOM     41  C   UNL A   1      38.384  28.504  28.604  1.00  0.00     0.029 A 
ATOM     42  N   UNL A   1      39.982  29.994  29.080  1.00  0.00    -0.354 N 
ATOM     43  C   UNL A   1      44.150  29.105  28.367  1.00  0.00     0.074 A 
ATOM     44  C   UNL A   1      44.303  27.815  27.729  1.00  0.00     0.031 C 
ATOM     45  C   UNL A   1      37.783  29.593  29.110  1.00  0.00     0.029 A 
ATOM     46  C   UNL A   1      38.798  30.583  29.459  1.00  0.00     0.049 A 
ATOM     47  H   UNL A   1      40.857  30.434  29.178  1.00  0.00     0.167 HD
ATOM     48  C   UNL A   1      45.176  29.940  28.663  1.00  0.00     0.034 A 
ATOM     49  C   UNL A   1      38.558  31.776  30.034  1.00  0.00     0.034 A 
ATOM     50  C   UNL A   1      45.014  31.238  29.270  1.00  0.00     0.049 A 
ATOM     51  C   UNL A   1      39.712  32.684  30.361  1.00  0.00     0.074 A 
ATOM     52  C   UNL A   1      45.988  32.170  29.585  1.00  0.00     0.029 A 
ATOM     53  N   UNL A   1      43.798  31.791  29.645  1.00  0.00    -0.354 N 
ATOM     54  N   UNL A   1      40.995  32.480  30.180  1.00  0.00    -0.248 NA
ATOM     55  C   UNL A   1      39.386  33.981  30.970  1.00  0.00     0.031 C 
ATOM     56  C   UNL A   1      45.366  33.270  30.185  1.00  0.00     0.029 A 
ATOM     57  C   UNL A   1      43.999  33.045  30.199  1.00  0.00     0.049 A 
ATOM     58  H   UNL A   1      42.922  31.356  29.537  1.00  0.00     0.167 HD
ATOM     59  C   UNL A   1      41.629  33.628  30.641  1.00  0.00     0.074 A 
ATOM     60  C   UNL A   1      40.589  34.525  31.104  1.00  0.00     0.031 C 
ATOM     61  C   UNL A   1      42.953  33.918  30.670  1.00  0.00     0.034 A 
BRANCH  48  62
ATOM     62  C   UNL A   1      46.569  29.462  28.353  1.00  0.00     0.023 A 
ATOM     63  C   UNL A   1      47.316  28.723  29.285  1.00  0.00     0.031 A 
ATOM     64  C   UNL A   1      47.158  29.749  27.109  1.00  0.00     0.131 A 
ATOM     65  C   UNL A   1      48.633  28.344  28.980  1.00  0.00     0.055 A 
ATOM     66  C   UNL A   1      48.443  29.313  26.787  1.00  0.00     0.041 A 
ATOM     67  F   UNL A   1      46.492  30.466  26.189  1.00  0.00    -0.206 F 
ATOM     68  C   UNL A   1      49.193  28.614  27.729  1.00  0.00     0.022 A 
BRANCH  65  69
ATOM     69  S   UNL A   1      49.636  27.565  30.274  1.00  0.00     0.124 S 
ATOM     70  O   UNL A   1      50.113  28.730  31.014  1.00  0.00    -0.237 OA
ATOM     71  O   UNL A   1      48.668  26.721  30.965  1.00  0.00    -0.237 OA
ATOM     72  O   UNL A   1      50.664  26.847  29.522  1.00  0.00    -0.744 OA
ENDBRANCH  65  69
ENDBRANCH  48  62
BRANCH  49  73
ATOM     73  C   UNL A   1      37.162  32.179  30.351  1.00  0.00     0.023 A 
ATOM     74  C   UNL A   1      36.297  32.623  29.340  1.00  0.00     0.031 A 
ATOM     75  C   UNL A   1      36.676  32.122  31.668  1.00  0.00     0.131 A 
ATOM     76  C   UNL A   1      34.989  33.014  29.666  1.00  0.00     0.055 A 
ATOM     77  C   UNL A   1      35.366  32.483  31.982  1.00  0.00     0.041 A 
ATOM     78  F   UNL A   1      37.466  31.690  32.664  1.00  0.00    -0.206 F 
ATOM     79  C   UNL A   1      34.515  32.938  30.978  1.00  0.00     0.022 A 
BRANCH  76  80
ATOM     80  S   UNL A   1      33.913  33.639  28.347  1.00  0.00     0.124 S 
ATOM     81  O   UNL A   1      33.437  32.400  27.742  1.00  0.00    -0.237 OA
ATOM     82  O   UNL A   1      32.926  34.409  29.097  1.00  0.00    -0.237 OA
ATOM     83  O   UNL A   1      34.817  34.434  27.519  1.00  0.00    -0.744 OA
ENDBRANCH  76  80
ENDBRANCH  49  73
BRANCH  61  84
ATOM     84  C   UNL A   1      43.349  35.271  31.193  1.00  0.00     0.023 A 
ATOM     85  C   UNL A   1      43.541  36.362  30.330  1.00  0.00     0.031 A 
ATOM     86  C   UNL A   1      43.504  35.473  32.575  1.00  0.00     0.131 A 
ATOM     87  C   UNL A   1      43.908  37.608  30.860  1.00  0.00     0.055 A 
ATOM     88  C   UNL A   1      43.832  36.723  33.099  1.00  0.00     0.041 A 
ATOM     89  F   UNL A   1      43.327  34.458  33.437  1.00  0.00    -0.206 F 
ATOM     90  C   UNL A   1      44.041  37.798  32.239  1.00  0.00     0.022 A 
BRANCH  87  91
ATOM     91  S   UNL A   1      44.229  38.983  29.720  1.00  0.00     0.124 S 
ATOM     92  O   UNL A   1      42.967  39.071  28.993  1.00  0.00    -0.237 OA
ATOM     93  O   UNL A   1      44.519  40.087  30.629  1.00  0.00    -0.237 OA
ATOM     94  O   UNL A   1      45.369  38.516  28.934  1.00  0.00    -0.744 OA
ENDBRANCH  87  91
ENDBRANCH  61  84
ENDBRANCH  35  36
ENDBRANCH  27  30
ENDBRANCH  25  26
ENDBRANCH   1  25
TORSDOF 16
ENDMDL
