MODEL 1
REMARK VINA RESULT:     -11.6      0.000      0.000
REMARK SMILES C[C@@H](C(=O)NCCCNC(=O)c1ccc(-c2c3nc(c(-c4cc(S(=O)(=O)[O-])ccc4F)c4ccc([nH]4)c(-c4cc(S(=O)(=O)[O-])ccc4F)c4nc(c(-c5cc(S(=O)(=O)[O-])ccc5F)c5ccc2[nH]5)C=C4)C=C3)cc1)c1ccc(C[C@H]2CCC[C@@H]2O)cc1F
REMARK SMILES IDX 6 1 5 2 3 3 4 4 2 6 1 7 75 8 76 9 87 10 77 11 86 12 88 13
REMARK SMILES IDX 78 14 79 15 80 16 81 17 84 18 82 19 83 20 85 21 7 23 8 24
REMARK SMILES IDX 9 25 10 26 11 28 12 29 13 30 74 31 14 32 73 33 15 34 16 35
REMARK SMILES IDX 17 36 67 37 18 38 72 39 66 40 68 41 19 42 71 43 65 44 64 45
REMARK SMILES IDX 20 47 52 48 32 49 51 50 33 51 36 52 50 53 69 54 34 55 35 56
REMARK SMILES IDX 49 58 70 59 37 60 21 61 22 62 30 63 23 64 29 65 31 66 28 67
REMARK SMILES IDX 24 68 25 69 26 70 27 71 53 72 54 73 62 74 55 75 61 76 63 77
REMARK SMILES IDX 60 78 56 79 57 80 58 81 59 82 38 83 39 84 47 85 40 86 46 87
REMARK SMILES IDX 48 88 45 89 41 90 42 91 43 92 44 93
REMARK H PARENT 5 5 85 22 9 27 68 46 36 57
REMARK Flexibility Score: inf
ROOT
ATOM      1  C   UNL A   1      31.485  30.741  25.830  1.00  0.00     0.117 C 
ENDROOT
BRANCH   1   2
ATOM      2  N   UNL A   1      32.806  30.154  25.936  1.00  0.00    -0.356 N 
ATOM      3  C   UNL A   1      33.217  28.856  25.991  1.00  0.00     0.227 C 
ATOM      4  O   UNL A   1      34.430  28.703  26.144  1.00  0.00    -0.274 OA
ATOM      5  H   UNL A   1      33.537  30.812  25.974  1.00  0.00     0.163 HD
BRANCH   3   6
ATOM      6  C   UNL A   1      32.208  27.704  25.819  1.00  0.00     0.108 C 
ATOM      7  C   UNL A   1      31.430  27.403  27.101  1.00  0.00     0.023 C 
BRANCH   6   8
ATOM      8  C   UNL A   1      32.775  26.386  25.291  1.00  0.00    -0.000 A 
ATOM      9  C   UNL A   1      32.990  25.251  26.083  1.00  0.00     0.008 A 
ATOM     10  C   UNL A   1      33.026  26.263  23.919  1.00  0.00     0.127 A 
ATOM     11  C   UNL A   1      33.529  24.080  25.540  1.00  0.00     0.004 A 
ATOM     12  C   UNL A   1      33.540  25.093  23.363  1.00  0.00     0.043 A 
ATOM     13  F   UNL A   1      32.764  27.293  23.099  1.00  0.00    -0.207 F 
ATOM     14  C   UNL A   1      33.846  24.001  24.182  1.00  0.00    -0.045 A 
BRANCH  14  15
ATOM     15  C   UNL A   1      34.537  22.784  23.618  1.00  0.00     0.041 C 
BRANCH  15  16
ATOM     16  C   UNL A   1      35.532  22.088  24.565  1.00  0.00     0.022 C 
ATOM     17  C   UNL A   1      35.235  20.610  24.872  1.00  0.00     0.007 C 
ATOM     18  C   UNL A   1      37.000  22.108  24.119  1.00  0.00     0.117 C 
ATOM     19  C   UNL A   1      36.587  19.896  24.904  1.00  0.00     0.003 C 
ATOM     20  C   UNL A   1      37.630  21.000  24.948  1.00  0.00     0.032 C 
BRANCH  18  21
ATOM     21  O   UNL A   1      37.617  23.350  24.412  1.00  0.00    -0.393 OA
ATOM     22  H   UNL A   1      37.192  23.747  25.189  1.00  0.00     0.210 HD
ENDBRANCH  18  21
ENDBRANCH  15  16
ENDBRANCH  14  15
ENDBRANCH   6   8
ENDBRANCH   3   6
ENDBRANCH   1   2
BRANCH   1  23
ATOM     23  C   UNL A   1      31.386  32.055  26.601  1.00  0.00     0.042 C 
BRANCH  23  24
ATOM     24  C   UNL A   1      32.694  32.517  27.237  1.00  0.00     0.118 C 
BRANCH  24  25
ATOM     25  N   UNL A   1      32.677  33.925  27.597  1.00  0.00    -0.352 N 
ATOM     26  C   UNL A   1      33.421  34.599  28.534  1.00  0.00     0.251 C 
ATOM     27  H   UNL A   1      32.037  34.479  27.093  1.00  0.00     0.163 HD
ATOM     28  O   UNL A   1      33.109  35.753  28.829  1.00  0.00    -0.269 OA
BRANCH  26  29
ATOM     29  C   UNL A   1      34.564  33.942  29.203  1.00  0.00     0.039 A 
ATOM     30  C   UNL A   1      34.310  32.987  30.191  1.00  0.00     0.014 A 
ATOM     31  C   UNL A   1      35.883  34.270  28.874  1.00  0.00     0.014 A 
ATOM     32  C   UNL A   1      35.373  32.316  30.798  1.00  0.00     0.010 A 
ATOM     33  C   UNL A   1      36.938  33.542  29.422  1.00  0.00     0.010 A 
ATOM     34  C   UNL A   1      36.696  32.558  30.391  1.00  0.00    -0.014 A 
BRANCH  34  35
ATOM     35  C   UNL A   1      37.833  31.790  30.968  1.00  0.00     0.031 A 
ATOM     36  C   UNL A   1      38.297  32.066  32.373  1.00  0.00     0.074 A 
ATOM     37  C   UNL A   1      38.475  30.879  30.210  1.00  0.00     0.049 A 
ATOM     38  N   UNL A   1      39.308  31.550  33.026  1.00  0.00    -0.248 NA
ATOM     39  C   UNL A   1      37.540  33.070  33.134  1.00  0.00     0.031 C 
ATOM     40  C   UNL A   1      38.135  30.540  28.826  1.00  0.00     0.029 A 
ATOM     41  N   UNL A   1      39.548  30.070  30.493  1.00  0.00    -0.354 N 
ATOM     42  C   UNL A   1      39.311  32.170  34.272  1.00  0.00     0.074 A 
ATOM     43  C   UNL A   1      38.243  33.146  34.255  1.00  0.00     0.031 C 
ATOM     44  C   UNL A   1      38.957  29.571  28.396  1.00  0.00     0.029 A 
ATOM     45  C   UNL A   1      39.919  29.256  29.447  1.00  0.00     0.049 A 
ATOM     46  H   UNL A   1      40.010  30.072  31.363  1.00  0.00     0.167 HD
ATOM     47  C   UNL A   1      40.113  31.929  35.338  1.00  0.00     0.034 A 
ATOM     48  C   UNL A   1      40.926  28.365  29.341  1.00  0.00     0.034 A 
ATOM     49  C   UNL A   1      41.174  30.951  35.341  1.00  0.00     0.049 A 
ATOM     50  C   UNL A   1      41.840  28.156  30.522  1.00  0.00     0.074 A 
ATOM     51  C   UNL A   1      42.024  30.604  36.377  1.00  0.00     0.029 A 
ATOM     52  N   UNL A   1      41.537  30.164  34.254  1.00  0.00    -0.354 N 
ATOM     53  N   UNL A   1      41.811  28.731  31.703  1.00  0.00    -0.248 NA
ATOM     54  C   UNL A   1      42.918  27.174  30.358  1.00  0.00     0.031 C 
ATOM     55  C   UNL A   1      42.946  29.668  35.897  1.00  0.00     0.029 A 
ATOM     56  C   UNL A   1      42.617  29.361  34.586  1.00  0.00     0.049 A 
ATOM     57  H   UNL A   1      41.093  30.177  33.375  1.00  0.00     0.167 HD
ATOM     58  C   UNL A   1      42.844  28.148  32.433  1.00  0.00     0.074 A 
ATOM     59  C   UNL A   1      43.467  27.172  31.564  1.00  0.00     0.031 C 
ATOM     60  C   UNL A   1      43.238  28.396  33.709  1.00  0.00     0.034 A 
BRANCH  47  61
ATOM     61  C   UNL A   1      39.888  32.759  36.582  1.00  0.00     0.023 A 
ATOM     62  C   UNL A   1      39.007  32.342  37.596  1.00  0.00     0.031 A 
ATOM     63  C   UNL A   1      40.549  33.988  36.751  1.00  0.00     0.131 A 
ATOM     64  C   UNL A   1      38.757  33.179  38.695  1.00  0.00     0.055 A 
ATOM     65  C   UNL A   1      40.360  34.776  37.888  1.00  0.00     0.041 A 
ATOM     66  F   UNL A   1      41.385  34.451  35.808  1.00  0.00    -0.206 F 
ATOM     67  C   UNL A   1      39.448  34.380  38.862  1.00  0.00     0.022 A 
BRANCH  64  68
ATOM     68  S   UNL A   1      37.410  32.739  39.826  1.00  0.00     0.124 S 
ATOM     69  O   UNL A   1      36.267  32.687  38.917  1.00  0.00    -0.237 OA
ATOM     70  O   UNL A   1      37.855  31.460  40.367  1.00  0.00    -0.237 OA
ATOM     71  O   UNL A   1      37.387  33.847  40.778  1.00  0.00    -0.744 OA
ENDBRANCH  64  68
ENDBRANCH  47  61
BRANCH  48  72
ATOM     72  C   UNL A   1      41.135  27.605  28.075  1.00  0.00     0.023 A 
ATOM     73  C   UNL A   1      40.851  26.232  28.004  1.00  0.00     0.031 A 
ATOM     74  C   UNL A   1      41.665  28.228  26.930  1.00  0.00     0.131 A 
ATOM     75  C   UNL A   1      41.144  25.516  26.832  1.00  0.00     0.055 A 
ATOM     76  C   UNL A   1      41.898  27.524  25.748  1.00  0.00     0.041 A 
ATOM     77  F   UNL A   1      41.953  29.539  26.942  1.00  0.00    -0.206 F 
ATOM     78  C   UNL A   1      41.651  26.155  25.699  1.00  0.00     0.022 A 
BRANCH  75  79
ATOM     79  S   UNL A   1      40.939  23.713  26.843  1.00  0.00     0.124 S 
ATOM     80  O   UNL A   1      41.309  23.382  28.214  1.00  0.00    -0.237 OA
ATOM     81  O   UNL A   1      39.527  23.567  26.505  1.00  0.00    -0.237 OA
ATOM     82  O   UNL A   1      41.873  23.259  25.815  1.00  0.00    -0.744 OA
ENDBRANCH  75  79
ENDBRANCH  48  72
BRANCH  60  83
ATOM     83  C   UNL A   1      44.367  27.555  34.257  1.00  0.00     0.023 A 
ATOM     84  C   UNL A   1      44.140  26.300  34.849  1.00  0.00     0.031 A 
ATOM     85  C   UNL A   1      45.692  28.024  34.193  1.00  0.00     0.131 A 
ATOM     86  C   UNL A   1      45.211  25.585  35.405  1.00  0.00     0.055 A 
ATOM     87  C   UNL A   1      46.762  27.277  34.687  1.00  0.00     0.041 A 
ATOM     88  F   UNL A   1      45.969  29.217  33.643  1.00  0.00    -0.206 F 
ATOM     89  C   UNL A   1      46.523  26.056  35.310  1.00  0.00     0.022 A 
BRANCH  86  90
ATOM     90  S   UNL A   1      44.856  24.076  36.347  1.00  0.00     0.124 S 
ATOM     91  O   UNL A   1      43.762  23.489  35.579  1.00  0.00    -0.237 OA
ATOM     92  O   UNL A   1      46.129  23.365  36.289  1.00  0.00    -0.237 OA
ATOM     93  O   UNL A   1      44.485  24.576  37.670  1.00  0.00    -0.744 OA
ENDBRANCH  86  90
ENDBRANCH  60  83
ENDBRANCH  34  35
ENDBRANCH  26  29
ENDBRANCH  24  25
ENDBRANCH  23  24
ENDBRANCH   1  23
TORSDOF 17
ENDMDL
MODEL 2
REMARK VINA RESULT:     -11.6      1.767      7.848
REMARK SMILES C[C@@H](C(=O)NCCCNC(=O)c1ccc(-c2c3nc(c(-c4cc(S(=O)(=O)[O-])ccc4F)c4ccc([nH]4)c(-c4cc(S(=O)(=O)[O-])ccc4F)c4nc(c(-c5cc(S(=O)(=O)[O-])ccc5F)c5ccc2[nH]5)C=C4)C=C3)cc1)c1ccc(C[C@H]2CCC[C@@H]2O)cc1F
REMARK SMILES IDX 6 1 5 2 3 3 4 4 2 6 1 7 75 8 76 9 87 10 77 11 86 12 88 13
REMARK SMILES IDX 78 14 79 15 80 16 81 17 84 18 82 19 83 20 85 21 7 23 8 24
REMARK SMILES IDX 9 25 10 26 11 28 12 29 13 30 74 31 14 32 73 33 15 34 16 35
REMARK SMILES IDX 17 36 67 37 18 38 72 39 66 40 68 41 19 42 71 43 65 44 64 45
REMARK SMILES IDX 20 47 52 48 32 49 51 50 33 51 36 52 50 53 69 54 34 55 35 56
REMARK SMILES IDX 49 58 70 59 37 60 21 61 22 62 30 63 23 64 29 65 31 66 28 67
REMARK SMILES IDX 24 68 25 69 26 70 27 71 53 72 54 73 62 74 55 75 61 76 63 77
REMARK SMILES IDX 60 78 56 79 57 80 58 81 59 82 38 83 39 84 47 85 40 86 46 87
REMARK SMILES IDX 48 88 45 89 41 90 42 91 43 92 44 93
REMARK H PARENT 5 5 85 22 9 27 68 46 36 57
REMARK Flexibility Score: inf
ROOT
ATOM      1  C   UNL A   1      31.973  29.807  26.154  1.00  0.00     0.117 C 
ENDROOT
BRANCH   1   2
ATOM      2  N   UNL A   1      31.393  29.460  24.872  1.00  0.00    -0.356 N 
ATOM      3  C   UNL A   1      31.928  28.867  23.768  1.00  0.00     0.227 C 
ATOM      4  O   UNL A   1      31.162  28.772  22.808  1.00  0.00    -0.274 OA
ATOM      5  H   UNL A   1      30.441  29.694  24.783  1.00  0.00     0.163 HD
BRANCH   3   6
ATOM      6  C   UNL A   1      33.372  28.328  23.787  1.00  0.00     0.108 C 
ATOM      7  C   UNL A   1      34.200  28.815  22.597  1.00  0.00     0.023 C 
BRANCH   6   8
ATOM      8  C   UNL A   1      33.523  26.810  23.878  1.00  0.00    -0.000 A 
ATOM      9  C   UNL A   1      33.449  25.946  22.776  1.00  0.00     0.008 A 
ATOM     10  C   UNL A   1      33.833  26.238  25.117  1.00  0.00     0.127 A 
ATOM     11  C   UNL A   1      33.578  24.563  22.931  1.00  0.00     0.004 A 
ATOM     12  C   UNL A   1      33.988  24.861  25.278  1.00  0.00     0.043 A 
ATOM     13  F   UNL A   1      33.995  27.024  26.192  1.00  0.00    -0.207 F 
ATOM     14  C   UNL A   1      33.811  24.002  24.189  1.00  0.00    -0.045 A 
BRANCH  14  15
ATOM     15  C   UNL A   1      33.832  22.505  24.378  1.00  0.00     0.041 C 
BRANCH  15  16
ATOM     16  C   UNL A   1      35.199  21.828  24.162  1.00  0.00     0.022 C 
ATOM     17  C   UNL A   1      36.395  22.782  24.002  1.00  0.00     0.007 C 
ATOM     18  C   UNL A   1      35.630  20.839  25.252  1.00  0.00     0.117 C 
ATOM     19  C   UNL A   1      37.564  22.137  24.749  1.00  0.00     0.003 C 
ATOM     20  C   UNL A   1      37.129  20.709  25.031  1.00  0.00     0.032 C 
BRANCH  18  21
ATOM     21  O   UNL A   1      35.001  19.579  25.091  1.00  0.00    -0.393 OA
ATOM     22  H   UNL A   1      35.540  19.020  24.510  1.00  0.00     0.210 HD
ENDBRANCH  18  21
ENDBRANCH  15  16
ENDBRANCH  14  15
ENDBRANCH   6   8
ENDBRANCH   3   6
ENDBRANCH   1   2
BRANCH   1  23
ATOM     23  C   UNL A   1      31.776  31.285  26.481  1.00  0.00     0.042 C 
BRANCH  23  24
ATOM     24  C   UNL A   1      32.950  31.936  27.207  1.00  0.00     0.118 C 
BRANCH  24  25
ATOM     25  N   UNL A   1      32.719  33.341  27.504  1.00  0.00    -0.352 N 
ATOM     26  C   UNL A   1      33.287  34.138  28.466  1.00  0.00     0.251 C 
ATOM     27  H   UNL A   1      32.055  33.786  26.929  1.00  0.00     0.163 HD
ATOM     28  O   UNL A   1      32.803  35.248  28.687  1.00  0.00    -0.269 OA
BRANCH  26  29
ATOM     29  C   UNL A   1      34.448  33.661  29.249  1.00  0.00     0.039 A 
ATOM     30  C   UNL A   1      34.232  32.764  30.298  1.00  0.00     0.014 A 
ATOM     31  C   UNL A   1      35.744  34.104  28.967  1.00  0.00     0.014 A 
ATOM     32  C   UNL A   1      35.319  32.261  31.016  1.00  0.00     0.010 A 
ATOM     33  C   UNL A   1      36.832  33.540  29.630  1.00  0.00     0.010 A 
ATOM     34  C   UNL A   1      36.632  32.613  30.663  1.00  0.00    -0.014 A 
BRANCH  34  35
ATOM     35  C   UNL A   1      37.804  32.020  31.364  1.00  0.00     0.031 A 
ATOM     36  C   UNL A   1      38.604  30.925  30.711  1.00  0.00     0.074 A 
ATOM     37  C   UNL A   1      38.117  32.436  32.608  1.00  0.00     0.049 A 
ATOM     38  N   UNL A   1      39.613  30.240  31.188  1.00  0.00    -0.248 NA
ATOM     39  C   UNL A   1      38.200  30.532  29.353  1.00  0.00     0.031 C 
ATOM     40  C   UNL A   1      37.404  33.473  33.357  1.00  0.00     0.029 A 
ATOM     41  N   UNL A   1      39.116  32.041  33.463  1.00  0.00    -0.354 N 
ATOM     42  C   UNL A   1      39.961  29.333  30.191  1.00  0.00     0.074 A 
ATOM     43  C   UNL A   1      39.012  29.513  29.114  1.00  0.00     0.031 C 
ATOM     44  C   UNL A   1      38.008  33.656  34.541  1.00  0.00     0.029 A 
ATOM     45  C   UNL A   1      39.117  32.714  34.663  1.00  0.00     0.049 A 
ATOM     46  H   UNL A   1      39.771  31.340  33.239  1.00  0.00     0.167 HD
ATOM     47  C   UNL A   1      40.992  28.452  30.168  1.00  0.00     0.034 A 
ATOM     48  C   UNL A   1      39.911  32.582  35.745  1.00  0.00     0.034 A 
ATOM     49  C   UNL A   1      41.932  28.286  31.250  1.00  0.00     0.049 A 
ATOM     50  C   UNL A   1      41.015  31.555  35.716  1.00  0.00     0.074 A 
ATOM     51  C   UNL A   1      43.030  27.447  31.315  1.00  0.00     0.029 A 
ATOM     52  N   UNL A   1      41.883  28.967  32.460  1.00  0.00    -0.354 N 
ATOM     53  N   UNL A   1      41.348  30.725  34.754  1.00  0.00    -0.248 NA
ATOM     54  C   UNL A   1      41.854  31.452  36.916  1.00  0.00     0.031 C 
ATOM     55  C   UNL A   1      43.599  27.564  32.588  1.00  0.00     0.029 A 
ATOM     56  C   UNL A   1      42.911  28.542  33.288  1.00  0.00     0.049 A 
ATOM     57  H   UNL A   1      41.216  29.651  32.696  1.00  0.00     0.167 HD
ATOM     58  C   UNL A   1      42.461  30.030  35.222  1.00  0.00     0.074 A 
ATOM     59  C   UNL A   1      42.746  30.546  36.544  1.00  0.00     0.031 C 
ATOM     60  C   UNL A   1      43.183  29.056  34.611  1.00  0.00     0.034 A 
BRANCH  47  61
ATOM     61  C   UNL A   1      41.137  27.583  28.939  1.00  0.00     0.023 A 
ATOM     62  C   UNL A   1      42.152  27.809  27.992  1.00  0.00     0.031 A 
ATOM     63  C   UNL A   1      40.243  26.524  28.703  1.00  0.00     0.131 A 
ATOM     64  C   UNL A   1      42.204  27.037  26.822  1.00  0.00     0.055 A 
ATOM     65  C   UNL A   1      40.352  25.705  27.577  1.00  0.00     0.041 A 
ATOM     66  F   UNL A   1      39.240  26.272  29.558  1.00  0.00    -0.206 F 
ATOM     67  C   UNL A   1      41.328  25.969  26.620  1.00  0.00     0.022 A 
BRANCH  64  68
ATOM     68  S   UNL A   1      43.340  27.543  25.502  1.00  0.00     0.124 S 
ATOM     69  O   UNL A   1      42.409  27.942  24.449  1.00  0.00    -0.237 OA
ATOM     70  O   UNL A   1      44.094  28.622  26.130  1.00  0.00    -0.237 OA
ATOM     71  O   UNL A   1      44.102  26.329  25.222  1.00  0.00    -0.744 OA
ENDBRANCH  64  68
ENDBRANCH  47  61
BRANCH  48  72
ATOM     72  C   UNL A   1      39.696  33.432  36.952  1.00  0.00     0.023 A 
ATOM     73  C   UNL A   1      39.054  32.917  38.090  1.00  0.00     0.031 A 
ATOM     74  C   UNL A   1      40.086  34.783  36.970  1.00  0.00     0.131 A 
ATOM     75  C   UNL A   1      38.776  33.760  39.178  1.00  0.00     0.055 A 
ATOM     76  C   UNL A   1      39.862  35.601  38.078  1.00  0.00     0.041 A 
ATOM     77  F   UNL A   1      40.705  35.326  35.909  1.00  0.00    -0.206 F 
ATOM     78  C   UNL A   1      39.190  35.094  39.186  1.00  0.00     0.022 A 
BRANCH  75  79
ATOM     79  S   UNL A   1      37.782  33.109  40.548  1.00  0.00     0.124 S 
ATOM     80  O   UNL A   1      36.477  32.949  39.917  1.00  0.00    -0.237 OA
ATOM     81  O   UNL A   1      38.491  31.877  40.878  1.00  0.00    -0.237 OA
ATOM     82  O   UNL A   1      37.864  34.162  41.558  1.00  0.00    -0.744 OA
ENDBRANCH  75  79
ENDBRANCH  48  72
BRANCH  60  83
ATOM     83  C   UNL A   1      44.388  28.525  35.350  1.00  0.00     0.023 A 
ATOM     84  C   UNL A   1      44.304  27.413  36.207  1.00  0.00     0.031 A 
ATOM     85  C   UNL A   1      45.640  29.149  35.200  1.00  0.00     0.131 A 
ATOM     86  C   UNL A   1      45.435  26.997  36.925  1.00  0.00     0.055 A 
ATOM     87  C   UNL A   1      46.777  28.688  35.865  1.00  0.00     0.041 A 
ATOM     88  F   UNL A   1      45.779  30.217  34.399  1.00  0.00    -0.206 F 
ATOM     89  C   UNL A   1      46.675  27.614  36.744  1.00  0.00     0.022 A 
BRANCH  86  90
ATOM     90  S   UNL A   1      45.242  25.700  38.179  1.00  0.00     0.124 S 
ATOM     91  O   UNL A   1      45.041  26.481  39.395  1.00  0.00    -0.237 OA
ATOM     92  O   UNL A   1      44.078  24.966  37.693  1.00  0.00    -0.237 OA
ATOM     93  O   UNL A   1      46.506  24.969  38.114  1.00  0.00    -0.744 OA
ENDBRANCH  86  90
ENDBRANCH  60  83
ENDBRANCH  34  35
ENDBRANCH  26  29
ENDBRANCH  24  25
ENDBRANCH  23  24
ENDBRANCH   1  23
TORSDOF 17
ENDMDL
MODEL 3
REMARK VINA RESULT:     -11.5      0.498      7.577
REMARK SMILES C[C@@H](C(=O)NCCCNC(=O)c1ccc(-c2c3nc(c(-c4cc(S(=O)(=O)[O-])ccc4F)c4ccc([nH]4)c(-c4cc(S(=O)(=O)[O-])ccc4F)c4nc(c(-c5cc(S(=O)(=O)[O-])ccc5F)c5ccc2[nH]5)C=C4)C=C3)cc1)c1ccc(C[C@H]2CCC[C@@H]2O)cc1F
REMARK SMILES IDX 6 1 5 2 3 3 4 4 2 6 1 7 75 8 76 9 87 10 77 11 86 12 88 13
REMARK SMILES IDX 78 14 79 15 80 16 81 17 84 18 82 19 83 20 85 21 7 23 8 24
REMARK SMILES IDX 9 25 10 26 11 28 12 29 13 30 74 31 14 32 73 33 15 34 16 35
REMARK SMILES IDX 17 36 67 37 18 38 72 39 66 40 68 41 19 42 71 43 65 44 64 45
REMARK SMILES IDX 20 47 52 48 32 49 51 50 33 51 36 52 50 53 69 54 34 55 35 56
REMARK SMILES IDX 49 58 70 59 37 60 21 61 22 62 30 63 23 64 29 65 31 66 28 67
REMARK SMILES IDX 24 68 25 69 26 70 27 71 53 72 54 73 62 74 55 75 61 76 63 77
REMARK SMILES IDX 60 78 56 79 57 80 58 81 59 82 38 83 39 84 47 85 40 86 46 87
REMARK SMILES IDX 48 88 45 89 41 90 42 91 43 92 44 93
REMARK H PARENT 5 5 85 22 9 27 68 46 36 57
REMARK Flexibility Score: inf
ROOT
ATOM      1  C   UNL A   1      31.279  30.838  25.778  1.00  0.00     0.117 C 
ENDROOT
BRANCH   1   2
ATOM      2  N   UNL A   1      32.625  30.304  25.722  1.00  0.00    -0.356 N 
ATOM      3  C   UNL A   1      33.094  29.025  25.768  1.00  0.00     0.227 C 
ATOM      4  O   UNL A   1      34.321  28.922  25.757  1.00  0.00    -0.274 OA
ATOM      5  H   UNL A   1      33.328  30.988  25.634  1.00  0.00     0.163 HD
BRANCH   3   6
ATOM      6  C   UNL A   1      32.119  27.831  25.781  1.00  0.00     0.108 C 
ATOM      7  C   UNL A   1      31.502  27.586  27.159  1.00  0.00     0.023 C 
BRANCH   6   8
ATOM      8  C   UNL A   1      32.676  26.502  25.271  1.00  0.00    -0.000 A 
ATOM      9  C   UNL A   1      32.881  25.375  26.077  1.00  0.00     0.008 A 
ATOM     10  C   UNL A   1      32.927  26.360  23.900  1.00  0.00     0.127 A 
ATOM     11  C   UNL A   1      33.410  24.193  25.550  1.00  0.00     0.004 A 
ATOM     12  C   UNL A   1      33.433  25.178  23.360  1.00  0.00     0.043 A 
ATOM     13  F   UNL A   1      32.675  27.381  23.068  1.00  0.00    -0.207 F 
ATOM     14  C   UNL A   1      33.728  24.094  24.193  1.00  0.00    -0.045 A 
BRANCH  14  15
ATOM     15  C   UNL A   1      34.410  22.865  23.645  1.00  0.00     0.041 C 
BRANCH  15  16
ATOM     16  C   UNL A   1      35.459  22.221  24.571  1.00  0.00     0.022 C 
ATOM     17  C   UNL A   1      35.220  20.741  24.919  1.00  0.00     0.007 C 
ATOM     18  C   UNL A   1      36.909  22.276  24.073  1.00  0.00     0.117 C 
ATOM     19  C   UNL A   1      36.594  20.070  24.917  1.00  0.00     0.003 C 
ATOM     20  C   UNL A   1      37.602  21.206  24.901  1.00  0.00     0.032 C 
BRANCH  18  21
ATOM     21  O   UNL A   1      37.497  23.542  24.317  1.00  0.00    -0.393 OA
ATOM     22  H   UNL A   1      37.879  23.554  25.209  1.00  0.00     0.210 HD
ENDBRANCH  18  21
ENDBRANCH  15  16
ENDBRANCH  14  15
ENDBRANCH   6   8
ENDBRANCH   3   6
ENDBRANCH   1   2
BRANCH   1  23
ATOM     23  C   UNL A   1      31.239  32.196  26.474  1.00  0.00     0.042 C 
BRANCH  23  24
ATOM     24  C   UNL A   1      32.590  32.687  26.986  1.00  0.00     0.118 C 
BRANCH  24  25
ATOM     25  N   UNL A   1      32.512  34.000  27.606  1.00  0.00    -0.352 N 
ATOM     26  C   UNL A   1      33.228  34.516  28.658  1.00  0.00     0.251 C 
ATOM     27  H   UNL A   1      31.847  34.611  27.213  1.00  0.00     0.163 HD
ATOM     28  O   UNL A   1      32.866  35.578  29.165  1.00  0.00    -0.269 OA
BRANCH  26  29
ATOM     29  C   UNL A   1      34.401  33.794  29.196  1.00  0.00     0.039 A 
ATOM     30  C   UNL A   1      35.681  34.275  28.909  1.00  0.00     0.014 A 
ATOM     31  C   UNL A   1      34.248  32.638  29.969  1.00  0.00     0.014 A 
ATOM     32  C   UNL A   1      36.799  33.640  29.451  1.00  0.00     0.010 A 
ATOM     33  C   UNL A   1      35.360  32.055  30.574  1.00  0.00     0.010 A 
ATOM     34  C   UNL A   1      36.648  32.548  30.321  1.00  0.00    -0.014 A 
BRANCH  34  35
ATOM     35  C   UNL A   1      37.826  31.913  30.973  1.00  0.00     0.031 A 
ATOM     36  C   UNL A   1      38.634  30.879  30.237  1.00  0.00     0.074 A 
ATOM     37  C   UNL A   1      38.138  32.235  32.245  1.00  0.00     0.049 A 
ATOM     38  N   UNL A   1      39.650  30.168  30.658  1.00  0.00    -0.248 NA
ATOM     39  C   UNL A   1      38.232  30.589  28.853  1.00  0.00     0.031 C 
ATOM     40  C   UNL A   1      37.417  33.204  33.073  1.00  0.00     0.029 A 
ATOM     41  N   UNL A   1      39.142  31.784  33.066  1.00  0.00    -0.354 N 
ATOM     42  C   UNL A   1      40.005  29.344  29.595  1.00  0.00     0.074 A 
ATOM     43  C   UNL A   1      39.052  29.598  28.535  1.00  0.00     0.031 C 
ATOM     44  C   UNL A   1      38.022  33.301  34.266  1.00  0.00     0.029 A 
ATOM     45  C   UNL A   1      39.139  32.363  34.315  1.00  0.00     0.049 A 
ATOM     46  H   UNL A   1      39.803  31.108  32.788  1.00  0.00     0.167 HD
ATOM     47  C   UNL A   1      41.042  28.476  29.502  1.00  0.00     0.034 A 
ATOM     48  C   UNL A   1      39.936  32.155  35.382  1.00  0.00     0.034 A 
ATOM     49  C   UNL A   1      41.986  28.236  30.567  1.00  0.00     0.049 A 
ATOM     50  C   UNL A   1      41.049  31.142  35.273  1.00  0.00     0.074 A 
ATOM     51  C   UNL A   1      43.092  27.404  30.566  1.00  0.00     0.029 A 
ATOM     52  N   UNL A   1      41.934  28.821  31.827  1.00  0.00    -0.354 N 
ATOM     53  N   UNL A   1      41.388  30.393  34.249  1.00  0.00    -0.248 NA
ATOM     54  C   UNL A   1      41.891  30.955  36.461  1.00  0.00     0.031 C 
ATOM     55  C   UNL A   1      43.662  27.427  31.844  1.00  0.00     0.029 A 
ATOM     56  C   UNL A   1      42.967  28.342  32.618  1.00  0.00     0.049 A 
ATOM     57  H   UNL A   1      41.261  29.479  32.115  1.00  0.00     0.167 HD
ATOM     58  C   UNL A   1      42.507  29.673  34.661  1.00  0.00     0.074 A 
ATOM     59  C   UNL A   1      42.791  30.088  36.019  1.00  0.00     0.031 C 
ATOM     60  C   UNL A   1      43.237  28.756  33.976  1.00  0.00     0.034 A 
BRANCH  47  61
ATOM     61  C   UNL A   1      41.193  27.706  28.210  1.00  0.00     0.023 A 
ATOM     62  C   UNL A   1      40.822  26.353  28.111  1.00  0.00     0.031 A 
ATOM     63  C   UNL A   1      41.728  28.325  27.066  1.00  0.00     0.131 A 
ATOM     64  C   UNL A   1      41.057  25.646  26.922  1.00  0.00     0.055 A 
ATOM     65  C   UNL A   1      41.880  27.638  25.860  1.00  0.00     0.041 A 
ATOM     66  F   UNL A   1      42.122  29.608  27.104  1.00  0.00    -0.206 F 
ATOM     67  C   UNL A   1      41.558  26.286  25.787  1.00  0.00     0.022 A 
BRANCH  64  68
ATOM     68  S   UNL A   1      40.833  23.846  26.927  1.00  0.00     0.124 S 
ATOM     69  O   UNL A   1      41.806  23.426  25.921  1.00  0.00    -0.237 OA
ATOM     70  O   UNL A   1      41.147  23.492  28.307  1.00  0.00    -0.237 OA
ATOM     71  O   UNL A   1      39.435  23.674  26.540  1.00  0.00    -0.744 OA
ENDBRANCH  64  68
ENDBRANCH  47  61
BRANCH  48  72
ATOM     72  C   UNL A   1      39.716  32.907  36.651  1.00  0.00     0.023 A 
ATOM     73  C   UNL A   1      38.821  32.432  37.624  1.00  0.00     0.031 A 
ATOM     74  C   UNL A   1      40.360  34.134  36.892  1.00  0.00     0.131 A 
ATOM     75  C   UNL A   1      38.557  33.203  38.767  1.00  0.00     0.055 A 
ATOM     76  C   UNL A   1      40.139  34.868  38.058  1.00  0.00     0.041 A 
ATOM     77  F   UNL A   1      41.226  34.634  35.995  1.00  0.00    -0.206 F 
ATOM     78  C   UNL A   1      39.221  34.409  38.999  1.00  0.00     0.022 A 
BRANCH  75  79
ATOM     79  S   UNL A   1      37.259  32.648  39.907  1.00  0.00     0.124 S 
ATOM     80  O   UNL A   1      37.267  33.712  40.904  1.00  0.00    -0.237 OA
ATOM     81  O   UNL A   1      36.091  32.594  39.034  1.00  0.00    -0.237 OA
ATOM     82  O   UNL A   1      37.747  31.351  40.372  1.00  0.00    -0.744 OA
ENDBRANCH  75  79
ENDBRANCH  48  72
BRANCH  60  83
ATOM     83  C   UNL A   1      44.448  28.179  34.670  1.00  0.00     0.023 A 
ATOM     84  C   UNL A   1      44.365  27.034  35.482  1.00  0.00     0.031 A 
ATOM     85  C   UNL A   1      45.704  28.795  34.524  1.00  0.00     0.131 A 
ATOM     86  C   UNL A   1      45.502  26.574  36.162  1.00  0.00     0.055 A 
ATOM     87  C   UNL A   1      46.847  28.293  35.149  1.00  0.00     0.041 A 
ATOM     88  F   UNL A   1      45.843  29.893  33.766  1.00  0.00    -0.206 F 
ATOM     89  C   UNL A   1      46.747  27.184  35.984  1.00  0.00     0.022 A 
BRANCH  86  90
ATOM     90  S   UNL A   1      45.316  25.229  37.363  1.00  0.00     0.124 S 
ATOM     91  O   UNL A   1      46.681  24.726  37.471  1.00  0.00    -0.237 OA
ATOM     92  O   UNL A   1      44.799  25.928  38.536  1.00  0.00    -0.237 OA
ATOM     93  O   UNL A   1      44.370  24.320  36.718  1.00  0.00    -0.744 OA
ENDBRANCH  86  90
ENDBRANCH  60  83
ENDBRANCH  34  35
ENDBRANCH  26  29
ENDBRANCH  24  25
ENDBRANCH  23  24
ENDBRANCH   1  23
TORSDOF 17
ENDMDL
