MODEL 1
REMARK VINA RESULT:     -12.0      0.000      0.000
REMARK SMILES O=C(C[C@H]1C[C@H]2CC[C@@H](C1)[N@H+]2C[C@@H]1CCCOC1)NCCCNC(=O)c1ccc(-c2c3nc(c(-c4cc(S(=O)(=O)[O-])ccc4F)c4ccc([nH]4)c(-c4cc(S(=O)(=O)[O-])ccc4F)c4nc(c(-c5cc(S(=O)(=O)[O-])ccc5F)c5ccc2[nH]5)C=C4)C=C3)cc1
REMARK SMILES IDX 21 1 20 2 19 3 1 4 2 5 3 7 4 8 5 9 10 10 6 11 9 12 7 13
REMARK SMILES IDX 11 14 8 15 12 17 13 18 14 19 18 20 15 21 17 22 16 23 22 24
REMARK SMILES IDX 23 25 24 26 25 28 26 29 27 30 88 31 28 32 87 33 29 34 30 35
REMARK SMILES IDX 31 36 81 37 32 38 86 39 80 40 82 41 33 42 85 43 79 44 78 45
REMARK SMILES IDX 34 47 66 48 46 49 65 50 47 51 50 52 64 53 83 54 48 55 49 56
REMARK SMILES IDX 63 58 84 59 51 60 35 61 36 62 44 63 37 64 43 65 45 66 42 67
REMARK SMILES IDX 38 68 39 69 40 70 41 71 67 72 68 73 76 74 69 75 75 76 77 77
REMARK SMILES IDX 74 78 70 79 71 80 72 81 73 82 52 83 53 84 61 85 54 86 60 87
REMARK SMILES IDX 62 88 59 89 55 90 56 91 57 92 58 93
REMARK H PARENT 19 6 11 16 23 27 82 46 50 57
REMARK Flexibility Score: inf
ROOT
ATOM      1  C   UNL A   1      33.281  28.825  23.387  1.00  0.00     0.042 C 
ENDROOT
BRANCH   1   2
ATOM      2  C   UNL A   1      32.315  27.672  23.139  1.00  0.00     0.117 C 
BRANCH   2   3
ATOM      3  N   UNL A   1      32.764  26.461  23.788  1.00  0.00    -0.356 N 
ATOM      4  O   UNL A   1      34.015  25.632  22.036  1.00  0.00    -0.275 OA
ATOM      5  C   UNL A   1      33.680  25.611  23.214  1.00  0.00     0.220 C 
ATOM      6  H   UNL A   1      32.401  26.238  24.676  1.00  0.00     0.163 HD
BRANCH   5   7
ATOM      7  C   UNL A   1      34.321  24.707  24.241  1.00  0.00     0.104 C 
BRANCH   7   8
ATOM      8  C   UNL A   1      33.950  23.224  24.045  1.00  0.00     0.010 C 
ATOM      9  C   UNL A   1      35.135  22.205  24.058  1.00  0.00     0.069 C 
ATOM     10  C   UNL A   1      32.759  22.886  24.985  1.00  0.00     0.069 C 
ATOM     11  C   UNL A   1      35.042  21.126  25.121  1.00  0.00     0.184 C 
ATOM     12  C   UNL A   1      32.902  21.613  25.831  1.00  0.00     0.184 C 
ATOM     13  C   UNL A   1      35.227  21.779  26.501  1.00  0.00     0.071 C 
ATOM     14  N   UNL A   1      33.690  20.603  25.163  1.00  0.00    -0.330 N 
ATOM     15  C   UNL A   1      33.809  21.917  27.042  1.00  0.00     0.071 C 
ATOM     16  H   UNL A   1      33.579  19.737  25.691  1.00  0.00     0.348 HD
BRANCH  14  17
ATOM     17  C   UNL A   1      33.203  19.658  24.166  1.00  0.00     0.268 C 
BRANCH  17  18
ATOM     18  C   UNL A   1      33.081  18.092  24.235  1.00  0.00     0.070 C 
ATOM     19  C   UNL A   1      32.525  17.493  25.540  1.00  0.00     0.014 C 
ATOM     20  C   UNL A   1      34.278  17.347  23.636  1.00  0.00     0.169 C 
ATOM     21  C   UNL A   1      32.789  16.005  25.752  1.00  0.00     0.029 C 
ATOM     22  O   UNL A   1      34.245  15.937  23.867  1.00  0.00    -0.381 OA
ATOM     23  C   UNL A   1      34.167  15.627  25.254  1.00  0.00     0.160 C 
ENDBRANCH  17  18
ENDBRANCH  14  17
ENDBRANCH   7   8
ENDBRANCH   5   7
ENDBRANCH   2   3
ENDBRANCH   1   2
BRANCH   1  24
ATOM     24  C   UNL A   1      33.517  29.173  24.858  1.00  0.00     0.118 C 
BRANCH  24  25
ATOM     25  N   UNL A   1      32.655  30.225  25.368  1.00  0.00    -0.352 N 
ATOM     26  C   UNL A   1      32.771  30.948  26.536  1.00  0.00     0.251 C 
ATOM     27  H   UNL A   1      31.882  30.454  24.802  1.00  0.00     0.163 HD
ATOM     28  O   UNL A   1      31.890  31.747  26.842  1.00  0.00    -0.269 OA
BRANCH  26  29
ATOM     29  C   UNL A   1      33.923  30.728  27.444  1.00  0.00     0.039 A 
ATOM     30  C   UNL A   1      34.093  29.461  28.009  1.00  0.00     0.014 A 
ATOM     31  C   UNL A   1      34.834  31.747  27.737  1.00  0.00     0.014 A 
ATOM     32  C   UNL A   1      35.210  29.198  28.810  1.00  0.00     0.010 A 
ATOM     33  C   UNL A   1      35.983  31.464  28.482  1.00  0.00     0.010 A 
ATOM     34  C   UNL A   1      36.188  30.184  29.026  1.00  0.00    -0.014 A 
BRANCH  34  35
ATOM     35  C   UNL A   1      37.413  29.877  29.817  1.00  0.00     0.031 A 
ATOM     36  C   UNL A   1      38.491  28.992  29.248  1.00  0.00     0.074 A 
ATOM     37  C   UNL A   1      37.553  30.379  31.062  1.00  0.00     0.049 A 
ATOM     38  N   UNL A   1      39.619  28.607  29.791  1.00  0.00    -0.248 NA
ATOM     39  C   UNL A   1      38.259  28.452  27.901  1.00  0.00     0.031 C 
ATOM     40  C   UNL A   1      36.572  31.225  31.746  1.00  0.00     0.029 A 
ATOM     41  N   UNL A   1      38.574  30.257  31.975  1.00  0.00    -0.354 N 
ATOM     42  C   UNL A   1      40.230  27.779  28.854  1.00  0.00     0.074 A 
ATOM     43  C   UNL A   1      39.312  27.667  27.739  1.00  0.00     0.031 C 
ATOM     44  C   UNL A   1      37.052  31.570  32.952  1.00  0.00     0.029 A 
ATOM     45  C   UNL A   1      38.353  30.936  33.153  1.00  0.00     0.049 A 
ATOM     46  H   UNL A   1      39.388  29.731  31.803  1.00  0.00     0.167 HD
ATOM     47  C   UNL A   1      41.451  27.188  28.905  1.00  0.00     0.034 A 
ATOM     48  C   UNL A   1      39.103  31.034  34.270  1.00  0.00     0.034 A 
ATOM     49  C   UNL A   1      42.360  27.307  30.020  1.00  0.00     0.049 A 
ATOM     50  C   UNL A   1      40.439  30.333  34.320  1.00  0.00     0.074 A 
ATOM     51  C   UNL A   1      43.635  26.783  30.152  1.00  0.00     0.029 A 
ATOM     52  N   UNL A   1      42.091  27.987  31.201  1.00  0.00    -0.354 N 
ATOM     53  N   UNL A   1      41.021  29.595  33.403  1.00  0.00    -0.248 NA
ATOM     54  C   UNL A   1      41.224  30.491  35.551  1.00  0.00     0.031 C 
ATOM     55  C   UNL A   1      44.104  27.078  31.437  1.00  0.00     0.029 A 
ATOM     56  C   UNL A   1      43.162  27.866  32.077  1.00  0.00     0.049 A 
ATOM     57  H   UNL A   1      41.263  28.484  31.389  1.00  0.00     0.167 HD
ATOM     58  C   UNL A   1      42.257  29.235  33.936  1.00  0.00     0.074 A 
ATOM     59  C   UNL A   1      42.340  29.847  35.244  1.00  0.00     0.031 C 
ATOM     60  C   UNL A   1      43.237  28.472  33.386  1.00  0.00     0.034 A 
BRANCH  47  61
ATOM     61  C   UNL A   1      41.859  26.334  27.726  1.00  0.00     0.023 A 
ATOM     62  C   UNL A   1      41.473  24.986  27.621  1.00  0.00     0.031 A 
ATOM     63  C   UNL A   1      42.664  26.867  26.702  1.00  0.00     0.131 A 
ATOM     64  C   UNL A   1      41.956  24.198  26.565  1.00  0.00     0.055 A 
ATOM     65  C   UNL A   1      43.068  26.100  25.607  1.00  0.00     0.041 A 
ATOM     66  F   UNL A   1      43.082  28.141  26.754  1.00  0.00    -0.206 F 
ATOM     67  C   UNL A   1      42.728  24.752  25.543  1.00  0.00     0.022 A 
BRANCH  64  68
ATOM     68  S   UNL A   1      41.691  22.405  26.634  1.00  0.00     0.124 S 
ATOM     69  O   UNL A   1      40.235  22.326  26.721  1.00  0.00    -0.237 OA
ATOM     70  O   UNL A   1      42.282  21.950  25.380  1.00  0.00    -0.237 OA
ATOM     71  O   UNL A   1      42.403  21.999  27.844  1.00  0.00    -0.744 OA
ENDBRANCH  64  68
ENDBRANCH  47  61
BRANCH  48  72
ATOM     72  C   UNL A   1      38.615  31.815  35.445  1.00  0.00     0.023 A 
ATOM     73  C   UNL A   1      38.139  31.173  36.600  1.00  0.00     0.031 A 
ATOM     74  C   UNL A   1      38.563  33.221  35.408  1.00  0.00     0.131 A 
ATOM     75  C   UNL A   1      37.584  31.928  37.644  1.00  0.00     0.055 A 
ATOM     76  C   UNL A   1      38.065  33.971  36.474  1.00  0.00     0.041 A 
ATOM     77  F   UNL A   1      39.005  33.889  34.330  1.00  0.00    -0.206 F 
ATOM     78  C   UNL A   1      37.558  33.324  37.596  1.00  0.00     0.022 A 
BRANCH  75  79
ATOM     79  S   UNL A   1      36.804  31.055  39.030  1.00  0.00     0.124 S 
ATOM     80  O   UNL A   1      35.566  31.809  39.196  1.00  0.00    -0.237 OA
ATOM     81  O   UNL A   1      36.667  29.704  38.498  1.00  0.00    -0.237 OA
ATOM     82  O   UNL A   1      37.775  31.201  40.113  1.00  0.00    -0.744 OA
ENDBRANCH  75  79
ENDBRANCH  48  72
BRANCH  60  83
ATOM     83  C   UNL A   1      44.513  28.306  34.181  1.00  0.00     0.023 A 
ATOM     84  C   UNL A   1      44.706  27.231  35.066  1.00  0.00     0.031 A 
ATOM     85  C   UNL A   1      45.548  29.252  34.058  1.00  0.00     0.131 A 
ATOM     86  C   UNL A   1      45.877  27.159  35.837  1.00  0.00     0.055 A 
ATOM     87  C   UNL A   1      46.738  29.139  34.777  1.00  0.00     0.041 A 
ATOM     88  F   UNL A   1      45.419  30.302  33.232  1.00  0.00    -0.206 F 
ATOM     89  C   UNL A   1      46.903  28.096  35.684  1.00  0.00     0.022 A 
BRANCH  86  90
ATOM     90  S   UNL A   1      46.001  25.883  37.121  1.00  0.00     0.124 S 
ATOM     91  O   UNL A   1      44.639  25.844  37.641  1.00  0.00    -0.237 OA
ATOM     92  O   UNL A   1      46.427  24.715  36.358  1.00  0.00    -0.237 OA
ATOM     93  O   UNL A   1      47.001  26.419  38.042  1.00  0.00    -0.744 OA
ENDBRANCH  86  90
ENDBRANCH  60  83
ENDBRANCH  34  35
ENDBRANCH  26  29
ENDBRANCH  24  25
ENDBRANCH   1  24
TORSDOF 16
ENDMDL
MODEL 2
REMARK VINA RESULT:     -11.9      2.012      7.750
REMARK SMILES O=C(C[C@H]1C[C@H]2CC[C@@H](C1)[N@H+]2C[C@@H]1CCCOC1)NCCCNC(=O)c1ccc(-c2c3nc(c(-c4cc(S(=O)(=O)[O-])ccc4F)c4ccc([nH]4)c(-c4cc(S(=O)(=O)[O-])ccc4F)c4nc(c(-c5cc(S(=O)(=O)[O-])ccc5F)c5ccc2[nH]5)C=C4)C=C3)cc1
REMARK SMILES IDX 21 1 20 2 19 3 1 4 2 5 3 7 4 8 5 9 10 10 6 11 9 12 7 13
REMARK SMILES IDX 11 14 8 15 12 17 13 18 14 19 18 20 15 21 17 22 16 23 22 24
REMARK SMILES IDX 23 25 24 26 25 28 26 29 27 30 88 31 28 32 87 33 29 34 30 35
REMARK SMILES IDX 31 36 81 37 32 38 86 39 80 40 82 41 33 42 85 43 79 44 78 45
REMARK SMILES IDX 34 47 66 48 46 49 65 50 47 51 50 52 64 53 83 54 48 55 49 56
REMARK SMILES IDX 63 58 84 59 51 60 35 61 36 62 44 63 37 64 43 65 45 66 42 67
REMARK SMILES IDX 38 68 39 69 40 70 41 71 67 72 68 73 76 74 69 75 75 76 77 77
REMARK SMILES IDX 74 78 70 79 71 80 72 81 73 82 52 83 53 84 61 85 54 86 60 87
REMARK SMILES IDX 62 88 59 89 55 90 56 91 57 92 58 93
REMARK H PARENT 19 6 11 16 23 27 82 46 50 57
REMARK Flexibility Score: inf
ROOT
ATOM      1  C   UNL A   1      33.093  28.499  25.066  1.00  0.00     0.042 C 
ENDROOT
BRANCH   1   2
ATOM      2  C   UNL A   1      33.700  27.657  23.950  1.00  0.00     0.117 C 
BRANCH   2   3
ATOM      3  N   UNL A   1      33.991  26.315  24.403  1.00  0.00    -0.356 N 
ATOM      4  O   UNL A   1      33.923  25.285  22.340  1.00  0.00    -0.275 OA
ATOM      5  C   UNL A   1      34.199  25.270  23.534  1.00  0.00     0.220 C 
ATOM      6  H   UNL A   1      34.043  26.144  25.372  1.00  0.00     0.163 HD
BRANCH   5   7
ATOM      7  C   UNL A   1      34.925  24.126  24.202  1.00  0.00     0.104 C 
BRANCH   7   8
ATOM      8  C   UNL A   1      34.204  22.776  24.022  1.00  0.00     0.010 C 
ATOM      9  C   UNL A   1      34.908  21.525  24.641  1.00  0.00     0.069 C 
ATOM     10  C   UNL A   1      32.707  22.962  24.397  1.00  0.00     0.069 C 
ATOM     11  C   UNL A   1      34.087  20.770  25.668  1.00  0.00     0.184 C 
ATOM     12  C   UNL A   1      32.111  21.918  25.350  1.00  0.00     0.184 C 
ATOM     13  C   UNL A   1      33.939  21.650  26.921  1.00  0.00     0.071 C 
ATOM     14  N   UNL A   1      32.727  20.621  25.188  1.00  0.00    -0.330 N 
ATOM     15  C   UNL A   1      32.545  22.251  26.793  1.00  0.00     0.071 C 
ATOM     16  H   UNL A   1      32.158  19.950  25.705  1.00  0.00     0.348 HD
BRANCH  14  17
ATOM     17  C   UNL A   1      32.375  19.626  24.181  1.00  0.00     0.268 C 
BRANCH  17  18
ATOM     18  C   UNL A   1      32.558  18.065  24.199  1.00  0.00     0.070 C 
ATOM     19  C   UNL A   1      32.574  17.380  25.578  1.00  0.00     0.014 C 
ATOM     20  C   UNL A   1      33.603  17.549  23.205  1.00  0.00     0.169 C 
ATOM     21  C   UNL A   1      33.149  15.967  25.610  1.00  0.00     0.029 C 
ATOM     22  O   UNL A   1      33.894  16.157  23.354  1.00  0.00    -0.381 OA
ATOM     23  C   UNL A   1      34.331  15.845  24.673  1.00  0.00     0.160 C 
ENDBRANCH  17  18
ENDBRANCH  14  17
ENDBRANCH   7   8
ENDBRANCH   5   7
ENDBRANCH   2   3
ENDBRANCH   1   2
BRANCH   1  24
ATOM     24  C   UNL A   1      34.102  29.150  26.015  1.00  0.00     0.118 C 
BRANCH  24  25
ATOM     25  N   UNL A   1      33.651  30.402  26.597  1.00  0.00    -0.352 N 
ATOM     26  C   UNL A   1      34.238  31.154  27.592  1.00  0.00     0.251 C 
ATOM     27  H   UNL A   1      32.811  30.763  26.232  1.00  0.00     0.163 HD
ATOM     28  O   UNL A   1      33.661  32.151  28.016  1.00  0.00    -0.269 OA
BRANCH  26  29
ATOM     29  C   UNL A   1      35.534  30.737  28.183  1.00  0.00     0.039 A 
ATOM     30  C   UNL A   1      35.526  29.757  29.179  1.00  0.00     0.014 A 
ATOM     31  C   UNL A   1      36.746  31.292  27.764  1.00  0.00     0.014 A 
ATOM     32  C   UNL A   1      36.734  29.287  29.705  1.00  0.00     0.010 A 
ATOM     33  C   UNL A   1      37.954  30.775  28.243  1.00  0.00     0.010 A 
ATOM     34  C   UNL A   1      37.963  29.762  29.217  1.00  0.00    -0.014 A 
BRANCH  34  35
ATOM     35  C   UNL A   1      39.249  29.205  29.727  1.00  0.00     0.031 A 
ATOM     36  C   UNL A   1      39.922  29.809  30.931  1.00  0.00     0.074 A 
ATOM     37  C   UNL A   1      39.828  28.162  29.095  1.00  0.00     0.049 A 
ATOM     38  N   UNL A   1      41.046  29.467  31.511  1.00  0.00    -0.248 NA
ATOM     39  C   UNL A   1      39.255  30.963  31.550  1.00  0.00     0.031 C 
ATOM     40  C   UNL A   1      39.298  27.501  27.899  1.00  0.00     0.029 A 
ATOM     41  N   UNL A   1      40.985  27.471  29.367  1.00  0.00    -0.354 N 
ATOM     42  C   UNL A   1      41.220  30.364  32.561  1.00  0.00     0.074 A 
ATOM     43  C   UNL A   1      40.121  31.303  32.492  1.00  0.00     0.031 C 
ATOM     44  C   UNL A   1      40.109  26.484  27.563  1.00  0.00     0.029 A 
ATOM     45  C   UNL A   1      41.240  26.444  28.486  1.00  0.00     0.049 A 
ATOM     46  H   UNL A   1      41.576  27.690  30.123  1.00  0.00     0.167 HD
ATOM     47  C   UNL A   1      42.191  30.387  33.510  1.00  0.00     0.034 A 
ATOM     48  C   UNL A   1      42.269  25.573  28.420  1.00  0.00     0.034 A 
ATOM     49  C   UNL A   1      43.284  29.445  33.572  1.00  0.00     0.049 A 
ATOM     50  C   UNL A   1      43.359  25.645  29.461  1.00  0.00     0.074 A 
ATOM     51  C   UNL A   1      44.293  29.357  34.515  1.00  0.00     0.029 A 
ATOM     52  N   UNL A   1      43.518  28.432  32.650  1.00  0.00    -0.354 N 
ATOM     53  N   UNL A   1      43.481  26.470  30.476  1.00  0.00    -0.248 NA
ATOM     54  C   UNL A   1      44.444  24.660  29.355  1.00  0.00     0.031 C 
ATOM     55  C   UNL A   1      45.178  28.347  34.123  1.00  0.00     0.029 A 
ATOM     56  C   UNL A   1      44.674  27.740  32.985  1.00  0.00     0.049 A 
ATOM     57  H   UNL A   1      42.948  28.234  31.873  1.00  0.00     0.167 HD
ATOM     58  C   UNL A   1      44.635  26.074  31.148  1.00  0.00     0.074 A 
ATOM     59  C   UNL A   1      45.163  24.933  30.433  1.00  0.00     0.031 C 
ATOM     60  C   UNL A   1      45.202  26.605  32.263  1.00  0.00     0.034 A 
BRANCH  47  61
ATOM     61  C   UNL A   1      42.128  31.490  34.542  1.00  0.00     0.023 A 
ATOM     62  C   UNL A   1      41.163  31.490  35.564  1.00  0.00     0.031 A 
ATOM     63  C   UNL A   1      43.029  32.569  34.491  1.00  0.00     0.131 A 
ATOM     64  C   UNL A   1      41.070  32.582  36.441  1.00  0.00     0.055 A 
ATOM     65  C   UNL A   1      42.988  33.609  35.423  1.00  0.00     0.041 A 
ATOM     66  F   UNL A   1      43.961  32.637  33.528  1.00  0.00    -0.206 F 
ATOM     67  C   UNL A   1      41.993  33.628  36.395  1.00  0.00     0.022 A 
BRANCH  64  68
ATOM     68  S   UNL A   1      39.629  32.689  37.539  1.00  0.00     0.124 S 
ATOM     69  O   UNL A   1      40.249  32.538  38.854  1.00  0.00    -0.237 OA
ATOM     70  O   UNL A   1      39.096  34.012  37.232  1.00  0.00    -0.237 OA
ATOM     71  O   UNL A   1      38.795  31.565  37.119  1.00  0.00    -0.744 OA
ENDBRANCH  64  68
ENDBRANCH  47  61
BRANCH  48  72
ATOM     72  C   UNL A   1      42.335  24.558  27.326  1.00  0.00     0.023 A 
ATOM     73  C   UNL A   1      41.542  23.401  27.358  1.00  0.00     0.031 A 
ATOM     74  C   UNL A   1      43.239  24.705  26.258  1.00  0.00     0.131 A 
ATOM     75  C   UNL A   1      41.704  22.411  26.376  1.00  0.00     0.055 A 
ATOM     76  C   UNL A   1      43.354  23.746  25.249  1.00  0.00     0.041 A 
ATOM     77  F   UNL A   1      44.022  25.793  26.175  1.00  0.00    -0.206 F 
ATOM     78  C   UNL A   1      42.594  22.584  25.313  1.00  0.00     0.022 A 
BRANCH  75  79
ATOM     79  S   UNL A   1      40.804  20.846  26.559  1.00  0.00     0.124 S 
ATOM     80  O   UNL A   1      41.610  19.945  25.744  1.00  0.00    -0.237 OA
ATOM     81  O   UNL A   1      40.860  20.633  28.001  1.00  0.00    -0.237 OA
ATOM     82  O   UNL A   1      39.478  21.154  26.027  1.00  0.00    -0.744 OA
ENDBRANCH  75  79
ENDBRANCH  48  72
BRANCH  60  83
ATOM     83  C   UNL A   1      46.431  25.914  32.810  1.00  0.00     0.023 A 
ATOM     84  C   UNL A   1      46.344  24.844  33.719  1.00  0.00     0.031 A 
ATOM     85  C   UNL A   1      47.713  26.347  32.422  1.00  0.00     0.131 A 
ATOM     86  C   UNL A   1      47.515  24.284  34.255  1.00  0.00     0.055 A 
ATOM     87  C   UNL A   1      48.872  25.741  32.907  1.00  0.00     0.041 A 
ATOM     88  F   UNL A   1      47.858  27.366  31.562  1.00  0.00    -0.206 F 
ATOM     89  C   UNL A   1      48.778  24.713  33.840  1.00  0.00     0.022 A 
BRANCH  86  90
ATOM     90  S   UNL A   1      47.366  23.055  35.581  1.00  0.00     0.124 S 
ATOM     91  O   UNL A   1      46.370  23.669  36.453  1.00  0.00    -0.237 OA
ATOM     92  O   UNL A   1      46.932  21.866  34.857  1.00  0.00    -0.237 OA
ATOM     93  O   UNL A   1      48.716  22.984  36.137  1.00  0.00    -0.744 OA
ENDBRANCH  86  90
ENDBRANCH  60  83
ENDBRANCH  34  35
ENDBRANCH  26  29
ENDBRANCH  24  25
ENDBRANCH   1  24
TORSDOF 16
ENDMDL
MODEL 3
REMARK VINA RESULT:     -11.8      5.233     10.769
REMARK SMILES O=C(C[C@H]1C[C@H]2CC[C@@H](C1)[N@H+]2C[C@@H]1CCCOC1)NCCCNC(=O)c1ccc(-c2c3nc(c(-c4cc(S(=O)(=O)[O-])ccc4F)c4ccc([nH]4)c(-c4cc(S(=O)(=O)[O-])ccc4F)c4nc(c(-c5cc(S(=O)(=O)[O-])ccc5F)c5ccc2[nH]5)C=C4)C=C3)cc1
REMARK SMILES IDX 21 1 20 2 19 3 1 4 2 5 3 7 4 8 5 9 10 10 6 11 9 12 7 13
REMARK SMILES IDX 11 14 8 15 12 17 13 18 14 19 18 20 15 21 17 22 16 23 22 24
REMARK SMILES IDX 23 25 24 26 25 28 26 29 27 30 88 31 28 32 87 33 29 34 30 35
REMARK SMILES IDX 31 36 81 37 32 38 86 39 80 40 82 41 33 42 85 43 79 44 78 45
REMARK SMILES IDX 34 47 66 48 46 49 65 50 47 51 50 52 64 53 83 54 48 55 49 56
REMARK SMILES IDX 63 58 84 59 51 60 35 61 36 62 44 63 37 64 43 65 45 66 42 67
REMARK SMILES IDX 38 68 39 69 40 70 41 71 67 72 68 73 76 74 69 75 75 76 77 77
REMARK SMILES IDX 74 78 70 79 71 80 72 81 73 82 52 83 53 84 61 85 54 86 60 87
REMARK SMILES IDX 62 88 59 89 55 90 56 91 57 92 58 93
REMARK H PARENT 19 6 11 16 23 27 82 46 50 57
REMARK Flexibility Score: inf
ROOT
ATOM      1  C   UNL A   1      35.120  21.080  25.691  1.00  0.00     0.042 C 
ENDROOT
BRANCH   1   2
ATOM      2  C   UNL A   1      34.018  21.591  24.771  1.00  0.00     0.117 C 
BRANCH   2   3
ATOM      3  N   UNL A   1      33.958  23.036  24.775  1.00  0.00    -0.356 N 
ATOM      4  O   UNL A   1      32.912  23.284  26.816  1.00  0.00    -0.275 OA
ATOM      5  C   UNL A   1      33.520  23.755  25.861  1.00  0.00     0.220 C 
ATOM      6  H   UNL A   1      34.244  23.523  23.968  1.00  0.00     0.163 HD
BRANCH   5   7
ATOM      7  C   UNL A   1      33.980  25.193  25.801  1.00  0.00     0.104 C 
BRANCH   7   8
ATOM      8  C   UNL A   1      32.869  26.155  25.337  1.00  0.00     0.010 C 
ATOM      9  C   UNL A   1      31.829  26.588  26.420  1.00  0.00     0.069 C 
ATOM     10  C   UNL A   1      33.524  27.311  24.531  1.00  0.00     0.069 C 
ATOM     11  C   UNL A   1      31.739  28.082  26.663  1.00  0.00     0.184 C 
ATOM     12  C   UNL A   1      33.095  28.734  24.915  1.00  0.00     0.184 C 
ATOM     13  C   UNL A   1      33.042  28.550  27.332  1.00  0.00     0.071 C 
ATOM     14  N   UNL A   1      31.732  28.780  25.392  1.00  0.00    -0.330 N 
ATOM     15  C   UNL A   1      33.850  29.157  26.192  1.00  0.00     0.071 C 
ATOM     16  H   UNL A   1      31.463  29.763  25.441  1.00  0.00     0.348 HD
BRANCH  14  17
ATOM     17  C   UNL A   1      30.535  28.846  24.561  1.00  0.00     0.268 C 
BRANCH  17  18
ATOM     18  C   UNL A   1      30.149  29.868  23.431  1.00  0.00     0.070 C 
ATOM     19  C   UNL A   1      29.120  30.955  23.795  1.00  0.00     0.014 C 
ATOM     20  C   UNL A   1      29.959  29.229  22.052  1.00  0.00     0.169 C 
ATOM     21  C   UNL A   1      28.460  31.664  22.616  1.00  0.00     0.029 C 
ATOM     22  O   UNL A   1      29.432  30.129  21.074  1.00  0.00    -0.381 OA
ATOM     23  C   UNL A   1      28.192  30.694  21.486  1.00  0.00     0.160 C 
ENDBRANCH  17  18
ENDBRANCH  14  17
ENDBRANCH   7   8
ENDBRANCH   5   7
ENDBRANCH   2   3
ENDBRANCH   1   2
BRANCH   1  24
ATOM     24  C   UNL A   1      36.532  21.558  25.346  1.00  0.00     0.118 C 
BRANCH  24  25
ATOM     25  N   UNL A   1      37.549  20.524  25.433  1.00  0.00    -0.352 N 
ATOM     26  C   UNL A   1      38.871  20.641  25.805  1.00  0.00     0.251 C 
ATOM     27  H   UNL A   1      37.254  19.616  25.193  1.00  0.00     0.163 HD
ATOM     28  O   UNL A   1      39.607  19.661  25.736  1.00  0.00    -0.269 OA
BRANCH  26  29
ATOM     29  C   UNL A   1      39.417  21.952  26.237  1.00  0.00     0.039 A 
ATOM     30  C   UNL A   1      40.571  21.966  27.025  1.00  0.00     0.014 A 
ATOM     31  C   UNL A   1      38.812  23.157  25.870  1.00  0.00     0.014 A 
ATOM     32  C   UNL A   1      41.154  23.184  27.386  1.00  0.00     0.010 A 
ATOM     33  C   UNL A   1      39.433  24.372  26.176  1.00  0.00     0.010 A 
ATOM     34  C   UNL A   1      40.615  24.401  26.936  1.00  0.00    -0.014 A 
BRANCH  34  35
ATOM     35  C   UNL A   1      41.282  25.694  27.261  1.00  0.00     0.031 A 
ATOM     36  C   UNL A   1      40.571  26.738  28.083  1.00  0.00     0.074 A 
ATOM     37  C   UNL A   1      42.526  25.944  26.801  1.00  0.00     0.049 A 
ATOM     38  N   UNL A   1      40.986  27.922  28.456  1.00  0.00    -0.248 NA
ATOM     39  C   UNL A   1      39.207  26.414  28.523  1.00  0.00     0.031 C 
ATOM     40  C   UNL A   1      43.316  25.033  25.969  1.00  0.00     0.029 A 
ATOM     41  N   UNL A   1      43.348  27.034  26.967  1.00  0.00    -0.354 N 
ATOM     42  C   UNL A   1      39.935  28.485  29.173  1.00  0.00     0.074 A 
ATOM     43  C   UNL A   1      38.842  27.537  29.121  1.00  0.00     0.031 C 
ATOM     44  C   UNL A   1      44.516  25.587  25.726  1.00  0.00     0.029 A 
ATOM     45  C   UNL A   1      44.570  26.910  26.343  1.00  0.00     0.049 A 
ATOM     46  H   UNL A   1      43.087  27.829  27.485  1.00  0.00     0.167 HD
ATOM     47  C   UNL A   1      39.892  29.670  29.835  1.00  0.00     0.034 A 
ATOM     48  C   UNL A   1      45.612  27.763  26.266  1.00  0.00     0.034 A 
ATOM     49  C   UNL A   1      40.988  30.610  29.883  1.00  0.00     0.049 A 
ATOM     50  C   UNL A   1      45.525  29.092  26.975  1.00  0.00     0.074 A 
ATOM     51  C   UNL A   1      41.060  31.816  30.559  1.00  0.00     0.029 A 
ATOM     52  N   UNL A   1      42.201  30.457  29.222  1.00  0.00    -0.354 N 
ATOM     53  N   UNL A   1      44.541  29.587  27.689  1.00  0.00    -0.248 NA
ATOM     54  C   UNL A   1      46.696  29.974  26.877  1.00  0.00     0.031 C 
ATOM     55  C   UNL A   1      42.279  32.426  30.245  1.00  0.00     0.029 A 
ATOM     56  C   UNL A   1      43.010  31.562  29.447  1.00  0.00     0.049 A 
ATOM     57  H   UNL A   1      42.449  29.678  28.674  1.00  0.00     0.167 HD
ATOM     58  C   UNL A   1      44.993  30.819  28.157  1.00  0.00     0.074 A 
ATOM     59  C   UNL A   1      46.339  30.985  27.654  1.00  0.00     0.031 C 
ATOM     60  C   UNL A   1      44.352  31.727  28.938  1.00  0.00     0.034 A 
BRANCH  47  61
ATOM     61  C   UNL A   1      38.602  30.028  30.537  1.00  0.00     0.023 A 
ATOM     62  C   UNL A   1      37.585  30.751  29.890  1.00  0.00     0.031 A 
ATOM     63  C   UNL A   1      38.393  29.659  31.879  1.00  0.00     0.131 A 
ATOM     64  C   UNL A   1      36.446  31.152  30.606  1.00  0.00     0.055 A 
ATOM     65  C   UNL A   1      37.217  29.985  32.558  1.00  0.00     0.041 A 
ATOM     66  F   UNL A   1      39.334  28.984  32.557  1.00  0.00    -0.206 F 
ATOM     67  C   UNL A   1      36.242  30.751  31.927  1.00  0.00     0.022 A 
BRANCH  64  68
ATOM     68  S   UNL A   1      35.312  32.338  29.831  1.00  0.00     0.124 S 
ATOM     69  O   UNL A   1      34.797  31.561  28.706  1.00  0.00    -0.237 OA
ATOM     70  O   UNL A   1      34.363  32.615  30.904  1.00  0.00    -0.237 OA
ATOM     71  O   UNL A   1      36.182  33.453  29.462  1.00  0.00    -0.744 OA
ENDBRANCH  64  68
ENDBRANCH  47  61
BRANCH  48  72
ATOM     72  C   UNL A   1      46.832  27.402  25.483  1.00  0.00     0.023 A 
ATOM     73  C   UNL A   1      46.999  27.835  24.158  1.00  0.00     0.031 A 
ATOM     74  C   UNL A   1      47.823  26.568  26.032  1.00  0.00     0.131 A 
ATOM     75  C   UNL A   1      48.100  27.390  23.409  1.00  0.00     0.055 A 
ATOM     76  C   UNL A   1      48.947  26.177  25.302  1.00  0.00     0.041 A 
ATOM     77  F   UNL A   1      47.715  26.125  27.295  1.00  0.00    -0.206 F 
ATOM     78  C   UNL A   1      49.083  26.577  23.977  1.00  0.00     0.022 A 
BRANCH  75  79
ATOM     79  S   UNL A   1      48.180  27.811  21.645  1.00  0.00     0.124 S 
ATOM     80  O   UNL A   1      46.892  28.462  21.439  1.00  0.00    -0.237 OA
ATOM     81  O   UNL A   1      49.353  28.676  21.594  1.00  0.00    -0.237 OA
ATOM     82  O   UNL A   1      48.336  26.512  20.994  1.00  0.00    -0.744 OA
ENDBRANCH  75  79
ENDBRANCH  48  72
BRANCH  60  83
ATOM     83  C   UNL A   1      45.128  32.959  29.345  1.00  0.00     0.023 A 
ATOM     84  C   UNL A   1      45.093  34.146  28.592  1.00  0.00     0.031 A 
ATOM     85  C   UNL A   1      45.926  32.938  30.504  1.00  0.00     0.131 A 
ATOM     86  C   UNL A   1      45.888  35.240  28.970  1.00  0.00     0.055 A 
ATOM     87  C   UNL A   1      46.662  34.051  30.912  1.00  0.00     0.041 A 
ATOM     88  F   UNL A   1      46.002  31.832  31.260  1.00  0.00    -0.206 F 
ATOM     89  C   UNL A   1      46.657  35.206  30.137  1.00  0.00     0.022 A 
BRANCH  86  90
ATOM     90  S   UNL A   1      45.985  36.673  27.863  1.00  0.00     0.124 S 
ATOM     91  O   UNL A   1      46.985  37.503  28.527  1.00  0.00    -0.237 OA
ATOM     92  O   UNL A   1      46.398  36.066  26.602  1.00  0.00    -0.237 OA
ATOM     93  O   UNL A   1      44.626  37.210  27.875  1.00  0.00    -0.744 OA
ENDBRANCH  86  90
ENDBRANCH  60  83
ENDBRANCH  34  35
ENDBRANCH  26  29
ENDBRANCH  24  25
ENDBRANCH   1  24
TORSDOF 16
ENDMDL
