MODEL 1
REMARK VINA RESULT:     -11.3      0.000      0.000
REMARK SMILES O=C(CCCNC(=O)N1CC[C@@H](C(=O)NCCCNC(=O)c2ccc(-c3c4nc(c(-c5cc(S(=O)(=O)[O-])ccc5F)c5ccc([nH]5)c(-c5cc(S(=O)(=O)[O-])ccc5F)c5nc(c(-c6cc(S(=O)(=O)[O-])ccc6F)c6ccc3[nH]6)C=C5)C=C4)cc2)C1)NC1CC1
REMARK SMILES IDX 13 1 14 2 15 3 12 5 9 6 10 7 85 8 11 9 7 10 6 11 8 13 5 14
REMARK SMILES IDX 4 15 3 16 2 17 1 18 86 19 87 21 88 22 89 23 16 24 17 25
REMARK SMILES IDX 18 26 19 27 20 28 21 30 22 31 23 32 84 33 24 34 83 35 25 36
REMARK SMILES IDX 26 37 27 38 77 39 28 40 82 41 76 42 78 43 29 44 81 45 75 46
REMARK SMILES IDX 74 47 30 49 62 50 42 51 61 52 43 53 46 54 60 55 79 56 44 57
REMARK SMILES IDX 45 58 59 60 80 61 47 62 31 63 32 64 40 65 33 66 39 67 41 68
REMARK SMILES IDX 38 69 34 70 35 71 36 72 37 73 63 74 64 75 72 76 65 77 71 78
REMARK SMILES IDX 73 79 70 80 66 81 67 82 68 83 69 84 48 85 49 86 57 87 50 88
REMARK SMILES IDX 56 89 58 90 55 91 51 92 52 93 53 94 54 95
REMARK H PARENT 15 4 6 12 86 20 19 29 78 48 46 59
REMARK Flexibility Score: inf
ROOT
ATOM      1  C   UNL A   1      33.586  28.699  26.379  1.00  0.00     0.224 C 
ATOM      2  O   UNL A   1      34.761  28.516  26.694  1.00  0.00    -0.275 OA
ATOM      3  N   UNL A   1      33.068  29.950  26.510  1.00  0.00    -0.356 N 
ATOM      4  H   UNL A   1      33.721  30.650  26.741  1.00  0.00     0.163 HD
ENDROOT
BRANCH   1   5
ATOM      5  C   UNL A   1      32.730  27.597  25.794  1.00  0.00     0.100 C 
ATOM      6  N   UNL A   1      33.313  26.461  23.806  1.00  0.00    -0.324 N 
ATOM      7  C   UNL A   1      34.130  25.888  24.858  1.00  0.00     0.122 C 
ATOM      8  C   UNL A   1      32.742  27.713  24.264  1.00  0.00     0.134 C 
ATOM      9  C   UNL A   1      33.317  26.208  26.095  1.00  0.00     0.037 C 
BRANCH   6  10
ATOM     10  C   UNL A   1      33.223  26.071  22.510  1.00  0.00     0.317 C 
ATOM     11  N   UNL A   1      32.322  25.114  22.177  1.00  0.00    -0.338 N 
ATOM     12  H   UNL A   1      32.531  24.573  21.381  1.00  0.00     0.165 HD
ATOM     13  O   UNL A   1      33.870  26.594  21.604  1.00  0.00    -0.249 OA
BRANCH  11  14
ATOM     14  C   UNL A   1      31.080  24.798  22.864  1.00  0.00     0.118 C 
BRANCH  14  15
ATOM     15  C   UNL A   1      31.107  23.425  23.534  1.00  0.00     0.031 C 
BRANCH  15  16
ATOM     16  C   UNL A   1      32.135  22.441  22.981  1.00  0.00     0.102 C 
BRANCH  16  17
ATOM     17  C   UNL A   1      32.766  21.591  24.062  1.00  0.00     0.220 C 
ATOM     18  O   UNL A   1      33.536  22.064  24.893  1.00  0.00    -0.275 OA
ATOM     19  N   UNL A   1      32.402  20.261  24.010  1.00  0.00    -0.353 N 
ATOM     20  H   UNL A   1      31.770  19.974  23.311  1.00  0.00     0.163 HD
BRANCH  19  21
ATOM     21  C   UNL A   1      32.898  19.282  24.922  1.00  0.00     0.082 C 
ATOM     22  C   UNL A   1      32.510  17.838  24.759  1.00  0.00     0.027 C 
ATOM     23  C   UNL A   1      33.919  18.271  24.478  1.00  0.00     0.027 C 
ENDBRANCH  19  21
ENDBRANCH  16  17
ENDBRANCH  15  16
ENDBRANCH  14  15
ENDBRANCH  11  14
ENDBRANCH   6  10
ENDBRANCH   1   5
BRANCH   3  24
ATOM     24  C   UNL A   1      31.698  30.411  26.365  1.00  0.00     0.117 C 
BRANCH  24  25
ATOM     25  C   UNL A   1      31.591  31.920  26.564  1.00  0.00     0.042 C 
BRANCH  25  26
ATOM     26  C   UNL A   1      32.772  32.525  27.324  1.00  0.00     0.118 C 
BRANCH  26  27
ATOM     27  N   UNL A   1      32.570  33.933  27.637  1.00  0.00    -0.352 N 
ATOM     28  C   UNL A   1      33.153  34.720  28.597  1.00  0.00     0.251 C 
ATOM     29  H   UNL A   1      31.911  34.393  27.070  1.00  0.00     0.163 HD
ATOM     30  O   UNL A   1      32.675  35.831  28.829  1.00  0.00    -0.269 OA
BRANCH  28  31
ATOM     31  C   UNL A   1      34.323  34.238  29.361  1.00  0.00     0.039 A 
ATOM     32  C   UNL A   1      34.120  33.672  30.622  1.00  0.00     0.014 A 
ATOM     33  C   UNL A   1      35.618  34.363  28.851  1.00  0.00     0.014 A 
ATOM     34  C   UNL A   1      35.208  33.169  31.339  1.00  0.00     0.010 A 
ATOM     35  C   UNL A   1      36.689  33.786  29.529  1.00  0.00     0.010 A 
ATOM     36  C   UNL A   1      36.497  33.185  30.781  1.00  0.00    -0.014 A 
BRANCH  36  37
ATOM     37  C   UNL A   1      37.652  32.574  31.491  1.00  0.00     0.031 A 
ATOM     38  C   UNL A   1      38.408  31.431  30.870  1.00  0.00     0.074 A 
ATOM     39  C   UNL A   1      37.981  33.008  32.723  1.00  0.00     0.049 A 
ATOM     40  N   UNL A   1      39.399  30.730  31.357  1.00  0.00    -0.248 NA
ATOM     41  C   UNL A   1      37.967  31.003  29.535  1.00  0.00     0.031 C 
ATOM     42  C   UNL A   1      37.304  34.087  33.446  1.00  0.00     0.029 A 
ATOM     43  N   UNL A   1      38.965  32.599  33.586  1.00  0.00    -0.354 N 
ATOM     44  C   UNL A   1      39.695  29.771  30.395  1.00  0.00     0.074 A 
ATOM     45  C   UNL A   1      38.724  29.936  29.333  1.00  0.00     0.031 C 
ATOM     46  C   UNL A   1      37.917  34.279  34.623  1.00  0.00     0.029 A 
ATOM     47  C   UNL A   1      38.994  33.304  34.766  1.00  0.00     0.049 A 
ATOM     48  H   UNL A   1      39.592  31.868  33.381  1.00  0.00     0.167 HD
ATOM     49  C   UNL A   1      40.698  28.856  30.384  1.00  0.00     0.034 A 
ATOM     50  C   UNL A   1      39.790  33.176  35.845  1.00  0.00     0.034 A 
ATOM     51  C   UNL A   1      41.652  28.701  31.457  1.00  0.00     0.049 A 
ATOM     52  C   UNL A   1      40.858  32.113  35.842  1.00  0.00     0.074 A 
ATOM     53  C   UNL A   1      42.735  27.843  31.534  1.00  0.00     0.029 A 
ATOM     54  N   UNL A   1      41.628  29.411  32.653  1.00  0.00    -0.354 N 
ATOM     55  N   UNL A   1      41.159  31.245  34.904  1.00  0.00    -0.248 NA
ATOM     56  C   UNL A   1      41.697  32.020  37.042  1.00  0.00     0.031 C 
ATOM     57  C   UNL A   1      43.310  27.971  32.803  1.00  0.00     0.029 A 
ATOM     58  C   UNL A   1      42.649  28.977  33.488  1.00  0.00     0.049 A 
ATOM     59  H   UNL A   1      40.980  30.119  32.875  1.00  0.00     0.167 HD
ATOM     60  C   UNL A   1      42.246  30.523  35.390  1.00  0.00     0.074 A 
ATOM     61  C   UNL A   1      42.551  31.067  36.698  1.00  0.00     0.031 C 
ATOM     62  C   UNL A   1      42.933  29.509  34.803  1.00  0.00     0.034 A 
BRANCH  49  63
ATOM     63  C   UNL A   1      40.777  27.933  29.186  1.00  0.00     0.023 A 
ATOM     64  C   UNL A   1      41.705  28.148  28.151  1.00  0.00     0.031 A 
ATOM     65  C   UNL A   1      39.873  26.866  29.042  1.00  0.00     0.131 A 
ATOM     66  C   UNL A   1      41.634  27.385  26.975  1.00  0.00     0.055 A 
ATOM     67  C   UNL A   1      39.877  26.044  27.912  1.00  0.00     0.041 A 
ATOM     68  F   UNL A   1      38.948  26.619  29.983  1.00  0.00    -0.206 F 
ATOM     69  C   UNL A   1      40.745  26.316  26.860  1.00  0.00     0.022 A 
BRANCH  66  70
ATOM     70  S   UNL A   1      42.576  27.945  25.529  1.00  0.00     0.124 S 
ATOM     71  O   UNL A   1      41.740  29.038  25.037  1.00  0.00    -0.237 OA
ATOM     72  O   UNL A   1      43.854  28.333  26.115  1.00  0.00    -0.237 OA
ATOM     73  O   UNL A   1      42.614  26.766  24.667  1.00  0.00    -0.744 OA
ENDBRANCH  66  70
ENDBRANCH  49  63
BRANCH  50  74
ATOM     74  C   UNL A   1      39.613  34.080  37.017  1.00  0.00     0.023 A 
ATOM     75  C   UNL A   1      39.039  33.609  38.208  1.00  0.00     0.031 A 
ATOM     76  C   UNL A   1      40.003  35.431  36.960  1.00  0.00     0.131 A 
ATOM     77  C   UNL A   1      38.842  34.488  39.283  1.00  0.00     0.055 A 
ATOM     78  C   UNL A   1      39.851  36.288  38.051  1.00  0.00     0.041 A 
ATOM     79  F   UNL A   1      40.562  35.930  35.846  1.00  0.00    -0.206 F 
ATOM     80  C   UNL A   1      39.258  35.820  39.218  1.00  0.00     0.022 A 
BRANCH  77  81
ATOM     81  S   UNL A   1      37.972  33.878  40.754  1.00  0.00     0.124 S 
ATOM     82  O   UNL A   1      36.847  33.167  40.159  1.00  0.00    -0.237 OA
ATOM     83  O   UNL A   1      38.993  33.052  41.389  1.00  0.00    -0.237 OA
ATOM     84  O   UNL A   1      37.627  35.101  41.475  1.00  0.00    -0.744 OA
ENDBRANCH  77  81
ENDBRANCH  50  74
BRANCH  62  85
ATOM     85  C   UNL A   1      44.114  28.951  35.562  1.00  0.00     0.023 A 
ATOM     86  C   UNL A   1      43.985  27.865  36.447  1.00  0.00     0.031 A 
ATOM     87  C   UNL A   1      45.391  29.523  35.404  1.00  0.00     0.131 A 
ATOM     88  C   UNL A   1      45.096  27.427  37.184  1.00  0.00     0.055 A 
ATOM     89  C   UNL A   1      46.506  29.038  36.089  1.00  0.00     0.041 A 
ATOM     90  F   UNL A   1      45.575  30.566  34.579  1.00  0.00    -0.206 F 
ATOM     91  C   UNL A   1      46.359  27.993  36.996  1.00  0.00     0.022 A 
BRANCH  88  92
ATOM     92  S   UNL A   1      44.847  26.176  38.474  1.00  0.00     0.124 S 
ATOM     93  O   UNL A   1      44.890  24.936  37.705  1.00  0.00    -0.237 OA
ATOM     94  O   UNL A   1      45.980  26.413  39.363  1.00  0.00    -0.237 OA
ATOM     95  O   UNL A   1      43.540  26.513  39.032  1.00  0.00    -0.744 OA
ENDBRANCH  88  92
ENDBRANCH  62  85
ENDBRANCH  36  37
ENDBRANCH  28  31
ENDBRANCH  26  27
ENDBRANCH  25  26
ENDBRANCH  24  25
ENDBRANCH   3  24
TORSDOF 19
ENDMDL
MODEL 2
REMARK VINA RESULT:     -11.2      2.223      2.983
REMARK SMILES O=C(CCCNC(=O)N1CC[C@@H](C(=O)NCCCNC(=O)c2ccc(-c3c4nc(c(-c5cc(S(=O)(=O)[O-])ccc5F)c5ccc([nH]5)c(-c5cc(S(=O)(=O)[O-])ccc5F)c5nc(c(-c6cc(S(=O)(=O)[O-])ccc6F)c6ccc3[nH]6)C=C5)C=C4)cc2)C1)NC1CC1
REMARK SMILES IDX 13 1 14 2 15 3 12 5 9 6 10 7 85 8 11 9 7 10 6 11 8 13 5 14
REMARK SMILES IDX 4 15 3 16 2 17 1 18 86 19 87 21 88 22 89 23 16 24 17 25
REMARK SMILES IDX 18 26 19 27 20 28 21 30 22 31 23 32 84 33 24 34 83 35 25 36
REMARK SMILES IDX 26 37 27 38 77 39 28 40 82 41 76 42 78 43 29 44 81 45 75 46
REMARK SMILES IDX 74 47 30 49 62 50 42 51 61 52 43 53 46 54 60 55 79 56 44 57
REMARK SMILES IDX 45 58 59 60 80 61 47 62 31 63 32 64 40 65 33 66 39 67 41 68
REMARK SMILES IDX 38 69 34 70 35 71 36 72 37 73 63 74 64 75 72 76 65 77 71 78
REMARK SMILES IDX 73 79 70 80 66 81 67 82 68 83 69 84 48 85 49 86 57 87 50 88
REMARK SMILES IDX 56 89 58 90 55 91 51 92 52 93 53 94 54 95
REMARK H PARENT 15 4 6 12 86 20 19 29 78 48 46 59
REMARK Flexibility Score: inf
ROOT
ATOM      1  C   UNL A   1      30.620  26.256  26.022  1.00  0.00     0.224 C 
ATOM      2  O   UNL A   1      29.702  25.474  26.270  1.00  0.00    -0.275 OA
ATOM      3  N   UNL A   1      31.370  26.723  27.057  1.00  0.00    -0.356 N 
ATOM      4  H   UNL A   1      31.190  26.299  27.927  1.00  0.00     0.163 HD
ENDROOT
BRANCH   1   5
ATOM      5  C   UNL A   1      30.974  26.654  24.606  1.00  0.00     0.100 C 
ATOM      6  N   UNL A   1      32.043  25.176  23.104  1.00  0.00    -0.324 N 
ATOM      7  C   UNL A   1      30.644  24.793  23.128  1.00  0.00     0.122 C 
ATOM      8  C   UNL A   1      32.329  26.036  24.236  1.00  0.00     0.134 C 
ATOM      9  C   UNL A   1      29.977  26.072  23.591  1.00  0.00     0.037 C 
BRANCH   6  10
ATOM     10  C   UNL A   1      33.032  24.682  22.319  1.00  0.00     0.317 C 
ATOM     11  N   UNL A   1      33.734  23.606  22.752  1.00  0.00    -0.338 N 
ATOM     12  H   UNL A   1      34.653  23.515  22.408  1.00  0.00     0.165 HD
ATOM     13  O   UNL A   1      33.279  25.117  21.196  1.00  0.00    -0.249 OA
BRANCH  11  14
ATOM     14  C   UNL A   1      33.282  22.571  23.668  1.00  0.00     0.118 C 
BRANCH  14  15
ATOM     15  C   UNL A   1      34.416  21.994  24.516  1.00  0.00     0.031 C 
BRANCH  15  16
ATOM     16  C   UNL A   1      33.986  21.086  25.664  1.00  0.00     0.102 C 
BRANCH  16  17
ATOM     17  C   UNL A   1      33.234  19.864  25.187  1.00  0.00     0.220 C 
ATOM     18  O   UNL A   1      32.011  19.853  25.087  1.00  0.00    -0.275 OA
ATOM     19  N   UNL A   1      34.046  18.787  24.895  1.00  0.00    -0.353 N 
ATOM     20  H   UNL A   1      35.020  18.892  24.999  1.00  0.00     0.163 HD
BRANCH  19  21
ATOM     21  C   UNL A   1      33.540  17.529  24.451  1.00  0.00     0.082 C 
ATOM     22  C   UNL A   1      34.020  16.943  23.151  1.00  0.00     0.027 C 
ATOM     23  C   UNL A   1      34.419  16.308  24.451  1.00  0.00     0.027 C 
ENDBRANCH  19  21
ENDBRANCH  16  17
ENDBRANCH  15  16
ENDBRANCH  14  15
ENDBRANCH  11  14
ENDBRANCH   6  10
ENDBRANCH   1   5
BRANCH   3  24
ATOM     24  C   UNL A   1      32.394  27.753  27.074  1.00  0.00     0.117 C 
BRANCH  24  25
ATOM     25  C   UNL A   1      31.784  29.149  26.986  1.00  0.00     0.042 C 
BRANCH  25  26
ATOM     26  C   UNL A   1      32.507  30.075  26.006  1.00  0.00     0.118 C 
BRANCH  26  27
ATOM     27  N   UNL A   1      32.334  31.482  26.340  1.00  0.00    -0.352 N 
ATOM     28  C   UNL A   1      33.014  32.272  27.231  1.00  0.00     0.251 C 
ATOM     29  H   UNL A   1      31.616  31.939  25.847  1.00  0.00     0.163 HD
ATOM     30  O   UNL A   1      32.561  33.381  27.513  1.00  0.00    -0.269 OA
BRANCH  28  31
ATOM     31  C   UNL A   1      34.262  31.795  27.863  1.00  0.00     0.039 A 
ATOM     32  C   UNL A   1      35.331  32.684  28.005  1.00  0.00     0.014 A 
ATOM     33  C   UNL A   1      34.392  30.472  28.294  1.00  0.00     0.014 A 
ATOM     34  C   UNL A   1      36.502  32.265  28.641  1.00  0.00     0.010 A 
ATOM     35  C   UNL A   1      35.527  30.081  29.002  1.00  0.00     0.010 A 
ATOM     36  C   UNL A   1      36.595  30.972  29.181  1.00  0.00    -0.014 A 
BRANCH  36  37
ATOM     37  C   UNL A   1      37.797  30.538  29.940  1.00  0.00     0.031 A 
ATOM     38  C   UNL A   1      38.782  29.582  29.324  1.00  0.00     0.074 A 
ATOM     39  C   UNL A   1      37.970  30.957  31.209  1.00  0.00     0.049 A 
ATOM     40  N   UNL A   1      39.853  29.043  29.846  1.00  0.00    -0.248 NA
ATOM     41  C   UNL A   1      38.504  29.155  27.946  1.00  0.00     0.031 C 
ATOM     42  C   UNL A   1      37.069  31.859  31.930  1.00  0.00     0.029 A 
ATOM     43  N   UNL A   1      38.960  30.683  32.118  1.00  0.00    -0.354 N 
ATOM     44  C   UNL A   1      40.372  28.204  28.866  1.00  0.00     0.074 A 
ATOM     45  C   UNL A   1      39.451  28.252  27.750  1.00  0.00     0.031 C 
ATOM     46  C   UNL A   1      37.568  32.093  33.153  1.00  0.00     0.029 A 
ATOM     47  C   UNL A   1      38.793  31.318  33.326  1.00  0.00     0.049 A 
ATOM     48  H   UNL A   1      39.719  30.087  31.924  1.00  0.00     0.167 HD
ATOM     49  C   UNL A   1      41.523  27.483  28.884  1.00  0.00     0.034 A 
ATOM     50  C   UNL A   1      39.534  31.276  34.450  1.00  0.00     0.034 A 
ATOM     51  C   UNL A   1      42.424  27.443  30.011  1.00  0.00     0.049 A 
ATOM     52  C   UNL A   1      40.774  30.420  34.473  1.00  0.00     0.074 A 
ATOM     53  C   UNL A   1      43.638  26.787  30.124  1.00  0.00     0.029 A 
ATOM     54  N   UNL A   1      42.204  28.072  31.232  1.00  0.00    -0.354 N 
ATOM     55  N   UNL A   1      41.281  29.671  33.522  1.00  0.00    -0.248 NA
ATOM     56  C   UNL A   1      41.545  30.413  35.722  1.00  0.00     0.031 C 
ATOM     57  C   UNL A   1      44.106  26.947  31.433  1.00  0.00     0.029 A 
ATOM     58  C   UNL A   1      43.235  27.782  32.114  1.00  0.00     0.049 A 
ATOM     59  H   UNL A   1      41.426  28.641  31.440  1.00  0.00     0.167 HD
ATOM     60  C   UNL A   1      42.450  29.128  34.048  1.00  0.00     0.074 A 
ATOM     61  C   UNL A   1      42.575  29.646  35.395  1.00  0.00     0.031 C 
ATOM     62  C   UNL A   1      43.342  28.284  33.466  1.00  0.00     0.034 A 
BRANCH  49  63
ATOM     63  C   UNL A   1      41.836  26.655  27.656  1.00  0.00     0.023 A 
ATOM     64  C   UNL A   1      41.641  25.262  27.638  1.00  0.00     0.031 A 
ATOM     65  C   UNL A   1      42.397  27.250  26.513  1.00  0.00     0.131 A 
ATOM     66  C   UNL A   1      42.106  24.501  26.554  1.00  0.00     0.055 A 
ATOM     67  C   UNL A   1      42.763  26.498  25.393  1.00  0.00     0.041 A 
ATOM     68  F   UNL A   1      42.629  28.572  26.472  1.00  0.00    -0.206 F 
ATOM     69  C   UNL A   1      42.640  25.113  25.419  1.00  0.00     0.022 A 
BRANCH  66  70
ATOM     70  S   UNL A   1      42.191  22.699  26.741  1.00  0.00     0.124 S 
ATOM     71  O   UNL A   1      43.541  22.520  27.270  1.00  0.00    -0.237 OA
ATOM     72  O   UNL A   1      41.101  22.427  27.671  1.00  0.00    -0.237 OA
ATOM     73  O   UNL A   1      41.993  22.203  25.381  1.00  0.00    -0.744 OA
ENDBRANCH  66  70
ENDBRANCH  49  63
BRANCH  50  74
ATOM     74  C   UNL A   1      39.129  32.070  35.644  1.00  0.00     0.023 A 
ATOM     75  C   UNL A   1      38.410  31.475  36.692  1.00  0.00     0.031 A 
ATOM     76  C   UNL A   1      39.443  33.437  35.750  1.00  0.00     0.131 A 
ATOM     77  C   UNL A   1      38.001  32.252  37.787  1.00  0.00     0.055 A 
ATOM     78  C   UNL A   1      39.078  34.192  36.865  1.00  0.00     0.041 A 
ATOM     79  F   UNL A   1      40.134  34.053  34.778  1.00  0.00    -0.206 F 
ATOM     80  C   UNL A   1      38.343  33.602  37.888  1.00  0.00     0.022 A 
BRANCH  77  81
ATOM     81  S   UNL A   1      36.956  31.482  39.054  1.00  0.00     0.124 S 
ATOM     82  O   UNL A   1      36.754  30.148  38.502  1.00  0.00    -0.237 OA
ATOM     83  O   UNL A   1      37.803  31.566  40.239  1.00  0.00    -0.237 OA
ATOM     84  O   UNL A   1      35.769  32.334  39.079  1.00  0.00    -0.744 OA
ENDBRANCH  77  81
ENDBRANCH  50  74
BRANCH  62  85
ATOM     85  C   UNL A   1      44.558  27.904  34.278  1.00  0.00     0.023 A 
ATOM     86  C   UNL A   1      44.581  26.757  35.092  1.00  0.00     0.031 A 
ATOM     87  C   UNL A   1      45.710  28.711  34.246  1.00  0.00     0.131 A 
ATOM     88  C   UNL A   1      45.707  26.483  35.884  1.00  0.00     0.055 A 
ATOM     89  C   UNL A   1      46.853  28.395  34.983  1.00  0.00     0.041 A 
ATOM     90  F   UNL A   1      45.746  29.822  33.493  1.00  0.00    -0.206 F 
ATOM     91  C   UNL A   1      46.850  27.283  35.819  1.00  0.00     0.022 A 
BRANCH  88  92
ATOM     92  S   UNL A   1      45.619  25.124  37.082  1.00  0.00     0.124 S 
ATOM     93  O   UNL A   1      44.185  25.032  37.331  1.00  0.00    -0.237 OA
ATOM     94  O   UNL A   1      46.210  24.015  36.340  1.00  0.00    -0.237 OA
ATOM     95  O   UNL A   1      46.414  25.609  38.209  1.00  0.00    -0.744 OA
ENDBRANCH  88  92
ENDBRANCH  62  85
ENDBRANCH  36  37
ENDBRANCH  28  31
ENDBRANCH  26  27
ENDBRANCH  25  26
ENDBRANCH  24  25
ENDBRANCH   3  24
TORSDOF 19
ENDMDL
MODEL 3
REMARK VINA RESULT:     -11.2      6.386     11.598
REMARK SMILES O=C(CCCNC(=O)N1CC[C@@H](C(=O)NCCCNC(=O)c2ccc(-c3c4nc(c(-c5cc(S(=O)(=O)[O-])ccc5F)c5ccc([nH]5)c(-c5cc(S(=O)(=O)[O-])ccc5F)c5nc(c(-c6cc(S(=O)(=O)[O-])ccc6F)c6ccc3[nH]6)C=C5)C=C4)cc2)C1)NC1CC1
REMARK SMILES IDX 13 1 14 2 15 3 12 5 9 6 10 7 85 8 11 9 7 10 6 11 8 13 5 14
REMARK SMILES IDX 4 15 3 16 2 17 1 18 86 19 87 21 88 22 89 23 16 24 17 25
REMARK SMILES IDX 18 26 19 27 20 28 21 30 22 31 23 32 84 33 24 34 83 35 25 36
REMARK SMILES IDX 26 37 27 38 77 39 28 40 82 41 76 42 78 43 29 44 81 45 75 46
REMARK SMILES IDX 74 47 30 49 62 50 42 51 61 52 43 53 46 54 60 55 79 56 44 57
REMARK SMILES IDX 45 58 59 60 80 61 47 62 31 63 32 64 40 65 33 66 39 67 41 68
REMARK SMILES IDX 38 69 34 70 35 71 36 72 37 73 63 74 64 75 72 76 65 77 71 78
REMARK SMILES IDX 73 79 70 80 66 81 67 82 68 83 69 84 48 85 49 86 57 87 50 88
REMARK SMILES IDX 56 89 58 90 55 91 51 92 52 93 53 94 54 95
REMARK H PARENT 15 4 6 12 86 20 19 29 78 48 46 59
REMARK Flexibility Score: inf
ROOT
ATOM      1  C   UNL A   1      36.231  23.081  25.689  1.00  0.00     0.224 C 
ATOM      2  O   UNL A   1      36.733  24.021  26.305  1.00  0.00    -0.275 OA
ATOM      3  N   UNL A   1      36.833  21.863  25.765  1.00  0.00    -0.356 N 
ATOM      4  H   UNL A   1      37.570  21.801  26.414  1.00  0.00     0.163 HD
ENDROOT
BRANCH   1   5
ATOM      5  C   UNL A   1      34.942  23.227  24.911  1.00  0.00     0.100 C 
ATOM      6  N   UNL A   1      32.938  23.977  25.912  1.00  0.00    -0.324 N 
ATOM      7  C   UNL A   1      33.743  25.159  25.676  1.00  0.00     0.122 C 
ATOM      8  C   UNL A   1      33.769  22.794  25.801  1.00  0.00     0.134 C 
ATOM      9  C   UNL A   1      34.659  24.698  24.562  1.00  0.00     0.037 C 
BRANCH   6  10
ATOM     10  C   UNL A   1      31.667  23.910  26.380  1.00  0.00     0.317 C 
ATOM     11  N   UNL A   1      30.643  24.178  25.532  1.00  0.00    -0.338 N 
ATOM     12  H   UNL A   1      29.813  24.516  25.940  1.00  0.00     0.165 HD
ATOM     13  O   UNL A   1      31.389  23.547  27.522  1.00  0.00    -0.249 OA
BRANCH  11  14
ATOM     14  C   UNL A   1      30.634  24.021  24.086  1.00  0.00     0.118 C 
BRANCH  14  15
ATOM     15  C   UNL A   1      31.026  25.302  23.349  1.00  0.00     0.031 C 
BRANCH  15  16
ATOM     16  C   UNL A   1      30.512  26.600  23.965  1.00  0.00     0.102 C 
BRANCH  16  17
ATOM     17  C   UNL A   1      30.034  27.587  22.924  1.00  0.00     0.220 C 
ATOM     18  O   UNL A   1      30.571  27.682  21.825  1.00  0.00    -0.275 OA
ATOM     19  N   UNL A   1      28.964  28.357  23.334  1.00  0.00    -0.353 N 
ATOM     20  H   UNL A   1      28.594  28.205  24.233  1.00  0.00     0.163 HD
BRANCH  19  21
ATOM     21  C   UNL A   1      28.372  29.365  22.515  1.00  0.00     0.082 C 
ATOM     22  C   UNL A   1      27.649  30.520  23.151  1.00  0.00     0.027 C 
ATOM     23  C   UNL A   1      28.960  30.747  22.458  1.00  0.00     0.027 C 
ENDBRANCH  19  21
ENDBRANCH  16  17
ENDBRANCH  15  16
ENDBRANCH  14  15
ENDBRANCH  11  14
ENDBRANCH   6  10
ENDBRANCH   1   5
BRANCH   3  24
ATOM     24  C   UNL A   1      36.555  20.640  25.032  1.00  0.00     0.117 C 
BRANCH  24  25
ATOM     25  C   UNL A   1      37.770  19.717  25.002  1.00  0.00     0.042 C 
BRANCH  25  26
ATOM     26  C   UNL A   1      38.970  20.255  25.782  1.00  0.00     0.118 C 
BRANCH  26  27
ATOM     27  N   UNL A   1      40.041  19.275  25.902  1.00  0.00    -0.352 N 
ATOM     28  C   UNL A   1      41.390  19.452  26.076  1.00  0.00     0.251 C 
ATOM     29  H   UNL A   1      39.750  18.336  25.850  1.00  0.00     0.163 HD
ATOM     30  O   UNL A   1      42.142  18.488  25.934  1.00  0.00    -0.269 OA
BRANCH  28  31
ATOM     31  C   UNL A   1      41.939  20.784  26.408  1.00  0.00     0.039 A 
ATOM     32  C   UNL A   1      42.202  21.684  25.372  1.00  0.00     0.014 A 
ATOM     33  C   UNL A   1      42.219  21.139  27.730  1.00  0.00     0.014 A 
ATOM     34  C   UNL A   1      42.678  22.963  25.669  1.00  0.00     0.010 A 
ATOM     35  C   UNL A   1      42.614  22.441  28.030  1.00  0.00     0.010 A 
ATOM     36  C   UNL A   1      42.850  23.367  27.003  1.00  0.00    -0.014 A 
BRANCH  36  37
ATOM     37  C   UNL A   1      43.270  24.752  27.341  1.00  0.00     0.031 A 
ATOM     38  C   UNL A   1      42.295  25.711  27.967  1.00  0.00     0.074 A 
ATOM     39  C   UNL A   1      44.514  25.165  27.029  1.00  0.00     0.049 A 
ATOM     40  N   UNL A   1      42.454  26.972  28.277  1.00  0.00    -0.248 NA
ATOM     41  C   UNL A   1      40.952  25.187  28.251  1.00  0.00     0.031 C 
ATOM     42  C   UNL A   1      45.541  24.339  26.391  1.00  0.00     0.029 A 
ATOM     43  N   UNL A   1      45.127  26.379  27.203  1.00  0.00    -0.354 N 
ATOM     44  C   UNL A   1      41.230  27.397  28.783  1.00  0.00     0.074 A 
ATOM     45  C   UNL A   1      40.322  26.275  28.663  1.00  0.00     0.031 C 
ATOM     46  C   UNL A   1      46.666  25.058  26.264  1.00  0.00     0.029 A 
ATOM     47  C   UNL A   1      46.428  26.411  26.759  1.00  0.00     0.049 A 
ATOM     48  H   UNL A   1      44.678  27.157  27.608  1.00  0.00     0.167 HD
ATOM     49  C   UNL A   1      40.902  28.599  29.322  1.00  0.00     0.034 A 
ATOM     50  C   UNL A   1      47.326  27.415  26.742  1.00  0.00     0.034 A 
ATOM     51  C   UNL A   1      41.822  29.707  29.425  1.00  0.00     0.049 A 
ATOM     52  C   UNL A   1      46.924  28.761  27.288  1.00  0.00     0.074 A 
ATOM     53  C   UNL A   1      41.614  30.952  29.993  1.00  0.00     0.029 A 
ATOM     54  N   UNL A   1      43.123  29.713  28.933  1.00  0.00    -0.354 N 
ATOM     55  N   UNL A   1      45.779  29.134  27.810  1.00  0.00    -0.248 NA
ATOM     56  C   UNL A   1      47.941  29.818  27.247  1.00  0.00     0.031 C 
ATOM     57  C   UNL A   1      42.752  31.735  29.769  1.00  0.00     0.029 A 
ATOM     58  C   UNL A   1      43.710  30.953  29.144  1.00  0.00     0.049 A 
ATOM     59  H   UNL A   1      43.562  28.948  28.495  1.00  0.00     0.167 HD
ATOM     60  C   UNL A   1      45.950  30.463  28.189  1.00  0.00     0.074 A 
ATOM     61  C   UNL A   1      47.312  30.818  27.846  1.00  0.00     0.031 C 
ATOM     62  C   UNL A   1      45.063  31.308  28.777  1.00  0.00     0.034 A 
BRANCH  49  63
ATOM     63  C   UNL A   1      39.477  28.773  29.801  1.00  0.00     0.023 A 
ATOM     64  C   UNL A   1      38.460  29.224  28.939  1.00  0.00     0.031 A 
ATOM     65  C   UNL A   1      39.140  28.551  31.148  1.00  0.00     0.131 A 
ATOM     66  C   UNL A   1      37.195  29.545  29.453  1.00  0.00     0.055 A 
ATOM     67  C   UNL A   1      37.848  28.774  31.632  1.00  0.00     0.041 A 
ATOM     68  F   UNL A   1      40.067  28.141  32.028  1.00  0.00    -0.206 F 
ATOM     69  C   UNL A   1      36.873  29.297  30.788  1.00  0.00     0.022 A 
BRANCH  66  70
ATOM     70  S   UNL A   1      36.051  30.481  28.400  1.00  0.00     0.124 S 
ATOM     71  O   UNL A   1      36.976  31.222  27.546  1.00  0.00    -0.237 OA
ATOM     72  O   UNL A   1      35.287  29.424  27.747  1.00  0.00    -0.237 OA
ATOM     73  O   UNL A   1      35.302  31.300  29.351  1.00  0.00    -0.744 OA
ENDBRANCH  66  70
ENDBRANCH  49  63
BRANCH  50  74
ATOM     74  C   UNL A   1      48.694  27.187  26.196  1.00  0.00     0.023 A 
ATOM     75  C   UNL A   1      48.984  27.457  24.850  1.00  0.00     0.031 A 
ATOM     76  C   UNL A   1      49.727  26.684  27.008  1.00  0.00     0.131 A 
ATOM     77  C   UNL A   1      50.267  27.194  24.346  1.00  0.00     0.055 A 
ATOM     78  C   UNL A   1      51.015  26.473  26.514  1.00  0.00     0.041 A 
ATOM     79  F   UNL A   1      49.503  26.415  28.304  1.00  0.00    -0.206 F 
ATOM     80  C   UNL A   1      51.288  26.719  25.172  1.00  0.00     0.022 A 
BRANCH  77  81
ATOM     81  S   UNL A   1      50.566  27.425  22.573  1.00  0.00     0.124 S 
ATOM     82  O   UNL A   1      51.887  26.825  22.415  1.00  0.00    -0.237 OA
ATOM     83  O   UNL A   1      49.453  26.693  21.978  1.00  0.00    -0.237 OA
ATOM     84  O   UNL A   1      50.515  28.875  22.405  1.00  0.00    -0.744 OA
ENDBRANCH  77  81
ENDBRANCH  50  74
BRANCH  62  85
ATOM     85  C   UNL A   1      45.560  32.692  29.123  1.00  0.00     0.023 A 
ATOM     86  C   UNL A   1      45.464  33.765  28.218  1.00  0.00     0.031 A 
ATOM     87  C   UNL A   1      46.150  32.939  30.376  1.00  0.00     0.131 A 
ATOM     88  C   UNL A   1      46.004  35.016  28.556  1.00  0.00     0.055 A 
ATOM     89  C   UNL A   1      46.623  34.203  30.733  1.00  0.00     0.041 A 
ATOM     90  F   UNL A   1      46.276  31.953  31.279  1.00  0.00    -0.206 F 
ATOM     91  C   UNL A   1      46.564  35.246  29.815  1.00  0.00     0.022 A 
BRANCH  88  92
ATOM     92  S   UNL A   1      46.061  36.311  27.288  1.00  0.00     0.124 S 
ATOM     93  O   UNL A   1      47.468  36.696  27.310  1.00  0.00    -0.237 OA
ATOM     94  O   UNL A   1      45.613  35.600  26.095  1.00  0.00    -0.237 OA
ATOM     95  O   UNL A   1      45.134  37.324  27.790  1.00  0.00    -0.744 OA
ENDBRANCH  88  92
ENDBRANCH  62  85
ENDBRANCH  36  37
ENDBRANCH  28  31
ENDBRANCH  26  27
ENDBRANCH  25  26
ENDBRANCH  24  25
ENDBRANCH   3  24
TORSDOF 19
ENDMDL
