MODEL 1
REMARK VINA RESULT:     -12.6      0.000      0.000
REMARK SMILES CC[C@@](C)(Nc1cc([N+](=O)[O-])ccc1C)C(=O)NCCCNC(=O)c1ccc(-c2c3nc(c(-c4cc(S(=O)(=O)[O-])ccc4F)c4ccc([nH]4)c(-c4cc(S(=O)(=O)[O-])ccc4F)c4nc(c(-c5cc(S(=O)(=O)[O-])ccc5F)c5ccc2[nH]5)C=C4)C=C3)cc1
REMARK SMILES IDX 20 1 19 2 18 3 16 4 17 5 3 7 4 8 2 9 1 10 5 11 6 13 7 14
REMARK SMILES IDX 14 15 8 16 13 17 15 18 12 19 9 20 10 21 11 22 21 23 22 24
REMARK SMILES IDX 23 25 24 27 25 28 26 29 87 30 27 31 86 32 28 33 29 34 30 35
REMARK SMILES IDX 80 36 31 37 85 38 79 39 81 40 32 41 84 42 78 43 77 44 33 46
REMARK SMILES IDX 65 47 45 48 64 49 46 50 49 51 63 52 82 53 47 54 48 55 62 57
REMARK SMILES IDX 83 58 50 59 34 60 35 61 43 62 36 63 42 64 44 65 41 66 37 67
REMARK SMILES IDX 38 68 39 69 40 70 66 71 67 72 75 73 68 74 74 75 76 76 73 77
REMARK SMILES IDX 69 78 70 79 71 80 72 81 51 82 52 83 60 84 53 85 59 86 61 87
REMARK SMILES IDX 58 88 54 89 55 90 56 91 57 92
REMARK H PARENT 18 6 5 12 22 26 81 45 49 56
REMARK Flexibility Score: inf
ROOT
ATOM      1  C   UNL A   1      32.960  31.209  27.231  1.00  0.00     0.042 C 
ENDROOT
BRANCH   1   2
ATOM      2  C   UNL A   1      32.184  30.438  26.144  1.00  0.00     0.117 C 
BRANCH   2   3
ATOM      3  N   UNL A   1      31.634  29.127  26.486  1.00  0.00    -0.354 N 
ATOM      4  C   UNL A   1      31.667  27.854  25.987  1.00  0.00     0.245 C 
ATOM      5  O   UNL A   1      31.175  26.996  26.742  1.00  0.00    -0.272 OA
ATOM      6  H   UNL A   1      31.086  29.175  27.302  1.00  0.00     0.163 HD
BRANCH   4   7
ATOM      7  C   UNL A   1      32.212  27.401  24.579  1.00  0.00     0.113 C 
ATOM      8  C   UNL A   1      33.588  27.969  24.208  1.00  0.00     0.045 C 
BRANCH   7   9
ATOM      9  C   UNL A   1      32.346  25.831  24.618  1.00  0.00     0.035 C 
ATOM     10  C   UNL A   1      33.625  25.287  25.258  1.00  0.00     0.007 C 
ENDBRANCH   7   9
BRANCH   7  11
ATOM     11  N   UNL A   1      31.322  27.695  23.385  1.00  0.00    -0.371 N 
ATOM     12  H   UNL A   1      31.695  27.426  22.514  1.00  0.00     0.161 HD
BRANCH  11  13
ATOM     13  C   UNL A   1      30.067  28.279  23.325  1.00  0.00     0.045 A 
ATOM     14  C   UNL A   1      29.962  29.676  23.224  1.00  0.00     0.111 A 
ATOM     15  C   UNL A   1      28.853  27.594  23.455  1.00  0.00    -0.027 A 
ATOM     16  C   UNL A   1      28.703  30.311  23.162  1.00  0.00     0.271 A 
ATOM     17  C   UNL A   1      27.610  28.203  23.197  1.00  0.00     0.012 A 
ATOM     18  C   UNL A   1      28.767  26.262  24.117  1.00  0.00     0.046 C 
ATOM     19  C   UNL A   1      27.527  29.573  23.056  1.00  0.00     0.086 A 
BRANCH  16  20
ATOM     20  N   UNL A   1      28.605  31.762  23.337  1.00  0.00     0.062 N 
ATOM     21  O   UNL A   1      29.384  32.305  24.134  1.00  0.00    -0.258 OA
ATOM     22  O   UNL A   1      27.709  32.361  22.721  1.00  0.00    -0.258 OA
ENDBRANCH  16  20
ENDBRANCH  11  13
ENDBRANCH   7  11
ENDBRANCH   4   7
ENDBRANCH   2   3
ENDBRANCH   1   2
BRANCH   1  23
ATOM     23  C   UNL A   1      34.264  30.596  27.753  1.00  0.00     0.118 C 
BRANCH  23  24
ATOM     24  N   UNL A   1      34.836  31.383  28.860  1.00  0.00    -0.352 N 
ATOM     25  C   UNL A   1      36.027  31.218  29.532  1.00  0.00     0.251 C 
ATOM     26  H   UNL A   1      34.283  32.139  29.165  1.00  0.00     0.163 HD
ATOM     27  O   UNL A   1      36.417  32.033  30.368  1.00  0.00    -0.269 OA
BRANCH  25  28
ATOM     28  C   UNL A   1      36.897  30.086  29.167  1.00  0.00     0.039 A 
ATOM     29  C   UNL A   1      37.115  29.090  30.125  1.00  0.00     0.014 A 
ATOM     30  C   UNL A   1      37.629  30.115  27.983  1.00  0.00     0.014 A 
ATOM     31  C   UNL A   1      38.223  28.258  30.000  1.00  0.00     0.010 A 
ATOM     32  C   UNL A   1      38.758  29.321  27.880  1.00  0.00     0.010 A 
ATOM     33  C   UNL A   1      39.093  28.451  28.926  1.00  0.00    -0.014 A 
BRANCH  33  34
ATOM     34  C   UNL A   1      40.444  27.900  28.916  1.00  0.00     0.031 A 
ATOM     35  C   UNL A   1      40.701  26.498  28.544  1.00  0.00     0.074 A 
ATOM     36  C   UNL A   1      41.477  28.675  29.313  1.00  0.00     0.049 A 
ATOM     37  N   UNL A   1      41.711  25.806  28.951  1.00  0.00    -0.248 NA
ATOM     38  C   UNL A   1      39.765  25.730  27.737  1.00  0.00     0.031 C 
ATOM     39  C   UNL A   1      42.902  28.382  29.211  1.00  0.00     0.029 A 
ATOM     40  N   UNL A   1      41.401  29.769  30.175  1.00  0.00    -0.354 N 
ATOM     41  C   UNL A   1      41.734  24.631  28.236  1.00  0.00     0.074 A 
ATOM     42  C   UNL A   1      40.437  24.583  27.599  1.00  0.00     0.031 C 
ATOM     43  C   UNL A   1      43.549  29.065  30.167  1.00  0.00     0.029 A 
ATOM     44  C   UNL A   1      42.546  29.715  30.991  1.00  0.00     0.049 A 
ATOM     45  H   UNL A   1      40.688  30.447  30.207  1.00  0.00     0.167 HD
ATOM     46  C   UNL A   1      42.902  23.929  28.153  1.00  0.00     0.034 A 
ATOM     47  C   UNL A   1      42.450  29.619  32.347  1.00  0.00     0.034 A 
ATOM     48  C   UNL A   1      43.914  24.459  29.077  1.00  0.00     0.049 A 
ATOM     49  C   UNL A   1      43.164  28.421  32.929  1.00  0.00     0.074 A 
ATOM     50  C   UNL A   1      45.059  25.222  28.907  1.00  0.00     0.029 A 
ATOM     51  N   UNL A   1      43.678  24.420  30.450  1.00  0.00    -0.354 N 
ATOM     52  N   UNL A   1      43.546  27.385  32.238  1.00  0.00    -0.248 NA
ATOM     53  C   UNL A   1      43.482  28.294  34.346  1.00  0.00     0.031 C 
ATOM     54  C   UNL A   1      45.486  25.673  30.185  1.00  0.00     0.029 A 
ATOM     55  C   UNL A   1      44.620  25.163  31.137  1.00  0.00     0.049 A 
ATOM     56  H   UNL A   1      42.939  23.928  30.874  1.00  0.00     0.167 HD
ATOM     57  C   UNL A   1      44.128  26.457  33.071  1.00  0.00     0.074 A 
ATOM     58  C   UNL A   1      44.081  27.091  34.379  1.00  0.00     0.031 C 
ATOM     59  C   UNL A   1      44.578  25.253  32.595  1.00  0.00     0.034 A 
BRANCH  46  60
ATOM     60  C   UNL A   1      43.251  22.952  27.032  1.00  0.00     0.023 A 
ATOM     61  C   UNL A   1      42.685  21.654  27.050  1.00  0.00     0.031 A 
ATOM     62  C   UNL A   1      44.172  23.171  25.988  1.00  0.00     0.131 A 
ATOM     63  C   UNL A   1      43.105  20.644  26.157  1.00  0.00     0.055 A 
ATOM     64  C   UNL A   1      44.615  22.161  25.120  1.00  0.00     0.041 A 
ATOM     65  F   UNL A   1      44.667  24.379  25.708  1.00  0.00    -0.206 F 
ATOM     66  C   UNL A   1      44.093  20.885  25.210  1.00  0.00     0.022 A 
BRANCH  63  67
ATOM     67  S   UNL A   1      42.362  18.992  26.262  1.00  0.00     0.124 S 
ATOM     68  O   UNL A   1      41.004  19.231  25.785  1.00  0.00    -0.237 OA
ATOM     69  O   UNL A   1      43.228  18.208  25.389  1.00  0.00    -0.237 OA
ATOM     70  O   UNL A   1      42.466  18.663  27.684  1.00  0.00    -0.744 OA
ENDBRANCH  63  67
ENDBRANCH  46  60
BRANCH  47  71
ATOM     71  C   UNL A   1      41.223  30.255  32.903  1.00  0.00     0.023 A 
ATOM     72  C   UNL A   1      41.194  31.666  32.958  1.00  0.00     0.031 A 
ATOM     73  C   UNL A   1      40.005  29.572  33.005  1.00  0.00     0.131 A 
ATOM     74  C   UNL A   1      39.972  32.354  32.944  1.00  0.00     0.055 A 
ATOM     75  C   UNL A   1      38.787  30.264  33.053  1.00  0.00     0.041 A 
ATOM     76  F   UNL A   1      39.963  28.234  32.938  1.00  0.00    -0.206 F 
ATOM     77  C   UNL A   1      38.763  31.659  32.975  1.00  0.00     0.022 A 
BRANCH  74  78
ATOM     78  S   UNL A   1      40.007  34.140  32.616  1.00  0.00     0.124 S 
ATOM     79  O   UNL A   1      41.016  34.614  33.556  1.00  0.00    -0.237 OA
ATOM     80  O   UNL A   1      40.383  34.195  31.203  1.00  0.00    -0.237 OA
ATOM     81  O   UNL A   1      38.642  34.581  32.890  1.00  0.00    -0.744 OA
ENDBRANCH  74  78
ENDBRANCH  47  71
BRANCH  59  82
ATOM     82  C   UNL A   1      45.084  24.069  33.413  1.00  0.00     0.023 A 
ATOM     83  C   UNL A   1      46.390  23.947  33.914  1.00  0.00     0.031 A 
ATOM     84  C   UNL A   1      44.211  23.006  33.770  1.00  0.00     0.131 A 
ATOM     85  C   UNL A   1      46.795  22.823  34.664  1.00  0.00     0.055 A 
ATOM     86  C   UNL A   1      44.599  21.917  34.559  1.00  0.00     0.041 A 
ATOM     87  F   UNL A   1      42.927  22.979  33.379  1.00  0.00    -0.206 F 
ATOM     88  C   UNL A   1      45.904  21.813  35.005  1.00  0.00     0.022 A 
BRANCH  85  89
ATOM     89  S   UNL A   1      48.538  22.697  35.153  1.00  0.00     0.124 S 
ATOM     90  O   UNL A   1      48.947  21.455  34.502  1.00  0.00    -0.237 OA
ATOM     91  O   UNL A   1      49.107  23.921  34.596  1.00  0.00    -0.237 OA
ATOM     92  O   UNL A   1      48.486  22.645  36.612  1.00  0.00    -0.744 OA
ENDBRANCH  85  89
ENDBRANCH  59  82
ENDBRANCH  33  34
ENDBRANCH  25  28
ENDBRANCH  23  24
ENDBRANCH   1  23
TORSDOF 17
ENDMDL
MODEL 2
REMARK VINA RESULT:     -12.5      5.014     11.416
REMARK SMILES CC[C@@](C)(Nc1cc([N+](=O)[O-])ccc1C)C(=O)NCCCNC(=O)c1ccc(-c2c3nc(c(-c4cc(S(=O)(=O)[O-])ccc4F)c4ccc([nH]4)c(-c4cc(S(=O)(=O)[O-])ccc4F)c4nc(c(-c5cc(S(=O)(=O)[O-])ccc5F)c5ccc2[nH]5)C=C4)C=C3)cc1
REMARK SMILES IDX 20 1 19 2 18 3 16 4 17 5 3 7 4 8 2 9 1 10 5 11 6 13 7 14
REMARK SMILES IDX 14 15 8 16 13 17 15 18 12 19 9 20 10 21 11 22 21 23 22 24
REMARK SMILES IDX 23 25 24 27 25 28 26 29 87 30 27 31 86 32 28 33 29 34 30 35
REMARK SMILES IDX 80 36 31 37 85 38 79 39 81 40 32 41 84 42 78 43 77 44 33 46
REMARK SMILES IDX 65 47 45 48 64 49 46 50 49 51 63 52 82 53 47 54 48 55 62 57
REMARK SMILES IDX 83 58 50 59 34 60 35 61 43 62 36 63 42 64 44 65 41 66 37 67
REMARK SMILES IDX 38 68 39 69 40 70 66 71 67 72 75 73 68 74 74 75 76 76 73 77
REMARK SMILES IDX 69 78 70 79 71 80 72 81 51 82 52 83 60 84 53 85 59 86 61 87
REMARK SMILES IDX 58 88 54 89 55 90 56 91 57 92
REMARK H PARENT 18 6 5 12 22 26 81 45 49 56
REMARK Flexibility Score: inf
ROOT
ATOM      1  C   UNL A   1      37.979  21.686  25.360  1.00  0.00     0.042 C 
ENDROOT
BRANCH   1   2
ATOM      2  C   UNL A   1      36.499  21.280  25.512  1.00  0.00     0.117 C 
BRANCH   2   3
ATOM      3  N   UNL A   1      35.512  21.926  24.648  1.00  0.00    -0.354 N 
ATOM      4  C   UNL A   1      34.189  22.272  24.702  1.00  0.00     0.245 C 
ATOM      5  O   UNL A   1      33.810  22.992  23.762  1.00  0.00    -0.272 OA
ATOM      6  H   UNL A   1      35.911  22.184  23.786  1.00  0.00     0.163 HD
BRANCH   4   7
ATOM      7  C   UNL A   1      33.136  21.820  25.785  1.00  0.00     0.113 C 
ATOM      8  C   UNL A   1      33.725  21.514  27.168  1.00  0.00     0.045 C 
BRANCH   7   9
ATOM      9  C   UNL A   1      32.117  23.010  25.961  1.00  0.00     0.035 C 
ATOM     10  C   UNL A   1      30.665  22.610  26.228  1.00  0.00     0.007 C 
ENDBRANCH   7   9
BRANCH   7  11
ATOM     11  N   UNL A   1      32.284  20.614  25.435  1.00  0.00    -0.371 N 
ATOM     12  H   UNL A   1      31.372  20.629  25.807  1.00  0.00     0.161 HD
BRANCH  11  13
ATOM     13  C   UNL A   1      32.584  19.496  24.672  1.00  0.00     0.045 A 
ATOM     14  C   UNL A   1      33.308  18.442  25.253  1.00  0.00     0.111 A 
ATOM     15  C   UNL A   1      32.304  19.354  23.308  1.00  0.00    -0.027 A 
ATOM     16  C   UNL A   1      33.636  17.287  24.511  1.00  0.00     0.271 A 
ATOM     17  C   UNL A   1      32.456  18.129  22.630  1.00  0.00     0.012 A 
ATOM     18  C   UNL A   1      32.077  20.531  22.423  1.00  0.00     0.046 C 
ATOM     19  C   UNL A   1      33.133  17.086  23.228  1.00  0.00     0.086 A 
BRANCH  16  20
ATOM     20  N   UNL A   1      34.617  16.333  25.034  1.00  0.00     0.062 N 
ATOM     21  O   UNL A   1      34.227  15.187  25.302  1.00  0.00    -0.258 OA
ATOM     22  O   UNL A   1      35.771  16.741  25.234  1.00  0.00    -0.258 OA
ENDBRANCH  16  20
ENDBRANCH  11  13
ENDBRANCH   7  11
ENDBRANCH   4   7
ENDBRANCH   2   3
ENDBRANCH   1   2
BRANCH   1  23
ATOM     23  C   UNL A   1      38.450  22.961  26.068  1.00  0.00     0.118 C 
BRANCH  23  24
ATOM     24  N   UNL A   1      39.908  22.967  26.274  1.00  0.00    -0.352 N 
ATOM     25  C   UNL A   1      40.717  23.948  26.807  1.00  0.00     0.251 C 
ATOM     26  H   UNL A   1      40.375  22.149  25.987  1.00  0.00     0.163 HD
ATOM     27  O   UNL A   1      41.915  23.757  27.015  1.00  0.00    -0.269 OA
BRANCH  25  28
ATOM     28  C   UNL A   1      40.106  25.222  27.225  1.00  0.00     0.039 A 
ATOM     29  C   UNL A   1      40.439  26.376  26.507  1.00  0.00     0.014 A 
ATOM     30  C   UNL A   1      39.382  25.299  28.412  1.00  0.00     0.014 A 
ATOM     31  C   UNL A   1      40.245  27.622  27.095  1.00  0.00     0.010 A 
ATOM     32  C   UNL A   1      39.232  26.534  29.019  1.00  0.00     0.010 A 
ATOM     33  C   UNL A   1      39.735  27.682  28.394  1.00  0.00    -0.014 A 
BRANCH  33  34
ATOM     34  C   UNL A   1      39.849  28.882  29.215  1.00  0.00     0.031 A 
ATOM     35  C   UNL A   1      38.851  29.962  29.143  1.00  0.00     0.074 A 
ATOM     36  C   UNL A   1      40.926  29.033  30.017  1.00  0.00     0.049 A 
ATOM     37  N   UNL A   1      39.089  31.199  29.423  1.00  0.00    -0.248 NA
ATOM     38  C   UNL A   1      37.500  29.733  28.651  1.00  0.00     0.031 C 
ATOM     39  C   UNL A   1      41.142  30.056  31.035  1.00  0.00     0.029 A 
ATOM     40  N   UNL A   1      42.177  28.443  29.837  1.00  0.00    -0.354 N 
ATOM     41  C   UNL A   1      37.885  31.865  29.452  1.00  0.00     0.074 A 
ATOM     42  C   UNL A   1      36.959  30.941  28.839  1.00  0.00     0.031 C 
ATOM     43  C   UNL A   1      42.463  30.225  31.197  1.00  0.00     0.029 A 
ATOM     44  C   UNL A   1      43.131  29.411  30.199  1.00  0.00     0.049 A 
ATOM     45  H   UNL A   1      42.357  27.529  29.519  1.00  0.00     0.167 HD
ATOM     46  C   UNL A   1      37.800  33.048  30.129  1.00  0.00     0.034 A 
ATOM     47  C   UNL A   1      44.068  29.852  29.313  1.00  0.00     0.034 A 
ATOM     48  C   UNL A   1      39.128  33.536  30.528  1.00  0.00     0.049 A 
ATOM     49  C   UNL A   1      44.054  31.348  29.100  1.00  0.00     0.074 A 
ATOM     50  C   UNL A   1      39.805  33.584  31.737  1.00  0.00     0.029 A 
ATOM     51  N   UNL A   1      40.064  33.858  29.548  1.00  0.00    -0.354 N 
ATOM     52  N   UNL A   1      43.064  32.129  29.429  1.00  0.00    -0.248 NA
ATOM     53  C   UNL A   1      45.152  32.075  28.476  1.00  0.00     0.031 C 
ATOM     54  C   UNL A   1      41.165  33.900  31.471  1.00  0.00     0.029 A 
ATOM     55  C   UNL A   1      41.311  34.072  30.105  1.00  0.00     0.049 A 
ATOM     56  H   UNL A   1      39.864  33.926  28.588  1.00  0.00     0.167 HD
ATOM     57  C   UNL A   1      43.351  33.425  29.065  1.00  0.00     0.074 A 
ATOM     58  C   UNL A   1      44.684  33.335  28.493  1.00  0.00     0.031 C 
ATOM     59  C   UNL A   1      42.450  34.438  29.264  1.00  0.00     0.034 A 
BRANCH  46  60
ATOM     60  C   UNL A   1      36.509  33.629  30.702  1.00  0.00     0.023 A 
ATOM     61  C   UNL A   1      35.543  34.165  29.815  1.00  0.00     0.031 A 
ATOM     62  C   UNL A   1      36.192  33.779  32.067  1.00  0.00     0.131 A 
ATOM     63  C   UNL A   1      34.420  34.883  30.279  1.00  0.00     0.055 A 
ATOM     64  C   UNL A   1      35.094  34.519  32.531  1.00  0.00     0.041 A 
ATOM     65  F   UNL A   1      36.891  33.183  33.035  1.00  0.00    -0.206 F 
ATOM     66  C   UNL A   1      34.208  35.089  31.637  1.00  0.00     0.022 A 
BRANCH  63  67
ATOM     67  S   UNL A   1      33.243  35.573  29.084  1.00  0.00     0.124 S 
ATOM     68  O   UNL A   1      32.277  36.241  29.951  1.00  0.00    -0.237 OA
ATOM     69  O   UNL A   1      34.095  36.439  28.275  1.00  0.00    -0.237 OA
ATOM     70  O   UNL A   1      32.733  34.392  28.389  1.00  0.00    -0.744 OA
ENDBRANCH  63  67
ENDBRANCH  46  60
BRANCH  47  71
ATOM     71  C   UNL A   1      44.455  28.833  28.297  1.00  0.00     0.023 A 
ATOM     72  C   UNL A   1      45.174  27.706  28.753  1.00  0.00     0.031 A 
ATOM     73  C   UNL A   1      43.832  28.749  27.046  1.00  0.00     0.131 A 
ATOM     74  C   UNL A   1      45.119  26.495  28.049  1.00  0.00     0.055 A 
ATOM     75  C   UNL A   1      43.832  27.552  26.315  1.00  0.00     0.041 A 
ATOM     76  F   UNL A   1      43.117  29.776  26.567  1.00  0.00    -0.206 F 
ATOM     77  C   UNL A   1      44.436  26.405  26.836  1.00  0.00     0.022 A 
BRANCH  74  78
ATOM     78  S   UNL A   1      45.727  25.000  28.884  1.00  0.00     0.124 S 
ATOM     79  O   UNL A   1      46.461  25.547  30.018  1.00  0.00    -0.237 OA
ATOM     80  O   UNL A   1      44.487  24.295  29.212  1.00  0.00    -0.237 OA
ATOM     81  O   UNL A   1      46.544  24.334  27.873  1.00  0.00    -0.744 OA
ENDBRANCH  74  78
ENDBRANCH  47  71
BRANCH  59  82
ATOM     82  C   UNL A   1      42.553  35.876  28.764  1.00  0.00     0.023 A 
ATOM     83  C   UNL A   1      43.059  36.946  29.520  1.00  0.00     0.031 A 
ATOM     84  C   UNL A   1      42.175  36.214  27.437  1.00  0.00     0.131 A 
ATOM     85  C   UNL A   1      43.126  38.255  28.999  1.00  0.00     0.055 A 
ATOM     86  C   UNL A   1      42.293  37.502  26.903  1.00  0.00     0.041 A 
ATOM     87  F   UNL A   1      41.683  35.302  26.584  1.00  0.00    -0.206 F 
ATOM     88  C   UNL A   1      42.762  38.539  27.688  1.00  0.00     0.022 A 
BRANCH  85  89
ATOM     89  S   UNL A   1      43.672  39.592  30.098  1.00  0.00     0.124 S 
ATOM     90  O   UNL A   1      42.511  40.477  30.099  1.00  0.00    -0.237 OA
ATOM     91  O   UNL A   1      43.929  38.883  31.348  1.00  0.00    -0.237 OA
ATOM     92  O   UNL A   1      44.859  40.126  29.433  1.00  0.00    -0.744 OA
ENDBRANCH  85  89
ENDBRANCH  59  82
ENDBRANCH  33  34
ENDBRANCH  25  28
ENDBRANCH  23  24
ENDBRANCH   1  23
TORSDOF 17
ENDMDL
MODEL 3
REMARK VINA RESULT:     -12.3      1.585      3.381
REMARK SMILES CC[C@@](C)(Nc1cc([N+](=O)[O-])ccc1C)C(=O)NCCCNC(=O)c1ccc(-c2c3nc(c(-c4cc(S(=O)(=O)[O-])ccc4F)c4ccc([nH]4)c(-c4cc(S(=O)(=O)[O-])ccc4F)c4nc(c(-c5cc(S(=O)(=O)[O-])ccc5F)c5ccc2[nH]5)C=C4)C=C3)cc1
REMARK SMILES IDX 20 1 19 2 18 3 16 4 17 5 3 7 4 8 2 9 1 10 5 11 6 13 7 14
REMARK SMILES IDX 14 15 8 16 13 17 15 18 12 19 9 20 10 21 11 22 21 23 22 24
REMARK SMILES IDX 23 25 24 27 25 28 26 29 87 30 27 31 86 32 28 33 29 34 30 35
REMARK SMILES IDX 80 36 31 37 85 38 79 39 81 40 32 41 84 42 78 43 77 44 33 46
REMARK SMILES IDX 65 47 45 48 64 49 46 50 49 51 63 52 82 53 47 54 48 55 62 57
REMARK SMILES IDX 83 58 50 59 34 60 35 61 43 62 36 63 42 64 44 65 41 66 37 67
REMARK SMILES IDX 38 68 39 69 40 70 66 71 67 72 75 73 68 74 74 75 76 76 73 77
REMARK SMILES IDX 69 78 70 79 71 80 72 81 51 82 52 83 60 84 53 85 59 86 61 87
REMARK SMILES IDX 58 88 54 89 55 90 56 91 57 92
REMARK H PARENT 18 6 5 12 22 26 81 45 49 56
REMARK Flexibility Score: inf
ROOT
ATOM      1  C   UNL A   1      32.882  30.924  27.157  1.00  0.00     0.042 C 
ENDROOT
BRANCH   1   2
ATOM      2  C   UNL A   1      32.374  30.447  25.781  1.00  0.00     0.117 C 
BRANCH   2   3
ATOM      3  N   UNL A   1      33.189  29.487  25.038  1.00  0.00    -0.354 N 
ATOM      4  C   UNL A   1      33.150  28.156  24.722  1.00  0.00     0.245 C 
ATOM      5  O   UNL A   1      34.002  27.804  23.887  1.00  0.00    -0.272 OA
ATOM      6  H   UNL A   1      33.988  29.918  24.661  1.00  0.00     0.163 HD
BRANCH   4   7
ATOM      7  C   UNL A   1      32.188  27.065  25.330  1.00  0.00     0.113 C 
ATOM      8  C   UNL A   1      32.131  27.038  26.863  1.00  0.00     0.045 C 
BRANCH   7   9
ATOM      9  C   UNL A   1      30.735  27.392  24.812  1.00  0.00     0.035 C 
ATOM     10  C   UNL A   1      30.646  27.978  23.402  1.00  0.00     0.007 C 
ENDBRANCH   7   9
BRANCH   7  11
ATOM     11  N   UNL A   1      32.446  25.630  24.912  1.00  0.00    -0.371 N 
ATOM     12  H   UNL A   1      32.149  25.404  24.001  1.00  0.00     0.161 HD
BRANCH  11  13
ATOM     13  C   UNL A   1      33.035  24.586  25.608  1.00  0.00     0.045 A 
ATOM     14  C   UNL A   1      34.406  24.333  25.439  1.00  0.00     0.111 A 
ATOM     15  C   UNL A   1      32.350  23.672  26.419  1.00  0.00    -0.027 A 
ATOM     16  C   UNL A   1      35.044  23.279  26.128  1.00  0.00     0.271 A 
ATOM     17  C   UNL A   1      33.018  22.754  27.251  1.00  0.00     0.012 A 
ATOM     18  C   UNL A   1      30.888  23.428  26.272  1.00  0.00     0.046 C 
ATOM     19  C   UNL A   1      34.375  22.546  27.105  1.00  0.00     0.086 A 
BRANCH  16  20
ATOM     20  N   UNL A   1      36.391  22.856  25.736  1.00  0.00     0.062 N 
ATOM     21  O   UNL A   1      36.493  21.997  24.848  1.00  0.00    -0.258 OA
ATOM     22  O   UNL A   1      37.352  23.339  26.354  1.00  0.00    -0.258 OA
ENDBRANCH  16  20
ENDBRANCH  11  13
ENDBRANCH   7  11
ENDBRANCH   4   7
ENDBRANCH   2   3
ENDBRANCH   1   2
BRANCH   1  23
ATOM     23  C   UNL A   1      34.214  30.361  27.665  1.00  0.00     0.118 C 
BRANCH  23  24
ATOM     24  N   UNL A   1      34.864  31.272  28.623  1.00  0.00    -0.352 N 
ATOM     25  C   UNL A   1      36.124  31.209  29.179  1.00  0.00     0.251 C 
ATOM     26  H   UNL A   1      34.317  32.039  28.909  1.00  0.00     0.163 HD
ATOM     27  O   UNL A   1      36.565  32.116  29.885  1.00  0.00    -0.269 OA
BRANCH  25  28
ATOM     28  C   UNL A   1      36.995  30.071  28.837  1.00  0.00     0.039 A 
ATOM     29  C   UNL A   1      37.175  29.072  29.798  1.00  0.00     0.014 A 
ATOM     30  C   UNL A   1      37.762  30.097  27.675  1.00  0.00     0.014 A 
ATOM     31  C   UNL A   1      38.280  28.230  29.705  1.00  0.00     0.010 A 
ATOM     32  C   UNL A   1      38.887  29.294  27.604  1.00  0.00     0.010 A 
ATOM     33  C   UNL A   1      39.183  28.419  28.657  1.00  0.00    -0.014 A 
BRANCH  33  34
ATOM     34  C   UNL A   1      40.530  27.856  28.686  1.00  0.00     0.031 A 
ATOM     35  C   UNL A   1      40.784  26.450  28.331  1.00  0.00     0.074 A 
ATOM     36  C   UNL A   1      41.558  28.626  29.104  1.00  0.00     0.049 A 
ATOM     37  N   UNL A   1      41.778  25.753  28.769  1.00  0.00    -0.248 NA
ATOM     38  C   UNL A   1      39.862  25.683  27.506  1.00  0.00     0.031 C 
ATOM     39  C   UNL A   1      42.983  28.321  29.040  1.00  0.00     0.029 A 
ATOM     40  N   UNL A   1      41.470  29.727  29.955  1.00  0.00    -0.354 N 
ATOM     41  C   UNL A   1      41.809  24.572  28.063  1.00  0.00     0.074 A 
ATOM     42  C   UNL A   1      40.528  24.530  27.395  1.00  0.00     0.031 C 
ATOM     43  C   UNL A   1      43.611  29.006  30.007  1.00  0.00     0.029 A 
ATOM     44  C   UNL A   1      42.593  29.670  30.800  1.00  0.00     0.049 A 
ATOM     45  H   UNL A   1      40.762  30.412  29.963  1.00  0.00     0.167 HD
ATOM     46  C   UNL A   1      42.973  23.860  28.016  1.00  0.00     0.034 A 
ATOM     47  C   UNL A   1      42.461  29.586  32.154  1.00  0.00     0.034 A 
ATOM     48  C   UNL A   1      43.966  24.389  28.962  1.00  0.00     0.049 A 
ATOM     49  C   UNL A   1      43.151  28.387  32.763  1.00  0.00     0.074 A 
ATOM     50  C   UNL A   1      45.121  25.141  28.815  1.00  0.00     0.029 A 
ATOM     51  N   UNL A   1      43.694  24.363  30.328  1.00  0.00    -0.354 N 
ATOM     52  N   UNL A   1      43.541  27.342  32.090  1.00  0.00    -0.248 NA
ATOM     53  C   UNL A   1      43.431  28.268  34.188  1.00  0.00     0.031 C 
ATOM     54  C   UNL A   1      45.519  25.598  30.100  1.00  0.00     0.029 A 
ATOM     55  C   UNL A   1      44.624  25.103  31.034  1.00  0.00     0.049 A 
ATOM     56  H   UNL A   1      42.941  23.880  30.737  1.00  0.00     0.167 HD
ATOM     57  C   UNL A   1      44.094  26.416  32.945  1.00  0.00     0.074 A 
ATOM     58  C   UNL A   1      44.019  27.061  34.246  1.00  0.00     0.031 C 
ATOM     59  C   UNL A   1      44.546  25.205  32.490  1.00  0.00     0.034 A 
BRANCH  46  60
ATOM     60  C   UNL A   1      43.342  22.872  26.911  1.00  0.00     0.023 A 
ATOM     61  C   UNL A   1      42.783  21.571  26.937  1.00  0.00     0.031 A 
ATOM     62  C   UNL A   1      44.276  23.083  25.878  1.00  0.00     0.131 A 
ATOM     63  C   UNL A   1      43.220  20.553  26.063  1.00  0.00     0.055 A 
ATOM     64  C   UNL A   1      44.736  22.066  25.028  1.00  0.00     0.041 A 
ATOM     65  F   UNL A   1      44.768  24.290  25.591  1.00  0.00    -0.206 F 
ATOM     66  C   UNL A   1      44.220  20.787  25.127  1.00  0.00     0.022 A 
BRANCH  63  67
ATOM     67  S   UNL A   1      42.485  18.898  26.178  1.00  0.00     0.124 S 
ATOM     68  O   UNL A   1      41.107  19.141  25.763  1.00  0.00    -0.237 OA
ATOM     69  O   UNL A   1      43.314  18.127  25.257  1.00  0.00    -0.237 OA
ATOM     70  O   UNL A   1      42.650  18.551  27.589  1.00  0.00    -0.744 OA
ENDBRANCH  63  67
ENDBRANCH  46  60
BRANCH  47  71
ATOM     71  C   UNL A   1      41.226  30.237  32.674  1.00  0.00     0.023 A 
ATOM     72  C   UNL A   1      41.206  31.648  32.715  1.00  0.00     0.031 A 
ATOM     73  C   UNL A   1      40.001  29.563  32.752  1.00  0.00     0.131 A 
ATOM     74  C   UNL A   1      39.990  32.344  32.664  1.00  0.00     0.055 A 
ATOM     75  C   UNL A   1      38.787  30.265  32.763  1.00  0.00     0.041 A 
ATOM     76  F   UNL A   1      39.951  28.225  32.697  1.00  0.00    -0.206 F 
ATOM     77  C   UNL A   1      38.775  31.659  32.672  1.00  0.00     0.022 A 
BRANCH  74  78
ATOM     78  S   UNL A   1      40.047  34.127  32.321  1.00  0.00     0.124 S 
ATOM     79  O   UNL A   1      41.377  34.497  32.789  1.00  0.00    -0.237 OA
ATOM     80  O   UNL A   1      39.850  34.177  30.871  1.00  0.00    -0.237 OA
ATOM     81  O   UNL A   1      38.937  34.676  33.095  1.00  0.00    -0.744 OA
ENDBRANCH  74  78
ENDBRANCH  47  71
BRANCH  59  82
ATOM     82  C   UNL A   1      45.020  24.023  33.329  1.00  0.00     0.023 A 
ATOM     83  C   UNL A   1      46.305  23.906  33.885  1.00  0.00     0.031 A 
ATOM     84  C   UNL A   1      44.137  22.957  33.649  1.00  0.00     0.131 A 
ATOM     85  C   UNL A   1      46.682  22.784  34.652  1.00  0.00     0.055 A 
ATOM     86  C   UNL A   1      44.495  21.870  34.455  1.00  0.00     0.041 A 
ATOM     87  F   UNL A   1      42.872  22.925  33.205  1.00  0.00    -0.206 F 
ATOM     88  C   UNL A   1      45.780  21.771  34.956  1.00  0.00     0.022 A 
BRANCH  85  89
ATOM     89  S   UNL A   1      48.403  22.665  35.215  1.00  0.00     0.124 S 
ATOM     90  O   UNL A   1      49.137  23.150  34.050  1.00  0.00    -0.237 OA
ATOM     91  O   UNL A   1      48.411  23.544  36.380  1.00  0.00    -0.237 OA
ATOM     92  O   UNL A   1      48.575  21.244  35.509  1.00  0.00    -0.744 OA
ENDBRANCH  85  89
ENDBRANCH  59  82
ENDBRANCH  33  34
ENDBRANCH  25  28
ENDBRANCH  23  24
ENDBRANCH   1  23
TORSDOF 17
ENDMDL
