MODEL 1
REMARK VINA RESULT:     -12.4      0.000      0.000
REMARK SMILES Cc1ccccc1NC(=O)C[NH+]1CCC(CC(=O)NCCCNC(=O)c2ccc(-c3c4nc(c(-c5cc(S(=O)(=O)[O-])ccc5F)c5ccc([nH]5)c(-c5cc(S(=O)(=O)[O-])ccc5F)c5nc(c(-c6cc(S(=O)(=O)[O-])ccc6F)c6ccc3[nH]6)C=C5)C=C4)cc2)CC1
REMARK SMILES IDX 20 1 19 2 17 3 18 4 16 6 15 7 12 8 13 9 90 10 14 12 89 13
REMARK SMILES IDX 11 14 9 15 8 16 10 18 7 19 1 20 2 21 3 22 4 23 6 24 5 25
REMARK SMILES IDX 21 26 22 27 23 28 24 29 25 31 26 32 27 33 88 34 28 35 87 36
REMARK SMILES IDX 29 37 30 38 31 39 81 40 32 41 86 42 80 43 82 44 33 45 85 46
REMARK SMILES IDX 79 47 78 48 34 50 66 51 46 52 65 53 47 54 50 55 64 56 83 57
REMARK SMILES IDX 48 58 49 59 63 61 84 62 51 63 35 64 36 65 44 66 37 67 43 68
REMARK SMILES IDX 45 69 42 70 38 71 39 72 40 73 41 74 67 75 68 76 76 77 69 78
REMARK SMILES IDX 75 79 77 80 74 81 70 82 71 83 72 84 73 85 52 86 53 87 61 88
REMARK SMILES IDX 54 89 60 90 62 91 59 92 55 93 56 94 57 95 58 96
REMARK H PARENT 19 5 12 11 8 17 23 30 82 49 50 60
REMARK Flexibility Score: inf
ROOT
ATOM      1  C   UNL A   1      37.394  21.139  25.135  1.00  0.00     0.117 C 
ENDROOT
BRANCH   1   2
ATOM      2  N   UNL A   1      37.087  21.918  23.942  1.00  0.00    -0.356 N 
ATOM      3  C   UNL A   1      35.964  22.636  23.636  1.00  0.00     0.220 C 
ATOM      4  O   UNL A   1      35.927  23.309  22.605  1.00  0.00    -0.275 OA
ATOM      5  H   UNL A   1      37.792  21.929  23.255  1.00  0.00     0.163 HD
BRANCH   3   6
ATOM      6  C   UNL A   1      34.743  22.546  24.532  1.00  0.00     0.104 C 
BRANCH   6   7
ATOM      7  C   UNL A   1      33.917  23.842  24.566  1.00  0.00     0.009 C 
ATOM      8  N   UNL A   1      31.408  25.270  25.122  1.00  0.00    -0.327 N 
ATOM      9  C   UNL A   1      31.846  25.078  23.741  1.00  0.00     0.262 C 
ATOM     10  C   UNL A   1      32.536  25.347  26.045  1.00  0.00     0.262 C 
ATOM     11  H   UNL A   1      30.901  24.428  25.398  1.00  0.00     0.348 HD
ATOM     12  C   UNL A   1      32.693  23.815  23.649  1.00  0.00     0.066 C 
ATOM     13  C   UNL A   1      33.431  24.110  25.996  1.00  0.00     0.066 C 
BRANCH   8  14
ATOM     14  C   UNL A   1      30.391  26.333  25.274  1.00  0.00     0.363 C 
BRANCH  14  15
ATOM     15  C   UNL A   1      30.358  27.412  24.180  1.00  0.00     0.279 C 
ATOM     16  N   UNL A   1      31.193  28.494  24.164  1.00  0.00    -0.321 N 
ATOM     17  H   UNL A   1      31.111  29.068  23.369  1.00  0.00     0.170 HD
ATOM     18  O   UNL A   1      29.585  27.296  23.219  1.00  0.00    -0.268 OA
BRANCH  16  19
ATOM     19  C   UNL A   1      32.148  28.920  25.097  1.00  0.00     0.044 A 
ATOM     20  C   UNL A   1      34.022  27.833  23.706  1.00  0.00     0.046 C 
ATOM     21  C   UNL A   1      33.497  28.558  24.918  1.00  0.00    -0.027 A 
ATOM     22  C   UNL A   1      34.410  28.832  25.952  1.00  0.00     0.005 A 
ATOM     23  C   UNL A   1      34.002  29.470  27.123  1.00  0.00     0.000 A 
ATOM     24  C   UNL A   1      31.770  29.646  26.233  1.00  0.00     0.026 A 
ATOM     25  C   UNL A   1      32.688  29.902  27.252  1.00  0.00     0.002 A 
ENDBRANCH  16  19
ENDBRANCH  14  15
ENDBRANCH   8  14
ENDBRANCH   6   7
ENDBRANCH   3   6
ENDBRANCH   1   2
BRANCH   1  26
ATOM     26  C   UNL A   1      38.758  21.428  25.757  1.00  0.00     0.042 C 
BRANCH  26  27
ATOM     27  C   UNL A   1      38.979  22.861  26.213  1.00  0.00     0.118 C 
BRANCH  27  28
ATOM     28  N   UNL A   1      40.419  23.103  26.398  1.00  0.00    -0.352 N 
ATOM     29  C   UNL A   1      41.100  24.236  26.791  1.00  0.00     0.251 C 
ATOM     30  H   UNL A   1      40.994  22.325  26.210  1.00  0.00     0.163 HD
ATOM     31  O   UNL A   1      42.303  24.260  26.970  1.00  0.00    -0.269 OA
BRANCH  29  32
ATOM     32  C   UNL A   1      40.277  25.414  27.103  1.00  0.00     0.039 A 
ATOM     33  C   UNL A   1      40.632  26.603  26.460  1.00  0.00     0.014 A 
ATOM     34  C   UNL A   1      39.486  25.395  28.250  1.00  0.00     0.014 A 
ATOM     35  C   UNL A   1      40.392  27.804  27.110  1.00  0.00     0.010 A 
ATOM     36  C   UNL A   1      39.299  26.590  28.920  1.00  0.00     0.010 A 
ATOM     37  C   UNL A   1      39.826  27.776  28.387  1.00  0.00    -0.014 A 
BRANCH  37  38
ATOM     38  C   UNL A   1      39.908  28.925  29.279  1.00  0.00     0.031 A 
ATOM     39  C   UNL A   1      38.841  29.939  29.279  1.00  0.00     0.074 A 
ATOM     40  C   UNL A   1      41.003  29.148  30.041  1.00  0.00     0.049 A 
ATOM     41  N   UNL A   1      39.065  31.206  29.389  1.00  0.00    -0.248 NA
ATOM     42  C   UNL A   1      37.433  29.603  29.103  1.00  0.00     0.031 C 
ATOM     43  C   UNL A   1      41.158  30.180  31.063  1.00  0.00     0.029 A 
ATOM     44  N   UNL A   1      42.289  28.648  29.851  1.00  0.00    -0.354 N 
ATOM     45  C   UNL A   1      37.852  31.811  29.588  1.00  0.00     0.074 A 
ATOM     46  C   UNL A   1      36.862  30.794  29.310  1.00  0.00     0.031 C 
ATOM     47  C   UNL A   1      42.465  30.429  31.231  1.00  0.00     0.029 A 
ATOM     48  C   UNL A   1      43.194  29.643  30.253  1.00  0.00     0.049 A 
ATOM     49  H   UNL A   1      42.520  27.758  29.500  1.00  0.00     0.167 HD
ATOM     50  C   UNL A   1      37.784  33.058  30.125  1.00  0.00     0.034 A 
ATOM     51  C   UNL A   1      44.180  30.106  29.434  1.00  0.00     0.034 A 
ATOM     52  C   UNL A   1      39.092  33.589  30.489  1.00  0.00     0.049 A 
ATOM     53  C   UNL A   1      44.123  31.594  29.196  1.00  0.00     0.074 A 
ATOM     54  C   UNL A   1      39.763  33.672  31.699  1.00  0.00     0.029 A 
ATOM     55  N   UNL A   1      40.024  33.893  29.505  1.00  0.00    -0.354 N 
ATOM     56  N   UNL A   1      43.087  32.337  29.466  1.00  0.00    -0.248 NA
ATOM     57  C   UNL A   1      45.214  32.361  28.604  1.00  0.00     0.031 C 
ATOM     58  C   UNL A   1      41.105  34.040  31.439  1.00  0.00     0.029 A 
ATOM     59  C   UNL A   1      41.249  34.193  30.072  1.00  0.00     0.049 A 
ATOM     60  H   UNL A   1      39.838  33.895  28.538  1.00  0.00     0.167 HD
ATOM     61  C   UNL A   1      43.332  33.637  29.089  1.00  0.00     0.074 A 
ATOM     62  C   UNL A   1      44.685  33.597  28.566  1.00  0.00     0.031 C 
ATOM     63  C   UNL A   1      42.377  34.609  29.246  1.00  0.00     0.034 A 
BRANCH  50  64
ATOM     64  C   UNL A   1      36.483  33.624  30.620  1.00  0.00     0.023 A 
ATOM     65  C   UNL A   1      35.577  34.203  29.712  1.00  0.00     0.031 A 
ATOM     66  C   UNL A   1      36.107  33.655  31.976  1.00  0.00     0.131 A 
ATOM     67  C   UNL A   1      34.424  34.867  30.159  1.00  0.00     0.055 A 
ATOM     68  C   UNL A   1      34.985  34.361  32.429  1.00  0.00     0.041 A 
ATOM     69  F   UNL A   1      36.819  33.001  32.908  1.00  0.00    -0.206 F 
ATOM     70  C   UNL A   1      34.144  34.986  31.518  1.00  0.00     0.022 A 
BRANCH  67  71
ATOM     71  S   UNL A   1      33.297  35.580  28.929  1.00  0.00     0.124 S 
ATOM     72  O   UNL A   1      32.459  36.454  29.744  1.00  0.00    -0.237 OA
ATOM     73  O   UNL A   1      34.219  36.241  28.013  1.00  0.00    -0.237 OA
ATOM     74  O   UNL A   1      32.614  34.410  28.379  1.00  0.00    -0.744 OA
ENDBRANCH  67  71
ENDBRANCH  50  64
BRANCH  51  75
ATOM     75  C   UNL A   1      44.678  29.085  28.473  1.00  0.00     0.023 A 
ATOM     76  C   UNL A   1      45.503  28.068  28.996  1.00  0.00     0.031 A 
ATOM     77  C   UNL A   1      44.056  28.860  27.241  1.00  0.00     0.131 A 
ATOM     78  C   UNL A   1      45.553  26.809  28.378  1.00  0.00     0.055 A 
ATOM     79  C   UNL A   1      44.152  27.620  26.597  1.00  0.00     0.041 A 
ATOM     80  F   UNL A   1      43.245  29.784  26.706  1.00  0.00    -0.206 F 
ATOM     81  C   UNL A   1      44.861  26.571  27.190  1.00  0.00     0.022 A 
BRANCH  78  82
ATOM     82  S   UNL A   1      46.292  25.428  29.296  1.00  0.00     0.124 S 
ATOM     83  O   UNL A   1      46.521  24.440  28.251  1.00  0.00    -0.237 OA
ATOM     84  O   UNL A   1      47.488  26.041  29.870  1.00  0.00    -0.237 OA
ATOM     85  O   UNL A   1      45.271  25.076  30.281  1.00  0.00    -0.744 OA
ENDBRANCH  78  82
ENDBRANCH  51  75
BRANCH  63  86
ATOM     86  C   UNL A   1      42.411  36.049  28.748  1.00  0.00     0.023 A 
ATOM     87  C   UNL A   1      42.973  37.120  29.455  1.00  0.00     0.031 A 
ATOM     88  C   UNL A   1      41.884  36.388  27.472  1.00  0.00     0.131 A 
ATOM     89  C   UNL A   1      42.965  38.432  28.937  1.00  0.00     0.055 A 
ATOM     90  C   UNL A   1      41.914  37.681  26.939  1.00  0.00     0.041 A 
ATOM     91  F   UNL A   1      41.319  35.477  26.666  1.00  0.00    -0.206 F 
ATOM     92  C   UNL A   1      42.453  38.719  27.676  1.00  0.00     0.022 A 
BRANCH  89  93
ATOM     93  S   UNL A   1      43.621  39.770  29.971  1.00  0.00     0.124 S 
ATOM     94  O   UNL A   1      43.854  39.086  31.239  1.00  0.00    -0.237 OA
ATOM     95  O   UNL A   1      44.819  40.170  29.239  1.00  0.00    -0.237 OA
ATOM     96  O   UNL A   1      42.543  40.758  29.985  1.00  0.00    -0.744 OA
ENDBRANCH  89  93
ENDBRANCH  63  86
ENDBRANCH  37  38
ENDBRANCH  29  32
ENDBRANCH  27  28
ENDBRANCH  26  27
ENDBRANCH   1  26
TORSDOF 17
ENDMDL
MODEL 2
REMARK VINA RESULT:     -12.3      4.062     10.665
REMARK SMILES Cc1ccccc1NC(=O)C[NH+]1CCC(CC(=O)NCCCNC(=O)c2ccc(-c3c4nc(c(-c5cc(S(=O)(=O)[O-])ccc5F)c5ccc([nH]5)c(-c5cc(S(=O)(=O)[O-])ccc5F)c5nc(c(-c6cc(S(=O)(=O)[O-])ccc6F)c6ccc3[nH]6)C=C5)C=C4)cc2)CC1
REMARK SMILES IDX 20 1 19 2 17 3 18 4 16 6 15 7 12 8 13 9 90 10 14 12 89 13
REMARK SMILES IDX 11 14 9 15 8 16 10 18 7 19 1 20 2 21 3 22 4 23 6 24 5 25
REMARK SMILES IDX 21 26 22 27 23 28 24 29 25 31 26 32 27 33 88 34 28 35 87 36
REMARK SMILES IDX 29 37 30 38 31 39 81 40 32 41 86 42 80 43 82 44 33 45 85 46
REMARK SMILES IDX 79 47 78 48 34 50 66 51 46 52 65 53 47 54 50 55 64 56 83 57
REMARK SMILES IDX 48 58 49 59 63 61 84 62 51 63 35 64 36 65 44 66 37 67 43 68
REMARK SMILES IDX 45 69 42 70 38 71 39 72 40 73 41 74 67 75 68 76 76 77 69 78
REMARK SMILES IDX 75 79 77 80 74 81 70 82 71 83 72 84 73 85 52 86 53 87 61 88
REMARK SMILES IDX 54 89 60 90 62 91 59 92 55 93 56 94 57 95 58 96
REMARK H PARENT 19 5 12 11 8 17 23 30 82 49 50 60
REMARK Flexibility Score: inf
ROOT
ATOM      1  C   UNL A   1      33.311  29.836  26.711  1.00  0.00     0.117 C 
ENDROOT
BRANCH   1   2
ATOM      2  N   UNL A   1      32.369  30.073  25.624  1.00  0.00    -0.356 N 
ATOM      3  C   UNL A   1      31.439  29.232  25.080  1.00  0.00     0.220 C 
ATOM      4  O   UNL A   1      30.665  29.648  24.216  1.00  0.00    -0.275 OA
ATOM      5  H   UNL A   1      32.410  30.971  25.222  1.00  0.00     0.163 HD
BRANCH   3   6
ATOM      6  C   UNL A   1      31.407  27.773  25.492  1.00  0.00     0.104 C 
BRANCH   6   7
ATOM      7  C   UNL A   1      32.063  26.836  24.464  1.00  0.00     0.009 C 
ATOM      8  N   UNL A   1      32.569  24.138  23.409  1.00  0.00    -0.327 N 
ATOM      9  C   UNL A   1      33.647  24.880  24.060  1.00  0.00     0.262 C 
ATOM     10  C   UNL A   1      31.608  25.028  22.764  1.00  0.00     0.262 C 
ATOM     11  H   UNL A   1      32.039  23.669  24.144  1.00  0.00     0.348 HD
ATOM     12  C   UNL A   1      33.054  25.846  25.078  1.00  0.00     0.066 C 
ATOM     13  C   UNL A   1      30.981  26.029  23.734  1.00  0.00     0.066 C 
BRANCH   8  14
ATOM     14  C   UNL A   1      33.048  23.014  22.577  1.00  0.00     0.363 C 
BRANCH  14  15
ATOM     15  C   UNL A   1      32.404  21.643  22.842  1.00  0.00     0.279 C 
ATOM     16  N   UNL A   1      32.367  21.054  24.075  1.00  0.00    -0.321 N 
ATOM     17  H   UNL A   1      31.863  20.210  24.115  1.00  0.00     0.170 HD
ATOM     18  O   UNL A   1      31.833  21.039  21.923  1.00  0.00    -0.268 OA
BRANCH  16  19
ATOM     19  C   UNL A   1      32.929  21.458  25.293  1.00  0.00     0.044 A 
ATOM     20  C   UNL A   1      30.696  22.530  25.993  1.00  0.00     0.046 C 
ATOM     21  C   UNL A   1      32.155  22.216  26.193  1.00  0.00    -0.027 A 
ATOM     22  C   UNL A   1      32.785  22.770  27.322  1.00  0.00     0.005 A 
ATOM     23  C   UNL A   1      34.142  22.557  27.566  1.00  0.00     0.000 A 
ATOM     24  C   UNL A   1      34.265  21.171  25.600  1.00  0.00     0.026 A 
ATOM     25  C   UNL A   1      34.875  21.734  26.720  1.00  0.00     0.002 A 
ENDBRANCH  16  19
ENDBRANCH  14  15
ENDBRANCH   8  14
ENDBRANCH   6   7
ENDBRANCH   3   6
ENDBRANCH   1   2
BRANCH   1  26
ATOM     26  C   UNL A   1      33.625  31.062  27.567  1.00  0.00     0.042 C 
BRANCH  26  27
ATOM     27  C   UNL A   1      35.085  31.482  27.597  1.00  0.00     0.118 C 
BRANCH  27  28
ATOM     28  N   UNL A   1      35.475  31.807  28.979  1.00  0.00    -0.352 N 
ATOM     29  C   UNL A   1      36.349  31.177  29.841  1.00  0.00     0.251 C 
ATOM     30  H   UNL A   1      35.039  32.609  29.351  1.00  0.00     0.163 HD
ATOM     31  O   UNL A   1      36.625  31.613  30.942  1.00  0.00    -0.269 OA
BRANCH  29  32
ATOM     32  C   UNL A   1      37.037  29.989  29.316  1.00  0.00     0.039 A 
ATOM     33  C   UNL A   1      37.304  28.973  30.238  1.00  0.00     0.014 A 
ATOM     34  C   UNL A   1      37.708  30.085  28.099  1.00  0.00     0.014 A 
ATOM     35  C   UNL A   1      38.425  28.181  30.043  1.00  0.00     0.010 A 
ATOM     36  C   UNL A   1      38.856  29.331  27.937  1.00  0.00     0.010 A 
ATOM     37  C   UNL A   1      39.253  28.444  28.949  1.00  0.00    -0.014 A 
BRANCH  37  38
ATOM     38  C   UNL A   1      40.621  27.945  28.894  1.00  0.00     0.031 A 
ATOM     39  C   UNL A   1      40.891  26.579  28.416  1.00  0.00     0.074 A 
ATOM     40  C   UNL A   1      41.655  28.670  29.377  1.00  0.00     0.049 A 
ATOM     41  N   UNL A   1      41.778  25.804  28.943  1.00  0.00    -0.248 NA
ATOM     42  C   UNL A   1      40.139  25.960  27.331  1.00  0.00     0.031 C 
ATOM     43  C   UNL A   1      43.075  28.344  29.267  1.00  0.00     0.029 A 
ATOM     44  N   UNL A   1      41.607  29.714  30.297  1.00  0.00    -0.354 N 
ATOM     45  C   UNL A   1      41.917  24.727  28.108  1.00  0.00     0.074 A 
ATOM     46  C   UNL A   1      40.817  24.819  27.173  1.00  0.00     0.031 C 
ATOM     47  C   UNL A   1      43.740  28.967  30.251  1.00  0.00     0.029 A 
ATOM     48  C   UNL A   1      42.762  29.633  31.091  1.00  0.00     0.049 A 
ATOM     49  H   UNL A   1      40.893  30.388  30.375  1.00  0.00     0.167 HD
ATOM     50  C   UNL A   1      43.028  23.946  28.169  1.00  0.00     0.034 A 
ATOM     51  C   UNL A   1      42.708  29.573  32.452  1.00  0.00     0.034 A 
ATOM     52  C   UNL A   1      44.004  24.428  29.138  1.00  0.00     0.049 A 
ATOM     53  C   UNL A   1      43.378  28.352  33.033  1.00  0.00     0.074 A 
ATOM     54  C   UNL A   1      45.169  25.168  29.002  1.00  0.00     0.029 A 
ATOM     55  N   UNL A   1      43.718  24.398  30.496  1.00  0.00    -0.354 N 
ATOM     56  N   UNL A   1      43.704  27.299  32.338  1.00  0.00    -0.248 NA
ATOM     57  C   UNL A   1      43.705  28.206  34.446  1.00  0.00     0.031 C 
ATOM     58  C   UNL A   1      45.589  25.575  30.291  1.00  0.00     0.029 A 
ATOM     59  C   UNL A   1      44.689  25.073  31.213  1.00  0.00     0.049 A 
ATOM     60  H   UNL A   1      42.933  23.957  30.894  1.00  0.00     0.167 HD
ATOM     61  C   UNL A   1      44.249  26.344  33.164  1.00  0.00     0.074 A 
ATOM     62  C   UNL A   1      44.237  26.970  34.473  1.00  0.00     0.031 C 
ATOM     63  C   UNL A   1      44.646  25.127  32.670  1.00  0.00     0.034 A 
BRANCH  50  64
ATOM     64  C   UNL A   1      43.340  22.949  27.089  1.00  0.00     0.023 A 
ATOM     65  C   UNL A   1      42.745  21.674  27.115  1.00  0.00     0.031 A 
ATOM     66  C   UNL A   1      44.246  23.189  26.038  1.00  0.00     0.131 A 
ATOM     67  C   UNL A   1      43.126  20.675  26.206  1.00  0.00     0.055 A 
ATOM     68  C   UNL A   1      44.666  22.180  25.163  1.00  0.00     0.041 A 
ATOM     69  F   UNL A   1      44.754  24.414  25.829  1.00  0.00    -0.206 F 
ATOM     70  C   UNL A   1      44.116  20.909  25.254  1.00  0.00     0.022 A 
BRANCH  67  71
ATOM     71  S   UNL A   1      42.307  19.059  26.293  1.00  0.00     0.124 S 
ATOM     72  O   UNL A   1      40.954  19.371  25.841  1.00  0.00    -0.237 OA
ATOM     73  O   UNL A   1      43.119  18.252  25.390  1.00  0.00    -0.237 OA
ATOM     74  O   UNL A   1      42.415  18.701  27.707  1.00  0.00    -0.744 OA
ENDBRANCH  67  71
ENDBRANCH  50  64
BRANCH  51  75
ATOM     75  C   UNL A   1      41.538  30.287  33.029  1.00  0.00     0.023 A 
ATOM     76  C   UNL A   1      41.611  31.694  33.077  1.00  0.00     0.031 A 
ATOM     77  C   UNL A   1      40.277  29.689  33.123  1.00  0.00     0.131 A 
ATOM     78  C   UNL A   1      40.439  32.465  33.045  1.00  0.00     0.055 A 
ATOM     79  C   UNL A   1      39.110  30.462  33.147  1.00  0.00     0.041 A 
ATOM     80  F   UNL A   1      40.147  28.355  33.063  1.00  0.00    -0.206 F 
ATOM     81  C   UNL A   1      39.185  31.854  33.057  1.00  0.00     0.022 A 
BRANCH  78  82
ATOM     82  S   UNL A   1      40.587  34.241  32.701  1.00  0.00     0.124 S 
ATOM     83  O   UNL A   1      41.641  34.281  31.696  1.00  0.00    -0.237 OA
ATOM     84  O   UNL A   1      39.245  34.581  32.232  1.00  0.00    -0.237 OA
ATOM     85  O   UNL A   1      40.931  34.823  33.997  1.00  0.00    -0.744 OA
ENDBRANCH  78  82
ENDBRANCH  51  75
BRANCH  63  86
ATOM     86  C   UNL A   1      45.118  23.906  33.449  1.00  0.00     0.023 A 
ATOM     87  C   UNL A   1      46.437  23.697  33.875  1.00  0.00     0.031 A 
ATOM     88  C   UNL A   1      44.201  22.889  33.831  1.00  0.00     0.131 A 
ATOM     89  C   UNL A   1      46.808  22.538  34.588  1.00  0.00     0.055 A 
ATOM     90  C   UNL A   1      44.559  21.760  34.575  1.00  0.00     0.041 A 
ATOM     91  F   UNL A   1      42.900  22.942  33.510  1.00  0.00    -0.206 F 
ATOM     92  C   UNL A   1      45.875  21.574  34.956  1.00  0.00     0.022 A 
BRANCH  89  93
ATOM     93  S   UNL A   1      48.558  22.305  35.004  1.00  0.00     0.124 S 
ATOM     94  O   UNL A   1      48.537  22.398  36.461  1.00  0.00    -0.237 OA
ATOM     95  O   UNL A   1      48.834  20.980  34.459  1.00  0.00    -0.237 OA
ATOM     96  O   UNL A   1      49.227  23.410  34.320  1.00  0.00    -0.744 OA
ENDBRANCH  89  93
ENDBRANCH  63  86
ENDBRANCH  37  38
ENDBRANCH  29  32
ENDBRANCH  27  28
ENDBRANCH  26  27
ENDBRANCH   1  26
TORSDOF 17
ENDMDL
MODEL 3
REMARK VINA RESULT:     -12.2      4.025     10.612
REMARK SMILES Cc1ccccc1NC(=O)C[NH+]1CCC(CC(=O)NCCCNC(=O)c2ccc(-c3c4nc(c(-c5cc(S(=O)(=O)[O-])ccc5F)c5ccc([nH]5)c(-c5cc(S(=O)(=O)[O-])ccc5F)c5nc(c(-c6cc(S(=O)(=O)[O-])ccc6F)c6ccc3[nH]6)C=C5)C=C4)cc2)CC1
REMARK SMILES IDX 20 1 19 2 17 3 18 4 16 6 15 7 12 8 13 9 90 10 14 12 89 13
REMARK SMILES IDX 11 14 9 15 8 16 10 18 7 19 1 20 2 21 3 22 4 23 6 24 5 25
REMARK SMILES IDX 21 26 22 27 23 28 24 29 25 31 26 32 27 33 88 34 28 35 87 36
REMARK SMILES IDX 29 37 30 38 31 39 81 40 32 41 86 42 80 43 82 44 33 45 85 46
REMARK SMILES IDX 79 47 78 48 34 50 66 51 46 52 65 53 47 54 50 55 64 56 83 57
REMARK SMILES IDX 48 58 49 59 63 61 84 62 51 63 35 64 36 65 44 66 37 67 43 68
REMARK SMILES IDX 45 69 42 70 38 71 39 72 40 73 41 74 67 75 68 76 76 77 69 78
REMARK SMILES IDX 75 79 77 80 74 81 70 82 71 83 72 84 73 85 52 86 53 87 61 88
REMARK SMILES IDX 54 89 60 90 62 91 59 92 55 93 56 94 57 95 58 96
REMARK H PARENT 19 5 12 11 8 17 23 30 82 49 50 60
REMARK Flexibility Score: inf
ROOT
ATOM      1  C   UNL A   1      32.533  30.267  26.771  1.00  0.00     0.117 C 
ENDROOT
BRANCH   1   2
ATOM      2  N   UNL A   1      33.244  29.801  25.587  1.00  0.00    -0.356 N 
ATOM      3  C   UNL A   1      32.837  28.932  24.614  1.00  0.00     0.220 C 
ATOM      4  O   UNL A   1      33.554  28.729  23.632  1.00  0.00    -0.275 OA
ATOM      5  H   UNL A   1      34.151  30.167  25.471  1.00  0.00     0.163 HD
BRANCH   3   6
ATOM      6  C   UNL A   1      31.537  28.169  24.778  1.00  0.00     0.104 C 
BRANCH   6   7
ATOM      7  C   UNL A   1      31.673  26.917  25.661  1.00  0.00     0.009 C 
ATOM      8  N   UNL A   1      32.148  24.031  25.963  1.00  0.00    -0.327 N 
ATOM      9  C   UNL A   1      30.814  24.579  26.200  1.00  0.00     0.262 C 
ATOM     10  C   UNL A   1      33.196  25.001  26.269  1.00  0.00     0.262 C 
ATOM     11  H   UNL A   1      32.232  23.863  24.960  1.00  0.00     0.348 HD
ATOM     12  C   UNL A   1      30.628  25.840  25.365  1.00  0.00     0.066 C 
ATOM     13  C   UNL A   1      33.062  26.295  25.467  1.00  0.00     0.066 C 
BRANCH   8  14
ATOM     14  C   UNL A   1      32.343  22.685  26.542  1.00  0.00     0.363 C 
BRANCH  14  15
ATOM     15  C   UNL A   1      32.344  21.507  25.553  1.00  0.00     0.279 C 
ATOM     16  N   UNL A   1      33.450  21.116  24.851  1.00  0.00    -0.321 N 
ATOM     17  H   UNL A   1      33.327  20.304  24.306  1.00  0.00     0.170 HD
ATOM     18  O   UNL A   1      31.322  20.824  25.403  1.00  0.00    -0.268 OA
BRANCH  16  19
ATOM     19  C   UNL A   1      34.729  21.681  24.779  1.00  0.00     0.044 A 
ATOM     20  C   UNL A   1      33.962  23.230  22.873  1.00  0.00     0.046 C 
ATOM     21  C   UNL A   1      35.001  22.652  23.796  1.00  0.00    -0.027 A 
ATOM     22  C   UNL A   1      36.331  23.073  23.615  1.00  0.00     0.005 A 
ATOM     23  C   UNL A   1      37.362  22.563  24.406  1.00  0.00     0.000 A 
ATOM     24  C   UNL A   1      35.755  21.250  25.630  1.00  0.00     0.026 A 
ATOM     25  C   UNL A   1      37.069  21.673  25.432  1.00  0.00     0.002 A 
ENDBRANCH  16  19
ENDBRANCH  14  15
ENDBRANCH   8  14
ENDBRANCH   6   7
ENDBRANCH   3   6
ENDBRANCH   1   2
BRANCH   1  26
ATOM     26  C   UNL A   1      33.249  31.361  27.560  1.00  0.00     0.042 C 
BRANCH  26  27
ATOM     27  C   UNL A   1      34.763  31.240  27.622  1.00  0.00     0.118 C 
BRANCH  27  28
ATOM     28  N   UNL A   1      35.239  31.692  28.940  1.00  0.00    -0.352 N 
ATOM     29  C   UNL A   1      36.218  31.182  29.768  1.00  0.00     0.251 C 
ATOM     30  H   UNL A   1      34.784  32.492  29.290  1.00  0.00     0.163 HD
ATOM     31  O   UNL A   1      36.551  31.715  30.808  1.00  0.00    -0.269 OA
BRANCH  29  32
ATOM     32  C   UNL A   1      36.938  29.999  29.272  1.00  0.00     0.039 A 
ATOM     33  C   UNL A   1      37.240  29.019  30.222  1.00  0.00     0.014 A 
ATOM     34  C   UNL A   1      37.597  30.079  28.048  1.00  0.00     0.014 A 
ATOM     35  C   UNL A   1      38.384  28.255  30.042  1.00  0.00     0.010 A 
ATOM     36  C   UNL A   1      38.766  29.355  27.900  1.00  0.00     0.010 A 
ATOM     37  C   UNL A   1      39.196  28.511  28.934  1.00  0.00    -0.014 A 
BRANCH  37  38
ATOM     38  C   UNL A   1      40.578  28.050  28.883  1.00  0.00     0.031 A 
ATOM     39  C   UNL A   1      40.890  26.702  28.383  1.00  0.00     0.074 A 
ATOM     40  C   UNL A   1      41.587  28.794  29.389  1.00  0.00     0.049 A 
ATOM     41  N   UNL A   1      41.793  25.942  28.906  1.00  0.00    -0.248 NA
ATOM     42  C   UNL A   1      40.166  26.081  27.280  1.00  0.00     0.031 C 
ATOM     43  C   UNL A   1      43.016  28.510  29.286  1.00  0.00     0.029 A 
ATOM     44  N   UNL A   1      41.501  29.821  30.327  1.00  0.00    -0.354 N 
ATOM     45  C   UNL A   1      41.970  24.884  28.053  1.00  0.00     0.074 A 
ATOM     46  C   UNL A   1      40.876  24.963  27.109  1.00  0.00     0.031 C 
ATOM     47  C   UNL A   1      43.654  29.134  30.288  1.00  0.00     0.029 A 
ATOM     48  C   UNL A   1      42.651  29.757  31.131  1.00  0.00     0.049 A 
ATOM     49  H   UNL A   1      40.768  30.473  30.410  1.00  0.00     0.167 HD
ATOM     50  C   UNL A   1      43.102  24.134  28.110  1.00  0.00     0.034 A 
ATOM     51  C   UNL A   1      42.586  29.671  32.489  1.00  0.00     0.034 A 
ATOM     52  C   UNL A   1      44.056  24.625  29.097  1.00  0.00     0.049 A 
ATOM     53  C   UNL A   1      43.285  28.459  33.055  1.00  0.00     0.074 A 
ATOM     54  C   UNL A   1      45.201  25.399  28.985  1.00  0.00     0.029 A 
ATOM     55  N   UNL A   1      43.758  24.562  30.452  1.00  0.00    -0.354 N 
ATOM     56  N   UNL A   1      43.646  27.428  32.344  1.00  0.00    -0.248 NA
ATOM     57  C   UNL A   1      43.603  28.296  34.469  1.00  0.00     0.031 C 
ATOM     58  C   UNL A   1      45.597  25.794  30.285  1.00  0.00     0.029 A 
ATOM     59  C   UNL A   1      44.703  25.251  31.189  1.00  0.00     0.049 A 
ATOM     60  H   UNL A   1      42.982  24.093  30.834  1.00  0.00     0.167 HD
ATOM     61  C   UNL A   1      44.211  26.473  33.158  1.00  0.00     0.074 A 
ATOM     62  C   UNL A   1      44.169  27.076  34.478  1.00  0.00     0.031 C 
ATOM     63  C   UNL A   1      44.645  25.278  32.647  1.00  0.00     0.034 A 
BRANCH  50  64
ATOM     64  C   UNL A   1      43.452  23.165  27.015  1.00  0.00     0.023 A 
ATOM     65  C   UNL A   1      42.924  21.861  27.035  1.00  0.00     0.031 A 
ATOM     66  C   UNL A   1      44.330  23.464  25.956  1.00  0.00     0.131 A 
ATOM     67  C   UNL A   1      43.345  20.892  26.111  1.00  0.00     0.055 A 
ATOM     68  C   UNL A   1      44.790  22.487  25.065  1.00  0.00     0.041 A 
ATOM     69  F   UNL A   1      44.771  24.715  25.754  1.00  0.00    -0.206 F 
ATOM     70  C   UNL A   1      44.309  21.187  25.149  1.00  0.00     0.022 A 
BRANCH  67  71
ATOM     71  S   UNL A   1      42.613  19.235  26.191  1.00  0.00     0.124 S 
ATOM     72  O   UNL A   1      43.695  18.392  25.690  1.00  0.00    -0.237 OA
ATOM     73  O   UNL A   1      42.299  19.105  27.609  1.00  0.00    -0.237 OA
ATOM     74  O   UNL A   1      41.451  19.335  25.308  1.00  0.00    -0.744 OA
ENDBRANCH  67  71
ENDBRANCH  50  64
BRANCH  51  75
ATOM     75  C   UNL A   1      41.392  30.341  33.068  1.00  0.00     0.023 A 
ATOM     76  C   UNL A   1      41.409  31.751  33.109  1.00  0.00     0.031 A 
ATOM     77  C   UNL A   1      40.156  29.695  33.171  1.00  0.00     0.131 A 
ATOM     78  C   UNL A   1      40.208  32.475  33.078  1.00  0.00     0.055 A 
ATOM     79  C   UNL A   1      38.959  30.422  33.196  1.00  0.00     0.041 A 
ATOM     80  F   UNL A   1      40.077  28.357  33.118  1.00  0.00    -0.206 F 
ATOM     81  C   UNL A   1      38.978  31.816  33.098  1.00  0.00     0.022 A 
BRANCH  78  82
ATOM     82  S   UNL A   1      40.285  34.254  32.724  1.00  0.00     0.124 S 
ATOM     83  O   UNL A   1      39.110  34.765  33.417  1.00  0.00    -0.237 OA
ATOM     84  O   UNL A   1      41.577  34.630  33.294  1.00  0.00    -0.237 OA
ATOM     85  O   UNL A   1      40.234  34.324  31.265  1.00  0.00    -0.744 OA
ENDBRANCH  78  82
ENDBRANCH  51  75
BRANCH  63  86
ATOM     86  C   UNL A   1      45.145  24.056  33.408  1.00  0.00     0.023 A 
ATOM     87  C   UNL A   1      46.443  23.913  33.916  1.00  0.00     0.031 A 
ATOM     88  C   UNL A   1      44.273  22.967  33.685  1.00  0.00     0.131 A 
ATOM     89  C   UNL A   1      46.842  22.750  34.607  1.00  0.00     0.055 A 
ATOM     90  C   UNL A   1      44.655  21.832  34.408  1.00  0.00     0.041 A 
ATOM     91  F   UNL A   1      42.996  22.952  33.278  1.00  0.00    -0.206 F 
ATOM     92  C   UNL A   1      45.952  21.713  34.872  1.00  0.00     0.022 A 
BRANCH  89  93
ATOM     93  S   UNL A   1      48.572  22.611  35.134  1.00  0.00     0.124 S 
ATOM     94  O   UNL A   1      48.774  21.165  35.129  1.00  0.00    -0.237 OA
ATOM     95  O   UNL A   1      49.275  23.352  34.092  1.00  0.00    -0.237 OA
ATOM     96  O   UNL A   1      48.583  23.236  36.456  1.00  0.00    -0.744 OA
ENDBRANCH  89  93
ENDBRANCH  63  86
ENDBRANCH  37  38
ENDBRANCH  29  32
ENDBRANCH  27  28
ENDBRANCH  26  27
ENDBRANCH   1  26
TORSDOF 17
ENDMDL
