MODEL 1
REMARK VINA RESULT:     -12.6      0.000      0.000
REMARK SMILES CC[C@H](C)[C@H](NC(=O)CN1C(=O)/C(=C/c2ccc(C)cc2)SC1=S)C(=O)NCCCNC(=O)c1ccc(-c2c3nc(c(-c4cc(S(=O)(=O)[O-])ccc4F)c4ccc([nH]4)c(-c4cc(S(=O)(=O)[O-])ccc4F)c4nc(c(-c5cc(S(=O)(=O)[O-])ccc5F)c5ccc2[nH]5)C=C4)C=C3)cc1
REMARK SMILES IDX 28 1 27 2 25 3 26 4 5 6 3 7 4 8 2 9 1 10 6 11 7 12 8 14 9 15
REMARK SMILES IDX 10 16 11 17 23 18 12 19 13 20 22 21 24 22 14 23 15 24 16 25
REMARK SMILES IDX 21 26 17 27 20 28 18 29 19 30 29 31 30 32 31 33 32 34 33 36
REMARK SMILES IDX 34 37 35 38 96 39 36 40 95 41 37 42 38 43 39 44 89 45 40 46
REMARK SMILES IDX 94 47 88 48 90 49 41 50 93 51 87 52 86 53 42 55 74 56 54 57
REMARK SMILES IDX 73 58 55 59 58 60 72 61 91 62 56 63 57 64 71 66 92 67 59 68
REMARK SMILES IDX 43 69 44 70 52 71 45 72 51 73 53 74 50 75 46 76 47 77 48 78
REMARK SMILES IDX 49 79 75 80 76 81 84 82 77 83 83 84 85 85 82 86 78 87 79 88
REMARK SMILES IDX 80 89 81 90 60 91 61 92 69 93 62 94 68 95 70 96 67 97 63 98
REMARK SMILES IDX 64 99 65 100 66 101
REMARK H PARENT 27 5 6 13 31 35 90 54 58 65
REMARK Flexibility Score: inf
ROOT
ATOM      1  C   UNL A   1      32.334  29.992  26.666  1.00  0.00     0.117 C 
ENDROOT
BRANCH   1   2
ATOM      2  N   UNL A   1      31.513  30.536  25.606  1.00  0.00    -0.354 N 
ATOM      3  C   UNL A   1      30.974  29.911  24.527  1.00  0.00     0.242 C 
ATOM      4  O   UNL A   1      30.062  30.443  23.886  1.00  0.00    -0.273 OA
ATOM      5  H   UNL A   1      31.318  31.499  25.676  1.00  0.00     0.163 HD
BRANCH   3   6
ATOM      6  C   UNL A   1      31.382  28.481  24.150  1.00  0.00     0.174 C 
BRANCH   6   7
ATOM      7  C   UNL A   1      32.383  28.475  22.910  1.00  0.00     0.018 C 
ATOM      8  C   UNL A   1      33.836  28.919  23.170  1.00  0.00     0.010 C 
BRANCH   7   9
ATOM      9  C   UNL A   1      32.353  27.126  22.130  1.00  0.00     0.002 C 
ATOM     10  C   UNL A   1      33.513  26.171  22.377  1.00  0.00     0.004 C 
ENDBRANCH   7   9
ENDBRANCH   6   7
BRANCH   6  11
ATOM     11  N   UNL A   1      30.271  27.525  24.034  1.00  0.00    -0.342 N 
ATOM     12  C   UNL A   1      30.021  26.330  24.635  1.00  0.00     0.240 C 
ATOM     13  H   UNL A   1      29.573  27.804  23.398  1.00  0.00     0.164 HD
ATOM     14  O   UNL A   1      29.159  25.633  24.081  1.00  0.00    -0.273 OA
BRANCH  12  15
ATOM     15  C   UNL A   1      30.577  25.894  26.004  1.00  0.00     0.227 C 
BRANCH  15  16
ATOM     16  N   UNL A   1      31.717  24.992  26.022  1.00  0.00    -0.283 N 
ATOM     17  C   UNL A   1      33.000  25.530  25.995  1.00  0.00     0.266 C 
ATOM     18  C   UNL A   1      31.638  23.659  26.359  1.00  0.00     0.148 C 
ATOM     19  O   UNL A   1      33.287  26.711  26.134  1.00  0.00    -0.268 OA
ATOM     20  C   UNL A   1      33.985  24.426  25.879  1.00  0.00     0.081 C 
ATOM     21  S   UNL A   1      33.245  22.960  26.406  1.00  0.00    -0.054 SA
ATOM     22  S   UNL A   1      30.279  22.744  26.679  1.00  0.00    -0.052 S 
ATOM     23  C   UNL A   1      35.204  24.578  25.339  1.00  0.00     0.029 C 
BRANCH  23  24
ATOM     24  C   UNL A   1      36.124  23.457  25.114  1.00  0.00    -0.024 A 
ATOM     25  C   UNL A   1      35.754  22.386  24.287  1.00  0.00     0.008 A 
ATOM     26  C   UNL A   1      37.335  23.400  25.803  1.00  0.00     0.008 A 
ATOM     27  C   UNL A   1      36.521  21.221  24.250  1.00  0.00     0.004 A 
ATOM     28  C   UNL A   1      38.114  22.240  25.751  1.00  0.00     0.004 A 
ATOM     29  C   UNL A   1      37.689  21.127  25.012  1.00  0.00    -0.051 A 
ATOM     30  C   UNL A   1      38.459  19.843  25.080  1.00  0.00     0.044 C 
ENDBRANCH  23  24
ENDBRANCH  15  16
ENDBRANCH  12  15
ENDBRANCH   6  11
ENDBRANCH   3   6
ENDBRANCH   1   2
BRANCH   1  31
ATOM     31  C   UNL A   1      33.523  30.841  27.060  1.00  0.00     0.042 C 
BRANCH  31  32
ATOM     32  C   UNL A   1      34.601  30.068  27.798  1.00  0.00     0.118 C 
BRANCH  32  33
ATOM     33  N   UNL A   1      35.298  30.905  28.774  1.00  0.00    -0.352 N 
ATOM     34  C   UNL A   1      36.535  30.706  29.369  1.00  0.00     0.251 C 
ATOM     35  H   UNL A   1      34.823  31.723  29.047  1.00  0.00     0.163 HD
ATOM     36  O   UNL A   1      37.026  31.497  30.144  1.00  0.00    -0.269 OA
BRANCH  34  37
ATOM     37  C   UNL A   1      37.309  29.533  28.904  1.00  0.00     0.039 A 
ATOM     38  C   UNL A   1      37.616  28.579  29.877  1.00  0.00     0.014 A 
ATOM     39  C   UNL A   1      38.002  29.594  27.697  1.00  0.00     0.014 A 
ATOM     40  C   UNL A   1      38.795  27.857  29.753  1.00  0.00     0.010 A 
ATOM     41  C   UNL A   1      39.218  28.940  27.618  1.00  0.00     0.010 A 
ATOM     42  C   UNL A   1      39.648  28.138  28.684  1.00  0.00    -0.014 A 
BRANCH  42  43
ATOM     43  C   UNL A   1      41.044  27.713  28.697  1.00  0.00     0.031 A 
ATOM     44  C   UNL A   1      41.402  26.369  28.218  1.00  0.00     0.074 A 
ATOM     45  C   UNL A   1      42.003  28.523  29.203  1.00  0.00     0.049 A 
ATOM     46  N   UNL A   1      42.353  25.641  28.698  1.00  0.00    -0.248 NA
ATOM     47  C   UNL A   1      40.640  25.707  27.170  1.00  0.00     0.031 C 
ATOM     48  C   UNL A   1      43.444  28.286  29.215  1.00  0.00     0.029 A 
ATOM     49  N   UNL A   1      41.822  29.627  30.051  1.00  0.00    -0.354 N 
ATOM     50  C   UNL A   1      42.519  24.564  27.857  1.00  0.00     0.074 A 
ATOM     51  C   UNL A   1      41.369  24.605  26.983  1.00  0.00     0.031 C 
ATOM     52  C   UNL A   1      43.976  28.963  30.246  1.00  0.00     0.029 A 
ATOM     53  C   UNL A   1      42.877  29.558  30.989  1.00  0.00     0.049 A 
ATOM     54  H   UNL A   1      41.111  30.306  30.003  1.00  0.00     0.167 HD
ATOM     55  C   UNL A   1      43.685  23.854  27.892  1.00  0.00     0.034 A 
ATOM     56  C   UNL A   1      42.645  29.395  32.322  1.00  0.00     0.034 A 
ATOM     57  C   UNL A   1      44.555  24.309  28.980  1.00  0.00     0.049 A 
ATOM     58  C   UNL A   1      43.291  28.162  32.915  1.00  0.00     0.074 A 
ATOM     59  C   UNL A   1      45.675  25.126  29.009  1.00  0.00     0.029 A 
ATOM     60  N   UNL A   1      44.151  24.157  30.304  1.00  0.00    -0.354 N 
ATOM     61  N   UNL A   1      43.778  27.177  32.211  1.00  0.00    -0.248 NA
ATOM     62  C   UNL A   1      43.399  27.925  34.352  1.00  0.00     0.031 C 
ATOM     63  C   UNL A   1      45.888  25.533  30.351  1.00  0.00     0.029 A 
ATOM     64  C   UNL A   1      44.924  24.936  31.146  1.00  0.00     0.049 A 
ATOM     65  H   UNL A   1      43.415  23.573  30.601  1.00  0.00     0.167 HD
ATOM     66  C   UNL A   1      44.194  26.175  33.052  1.00  0.00     0.074 A 
ATOM     67  C   UNL A   1      43.976  26.712  34.384  1.00  0.00     0.031 C 
ATOM     68  C   UNL A   1      44.658  24.978  32.580  1.00  0.00     0.034 A 
BRANCH  55  69
ATOM     69  C   UNL A   1      44.178  22.999  26.735  1.00  0.00     0.023 A 
ATOM     70  C   UNL A   1      43.603  21.726  26.524  1.00  0.00     0.031 A 
ATOM     71  C   UNL A   1      45.238  23.319  25.865  1.00  0.00     0.131 A 
ATOM     72  C   UNL A   1      44.153  20.809  25.608  1.00  0.00     0.055 A 
ATOM     73  C   UNL A   1      45.831  22.386  25.002  1.00  0.00     0.041 A 
ATOM     74  F   UNL A   1      45.709  24.565  25.753  1.00  0.00    -0.206 F 
ATOM     75  C   UNL A   1      45.300  21.113  24.884  1.00  0.00     0.022 A 
BRANCH  72  76
ATOM     76  S   UNL A   1      43.345  19.202  25.368  1.00  0.00     0.124 S 
ATOM     77  O   UNL A   1      43.823  18.438  26.515  1.00  0.00    -0.237 OA
ATOM     78  O   UNL A   1      41.932  19.565  25.377  1.00  0.00    -0.237 OA
ATOM     79  O   UNL A   1      43.856  18.755  24.073  1.00  0.00    -0.744 OA
ENDBRANCH  72  76
ENDBRANCH  55  69
BRANCH  56  80
ATOM     80  C   UNL A   1      41.377  30.010  32.806  1.00  0.00     0.023 A 
ATOM     81  C   UNL A   1      41.301  31.418  32.861  1.00  0.00     0.031 A 
ATOM     82  C   UNL A   1      40.181  29.287  32.895  1.00  0.00     0.131 A 
ATOM     83  C   UNL A   1      40.055  32.062  32.865  1.00  0.00     0.055 A 
ATOM     84  C   UNL A   1      38.940  29.935  32.949  1.00  0.00     0.041 A 
ATOM     85  F   UNL A   1      40.184  27.949  32.815  1.00  0.00    -0.206 F 
ATOM     86  C   UNL A   1      38.871  31.326  32.892  1.00  0.00     0.022 A 
BRANCH  83  87
ATOM     87  S   UNL A   1      39.982  33.849  32.575  1.00  0.00     0.124 S 
ATOM     88  O   UNL A   1      41.359  34.171  32.222  1.00  0.00    -0.237 OA
ATOM     89  O   UNL A   1      39.003  33.965  31.496  1.00  0.00    -0.237 OA
ATOM     90  O   UNL A   1      39.514  34.386  33.853  1.00  0.00    -0.744 OA
ENDBRANCH  83  87
ENDBRANCH  56  80
BRANCH  68  91
ATOM     91  C   UNL A   1      44.977  23.765  33.429  1.00  0.00     0.023 A 
ATOM     92  C   UNL A   1      46.276  23.419  33.832  1.00  0.00     0.031 A 
ATOM     93  C   UNL A   1      43.939  22.942  33.930  1.00  0.00     0.131 A 
ATOM     94  C   UNL A   1      46.516  22.267  34.605  1.00  0.00     0.055 A 
ATOM     95  C   UNL A   1      44.173  21.846  34.768  1.00  0.00     0.041 A 
ATOM     96  F   UNL A   1      42.652  23.168  33.628  1.00  0.00    -0.206 F 
ATOM     97  C   UNL A   1      45.470  21.490  35.096  1.00  0.00     0.022 A 
BRANCH  94  98
ATOM     98  S   UNL A   1      48.234  21.763  34.893  1.00  0.00     0.124 S 
ATOM     99  O   UNL A   1      48.240  21.531  36.336  1.00  0.00    -0.237 OA
ATOM    100  O   UNL A   1      48.355  20.572  34.060  1.00  0.00    -0.237 OA
ATOM    101  O   UNL A   1      49.012  22.917  34.448  1.00  0.00    -0.744 OA
ENDBRANCH  94  98
ENDBRANCH  68  91
ENDBRANCH  42  43
ENDBRANCH  34  37
ENDBRANCH  32  33
ENDBRANCH  31  32
ENDBRANCH   1  31
TORSDOF 19
ENDMDL
MODEL 2
REMARK VINA RESULT:     -12.5      4.164     10.787
REMARK SMILES CC[C@H](C)[C@H](NC(=O)CN1C(=O)/C(=C/c2ccc(C)cc2)SC1=S)C(=O)NCCCNC(=O)c1ccc(-c2c3nc(c(-c4cc(S(=O)(=O)[O-])ccc4F)c4ccc([nH]4)c(-c4cc(S(=O)(=O)[O-])ccc4F)c4nc(c(-c5cc(S(=O)(=O)[O-])ccc5F)c5ccc2[nH]5)C=C4)C=C3)cc1
REMARK SMILES IDX 28 1 27 2 25 3 26 4 5 6 3 7 4 8 2 9 1 10 6 11 7 12 8 14 9 15
REMARK SMILES IDX 10 16 11 17 23 18 12 19 13 20 22 21 24 22 14 23 15 24 16 25
REMARK SMILES IDX 21 26 17 27 20 28 18 29 19 30 29 31 30 32 31 33 32 34 33 36
REMARK SMILES IDX 34 37 35 38 96 39 36 40 95 41 37 42 38 43 39 44 89 45 40 46
REMARK SMILES IDX 94 47 88 48 90 49 41 50 93 51 87 52 86 53 42 55 74 56 54 57
REMARK SMILES IDX 73 58 55 59 58 60 72 61 91 62 56 63 57 64 71 66 92 67 59 68
REMARK SMILES IDX 43 69 44 70 52 71 45 72 51 73 53 74 50 75 46 76 47 77 48 78
REMARK SMILES IDX 49 79 75 80 76 81 84 82 77 83 83 84 85 85 82 86 78 87 79 88
REMARK SMILES IDX 80 89 81 90 60 91 61 92 69 93 62 94 68 95 70 96 67 97 63 98
REMARK SMILES IDX 64 99 65 100 66 101
REMARK H PARENT 27 5 6 13 31 35 90 54 58 65
REMARK Flexibility Score: inf
ROOT
ATOM      1  C   UNL A   1      36.523  21.993  25.391  1.00  0.00     0.117 C 
ENDROOT
BRANCH   1   2
ATOM      2  N   UNL A   1      35.580  21.887  26.485  1.00  0.00    -0.354 N 
ATOM      3  C   UNL A   1      34.286  21.475  26.469  1.00  0.00     0.242 C 
ATOM      4  O   UNL A   1      33.716  21.160  27.519  1.00  0.00    -0.273 OA
ATOM      5  H   UNL A   1      35.928  22.152  27.367  1.00  0.00     0.163 HD
BRANCH   3   6
ATOM      6  C   UNL A   1      33.534  21.262  25.149  1.00  0.00     0.174 C 
BRANCH   6   7
ATOM      7  C   UNL A   1      33.378  19.711  24.817  1.00  0.00     0.018 C 
ATOM      8  C   UNL A   1      32.438  19.325  23.659  1.00  0.00     0.010 C 
BRANCH   7   9
ATOM      9  C   UNL A   1      34.755  18.995  24.669  1.00  0.00     0.002 C 
ATOM     10  C   UNL A   1      34.717  17.519  24.298  1.00  0.00     0.004 C 
ENDBRANCH   7   9
ENDBRANCH   6   7
BRANCH   6  11
ATOM     11  N   UNL A   1      34.008  22.076  24.021  1.00  0.00    -0.342 N 
ATOM     12  C   UNL A   1      33.367  22.901  23.149  1.00  0.00     0.240 C 
ATOM     13  H   UNL A   1      34.979  22.012  23.867  1.00  0.00     0.164 HD
ATOM     14  O   UNL A   1      34.006  23.184  22.126  1.00  0.00    -0.273 OA
BRANCH  12  15
ATOM     15  C   UNL A   1      32.037  23.626  23.432  1.00  0.00     0.227 C 
BRANCH  15  16
ATOM     16  N   UNL A   1      32.067  24.792  24.300  1.00  0.00    -0.283 N 
ATOM     17  C   UNL A   1      32.399  26.028  23.753  1.00  0.00     0.266 C 
ATOM     18  C   UNL A   1      31.508  24.829  25.558  1.00  0.00     0.148 C 
ATOM     19  O   UNL A   1      32.505  26.283  22.562  1.00  0.00    -0.268 OA
ATOM     20  C   UNL A   1      32.499  27.028  24.846  1.00  0.00     0.081 C 
ATOM     21  S   UNL A   1      31.623  26.451  26.214  1.00  0.00    -0.054 SA
ATOM     22  S   UNL A   1      30.817  23.583  26.427  1.00  0.00    -0.052 S 
ATOM     23  C   UNL A   1      33.256  28.134  24.767  1.00  0.00     0.029 C 
BRANCH  23  24
ATOM     24  C   UNL A   1      33.449  29.052  25.896  1.00  0.00    -0.024 A 
ATOM     25  C   UNL A   1      32.531  30.083  26.141  1.00  0.00     0.008 A 
ATOM     26  C   UNL A   1      34.604  28.968  26.673  1.00  0.00     0.008 A 
ATOM     27  C   UNL A   1      32.824  31.089  27.062  1.00  0.00     0.004 A 
ATOM     28  C   UNL A   1      34.889  29.966  27.610  1.00  0.00     0.004 A 
ATOM     29  C   UNL A   1      34.024  31.057  27.778  1.00  0.00    -0.051 A 
ATOM     30  C   UNL A   1      34.411  32.190  28.679  1.00  0.00     0.044 C 
ENDBRANCH  23  24
ENDBRANCH  15  16
ENDBRANCH  12  15
ENDBRANCH   6  11
ENDBRANCH   3   6
ENDBRANCH   1   2
BRANCH   1  31
ATOM     31  C   UNL A   1      37.977  22.071  25.799  1.00  0.00     0.042 C 
BRANCH  31  32
ATOM     32  C   UNL A   1      38.446  23.482  26.106  1.00  0.00     0.118 C 
BRANCH  32  33
ATOM     33  N   UNL A   1      39.902  23.560  26.216  1.00  0.00    -0.352 N 
ATOM     34  C   UNL A   1      40.686  24.592  26.708  1.00  0.00     0.251 C 
ATOM     35  H   UNL A   1      40.394  22.769  25.896  1.00  0.00     0.163 HD
ATOM     36  O   UNL A   1      41.893  24.522  26.780  1.00  0.00    -0.269 OA
BRANCH  34  37
ATOM     37  C   UNL A   1      39.966  25.751  27.282  1.00  0.00     0.039 A 
ATOM     38  C   UNL A   1      40.252  26.993  26.709  1.00  0.00     0.014 A 
ATOM     39  C   UNL A   1      39.372  25.646  28.538  1.00  0.00     0.014 A 
ATOM     40  C   UNL A   1      40.189  28.125  27.508  1.00  0.00     0.010 A 
ATOM     41  C   UNL A   1      39.395  26.760  29.357  1.00  0.00     0.010 A 
ATOM     42  C   UNL A   1      39.881  27.978  28.862  1.00  0.00    -0.014 A 
BRANCH  42  43
ATOM     43  C   UNL A   1      40.169  29.037  29.823  1.00  0.00     0.031 A 
ATOM     44  C   UNL A   1      39.157  30.072  30.093  1.00  0.00     0.074 A 
ATOM     45  C   UNL A   1      41.380  29.111  30.422  1.00  0.00     0.049 A 
ATOM     46  N   UNL A   1      39.416  31.306  30.365  1.00  0.00    -0.248 NA
ATOM     47  C   UNL A   1      37.733  29.783  30.008  1.00  0.00     0.031 C 
ATOM     48  C   UNL A   1      41.798  30.050  31.459  1.00  0.00     0.029 A 
ATOM     49  N   UNL A   1      42.570  28.493  30.009  1.00  0.00    -0.354 N 
ATOM     50  C   UNL A   1      38.240  31.899  30.768  1.00  0.00     0.074 A 
ATOM     51  C   UNL A   1      37.215  30.937  30.435  1.00  0.00     0.031 C 
ATOM     52  C   UNL A   1      43.131  30.200  31.383  1.00  0.00     0.029 A 
ATOM     53  C   UNL A   1      43.587  29.450  30.224  1.00  0.00     0.049 A 
ATOM     54  H   UNL A   1      42.676  27.583  29.646  1.00  0.00     0.167 HD
ATOM     55  C   UNL A   1      38.282  33.064  31.478  1.00  0.00     0.034 A 
ATOM     56  C   UNL A   1      44.328  29.957  29.198  1.00  0.00     0.034 A 
ATOM     57  C   UNL A   1      39.649  33.583  31.576  1.00  0.00     0.049 A 
ATOM     58  C   UNL A   1      44.241  31.461  29.057  1.00  0.00     0.074 A 
ATOM     59  C   UNL A   1      40.595  33.555  32.590  1.00  0.00     0.029 A 
ATOM     60  N   UNL A   1      40.324  33.987  30.426  1.00  0.00    -0.354 N 
ATOM     61  N   UNL A   1      43.340  32.203  29.641  1.00  0.00    -0.248 NA
ATOM     62  C   UNL A   1      45.139  32.241  28.210  1.00  0.00     0.031 C 
ATOM     63  C   UNL A   1      41.858  33.861  32.022  1.00  0.00     0.029 A 
ATOM     64  C   UNL A   1      41.680  34.113  30.673  1.00  0.00     0.049 A 
ATOM     65  H   UNL A   1      39.895  34.160  29.557  1.00  0.00     0.167 HD
ATOM     66  C   UNL A   1      43.477  33.504  29.226  1.00  0.00     0.074 A 
ATOM     67  C   UNL A   1      44.647  33.482  28.364  1.00  0.00     0.031 C 
ATOM     68  C   UNL A   1      42.601  34.483  29.604  1.00  0.00     0.034 A 
BRANCH  55  69
ATOM     69  C   UNL A   1      37.147  33.539  32.372  1.00  0.00     0.023 A 
ATOM     70  C   UNL A   1      36.033  34.185  31.789  1.00  0.00     0.031 A 
ATOM     71  C   UNL A   1      37.119  33.470  33.779  1.00  0.00     0.131 A 
ATOM     72  C   UNL A   1      35.057  34.828  32.575  1.00  0.00     0.055 A 
ATOM     73  C   UNL A   1      36.188  34.167  34.563  1.00  0.00     0.041 A 
ATOM     74  F   UNL A   1      37.945  32.673  34.464  1.00  0.00    -0.206 F 
ATOM     75  C   UNL A   1      35.158  34.868  33.960  1.00  0.00     0.022 A 
BRANCH  72  76
ATOM     76  S   UNL A   1      33.639  35.613  31.759  1.00  0.00     0.124 S 
ATOM     77  O   UNL A   1      33.875  35.300  30.353  1.00  0.00    -0.237 OA
ATOM     78  O   UNL A   1      32.510  34.940  32.390  1.00  0.00    -0.237 OA
ATOM     79  O   UNL A   1      33.786  37.025  32.108  1.00  0.00    -0.744 OA
ENDBRANCH  72  76
ENDBRANCH  55  69
BRANCH  56  80
ATOM     80  C   UNL A   1      44.551  29.006  28.073  1.00  0.00     0.023 A 
ATOM     81  C   UNL A   1      45.417  27.913  28.289  1.00  0.00     0.031 A 
ATOM     82  C   UNL A   1      43.713  28.964  26.951  1.00  0.00     0.131 A 
ATOM     83  C   UNL A   1      45.333  26.770  27.480  1.00  0.00     0.055 A 
ATOM     84  C   UNL A   1      43.668  27.840  26.117  1.00  0.00     0.041 A 
ATOM     85  F   UNL A   1      42.845  29.956  26.710  1.00  0.00    -0.206 F 
ATOM     86  C   UNL A   1      44.449  26.721  26.402  1.00  0.00     0.022 A 
BRANCH  83  87
ATOM     87  S   UNL A   1      46.191  25.259  27.992  1.00  0.00     0.124 S 
ATOM     88  O   UNL A   1      47.365  25.252  27.128  1.00  0.00    -0.237 OA
ATOM     89  O   UNL A   1      46.445  25.494  29.412  1.00  0.00    -0.237 OA
ATOM     90  O   UNL A   1      45.212  24.203  27.737  1.00  0.00    -0.744 OA
ENDBRANCH  83  87
ENDBRANCH  56  80
BRANCH  68  91
ATOM     91  C   UNL A   1      42.580  35.897  29.063  1.00  0.00     0.023 A 
ATOM     92  C   UNL A   1      43.365  36.939  29.579  1.00  0.00     0.031 A 
ATOM     93  C   UNL A   1      41.796  36.224  27.928  1.00  0.00     0.131 A 
ATOM     94  C   UNL A   1      43.289  38.241  29.049  1.00  0.00     0.055 A 
ATOM     95  C   UNL A   1      41.786  37.498  27.351  1.00  0.00     0.041 A 
ATOM     96  F   UNL A   1      41.008  35.318  27.332  1.00  0.00    -0.206 F 
ATOM     97  C   UNL A   1      42.521  38.523  27.922  1.00  0.00     0.022 A 
BRANCH  94  98
ATOM     98  S   UNL A   1      44.159  39.577  29.912  1.00  0.00     0.124 S 
ATOM     99  O   UNL A   1      43.665  40.759  29.210  1.00  0.00    -0.237 OA
ATOM    100  O   UNL A   1      43.696  39.416  31.286  1.00  0.00    -0.237 OA
ATOM    101  O   UNL A   1      45.570  39.271  29.691  1.00  0.00    -0.744 OA
ENDBRANCH  94  98
ENDBRANCH  68  91
ENDBRANCH  42  43
ENDBRANCH  34  37
ENDBRANCH  32  33
ENDBRANCH  31  32
ENDBRANCH   1  31
TORSDOF 19
ENDMDL
MODEL 3
REMARK VINA RESULT:     -12.3      1.586      1.996
REMARK SMILES CC[C@H](C)[C@H](NC(=O)CN1C(=O)/C(=C/c2ccc(C)cc2)SC1=S)C(=O)NCCCNC(=O)c1ccc(-c2c3nc(c(-c4cc(S(=O)(=O)[O-])ccc4F)c4ccc([nH]4)c(-c4cc(S(=O)(=O)[O-])ccc4F)c4nc(c(-c5cc(S(=O)(=O)[O-])ccc5F)c5ccc2[nH]5)C=C4)C=C3)cc1
REMARK SMILES IDX 28 1 27 2 25 3 26 4 5 6 3 7 4 8 2 9 1 10 6 11 7 12 8 14 9 15
REMARK SMILES IDX 10 16 11 17 23 18 12 19 13 20 22 21 24 22 14 23 15 24 16 25
REMARK SMILES IDX 21 26 17 27 20 28 18 29 19 30 29 31 30 32 31 33 32 34 33 36
REMARK SMILES IDX 34 37 35 38 96 39 36 40 95 41 37 42 38 43 39 44 89 45 40 46
REMARK SMILES IDX 94 47 88 48 90 49 41 50 93 51 87 52 86 53 42 55 74 56 54 57
REMARK SMILES IDX 73 58 55 59 58 60 72 61 91 62 56 63 57 64 71 66 92 67 59 68
REMARK SMILES IDX 43 69 44 70 52 71 45 72 51 73 53 74 50 75 46 76 47 77 48 78
REMARK SMILES IDX 49 79 75 80 76 81 84 82 77 83 83 84 85 85 82 86 78 87 79 88
REMARK SMILES IDX 80 89 81 90 60 91 61 92 69 93 62 94 68 95 70 96 67 97 63 98
REMARK SMILES IDX 64 99 65 100 66 101
REMARK H PARENT 27 5 6 13 31 35 90 54 58 65
REMARK Flexibility Score: inf
ROOT
ATOM      1  C   UNL A   1      32.230  30.432  26.869  1.00  0.00     0.117 C 
ENDROOT
BRANCH   1   2
ATOM      2  N   UNL A   1      31.431  30.881  25.749  1.00  0.00    -0.354 N 
ATOM      3  C   UNL A   1      30.960  30.175  24.688  1.00  0.00     0.242 C 
ATOM      4  O   UNL A   1      30.054  30.632  23.984  1.00  0.00    -0.273 OA
ATOM      5  H   UNL A   1      31.195  31.838  25.756  1.00  0.00     0.163 HD
BRANCH   3   6
ATOM      6  C   UNL A   1      31.439  28.745  24.409  1.00  0.00     0.174 C 
BRANCH   6   7
ATOM      7  C   UNL A   1      32.560  28.722  23.276  1.00  0.00     0.018 C 
ATOM      8  C   UNL A   1      34.024  28.896  23.725  1.00  0.00     0.010 C 
BRANCH   7   9
ATOM      9  C   UNL A   1      32.418  27.495  22.325  1.00  0.00     0.002 C 
ATOM     10  C   UNL A   1      33.395  26.348  22.545  1.00  0.00     0.004 C 
ENDBRANCH   7   9
ENDBRANCH   6   7
BRANCH   6  11
ATOM     11  N   UNL A   1      30.370  27.754  24.220  1.00  0.00    -0.342 N 
ATOM     12  C   UNL A   1      30.153  26.522  24.758  1.00  0.00     0.240 C 
ATOM     13  H   UNL A   1      29.676  28.036  23.581  1.00  0.00     0.164 HD
ATOM     14  O   UNL A   1      29.332  25.820  24.150  1.00  0.00    -0.273 OA
BRANCH  12  15
ATOM     15  C   UNL A   1      30.694  26.042  26.118  1.00  0.00     0.227 C 
BRANCH  15  16
ATOM     16  N   UNL A   1      31.789  25.086  26.118  1.00  0.00    -0.283 N 
ATOM     17  C   UNL A   1      33.095  25.561  26.050  1.00  0.00     0.266 C 
ATOM     18  C   UNL A   1      31.655  23.763  26.475  1.00  0.00     0.148 C 
ATOM     19  O   UNL A   1      33.443  26.728  26.165  1.00  0.00    -0.268 OA
ATOM     20  C   UNL A   1      34.023  24.409  25.923  1.00  0.00     0.081 C 
ATOM     21  S   UNL A   1      33.228  22.987  26.489  1.00  0.00    -0.054 SA
ATOM     22  S   UNL A   1      30.263  22.919  26.844  1.00  0.00    -0.052 S 
ATOM     23  C   UNL A   1      35.233  24.495  25.349  1.00  0.00     0.029 C 
BRANCH  23  24
ATOM     24  C   UNL A   1      36.091  23.328  25.115  1.00  0.00    -0.024 A 
ATOM     25  C   UNL A   1      35.667  22.288  24.275  1.00  0.00     0.008 A 
ATOM     26  C   UNL A   1      37.294  23.197  25.808  1.00  0.00     0.008 A 
ATOM     27  C   UNL A   1      36.369  21.083  24.228  1.00  0.00     0.004 A 
ATOM     28  C   UNL A   1      38.009  21.997  25.746  1.00  0.00     0.004 A 
ATOM     29  C   UNL A   1      37.527  20.917  24.993  1.00  0.00    -0.051 A 
ATOM     30  C   UNL A   1      38.226  19.592  25.050  1.00  0.00     0.044 C 
ENDBRANCH  23  24
ENDBRANCH  15  16
ENDBRANCH  12  15
ENDBRANCH   6  11
ENDBRANCH   3   6
ENDBRANCH   1   2
BRANCH   1  31
ATOM     31  C   UNL A   1      33.397  31.325  27.226  1.00  0.00     0.042 C 
BRANCH  31  32
ATOM     32  C   UNL A   1      34.460  30.631  28.058  1.00  0.00     0.118 C 
BRANCH  32  33
ATOM     33  N   UNL A   1      35.477  31.568  28.534  1.00  0.00    -0.352 N 
ATOM     34  C   UNL A   1      36.819  31.339  28.795  1.00  0.00     0.251 C 
ATOM     35  H   UNL A   1      35.165  32.489  28.690  1.00  0.00     0.163 HD
ATOM     36  O   UNL A   1      37.576  32.214  29.155  1.00  0.00    -0.269 OA
BRANCH  34  37
ATOM     37  C   UNL A   1      37.333  29.988  28.477  1.00  0.00     0.039 A 
ATOM     38  C   UNL A   1      37.567  29.151  29.571  1.00  0.00     0.014 A 
ATOM     39  C   UNL A   1      37.904  29.739  27.231  1.00  0.00     0.014 A 
ATOM     40  C   UNL A   1      38.587  28.214  29.486  1.00  0.00     0.010 A 
ATOM     41  C   UNL A   1      38.977  28.868  27.177  1.00  0.00     0.010 A 
ATOM     42  C   UNL A   1      39.366  28.170  28.327  1.00  0.00    -0.014 A 
BRANCH  42  43
ATOM     43  C   UNL A   1      40.664  27.502  28.313  1.00  0.00     0.031 A 
ATOM     44  C   UNL A   1      40.729  26.035  28.223  1.00  0.00     0.074 A 
ATOM     45  C   UNL A   1      41.805  28.218  28.444  1.00  0.00     0.049 A 
ATOM     46  N   UNL A   1      41.622  25.297  28.791  1.00  0.00    -0.248 NA
ATOM     47  C   UNL A   1      39.714  25.271  27.513  1.00  0.00     0.031 C 
ATOM     48  C   UNL A   1      43.175  27.718  28.367  1.00  0.00     0.029 A 
ATOM     49  N   UNL A   1      41.936  29.525  28.936  1.00  0.00    -0.354 N 
ATOM     50  C   UNL A   1      41.481  24.019  28.299  1.00  0.00     0.074 A 
ATOM     51  C   UNL A   1      40.225  24.040  27.586  1.00  0.00     0.031 C 
ATOM     52  C   UNL A   1      43.965  28.536  29.082  1.00  0.00     0.029 A 
ATOM     53  C   UNL A   1      43.106  29.514  29.729  1.00  0.00     0.049 A 
ATOM     54  H   UNL A   1      41.340  30.290  28.765  1.00  0.00     0.167 HD
ATOM     55  C   UNL A   1      42.515  23.134  28.417  1.00  0.00     0.034 A 
ATOM     56  C   UNL A   1      43.071  29.773  31.067  1.00  0.00     0.034 A 
ATOM     57  C   UNL A   1      43.609  23.693  29.215  1.00  0.00     0.049 A 
ATOM     58  C   UNL A   1      43.608  28.650  31.927  1.00  0.00     0.074 A 
ATOM     59  C   UNL A   1      44.831  24.252  28.874  1.00  0.00     0.029 A 
ATOM     60  N   UNL A   1      43.406  23.993  30.560  1.00  0.00    -0.354 N 
ATOM     61  N   UNL A   1      43.817  27.434  31.502  1.00  0.00    -0.248 NA
ATOM     62  C   UNL A   1      43.910  28.801  33.348  1.00  0.00     0.031 C 
ATOM     63  C   UNL A   1      45.319  24.964  29.999  1.00  0.00     0.029 A 
ATOM     64  C   UNL A   1      44.417  24.808  31.038  1.00  0.00     0.049 A 
ATOM     65  H   UNL A   1      42.648  23.668  31.098  1.00  0.00     0.167 HD
ATOM     66  C   UNL A   1      44.205  26.641  32.553  1.00  0.00     0.074 A 
ATOM     67  C   UNL A   1      44.291  27.556  33.678  1.00  0.00     0.031 C 
ATOM     68  C   UNL A   1      44.397  25.294  32.413  1.00  0.00     0.034 A 
BRANCH  55  69
ATOM     69  C   UNL A   1      42.676  21.915  27.522  1.00  0.00     0.023 A 
ATOM     70  C   UNL A   1      43.764  21.859  26.622  1.00  0.00     0.031 A 
ATOM     71  C   UNL A   1      41.782  20.830  27.435  1.00  0.00     0.131 A 
ATOM     72  C   UNL A   1      43.851  20.864  25.629  1.00  0.00     0.055 A 
ATOM     73  C   UNL A   1      41.828  19.878  26.406  1.00  0.00     0.041 A 
ATOM     74  F   UNL A   1      40.864  20.594  28.378  1.00  0.00    -0.206 F 
ATOM     75  C   UNL A   1      42.858  19.903  25.482  1.00  0.00     0.022 A 
BRANCH  72  76
ATOM     76  S   UNL A   1      45.291  20.837  24.525  1.00  0.00     0.124 S 
ATOM     77  O   UNL A   1      44.841  19.965  23.445  1.00  0.00    -0.237 OA
ATOM     78  O   UNL A   1      45.450  22.248  24.193  1.00  0.00    -0.237 OA
ATOM     79  O   UNL A   1      46.352  20.281  25.365  1.00  0.00    -0.744 OA
ENDBRANCH  72  76
ENDBRANCH  55  69
BRANCH  56  80
ATOM     80  C   UNL A   1      42.009  30.732  31.480  1.00  0.00     0.023 A 
ATOM     81  C   UNL A   1      40.953  30.248  32.282  1.00  0.00     0.031 A 
ATOM     82  C   UNL A   1      42.176  32.119  31.387  1.00  0.00     0.131 A 
ATOM     83  C   UNL A   1      40.193  31.132  33.062  1.00  0.00     0.055 A 
ATOM     84  C   UNL A   1      41.381  33.001  32.130  1.00  0.00     0.041 A 
ATOM     85  F   UNL A   1      43.180  32.640  30.667  1.00  0.00    -0.206 F 
ATOM     86  C   UNL A   1      40.412  32.507  33.003  1.00  0.00     0.022 A 
BRANCH  83  87
ATOM     87  S   UNL A   1      39.096  30.463  34.341  1.00  0.00     0.124 S 
ATOM     88  O   UNL A   1      39.943  29.480  35.004  1.00  0.00    -0.237 OA
ATOM     89  O   UNL A   1      38.753  31.645  35.127  1.00  0.00    -0.237 OA
ATOM     90  O   UNL A   1      37.972  29.918  33.579  1.00  0.00    -0.744 OA
ENDBRANCH  83  87
ENDBRANCH  56  80
BRANCH  68  91
ATOM     91  C   UNL A   1      44.659  24.324  33.546  1.00  0.00     0.023 A 
ATOM     92  C   UNL A   1      45.896  23.697  33.761  1.00  0.00     0.031 A 
ATOM     93  C   UNL A   1      43.658  24.055  34.512  1.00  0.00     0.131 A 
ATOM     94  C   UNL A   1      46.077  22.787  34.821  1.00  0.00     0.055 A 
ATOM     95  C   UNL A   1      43.867  23.215  35.612  1.00  0.00     0.041 A 
ATOM     96  F   UNL A   1      42.435  24.598  34.430  1.00  0.00    -0.206 F 
ATOM     97  C   UNL A   1      45.077  22.559  35.762  1.00  0.00     0.022 A 
BRANCH  94  98
ATOM     98  S   UNL A   1      47.626  21.849  34.897  1.00  0.00     0.124 S 
ATOM     99  O   UNL A   1      48.588  22.816  34.374  1.00  0.00    -0.237 OA
ATOM    100  O   UNL A   1      47.741  21.548  36.321  1.00  0.00    -0.237 OA
ATOM    101  O   UNL A   1      47.376  20.696  34.036  1.00  0.00    -0.744 OA
ENDBRANCH  94  98
ENDBRANCH  68  91
ENDBRANCH  42  43
ENDBRANCH  34  37
ENDBRANCH  32  33
ENDBRANCH  31  32
ENDBRANCH   1  31
TORSDOF 19
ENDMDL
