MODEL 1
REMARK VINA RESULT:     -12.4      0.000      0.000
REMARK SMILES O=C(NCCCNC(=O)c1ncccc1-c1cc(Cl)cc(Cl)c1)c1ccc(-c2c3nc(c(-c4cc(S(=O)(=O)[O-])ccc4F)c4ccc([nH]4)c(-c4cc(S(=O)(=O)[O-])ccc4F)c4nc(c(-c5cc(S(=O)(=O)[O-])ccc5F)c5ccc2[nH]5)C=C4)C=C3)cc1
REMARK SMILES IDX 4 1 3 2 1 3 2 4 24 6 25 7 86 8 26 9 85 10 27 11 28 12 29 13
REMARK SMILES IDX 79 14 30 15 84 16 78 17 80 18 31 19 83 20 77 21 76 22 32 24
REMARK SMILES IDX 64 25 44 26 63 27 45 28 48 29 62 30 81 31 46 32 47 33 61 35
REMARK SMILES IDX 82 36 49 37 33 38 34 39 42 40 35 41 41 42 43 43 40 44 36 45
REMARK SMILES IDX 37 46 38 47 39 48 65 49 66 50 74 51 67 52 73 53 75 54 72 55
REMARK SMILES IDX 68 56 69 57 70 58 71 59 50 60 51 61 59 62 52 63 58 64 60 65
REMARK SMILES IDX 57 66 53 67 54 68 55 69 56 70 5 71 6 72 7 73 8 74 9 76 10 77
REMARK SMILES IDX 11 78 15 79 12 80 14 81 13 82 16 83 17 84 23 85 18 86 21 87
REMARK SMILES IDX 19 88 20 89 22 90
REMARK H PARENT 3 5 80 23 48 34 7 75
REMARK Flexibility Score: inf
ROOT
ATOM      1  C   UNL A   1      36.328  22.122  25.748  1.00  0.00     0.118 C 
ENDROOT
BRANCH   1   2
ATOM      2  N   UNL A   1      37.420  21.156  25.641  1.00  0.00    -0.352 N 
ATOM      3  O   UNL A   1      39.520  20.346  25.615  1.00  0.00    -0.269 OA
ATOM      4  C   UNL A   1      38.766  21.273  25.907  1.00  0.00     0.251 C 
ATOM      5  H   UNL A   1      37.144  20.266  25.323  1.00  0.00     0.163 HD
BRANCH   4   6
ATOM      6  C   UNL A   1      39.315  22.510  26.505  1.00  0.00     0.039 A 
ATOM      7  C   UNL A   1      38.821  23.759  26.139  1.00  0.00     0.014 A 
ATOM      8  C   UNL A   1      40.348  22.426  27.444  1.00  0.00     0.014 A 
ATOM      9  C   UNL A   1      39.511  24.906  26.504  1.00  0.00     0.010 A 
ATOM     10  C   UNL A   1      40.952  23.595  27.924  1.00  0.00     0.010 A 
ATOM     11  C   UNL A   1      40.584  24.846  27.408  1.00  0.00    -0.014 A 
BRANCH  11  12
ATOM     12  C   UNL A   1      41.279  26.109  27.781  1.00  0.00     0.031 A 
ATOM     13  C   UNL A   1      42.639  26.443  27.223  1.00  0.00     0.074 A 
ATOM     14  C   UNL A   1      40.638  26.997  28.569  1.00  0.00     0.049 A 
ATOM     15  N   UNL A   1      43.361  27.524  27.396  1.00  0.00    -0.248 NA
ATOM     16  C   UNL A   1      43.282  25.430  26.374  1.00  0.00     0.031 C 
ATOM     17  C   UNL A   1      39.320  26.784  29.176  1.00  0.00     0.029 A 
ATOM     18  N   UNL A   1      40.976  28.268  28.959  1.00  0.00    -0.354 N 
ATOM     19  C   UNL A   1      44.553  27.306  26.711  1.00  0.00     0.074 A 
ATOM     20  C   UNL A   1      44.467  25.977  26.144  1.00  0.00     0.031 C 
ATOM     21  C   UNL A   1      38.927  27.912  29.785  1.00  0.00     0.029 A 
ATOM     22  C   UNL A   1      39.994  28.900  29.687  1.00  0.00     0.049 A 
ATOM     23  H   UNL A   1      41.839  28.688  28.739  1.00  0.00     0.167 HD
ATOM     24  C   UNL A   1      45.614  28.139  26.564  1.00  0.00     0.034 A 
ATOM     25  C   UNL A   1      39.954  30.133  30.225  1.00  0.00     0.034 A 
ATOM     26  C   UNL A   1      45.671  29.474  27.112  1.00  0.00     0.049 A 
ATOM     27  C   UNL A   1      41.141  31.038  30.043  1.00  0.00     0.074 A 
ATOM     28  C   UNL A   1      46.684  30.412  27.000  1.00  0.00     0.029 A 
ATOM     29  N   UNL A   1      44.672  30.064  27.878  1.00  0.00    -0.354 N 
ATOM     30  N   UNL A   1      42.258  30.812  29.393  1.00  0.00    -0.248 NA
ATOM     31  C   UNL A   1      41.058  32.363  30.666  1.00  0.00     0.031 C 
ATOM     32  C   UNL A   1      46.323  31.543  27.743  1.00  0.00     0.029 A 
ATOM     33  C   UNL A   1      45.055  31.341  28.262  1.00  0.00     0.049 A 
ATOM     34  H   UNL A   1      43.817  29.638  28.113  1.00  0.00     0.167 HD
ATOM     35  C   UNL A   1      43.007  31.978  29.515  1.00  0.00     0.074 A 
ATOM     36  C   UNL A   1      42.202  32.909  30.278  1.00  0.00     0.031 C 
ATOM     37  C   UNL A   1      44.247  32.253  29.039  1.00  0.00     0.034 A 
BRANCH  24  38
ATOM     38  C   UNL A   1      46.820  27.606  25.823  1.00  0.00     0.023 A 
ATOM     39  C   UNL A   1      47.104  27.971  24.495  1.00  0.00     0.031 A 
ATOM     40  C   UNL A   1      47.683  26.688  26.449  1.00  0.00     0.131 A 
ATOM     41  C   UNL A   1      48.176  27.367  23.815  1.00  0.00     0.055 A 
ATOM     42  C   UNL A   1      48.794  26.152  25.794  1.00  0.00     0.041 A 
ATOM     43  F   UNL A   1      47.454  26.284  27.709  1.00  0.00    -0.206 F 
ATOM     44  C   UNL A   1      49.036  26.478  24.464  1.00  0.00     0.022 A 
BRANCH  41  45
ATOM     45  S   UNL A   1      48.342  27.649  22.030  1.00  0.00     0.124 S 
ATOM     46  O   UNL A   1      47.057  28.268  21.706  1.00  0.00    -0.237 OA
ATOM     47  O   UNL A   1      49.507  28.522  21.955  1.00  0.00    -0.237 OA
ATOM     48  O   UNL A   1      48.531  26.306  21.486  1.00  0.00    -0.744 OA
ENDBRANCH  41  45
ENDBRANCH  24  38
BRANCH  25  49
ATOM     49  C   UNL A   1      38.764  30.573  31.006  1.00  0.00     0.023 A 
ATOM     50  C   UNL A   1      37.678  31.205  30.378  1.00  0.00     0.031 A 
ATOM     51  C   UNL A   1      38.702  30.382  32.398  1.00  0.00     0.131 A 
ATOM     52  C   UNL A   1      36.594  31.655  31.146  1.00  0.00     0.055 A 
ATOM     53  C   UNL A   1      37.598  30.784  33.149  1.00  0.00     0.041 A 
ATOM     54  F   UNL A   1      39.711  29.777  33.045  1.00  0.00    -0.206 F 
ATOM     55  C   UNL A   1      36.540  31.436  32.526  1.00  0.00     0.022 A 
BRANCH  52  56
ATOM     56  S   UNL A   1      35.280  32.599  30.326  1.00  0.00     0.124 S 
ATOM     57  O   UNL A   1      34.274  32.684  31.377  1.00  0.00    -0.237 OA
ATOM     58  O   UNL A   1      35.966  33.843  29.992  1.00  0.00    -0.237 OA
ATOM     59  O   UNL A   1      34.922  31.760  29.184  1.00  0.00    -0.744 OA
ENDBRANCH  52  56
ENDBRANCH  25  49
BRANCH  37  60
ATOM     60  C   UNL A   1      44.779  33.639  29.304  1.00  0.00     0.023 A 
ATOM     61  C   UNL A   1      44.505  34.713  28.439  1.00  0.00     0.031 A 
ATOM     62  C   UNL A   1      45.608  33.876  30.414  1.00  0.00     0.131 A 
ATOM     63  C   UNL A   1      45.108  35.960  28.660  1.00  0.00     0.055 A 
ATOM     64  C   UNL A   1      46.158  35.134  30.662  1.00  0.00     0.041 A 
ATOM     65  F   UNL A   1      45.903  32.885  31.270  1.00  0.00    -0.206 F 
ATOM     66  C   UNL A   1      45.923  36.180  29.775  1.00  0.00     0.022 A 
BRANCH  63  67
ATOM     67  S   UNL A   1      44.903  37.261  27.413  1.00  0.00     0.124 S 
ATOM     68  O   UNL A   1      44.940  38.472  28.227  1.00  0.00    -0.237 OA
ATOM     69  O   UNL A   1      46.054  37.042  26.543  1.00  0.00    -0.237 OA
ATOM     70  O   UNL A   1      43.605  36.957  26.813  1.00  0.00    -0.744 OA
ENDBRANCH  63  67
ENDBRANCH  37  60
ENDBRANCH  11  12
ENDBRANCH   4   6
ENDBRANCH   1   2
BRANCH   1  71
ATOM     71  C   UNL A   1      35.880  22.687  24.408  1.00  0.00     0.042 C 
BRANCH  71  72
ATOM     72  C   UNL A   1      35.216  24.045  24.511  1.00  0.00     0.118 C 
BRANCH  72  73
ATOM     73  N   UNL A   1      34.390  24.379  23.362  1.00  0.00    -0.351 N 
ATOM     74  C   UNL A   1      33.016  24.403  23.278  1.00  0.00     0.270 C 
ATOM     75  H   UNL A   1      34.875  24.618  22.539  1.00  0.00     0.163 HD
ATOM     76  O   UNL A   1      32.468  24.795  22.251  1.00  0.00    -0.267 OA
BRANCH  74  77
ATOM     77  C   UNL A   1      32.201  23.981  24.453  1.00  0.00     0.135 A 
ATOM     78  N   UNL A   1      31.962  22.641  24.503  1.00  0.00    -0.250 NA
ATOM     79  C   UNL A   1      31.795  24.909  25.428  1.00  0.00     0.013 A 
ATOM     80  C   UNL A   1      31.308  22.182  25.586  1.00  0.00     0.112 A 
ATOM     81  C   UNL A   1      31.118  24.371  26.532  1.00  0.00     0.013 A 
ATOM     82  C   UNL A   1      30.876  22.999  26.617  1.00  0.00     0.021 A 
BRANCH  79  83
ATOM     83  C   UNL A   1      32.118  26.348  25.365  1.00  0.00    -0.013 A 
ATOM     84  C   UNL A   1      31.260  27.238  24.692  1.00  0.00     0.029 A 
ATOM     85  C   UNL A   1      33.221  26.887  26.049  1.00  0.00     0.029 A 
ATOM     86  C   UNL A   1      31.468  28.618  24.757  1.00  0.00     0.043 A 
ATOM     87  C   UNL A   1      33.424  28.268  26.099  1.00  0.00     0.043 A 
ATOM     88  Cl  UNL A   1      30.356  29.681  23.990  1.00  0.00    -0.084 Cl
ATOM     89  C   UNL A   1      32.545  29.140  25.465  1.00  0.00     0.041 A 
ATOM     90  Cl  UNL A   1      34.763  28.901  26.976  1.00  0.00    -0.084 Cl
ENDBRANCH  79  83
ENDBRANCH  74  77
ENDBRANCH  72  73
ENDBRANCH  71  72
ENDBRANCH   1  71
TORSDOF 14
ENDMDL
MODEL 2
REMARK VINA RESULT:     -12.4      5.107     10.111
REMARK SMILES O=C(NCCCNC(=O)c1ncccc1-c1cc(Cl)cc(Cl)c1)c1ccc(-c2c3nc(c(-c4cc(S(=O)(=O)[O-])ccc4F)c4ccc([nH]4)c(-c4cc(S(=O)(=O)[O-])ccc4F)c4nc(c(-c5cc(S(=O)(=O)[O-])ccc5F)c5ccc2[nH]5)C=C4)C=C3)cc1
REMARK SMILES IDX 4 1 3 2 1 3 2 4 24 6 25 7 86 8 26 9 85 10 27 11 28 12 29 13
REMARK SMILES IDX 79 14 30 15 84 16 78 17 80 18 31 19 83 20 77 21 76 22 32 24
REMARK SMILES IDX 64 25 44 26 63 27 45 28 48 29 62 30 81 31 46 32 47 33 61 35
REMARK SMILES IDX 82 36 49 37 33 38 34 39 42 40 35 41 41 42 43 43 40 44 36 45
REMARK SMILES IDX 37 46 38 47 39 48 65 49 66 50 74 51 67 52 73 53 75 54 72 55
REMARK SMILES IDX 68 56 69 57 70 58 71 59 50 60 51 61 59 62 52 63 58 64 60 65
REMARK SMILES IDX 57 66 53 67 54 68 55 69 56 70 5 71 6 72 7 73 8 74 9 76 10 77
REMARK SMILES IDX 11 78 15 79 12 80 14 81 13 82 16 83 17 84 23 85 18 86 21 87
REMARK SMILES IDX 19 88 20 89 22 90
REMARK H PARENT 3 5 80 23 48 34 7 75
REMARK Flexibility Score: inf
ROOT
ATOM      1  C   UNL A   1      32.811  29.629  25.699  1.00  0.00     0.118 C 
ENDROOT
BRANCH   1   2
ATOM      2  N   UNL A   1      32.481  30.932  26.272  1.00  0.00    -0.352 N 
ATOM      3  O   UNL A   1      32.591  32.728  27.624  1.00  0.00    -0.269 OA
ATOM      4  C   UNL A   1      33.138  31.712  27.196  1.00  0.00     0.251 C 
ATOM      5  H   UNL A   1      31.640  31.321  25.936  1.00  0.00     0.163 HD
BRANCH   4   6
ATOM      6  C   UNL A   1      34.472  31.322  27.704  1.00  0.00     0.039 A 
ATOM      7  C   UNL A   1      34.747  30.002  28.048  1.00  0.00     0.014 A 
ATOM      8  C   UNL A   1      35.469  32.293  27.848  1.00  0.00     0.014 A 
ATOM      9  C   UNL A   1      35.899  29.700  28.759  1.00  0.00     0.010 A 
ATOM     10  C   UNL A   1      36.693  31.954  28.439  1.00  0.00     0.010 A 
ATOM     11  C   UNL A   1      36.896  30.669  28.961  1.00  0.00    -0.014 A 
BRANCH  11  12
ATOM     12  C   UNL A   1      38.122  30.289  29.715  1.00  0.00     0.031 A 
ATOM     13  C   UNL A   1      38.319  30.717  31.148  1.00  0.00     0.074 A 
ATOM     14  C   UNL A   1      39.027  29.481  29.124  1.00  0.00     0.049 A 
ATOM     15  N   UNL A   1      39.298  30.427  31.970  1.00  0.00    -0.248 NA
ATOM     16  C   UNL A   1      37.297  31.599  31.729  1.00  0.00     0.031 C 
ATOM     17  C   UNL A   1      38.950  29.005  27.739  1.00  0.00     0.029 A 
ATOM     18  N   UNL A   1      40.159  28.880  29.614  1.00  0.00    -0.354 N 
ATOM     19  C   UNL A   1      39.029  31.117  33.149  1.00  0.00     0.074 A 
ATOM     20  C   UNL A   1      37.810  31.862  32.923  1.00  0.00     0.031 C 
ATOM     21  C   UNL A   1      39.935  28.123  27.520  1.00  0.00     0.029 A 
ATOM     22  C   UNL A   1      40.763  28.032  28.715  1.00  0.00     0.049 A 
ATOM     23  H   UNL A   1      40.504  29.042  30.522  1.00  0.00     0.167 HD
ATOM     24  C   UNL A   1      39.731  31.120  34.311  1.00  0.00     0.034 A 
ATOM     25  C   UNL A   1      41.867  27.270  28.831  1.00  0.00     0.034 A 
ATOM     26  C   UNL A   1      40.931  30.347  34.529  1.00  0.00     0.049 A 
ATOM     27  C   UNL A   1      42.622  27.288  30.132  1.00  0.00     0.074 A 
ATOM     28  C   UNL A   1      41.703  30.255  35.675  1.00  0.00     0.029 A 
ATOM     29  N   UNL A   1      41.535  29.529  33.581  1.00  0.00    -0.354 N 
ATOM     30  N   UNL A   1      42.352  27.948  31.233  1.00  0.00    -0.248 NA
ATOM     31  C   UNL A   1      43.829  26.457  30.202  1.00  0.00     0.031 C 
ATOM     32  C   UNL A   1      42.802  29.430  35.402  1.00  0.00     0.029 A 
ATOM     33  C   UNL A   1      42.680  28.950  34.108  1.00  0.00     0.049 A 
ATOM     34  H   UNL A   1      41.199  29.383  32.668  1.00  0.00     0.167 HD
ATOM     35  C   UNL A   1      43.349  27.597  32.137  1.00  0.00     0.074 A 
ATOM     36  C   UNL A   1      44.209  26.649  31.457  1.00  0.00     0.031 C 
ATOM     37  C   UNL A   1      43.537  28.019  33.412  1.00  0.00     0.034 A 
BRANCH  24  38
ATOM     38  C   UNL A   1      39.243  32.032  35.415  1.00  0.00     0.023 A 
ATOM     39  C   UNL A   1      39.656  33.372  35.517  1.00  0.00     0.031 A 
ATOM     40  C   UNL A   1      38.371  31.538  36.403  1.00  0.00     0.131 A 
ATOM     41  C   UNL A   1      39.259  34.147  36.619  1.00  0.00     0.055 A 
ATOM     42  C   UNL A   1      37.915  32.339  37.453  1.00  0.00     0.041 A 
ATOM     43  F   UNL A   1      37.955  30.262  36.372  1.00  0.00    -0.206 F 
ATOM     44  C   UNL A   1      38.372  33.646  37.575  1.00  0.00     0.022 A 
BRANCH  41  45
ATOM     45  S   UNL A   1      40.033  35.770  36.864  1.00  0.00     0.124 S 
ATOM     46  O   UNL A   1      39.624  36.481  35.653  1.00  0.00    -0.237 OA
ATOM     47  O   UNL A   1      39.424  36.227  38.107  1.00  0.00    -0.237 OA
ATOM     48  O   UNL A   1      41.460  35.463  36.943  1.00  0.00    -0.744 OA
ENDBRANCH  41  45
ENDBRANCH  24  38
BRANCH  25  49
ATOM     49  C   UNL A   1      42.336  26.448  27.681  1.00  0.00     0.023 A 
ATOM     50  C   UNL A   1      41.939  25.109  27.536  1.00  0.00     0.031 A 
ATOM     51  C   UNL A   1      43.204  26.987  26.715  1.00  0.00     0.131 A 
ATOM     52  C   UNL A   1      42.438  24.344  26.471  1.00  0.00     0.055 A 
ATOM     53  C   UNL A   1      43.656  26.238  25.628  1.00  0.00     0.041 A 
ATOM     54  F   UNL A   1      43.609  28.264  26.803  1.00  0.00    -0.206 F 
ATOM     55  C   UNL A   1      43.282  24.904  25.508  1.00  0.00     0.022 A 
BRANCH  52  56
ATOM     56  S   UNL A   1      42.025  22.580  26.399  1.00  0.00     0.124 S 
ATOM     57  O   UNL A   1      42.664  22.074  27.607  1.00  0.00    -0.237 OA
ATOM     58  O   UNL A   1      40.566  22.611  26.409  1.00  0.00    -0.237 OA
ATOM     59  O   UNL A   1      42.627  22.141  25.141  1.00  0.00    -0.744 OA
ENDBRANCH  52  56
ENDBRANCH  25  49
BRANCH  37  60
ATOM     60  C   UNL A   1      44.702  27.417  34.157  1.00  0.00     0.023 A 
ATOM     61  C   UNL A   1      44.570  26.227  34.895  1.00  0.00     0.031 A 
ATOM     62  C   UNL A   1      45.948  28.067  34.164  1.00  0.00     0.131 A 
ATOM     63  C   UNL A   1      45.647  25.759  35.663  1.00  0.00     0.055 A 
ATOM     64  C   UNL A   1      47.033  27.565  34.884  1.00  0.00     0.041 A 
ATOM     65  F   UNL A   1      46.127  29.208  33.479  1.00  0.00    -0.206 F 
ATOM     66  C   UNL A   1      46.881  26.413  35.651  1.00  0.00     0.022 A 
BRANCH  63  67
ATOM     67  S   UNL A   1      45.379  24.343  36.765  1.00  0.00     0.124 S 
ATOM     68  O   UNL A   1      44.619  24.945  37.856  1.00  0.00    -0.237 OA
ATOM     69  O   UNL A   1      44.643  23.418  35.910  1.00  0.00    -0.237 OA
ATOM     70  O   UNL A   1      46.734  23.920  37.114  1.00  0.00    -0.744 OA
ENDBRANCH  63  67
ENDBRANCH  37  60
ENDBRANCH  11  12
ENDBRANCH   4   6
ENDBRANCH   1   2
BRANCH   1  71
ATOM     71  C   UNL A   1      31.939  28.495  26.219  1.00  0.00     0.042 C 
BRANCH  71  72
ATOM     72  C   UNL A   1      32.697  27.206  26.462  1.00  0.00     0.118 C 
BRANCH  72  73
ATOM     73  N   UNL A   1      31.837  26.041  26.596  1.00  0.00    -0.351 N 
ATOM     74  C   UNL A   1      31.413  25.178  25.610  1.00  0.00     0.270 C 
ATOM     75  H   UNL A   1      31.518  25.844  27.506  1.00  0.00     0.163 HD
ATOM     76  O   UNL A   1      30.755  24.183  25.905  1.00  0.00    -0.267 OA
BRANCH  74  77
ATOM     77  C   UNL A   1      31.785  25.443  24.192  1.00  0.00     0.135 A 
ATOM     78  N   UNL A   1      30.971  26.339  23.568  1.00  0.00    -0.250 NA
ATOM     79  C   UNL A   1      32.920  24.847  23.614  1.00  0.00     0.013 A 
ATOM     80  C   UNL A   1      31.305  26.690  22.313  1.00  0.00     0.112 A 
ATOM     81  C   UNL A   1      33.217  25.253  22.304  1.00  0.00     0.013 A 
ATOM     82  C   UNL A   1      32.409  26.184  21.649  1.00  0.00     0.021 A 
BRANCH  79  83
ATOM     83  C   UNL A   1      33.809  23.918  24.339  1.00  0.00    -0.013 A 
ATOM     84  C   UNL A   1      33.538  22.537  24.344  1.00  0.00     0.029 A 
ATOM     85  C   UNL A   1      34.993  24.360  24.954  1.00  0.00     0.029 A 
ATOM     86  C   UNL A   1      34.451  21.632  24.891  1.00  0.00     0.043 A 
ATOM     87  C   UNL A   1      35.893  23.446  25.506  1.00  0.00     0.043 A 
ATOM     88  Cl  UNL A   1      34.127  19.945  24.809  1.00  0.00    -0.084 Cl
ATOM     89  C   UNL A   1      35.635  22.079  25.467  1.00  0.00     0.041 A 
ATOM     90  Cl  UNL A   1      37.354  24.013  26.218  1.00  0.00    -0.084 Cl
ENDBRANCH  79  83
ENDBRANCH  74  77
ENDBRANCH  72  73
ENDBRANCH  71  72
ENDBRANCH   1  71
TORSDOF 14
ENDMDL
MODEL 3
REMARK VINA RESULT:     -12.3      1.427      1.704
REMARK SMILES O=C(NCCCNC(=O)c1ncccc1-c1cc(Cl)cc(Cl)c1)c1ccc(-c2c3nc(c(-c4cc(S(=O)(=O)[O-])ccc4F)c4ccc([nH]4)c(-c4cc(S(=O)(=O)[O-])ccc4F)c4nc(c(-c5cc(S(=O)(=O)[O-])ccc5F)c5ccc2[nH]5)C=C4)C=C3)cc1
REMARK SMILES IDX 4 1 3 2 1 3 2 4 24 6 25 7 86 8 26 9 85 10 27 11 28 12 29 13
REMARK SMILES IDX 79 14 30 15 84 16 78 17 80 18 31 19 83 20 77 21 76 22 32 24
REMARK SMILES IDX 64 25 44 26 63 27 45 28 48 29 62 30 81 31 46 32 47 33 61 35
REMARK SMILES IDX 82 36 49 37 33 38 34 39 42 40 35 41 41 42 43 43 40 44 36 45
REMARK SMILES IDX 37 46 38 47 39 48 65 49 66 50 74 51 67 52 73 53 75 54 72 55
REMARK SMILES IDX 68 56 69 57 70 58 71 59 50 60 51 61 59 62 52 63 58 64 60 65
REMARK SMILES IDX 57 66 53 67 54 68 55 69 56 70 5 71 6 72 7 73 8 74 9 76 10 77
REMARK SMILES IDX 11 78 15 79 12 80 14 81 13 82 16 83 17 84 23 85 18 86 21 87
REMARK SMILES IDX 19 88 20 89 22 90
REMARK H PARENT 3 5 80 23 48 34 7 75
REMARK Flexibility Score: inf
ROOT
ATOM      1  C   UNL A   1      36.233  22.007  25.700  1.00  0.00     0.118 C 
ENDROOT
BRANCH   1   2
ATOM      2  N   UNL A   1      37.310  21.025  25.577  1.00  0.00    -0.352 N 
ATOM      3  O   UNL A   1      39.396  20.182  25.536  1.00  0.00    -0.269 OA
ATOM      4  C   UNL A   1      38.657  21.116  25.845  1.00  0.00     0.251 C 
ATOM      5  H   UNL A   1      37.020  20.145  25.245  1.00  0.00     0.163 HD
BRANCH   4   6
ATOM      6  C   UNL A   1      39.226  22.335  26.462  1.00  0.00     0.039 A 
ATOM      7  C   UNL A   1      38.743  23.596  26.128  1.00  0.00     0.014 A 
ATOM      8  C   UNL A   1      40.269  22.220  27.387  1.00  0.00     0.014 A 
ATOM      9  C   UNL A   1      39.449  24.728  26.509  1.00  0.00     0.010 A 
ATOM     10  C   UNL A   1      40.891  23.372  27.885  1.00  0.00     0.010 A 
ATOM     11  C   UNL A   1      40.531  24.637  27.399  1.00  0.00    -0.014 A 
BRANCH  11  12
ATOM     12  C   UNL A   1      41.244  25.884  27.791  1.00  0.00     0.031 A 
ATOM     13  C   UNL A   1      42.630  26.183  27.277  1.00  0.00     0.074 A 
ATOM     14  C   UNL A   1      40.599  26.792  28.553  1.00  0.00     0.049 A 
ATOM     15  N   UNL A   1      43.372  27.246  27.470  1.00  0.00    -0.248 NA
ATOM     16  C   UNL A   1      43.275  25.150  26.454  1.00  0.00     0.031 C 
ATOM     17  C   UNL A   1      39.257  26.614  29.116  1.00  0.00     0.029 A 
ATOM     18  N   UNL A   1      40.955  28.056  28.949  1.00  0.00    -0.354 N 
ATOM     19  C   UNL A   1      44.580  26.996  26.826  1.00  0.00     0.074 A 
ATOM     20  C   UNL A   1      44.481  25.667  26.262  1.00  0.00     0.031 C 
ATOM     21  C   UNL A   1      38.872  27.753  29.707  1.00  0.00     0.029 A 
ATOM     22  C   UNL A   1      39.965  28.714  29.641  1.00  0.00     0.049 A 
ATOM     23  H   UNL A   1      41.835  28.453  28.756  1.00  0.00     0.167 HD
ATOM     24  C   UNL A   1      45.666  27.802  26.712  1.00  0.00     0.034 A 
ATOM     25  C   UNL A   1      39.937  29.951  30.173  1.00  0.00     0.034 A 
ATOM     26  C   UNL A   1      45.738  29.138  27.257  1.00  0.00     0.049 A 
ATOM     27  C   UNL A   1      41.151  30.826  30.027  1.00  0.00     0.074 A 
ATOM     28  C   UNL A   1      46.776  30.050  27.176  1.00  0.00     0.029 A 
ATOM     29  N   UNL A   1      44.728  29.756  27.986  1.00  0.00    -0.354 N 
ATOM     30  N   UNL A   1      42.284  30.569  29.416  1.00  0.00    -0.248 NA
ATOM     31  C   UNL A   1      41.080  32.156  30.642  1.00  0.00     0.031 C 
ATOM     32  C   UNL A   1      46.419  31.193  27.902  1.00  0.00     0.029 A 
ATOM     33  C   UNL A   1      45.129  31.024  28.379  1.00  0.00     0.049 A 
ATOM     34  H   UNL A   1      43.856  29.351  28.195  1.00  0.00     0.167 HD
ATOM     35  C   UNL A   1      43.057  31.717  29.559  1.00  0.00     0.074 A 
ATOM     36  C   UNL A   1      42.249  32.671  30.291  1.00  0.00     0.031 C 
ATOM     37  C   UNL A   1      44.319  31.960  29.124  1.00  0.00     0.034 A 
BRANCH  24  38
ATOM     38  C   UNL A   1      46.883  27.236  26.014  1.00  0.00     0.023 A 
ATOM     39  C   UNL A   1      47.892  26.547  26.711  1.00  0.00     0.031 A 
ATOM     40  C   UNL A   1      47.050  27.418  24.629  1.00  0.00     0.131 A 
ATOM     41  C   UNL A   1      49.053  26.133  26.036  1.00  0.00     0.055 A 
ATOM     42  C   UNL A   1      48.169  26.932  23.949  1.00  0.00     0.041 A 
ATOM     43  F   UNL A   1      46.131  28.084  23.912  1.00  0.00    -0.206 F 
ATOM     44  C   UNL A   1      49.187  26.300  24.656  1.00  0.00     0.022 A 
BRANCH  41  45
ATOM     45  S   UNL A   1      50.447  25.504  27.012  1.00  0.00     0.124 S 
ATOM     46  O   UNL A   1      49.862  24.320  27.640  1.00  0.00    -0.237 OA
ATOM     47  O   UNL A   1      51.458  25.250  25.993  1.00  0.00    -0.237 OA
ATOM     48  O   UNL A   1      50.747  26.600  27.931  1.00  0.00    -0.744 OA
ENDBRANCH  41  45
ENDBRANCH  24  38
BRANCH  25  49
ATOM     49  C   UNL A   1      38.732  30.423  30.911  1.00  0.00     0.023 A 
ATOM     50  C   UNL A   1      37.685  31.080  30.246  1.00  0.00     0.031 A 
ATOM     51  C   UNL A   1      38.619  30.239  32.301  1.00  0.00     0.131 A 
ATOM     52  C   UNL A   1      36.587  31.560  30.975  1.00  0.00     0.055 A 
ATOM     53  C   UNL A   1      37.500  30.672  33.014  1.00  0.00     0.041 A 
ATOM     54  F   UNL A   1      39.590  29.612  32.984  1.00  0.00    -0.206 F 
ATOM     55  C   UNL A   1      36.480  31.347  32.352  1.00  0.00     0.022 A 
BRANCH  52  56
ATOM     56  S   UNL A   1      35.325  32.532  30.108  1.00  0.00     0.124 S 
ATOM     57  O   UNL A   1      34.943  31.630  29.029  1.00  0.00    -0.237 OA
ATOM     58  O   UNL A   1      34.331  32.739  31.156  1.00  0.00    -0.237 OA
ATOM     59  O   UNL A   1      36.048  33.733  29.693  1.00  0.00    -0.744 OA
ENDBRANCH  52  56
ENDBRANCH  25  49
BRANCH  37  60
ATOM     60  C   UNL A   1      44.875  33.333  29.402  1.00  0.00     0.023 A 
ATOM     61  C   UNL A   1      44.727  34.389  28.485  1.00  0.00     0.031 A 
ATOM     62  C   UNL A   1      45.601  33.575  30.581  1.00  0.00     0.131 A 
ATOM     63  C   UNL A   1      45.354  35.620  28.730  1.00  0.00     0.055 A 
ATOM     64  C   UNL A   1      46.173  34.820  30.846  1.00  0.00     0.041 A 
ATOM     65  F   UNL A   1      45.775  32.601  31.488  1.00  0.00    -0.206 F 
ATOM     66  C   UNL A   1      46.065  35.846  29.912  1.00  0.00     0.022 A 
BRANCH  63  67
ATOM     67  S   UNL A   1      45.320  36.888  27.433  1.00  0.00     0.124 S 
ATOM     68  O   UNL A   1      43.894  36.979  27.134  1.00  0.00    -0.237 OA
ATOM     69  O   UNL A   1      45.904  38.041  28.111  1.00  0.00    -0.237 OA
ATOM     70  O   UNL A   1      46.140  36.312  26.370  1.00  0.00    -0.744 OA
ENDBRANCH  63  67
ENDBRANCH  37  60
ENDBRANCH  11  12
ENDBRANCH   4   6
ENDBRANCH   1   2
BRANCH   1  71
ATOM     71  C   UNL A   1      35.744  22.546  24.364  1.00  0.00     0.042 C 
BRANCH  71  72
ATOM     72  C   UNL A   1      35.238  23.972  24.432  1.00  0.00     0.118 C 
BRANCH  72  73
ATOM     73  N   UNL A   1      34.402  24.349  23.303  1.00  0.00    -0.351 N 
ATOM     74  C   UNL A   1      33.028  24.404  23.242  1.00  0.00     0.270 C 
ATOM     75  H   UNL A   1      34.879  24.595  22.478  1.00  0.00     0.163 HD
ATOM     76  O   UNL A   1      32.473  24.830  22.232  1.00  0.00    -0.267 OA
BRANCH  74  77
ATOM     77  C   UNL A   1      32.222  23.975  24.421  1.00  0.00     0.135 A 
ATOM     78  N   UNL A   1      31.983  22.636  24.465  1.00  0.00    -0.250 NA
ATOM     79  C   UNL A   1      31.823  24.898  25.404  1.00  0.00     0.013 A 
ATOM     80  C   UNL A   1      31.338  22.170  25.550  1.00  0.00     0.112 A 
ATOM     81  C   UNL A   1      31.155  24.353  26.510  1.00  0.00     0.013 A 
ATOM     82  C   UNL A   1      30.914  22.980  26.589  1.00  0.00     0.021 A 
BRANCH  79  83
ATOM     83  C   UNL A   1      32.145  26.337  25.347  1.00  0.00    -0.013 A 
ATOM     84  C   UNL A   1      31.288  27.229  24.675  1.00  0.00     0.029 A 
ATOM     85  C   UNL A   1      33.247  26.874  26.035  1.00  0.00     0.029 A 
ATOM     86  C   UNL A   1      31.496  28.609  24.746  1.00  0.00     0.043 A 
ATOM     87  C   UNL A   1      33.449  28.255  26.090  1.00  0.00     0.043 A 
ATOM     88  Cl  UNL A   1      30.384  29.674  23.981  1.00  0.00    -0.084 Cl
ATOM     89  C   UNL A   1      32.570  29.129  25.458  1.00  0.00     0.041 A 
ATOM     90  Cl  UNL A   1      34.785  28.886  26.973  1.00  0.00    -0.084 Cl
ENDBRANCH  79  83
ENDBRANCH  74  77
ENDBRANCH  72  73
ENDBRANCH  71  72
ENDBRANCH   1  71
TORSDOF 14
ENDMDL
