MODEL 1
REMARK VINA RESULT:     -10.9      0.000      0.000
REMARK SMILES CC[C@H](C(=O)NCCCNC(=O)c1ccc(-c2c3nc(c(-c4cc(S(=O)(=O)[O-])ccc4F)c4ccc([nH]4)c(-c4cc(S(=O)(=O)[O-])ccc4F)c4nc(c(-c5cc(S(=O)(=O)[O-])ccc5F)c5ccc2[nH]5)C=C4)C=C3)cc1)[N@@H+](C)Cc1cncn1C(C)C
REMARK SMILES IDX 7 1 6 2 4 3 5 4 3 6 2 7 1 8 76 9 77 10 78 12 79 13 80 14
REMARK SMILES IDX 83 15 81 16 82 17 84 18 85 19 86 20 8 21 9 22 10 23 11 24
REMARK SMILES IDX 12 26 13 27 14 28 75 29 15 30 74 31 16 32 17 33 18 34 68 35
REMARK SMILES IDX 19 36 73 37 67 38 69 39 20 40 72 41 66 42 65 43 21 45 53 46
REMARK SMILES IDX 33 47 52 48 34 49 37 50 51 51 70 52 35 53 36 54 50 56 71 57
REMARK SMILES IDX 38 58 22 59 23 60 31 61 24 62 30 63 32 64 29 65 25 66 26 67
REMARK SMILES IDX 27 68 28 69 54 70 55 71 63 72 56 73 62 74 64 75 61 76 57 77
REMARK SMILES IDX 58 78 59 79 60 80 39 81 40 82 48 83 41 84 47 85 49 86 46 87
REMARK SMILES IDX 42 88 43 89 44 90 45 91
REMARK H PARENT 6 5 76 11 10 25 69 44 37 55
REMARK Flexibility Score: inf
ROOT
ATOM      1  C   UNL A   1      31.382  28.714  25.219  1.00  0.00     0.118 C 
ENDROOT
BRANCH   1   2
ATOM      2  N   UNL A   1      32.483  27.924  25.757  1.00  0.00    -0.351 N 
ATOM      3  C   UNL A   1      33.048  26.788  25.190  1.00  0.00     0.278 C 
ATOM      4  O   UNL A   1      34.017  26.271  25.744  1.00  0.00    -0.268 OA
ATOM      5  H   UNL A   1      32.867  28.228  26.612  1.00  0.00     0.163 HD
BRANCH   3   6
ATOM      6  C   UNL A   1      32.416  26.269  23.870  1.00  0.00     0.273 C 
BRANCH   6   7
ATOM      7  C   UNL A   1      33.397  26.442  22.735  1.00  0.00     0.072 C 
ATOM      8  C   UNL A   1      33.687  27.881  22.289  1.00  0.00     0.011 C 
ENDBRANCH   6   7
BRANCH   6   9
ATOM      9  N   UNL A   1      31.889  24.880  23.911  1.00  0.00    -0.322 N 
ATOM     10  C   UNL A   1      30.506  24.773  23.472  1.00  0.00     0.333 C 
ATOM     11  H   UNL A   1      31.923  24.739  24.920  1.00  0.00     0.348 HD
BRANCH   9  12
ATOM     12  C   UNL A   1      32.741  23.724  23.575  1.00  0.00     0.319 C 
BRANCH  12  13
ATOM     13  C   UNL A   1      33.569  22.946  24.615  1.00  0.00     0.093 A 
ATOM     14  C   UNL A   1      32.960  22.120  25.561  1.00  0.00     0.140 A 
ATOM     15  N   UNL A   1      34.901  22.990  25.075  1.00  0.00    -0.327 N 
ATOM     16  N   UNL A   1      33.815  21.669  26.517  1.00  0.00    -0.245 NA
ATOM     17  C   UNL A   1      34.966  22.195  26.200  1.00  0.00     0.200 A 
BRANCH  15  18
ATOM     18  C   UNL A   1      36.144  23.572  24.567  1.00  0.00     0.082 C 
ATOM     19  C   UNL A   1      37.333  23.651  25.533  1.00  0.00     0.031 C 
ATOM     20  C   UNL A   1      36.569  22.911  23.246  1.00  0.00     0.031 C 
ENDBRANCH  15  18
ENDBRANCH  12  13
ENDBRANCH   9  12
ENDBRANCH   6   9
ENDBRANCH   3   6
ENDBRANCH   1   2
BRANCH   1  21
ATOM     21  C   UNL A   1      31.512  30.212  25.339  1.00  0.00     0.042 C 
BRANCH  21  22
ATOM     22  C   UNL A   1      32.152  30.612  26.658  1.00  0.00     0.118 C 
BRANCH  22  23
ATOM     23  N   UNL A   1      32.077  32.050  26.937  1.00  0.00    -0.352 N 
ATOM     24  C   UNL A   1      33.013  32.874  27.528  1.00  0.00     0.251 C 
ATOM     25  H   UNL A   1      31.239  32.490  26.665  1.00  0.00     0.163 HD
ATOM     26  O   UNL A   1      32.734  34.045  27.784  1.00  0.00    -0.269 OA
BRANCH  24  27
ATOM     27  C   UNL A   1      34.329  32.315  27.902  1.00  0.00     0.039 A 
ATOM     28  C   UNL A   1      35.428  33.164  28.044  1.00  0.00     0.014 A 
ATOM     29  C   UNL A   1      34.436  30.966  28.238  1.00  0.00     0.014 A 
ATOM     30  C   UNL A   1      36.591  32.682  28.651  1.00  0.00     0.010 A 
ATOM     31  C   UNL A   1      35.533  30.533  28.968  1.00  0.00     0.010 A 
ATOM     32  C   UNL A   1      36.627  31.384  29.186  1.00  0.00    -0.014 A 
BRANCH  32  33
ATOM     33  C   UNL A   1      37.789  30.877  29.964  1.00  0.00     0.031 A 
ATOM     34  C   UNL A   1      38.767  29.936  29.311  1.00  0.00     0.074 A 
ATOM     35  C   UNL A   1      37.916  31.181  31.271  1.00  0.00     0.049 A 
ATOM     36  N   UNL A   1      39.771  29.283  29.837  1.00  0.00    -0.248 NA
ATOM     37  C   UNL A   1      38.549  29.653  27.885  1.00  0.00     0.031 C 
ATOM     38  C   UNL A   1      37.009  32.038  32.039  1.00  0.00     0.029 A 
ATOM     39  N   UNL A   1      38.861  30.798  32.191  1.00  0.00    -0.354 N 
ATOM     40  C   UNL A   1      40.287  28.498  28.811  1.00  0.00     0.074 A 
ATOM     41  C   UNL A   1      39.422  28.684  27.667  1.00  0.00     0.031 C 
ATOM     42  C   UNL A   1      37.470  32.155  33.295  1.00  0.00     0.029 A 
ATOM     43  C   UNL A   1      38.671  31.340  33.441  1.00  0.00     0.049 A 
ATOM     44  H   UNL A   1      39.605  30.191  31.976  1.00  0.00     0.167 HD
ATOM     45  C   UNL A   1      41.401  27.724  28.806  1.00  0.00     0.034 A 
ATOM     46  C   UNL A   1      39.382  31.194  34.576  1.00  0.00     0.034 A 
ATOM     47  C   UNL A   1      42.264  27.565  29.950  1.00  0.00     0.049 A 
ATOM     48  C   UNL A   1      40.595  30.300  34.566  1.00  0.00     0.074 A 
ATOM     49  C   UNL A   1      43.448  26.856  30.047  1.00  0.00     0.029 A 
ATOM     50  N   UNL A   1      42.032  28.121  31.202  1.00  0.00    -0.354 N 
ATOM     51  N   UNL A   1      41.100  29.602  33.574  1.00  0.00    -0.248 NA
ATOM     52  C   UNL A   1      41.336  30.178  35.828  1.00  0.00     0.031 C 
ATOM     53  C   UNL A   1      43.896  26.929  31.371  1.00  0.00     0.029 A 
ATOM     54  C   UNL A   1      43.032  27.746  32.086  1.00  0.00     0.049 A 
ATOM     55  H   UNL A   1      41.267  28.698  31.429  1.00  0.00     0.167 HD
ATOM     56  C   UNL A   1      42.238  28.985  34.086  1.00  0.00     0.074 A 
ATOM     57  C   UNL A   1      42.347  29.400  35.471  1.00  0.00     0.031 C 
ATOM     58  C   UNL A   1      43.118  28.157  33.467  1.00  0.00     0.034 A 
BRANCH  45  59
ATOM     59  C   UNL A   1      41.719  26.990  27.523  1.00  0.00     0.023 A 
ATOM     60  C   UNL A   1      41.498  25.606  27.396  1.00  0.00     0.031 A 
ATOM     61  C   UNL A   1      42.324  27.657  26.445  1.00  0.00     0.131 A 
ATOM     62  C   UNL A   1      41.986  24.916  26.277  1.00  0.00     0.055 A 
ATOM     63  C   UNL A   1      42.712  26.981  25.285  1.00  0.00     0.041 A 
ATOM     64  F   UNL A   1      42.578  28.973  26.510  1.00  0.00    -0.206 F 
ATOM     65  C   UNL A   1      42.567  25.599  25.206  1.00  0.00     0.022 A 
BRANCH  62  66
ATOM     66  S   UNL A   1      42.032  23.103  26.336  1.00  0.00     0.124 S 
ATOM     67  O   UNL A   1      40.614  22.777  26.468  1.00  0.00    -0.237 OA
ATOM     68  O   UNL A   1      42.650  22.762  25.060  1.00  0.00    -0.237 OA
ATOM     69  O   UNL A   1      42.842  22.820  27.519  1.00  0.00    -0.744 OA
ENDBRANCH  62  66
ENDBRANCH  45  59
BRANCH  46  70
ATOM     70  C   UNL A   1      38.986  31.920  35.817  1.00  0.00     0.023 A 
ATOM     71  C   UNL A   1      38.220  31.280  36.805  1.00  0.00     0.031 A 
ATOM     72  C   UNL A   1      39.339  33.265  36.024  1.00  0.00     0.131 A 
ATOM     73  C   UNL A   1      37.798  31.995  37.937  1.00  0.00     0.055 A 
ATOM     74  C   UNL A   1      38.955  33.959  37.173  1.00  0.00     0.041 A 
ATOM     75  F   UNL A   1      40.078  33.921  35.114  1.00  0.00    -0.206 F 
ATOM     76  C   UNL A   1      38.171  33.326  38.133  1.00  0.00     0.022 A 
BRANCH  73  77
ATOM     77  S   UNL A   1      36.700  31.173  39.123  1.00  0.00     0.124 S 
ATOM     78  O   UNL A   1      37.543  31.103  40.310  1.00  0.00    -0.237 OA
ATOM     79  O   UNL A   1      35.575  32.100  39.187  1.00  0.00    -0.237 OA
ATOM     80  O   UNL A   1      36.410  29.891  38.485  1.00  0.00    -0.744 OA
ENDBRANCH  73  77
ENDBRANCH  46  70
BRANCH  58  81
ATOM     81  C   UNL A   1      44.302  27.688  34.278  1.00  0.00     0.023 A 
ATOM     82  C   UNL A   1      44.293  26.457  34.957  1.00  0.00     0.031 A 
ATOM     83  C   UNL A   1      45.451  28.492  34.376  1.00  0.00     0.131 A 
ATOM     84  C   UNL A   1      45.392  26.090  35.749  1.00  0.00     0.055 A 
ATOM     85  C   UNL A   1      46.564  28.094  35.118  1.00  0.00     0.041 A 
ATOM     86  F   UNL A   1      45.512  29.678  33.749  1.00  0.00    -0.206 F 
ATOM     87  C   UNL A   1      46.534  26.893  35.820  1.00  0.00     0.022 A 
BRANCH  84  88
ATOM     88  S   UNL A   1      45.275  24.587  36.757  1.00  0.00     0.124 S 
ATOM     89  O   UNL A   1      46.623  24.040  36.642  1.00  0.00    -0.237 OA
ATOM     90  O   UNL A   1      44.911  25.117  38.067  1.00  0.00    -0.237 OA
ATOM     91  O   UNL A   1      44.231  23.808  36.093  1.00  0.00    -0.744 OA
ENDBRANCH  84  88
ENDBRANCH  58  81
ENDBRANCH  32  33
ENDBRANCH  24  27
ENDBRANCH  22  23
ENDBRANCH  21  22
ENDBRANCH   1  21
TORSDOF 18
ENDMDL
MODEL 2
REMARK VINA RESULT:     -10.9      5.051     10.515
REMARK SMILES CC[C@H](C(=O)NCCCNC(=O)c1ccc(-c2c3nc(c(-c4cc(S(=O)(=O)[O-])ccc4F)c4ccc([nH]4)c(-c4cc(S(=O)(=O)[O-])ccc4F)c4nc(c(-c5cc(S(=O)(=O)[O-])ccc5F)c5ccc2[nH]5)C=C4)C=C3)cc1)[N@@H+](C)Cc1cncn1C(C)C
REMARK SMILES IDX 7 1 6 2 4 3 5 4 3 6 2 7 1 8 76 9 77 10 78 12 79 13 80 14
REMARK SMILES IDX 83 15 81 16 82 17 84 18 85 19 86 20 8 21 9 22 10 23 11 24
REMARK SMILES IDX 12 26 13 27 14 28 75 29 15 30 74 31 16 32 17 33 18 34 68 35
REMARK SMILES IDX 19 36 73 37 67 38 69 39 20 40 72 41 66 42 65 43 21 45 53 46
REMARK SMILES IDX 33 47 52 48 34 49 37 50 51 51 70 52 35 53 36 54 50 56 71 57
REMARK SMILES IDX 38 58 22 59 23 60 31 61 24 62 30 63 32 64 29 65 25 66 26 67
REMARK SMILES IDX 27 68 28 69 54 70 55 71 63 72 56 73 62 74 64 75 61 76 57 77
REMARK SMILES IDX 58 78 59 79 60 80 39 81 40 82 48 83 41 84 47 85 49 86 46 87
REMARK SMILES IDX 42 88 43 89 44 90 45 91
REMARK H PARENT 6 5 76 11 10 25 69 44 37 55
REMARK Flexibility Score: inf
ROOT
ATOM      1  C   UNL A   1      34.667  20.576  25.146  1.00  0.00     0.118 C 
ENDROOT
BRANCH   1   2
ATOM      2  N   UNL A   1      34.349  21.056  26.486  1.00  0.00    -0.351 N 
ATOM      3  C   UNL A   1      33.332  21.937  26.835  1.00  0.00     0.278 C 
ATOM      4  O   UNL A   1      33.156  22.194  28.025  1.00  0.00    -0.268 OA
ATOM      5  H   UNL A   1      34.912  20.719  27.220  1.00  0.00     0.163 HD
BRANCH   3   6
ATOM      6  C   UNL A   1      32.471  22.515  25.679  1.00  0.00     0.273 C 
BRANCH   6   7
ATOM      7  C   UNL A   1      31.012  22.224  25.938  1.00  0.00     0.072 C 
ATOM      8  C   UNL A   1      30.271  23.195  26.867  1.00  0.00     0.011 C 
ENDBRANCH   6   7
BRANCH   6   9
ATOM      9  N   UNL A   1      32.681  23.955  25.378  1.00  0.00    -0.322 N 
ATOM     10  C   UNL A   1      34.064  24.382  25.526  1.00  0.00     0.333 C 
ATOM     11  H   UNL A   1      32.134  24.347  26.144  1.00  0.00     0.348 HD
BRANCH   9  12
ATOM     12  C   UNL A   1      31.932  24.633  24.303  1.00  0.00     0.319 C 
BRANCH  12  13
ATOM     13  C   UNL A   1      32.540  25.722  23.399  1.00  0.00     0.093 A 
ATOM     14  C   UNL A   1      33.046  25.419  22.133  1.00  0.00     0.140 A 
ATOM     15  N   UNL A   1      32.971  27.052  23.578  1.00  0.00    -0.327 N 
ATOM     16  N   UNL A   1      33.717  26.452  21.557  1.00  0.00    -0.245 NA
ATOM     17  C   UNL A   1      33.651  27.414  22.434  1.00  0.00     0.200 A 
BRANCH  15  18
ATOM     18  C   UNL A   1      32.756  28.072  24.607  1.00  0.00     0.082 C 
ATOM     19  C   UNL A   1      31.324  28.264  25.122  1.00  0.00     0.031 C 
ATOM     20  C   UNL A   1      33.729  27.889  25.782  1.00  0.00     0.031 C 
ENDBRANCH  15  18
ENDBRANCH  12  13
ENDBRANCH   9  12
ENDBRANCH   6   9
ENDBRANCH   3   6
ENDBRANCH   1   2
BRANCH   1  21
ATOM     21  C   UNL A   1      35.830  21.242  24.456  1.00  0.00     0.042 C 
BRANCH  21  22
ATOM     22  C   UNL A   1      36.938  21.588  25.437  1.00  0.00     0.118 C 
BRANCH  22  23
ATOM     23  N   UNL A   1      37.996  20.575  25.512  1.00  0.00    -0.352 N 
ATOM     24  C   UNL A   1      39.272  20.682  26.029  1.00  0.00     0.251 C 
ATOM     25  H   UNL A   1      37.764  19.693  25.140  1.00  0.00     0.163 HD
ATOM     26  O   UNL A   1      40.069  19.753  25.908  1.00  0.00    -0.269 OA
BRANCH  24  27
ATOM     27  C   UNL A   1      39.682  21.948  26.673  1.00  0.00     0.039 A 
ATOM     28  C   UNL A   1      40.713  21.943  27.615  1.00  0.00     0.014 A 
ATOM     29  C   UNL A   1      39.128  23.153  26.244  1.00  0.00     0.014 A 
ATOM     30  C   UNL A   1      41.276  23.157  28.019  1.00  0.00     0.010 A 
ATOM     31  C   UNL A   1      39.782  24.341  26.534  1.00  0.00     0.010 A 
ATOM     32  C   UNL A   1      40.865  24.362  27.425  1.00  0.00    -0.014 A 
BRANCH  32  33
ATOM     33  C   UNL A   1      41.531  25.659  27.719  1.00  0.00     0.031 A 
ATOM     34  C   UNL A   1      40.792  26.714  28.501  1.00  0.00     0.074 A 
ATOM     35  C   UNL A   1      42.749  25.929  27.209  1.00  0.00     0.049 A 
ATOM     36  N   UNL A   1      41.134  27.949  28.760  1.00  0.00    -0.248 NA
ATOM     37  C   UNL A   1      39.466  26.338  29.013  1.00  0.00     0.031 C 
ATOM     38  C   UNL A   1      43.551  25.016  26.390  1.00  0.00     0.029 A 
ATOM     39  N   UNL A   1      43.529  27.055  27.302  1.00  0.00    -0.354 N 
ATOM     40  C   UNL A   1      40.056  28.501  29.445  1.00  0.00     0.074 A 
ATOM     41  C   UNL A   1      39.017  27.495  29.468  1.00  0.00     0.031 C 
ATOM     42  C   UNL A   1      44.726  25.598  26.100  1.00  0.00     0.029 A 
ATOM     43  C   UNL A   1      44.742  26.945  26.662  1.00  0.00     0.049 A 
ATOM     44  H   UNL A   1      43.245  27.867  27.781  1.00  0.00     0.167 HD
ATOM     45  C   UNL A   1      39.953  29.717  30.036  1.00  0.00     0.034 A 
ATOM     46  C   UNL A   1      45.751  27.830  26.540  1.00  0.00     0.034 A 
ATOM     47  C   UNL A   1      41.006  30.701  30.021  1.00  0.00     0.049 A 
ATOM     48  C   UNL A   1      45.605  29.192  27.169  1.00  0.00     0.074 A 
ATOM     49  C   UNL A   1      41.039  31.942  30.632  1.00  0.00     0.029 A 
ATOM     50  N   UNL A   1      42.216  30.558  29.352  1.00  0.00    -0.354 N 
ATOM     51  N   UNL A   1      44.600  29.683  27.856  1.00  0.00    -0.248 NA
ATOM     52  C   UNL A   1      46.735  30.117  27.008  1.00  0.00     0.031 C 
ATOM     53  C   UNL A   1      42.238  32.573  30.280  1.00  0.00     0.029 A 
ATOM     54  C   UNL A   1      42.988  31.698  29.510  1.00  0.00     0.049 A 
ATOM     55  H   UNL A   1      42.485  29.761  28.841  1.00  0.00     0.167 HD
ATOM     56  C   UNL A   1      44.991  30.963  28.237  1.00  0.00     0.074 A 
ATOM     57  C   UNL A   1      46.326  31.163  27.710  1.00  0.00     0.031 C 
ATOM     58  C   UNL A   1      44.312  31.887  28.965  1.00  0.00     0.034 A 
BRANCH  45  59
ATOM     59  C   UNL A   1      38.645  30.035  30.726  1.00  0.00     0.023 A 
ATOM     60  C   UNL A   1      37.600  30.693  30.051  1.00  0.00     0.031 A 
ATOM     61  C   UNL A   1      38.466  29.753  32.091  1.00  0.00     0.131 A 
ATOM     62  C   UNL A   1      36.483  31.154  30.763  1.00  0.00     0.055 A 
ATOM     63  C   UNL A   1      37.303  30.121  32.772  1.00  0.00     0.041 A 
ATOM     64  F   UNL A   1      39.432  29.144  32.796  1.00  0.00    -0.206 F 
ATOM     65  C   UNL A   1      36.314  30.848  32.115  1.00  0.00     0.022 A 
BRANCH  62  66
ATOM     66  S   UNL A   1      35.366  32.326  29.947  1.00  0.00     0.124 S 
ATOM     67  O   UNL A   1      36.264  33.445  29.671  1.00  0.00    -0.237 OA
ATOM     68  O   UNL A   1      34.912  31.571  28.785  1.00  0.00    -0.237 OA
ATOM     69  O   UNL A   1      34.346  32.591  30.960  1.00  0.00    -0.744 OA
ENDBRANCH  62  66
ENDBRANCH  45  59
BRANCH  46  70
ATOM     70  C   UNL A   1      46.998  27.461  25.810  1.00  0.00     0.023 A 
ATOM     71  C   UNL A   1      47.162  27.804  24.458  1.00  0.00     0.031 A 
ATOM     72  C   UNL A   1      48.028  26.739  26.438  1.00  0.00     0.131 A 
ATOM     73  C   UNL A   1      48.312  27.394  23.766  1.00  0.00     0.055 A 
ATOM     74  C   UNL A   1      49.190  26.372  25.757  1.00  0.00     0.041 A 
ATOM     75  F   UNL A   1      47.925  26.393  27.731  1.00  0.00    -0.206 F 
ATOM     76  C   UNL A   1      49.332  26.690  24.409  1.00  0.00     0.022 A 
BRANCH  73  77
ATOM     77  S   UNL A   1      48.425  27.740  21.990  1.00  0.00     0.124 S 
ATOM     78  O   UNL A   1      48.508  26.397  21.429  1.00  0.00    -0.237 OA
ATOM     79  O   UNL A   1      47.183  28.465  21.742  1.00  0.00    -0.237 OA
ATOM     80  O   UNL A   1      49.642  28.541  21.877  1.00  0.00    -0.744 OA
ENDBRANCH  73  77
ENDBRANCH  46  70
BRANCH  58  81
ATOM     81  C   UNL A   1      45.030  33.179  29.270  1.00  0.00     0.023 A 
ATOM     82  C   UNL A   1      44.852  34.329  28.482  1.00  0.00     0.031 A 
ATOM     83  C   UNL A   1      45.913  33.253  30.363  1.00  0.00     0.131 A 
ATOM     84  C   UNL A   1      45.588  35.490  28.767  1.00  0.00     0.055 A 
ATOM     85  C   UNL A   1      46.597  34.428  30.676  1.00  0.00     0.041 A 
ATOM     86  F   UNL A   1      46.121  32.184  31.147  1.00  0.00    -0.206 F 
ATOM     87  C   UNL A   1      46.446  35.551  29.868  1.00  0.00     0.022 A 
BRANCH  84  88
ATOM     88  S   UNL A   1      45.475  36.894  27.624  1.00  0.00     0.124 S 
ATOM     89  O   UNL A   1      44.369  36.494  26.761  1.00  0.00    -0.237 OA
ATOM     90  O   UNL A   1      45.209  38.010  28.527  1.00  0.00    -0.237 OA
ATOM     91  O   UNL A   1      46.788  36.919  26.981  1.00  0.00    -0.744 OA
ENDBRANCH  84  88
ENDBRANCH  58  81
ENDBRANCH  32  33
ENDBRANCH  24  27
ENDBRANCH  22  23
ENDBRANCH  21  22
ENDBRANCH   1  21
TORSDOF 18
ENDMDL
MODEL 3
REMARK VINA RESULT:     -10.7      1.727      7.823
REMARK SMILES CC[C@H](C(=O)NCCCNC(=O)c1ccc(-c2c3nc(c(-c4cc(S(=O)(=O)[O-])ccc4F)c4ccc([nH]4)c(-c4cc(S(=O)(=O)[O-])ccc4F)c4nc(c(-c5cc(S(=O)(=O)[O-])ccc5F)c5ccc2[nH]5)C=C4)C=C3)cc1)[N@@H+](C)Cc1cncn1C(C)C
REMARK SMILES IDX 7 1 6 2 4 3 5 4 3 6 2 7 1 8 76 9 77 10 78 12 79 13 80 14
REMARK SMILES IDX 83 15 81 16 82 17 84 18 85 19 86 20 8 21 9 22 10 23 11 24
REMARK SMILES IDX 12 26 13 27 14 28 75 29 15 30 74 31 16 32 17 33 18 34 68 35
REMARK SMILES IDX 19 36 73 37 67 38 69 39 20 40 72 41 66 42 65 43 21 45 53 46
REMARK SMILES IDX 33 47 52 48 34 49 37 50 51 51 70 52 35 53 36 54 50 56 71 57
REMARK SMILES IDX 38 58 22 59 23 60 31 61 24 62 30 63 32 64 29 65 25 66 26 67
REMARK SMILES IDX 27 68 28 69 54 70 55 71 63 72 56 73 62 74 64 75 61 76 57 77
REMARK SMILES IDX 58 78 59 79 60 80 39 81 40 82 48 83 41 84 47 85 49 86 46 87
REMARK SMILES IDX 42 88 43 89 44 90 45 91
REMARK H PARENT 6 5 76 11 10 25 69 44 37 55
REMARK Flexibility Score: inf
ROOT
ATOM      1  C   UNL A   1      31.500  29.610  24.995  1.00  0.00     0.118 C 
ENDROOT
BRANCH   1   2
ATOM      2  N   UNL A   1      32.683  29.669  24.145  1.00  0.00    -0.351 N 
ATOM      3  C   UNL A   1      33.300  28.603  23.501  1.00  0.00     0.278 C 
ATOM      4  O   UNL A   1      34.259  28.833  22.766  1.00  0.00    -0.268 OA
ATOM      5  H   UNL A   1      33.086  30.558  24.012  1.00  0.00     0.163 HD
BRANCH   3   6
ATOM      6  C   UNL A   1      32.704  27.191  23.746  1.00  0.00     0.273 C 
BRANCH   6   7
ATOM      7  C   UNL A   1      31.743  26.845  22.634  1.00  0.00     0.072 C 
ATOM      8  C   UNL A   1      30.258  26.754  23.011  1.00  0.00     0.011 C 
ENDBRANCH   6   7
BRANCH   6   9
ATOM      9  N   UNL A   1      33.694  26.101  23.951  1.00  0.00    -0.322 N 
ATOM     10  C   UNL A   1      33.896  25.758  25.350  1.00  0.00     0.333 C 
ATOM     11  H   UNL A   1      34.523  26.589  23.612  1.00  0.00     0.348 HD
BRANCH   9  12
ATOM     12  C   UNL A   1      33.798  24.969  23.011  1.00  0.00     0.319 C 
BRANCH  12  13
ATOM     13  C   UNL A   1      33.566  23.501  23.417  1.00  0.00     0.093 A 
ATOM     14  C   UNL A   1      32.284  22.949  23.451  1.00  0.00     0.140 A 
ATOM     15  N   UNL A   1      34.337  22.495  24.034  1.00  0.00    -0.327 N 
ATOM     16  N   UNL A   1      32.242  21.713  24.015  1.00  0.00    -0.245 NA
ATOM     17  C   UNL A   1      33.478  21.462  24.347  1.00  0.00     0.200 A 
BRANCH  15  18
ATOM     18  C   UNL A   1      35.767  22.303  24.280  1.00  0.00     0.082 C 
ATOM     19  C   UNL A   1      36.741  22.774  23.192  1.00  0.00     0.031 C 
ATOM     20  C   UNL A   1      36.176  22.871  25.648  1.00  0.00     0.031 C 
ENDBRANCH  15  18
ENDBRANCH  12  13
ENDBRANCH   9  12
ENDBRANCH   6   9
ENDBRANCH   3   6
ENDBRANCH   1   2
BRANCH   1  21
ATOM     21  C   UNL A   1      31.096  30.896  25.671  1.00  0.00     0.042 C 
BRANCH  21  22
ATOM     22  C   UNL A   1      32.007  31.221  26.843  1.00  0.00     0.118 C 
BRANCH  22  23
ATOM     23  N   UNL A   1      32.063  32.650  27.168  1.00  0.00    -0.352 N 
ATOM     24  C   UNL A   1      33.091  33.375  27.737  1.00  0.00     0.251 C 
ATOM     25  H   UNL A   1      31.253  33.165  26.951  1.00  0.00     0.163 HD
ATOM     26  O   UNL A   1      32.921  34.555  28.040  1.00  0.00    -0.269 OA
BRANCH  24  27
ATOM     27  C   UNL A   1      34.372  32.699  28.029  1.00  0.00     0.039 A 
ATOM     28  C   UNL A   1      35.544  33.451  28.133  1.00  0.00     0.014 A 
ATOM     29  C   UNL A   1      34.382  31.337  28.328  1.00  0.00     0.014 A 
ATOM     30  C   UNL A   1      36.692  32.858  28.668  1.00  0.00     0.010 A 
ATOM     31  C   UNL A   1      35.474  30.796  28.990  1.00  0.00     0.010 A 
ATOM     32  C   UNL A   1      36.644  31.548  29.170  1.00  0.00    -0.014 A 
BRANCH  32  33
ATOM     33  C   UNL A   1      37.797  30.925  29.875  1.00  0.00     0.031 A 
ATOM     34  C   UNL A   1      38.079  31.294  31.308  1.00  0.00     0.074 A 
ATOM     35  C   UNL A   1      38.641  30.110  29.211  1.00  0.00     0.049 A 
ATOM     36  N   UNL A   1      39.094  30.968  32.067  1.00  0.00    -0.248 NA
ATOM     37  C   UNL A   1      37.113  32.195  31.954  1.00  0.00     0.031 C 
ATOM     38  C   UNL A   1      38.513  29.714  27.806  1.00  0.00     0.029 A 
ATOM     39  N   UNL A   1      39.780  29.468  29.629  1.00  0.00    -0.354 N 
ATOM     40  C   UNL A   1      38.897  31.642  33.268  1.00  0.00     0.074 A 
ATOM     41  C   UNL A   1      37.723  32.469  33.094  1.00  0.00     0.031 C 
ATOM     42  C   UNL A   1      39.501  28.860  27.496  1.00  0.00     0.029 A 
ATOM     43  C   UNL A   1      40.367  28.689  28.658  1.00  0.00     0.049 A 
ATOM     44  H   UNL A   1      40.144  29.558  30.539  1.00  0.00     0.167 HD
ATOM     45  C   UNL A   1      39.602  31.553  34.423  1.00  0.00     0.034 A 
ATOM     46  C   UNL A   1      41.477  27.926  28.701  1.00  0.00     0.034 A 
ATOM     47  C   UNL A   1      40.759  30.709  34.585  1.00  0.00     0.049 A 
ATOM     48  C   UNL A   1      42.272  27.868  29.979  1.00  0.00     0.074 A 
ATOM     49  C   UNL A   1      41.519  30.492  35.721  1.00  0.00     0.029 A 
ATOM     50  N   UNL A   1      41.330  29.944  33.575  1.00  0.00    -0.354 N 
ATOM     51  N   UNL A   1      42.046  28.472  31.123  1.00  0.00    -0.248 NA
ATOM     52  C   UNL A   1      43.471  27.020  29.972  1.00  0.00     0.031 C 
ATOM     53  C   UNL A   1      42.584  29.649  35.382  1.00  0.00     0.029 A 
ATOM     54  C   UNL A   1      42.449  29.278  34.053  1.00  0.00     0.049 A 
ATOM     55  H   UNL A   1      40.989  29.882  32.654  1.00  0.00     0.167 HD
ATOM     56  C   UNL A   1      43.057  28.049  31.982  1.00  0.00     0.074 A 
ATOM     57  C   UNL A   1      43.888  27.135  31.225  1.00  0.00     0.031 C 
ATOM     58  C   UNL A   1      43.275  28.380  33.280  1.00  0.00     0.034 A 
BRANCH  45  59
ATOM     59  C   UNL A   1      39.135  32.409  35.579  1.00  0.00     0.023 A 
ATOM     60  C   UNL A   1      39.512  33.760  35.691  1.00  0.00     0.031 A 
ATOM     61  C   UNL A   1      38.374  31.854  36.621  1.00  0.00     0.131 A 
ATOM     62  C   UNL A   1      39.236  34.471  36.868  1.00  0.00     0.055 A 
ATOM     63  C   UNL A   1      38.010  32.600  37.745  1.00  0.00     0.041 A 
ATOM     64  F   UNL A   1      37.997  30.566  36.584  1.00  0.00    -0.206 F 
ATOM     65  C   UNL A   1      38.462  33.909  37.885  1.00  0.00     0.022 A 
BRANCH  62  66
ATOM     66  S   UNL A   1      40.073  36.059  37.130  1.00  0.00     0.124 S 
ATOM     67  O   UNL A   1      39.222  36.677  38.145  1.00  0.00    -0.237 OA
ATOM     68  O   UNL A   1      41.399  35.647  37.573  1.00  0.00    -0.237 OA
ATOM     69  O   UNL A   1      40.022  36.694  35.815  1.00  0.00    -0.744 OA
ENDBRANCH  62  66
ENDBRANCH  45  59
BRANCH  46  70
ATOM     70  C   UNL A   1      41.900  27.139  27.508  1.00  0.00     0.023 A 
ATOM     71  C   UNL A   1      41.702  25.749  27.462  1.00  0.00     0.031 A 
ATOM     72  C   UNL A   1      42.531  27.752  26.411  1.00  0.00     0.131 A 
ATOM     73  C   UNL A   1      42.165  25.012  26.360  1.00  0.00     0.055 A 
ATOM     74  C   UNL A   1      42.950  27.021  25.298  1.00  0.00     0.041 A 
ATOM     75  F   UNL A   1      42.737  29.079  26.402  1.00  0.00    -0.206 F 
ATOM     76  C   UNL A   1      42.777  25.640  25.274  1.00  0.00     0.022 A 
BRANCH  73  77
ATOM     77  S   UNL A   1      42.010  23.206  26.399  1.00  0.00     0.124 S 
ATOM     78  O   UNL A   1      42.858  22.859  27.533  1.00  0.00    -0.237 OA
ATOM     79  O   UNL A   1      40.574  23.028  26.593  1.00  0.00    -0.237 OA
ATOM     80  O   UNL A   1      42.514  22.794  25.091  1.00  0.00    -0.744 OA
ENDBRANCH  73  77
ENDBRANCH  46  70
BRANCH  58  81
ATOM     81  C   UNL A   1      44.434  27.706  33.972  1.00  0.00     0.023 A 
ATOM     82  C   UNL A   1      44.266  26.530  34.724  1.00  0.00     0.031 A 
ATOM     83  C   UNL A   1      45.725  28.258  33.882  1.00  0.00     0.131 A 
ATOM     84  C   UNL A   1      45.362  25.973  35.401  1.00  0.00     0.055 A 
ATOM     85  C   UNL A   1      46.822  27.665  34.509  1.00  0.00     0.041 A 
ATOM     86  F   UNL A   1      45.942  29.380  33.179  1.00  0.00    -0.206 F 
ATOM     87  C   UNL A   1      46.642  26.524  35.285  1.00  0.00     0.022 A 
BRANCH  84  88
ATOM     88  S   UNL A   1      45.077  24.566  36.510  1.00  0.00     0.124 S 
ATOM     89  O   UNL A   1      44.712  25.231  37.756  1.00  0.00    -0.237 OA
ATOM     90  O   UNL A   1      44.002  23.848  35.832  1.00  0.00    -0.237 OA
ATOM     91  O   UNL A   1      46.366  23.877  36.528  1.00  0.00    -0.744 OA
ENDBRANCH  84  88
ENDBRANCH  58  81
ENDBRANCH  32  33
ENDBRANCH  24  27
ENDBRANCH  22  23
ENDBRANCH  21  22
ENDBRANCH   1  21
TORSDOF 18
ENDMDL
