MODEL 1
REMARK VINA RESULT:     -12.1      0.000      0.000
REMARK SMILES NC(=O)C[C@H](NC(=O)c1cccc2[nH]ccc12)C(=O)NCCCNC(=O)c1ccc(-c2c3nc(c(-c4cc(S(=O)(=O)[O-])ccc4F)c4ccc([nH]4)c(-c4cc(S(=O)(=O)[O-])ccc4F)c4nc(c(-c5cc(S(=O)(=O)[O-])ccc5F)c5ccc2[nH]5)C=C4)C=C3)cc1
REMARK SMILES IDX 22 1 21 2 20 3 18 4 19 5 5 7 4 8 2 9 1 10 3 13 6 14 7 15
REMARK SMILES IDX 8 17 9 18 10 19 17 20 11 21 13 22 16 23 12 24 14 25 15 26
REMARK SMILES IDX 23 28 24 29 25 30 26 32 27 33 28 34 89 35 29 36 88 37 30 38
REMARK SMILES IDX 31 39 32 40 82 41 33 42 87 43 81 44 83 45 34 46 86 47 80 48
REMARK SMILES IDX 79 49 35 51 67 52 47 53 66 54 48 55 51 56 65 57 84 58 49 59
REMARK SMILES IDX 50 60 64 62 85 63 52 64 36 65 37 66 45 67 38 68 44 69 46 70
REMARK SMILES IDX 43 71 39 72 40 73 41 74 42 75 68 76 69 77 77 78 70 79 76 80
REMARK SMILES IDX 78 81 75 82 71 83 72 84 73 85 74 86 53 87 54 88 62 89 55 90
REMARK SMILES IDX 61 91 63 92 60 93 56 94 57 95 58 96 59 97
REMARK H PARENT 20 6 1 11 1 12 6 16 14 27 24 31 83 50 51 61
REMARK Flexibility Score: inf
ROOT
ATOM      1  C   UNL A   1      36.593  22.406  24.019  1.00  0.00     0.042 C 
ENDROOT
BRANCH   1   2
ATOM      2  C   UNL A   1      35.454  23.346  23.640  1.00  0.00     0.117 C 
BRANCH   2   3
ATOM      3  N   UNL A   1      34.182  22.655  23.605  1.00  0.00    -0.354 N 
ATOM      4  C   UNL A   1      33.074  22.839  24.371  1.00  0.00     0.243 C 
ATOM      5  O   UNL A   1      32.064  22.185  24.083  1.00  0.00    -0.273 OA
ATOM      6  H   UNL A   1      34.108  21.947  22.924  1.00  0.00     0.163 HD
BRANCH   4   7
ATOM      7  C   UNL A   1      32.977  23.966  25.426  1.00  0.00     0.180 C 
BRANCH   7   8
ATOM      8  C   UNL A   1      34.010  23.640  26.510  1.00  0.00     0.134 C 
BRANCH   8   9
ATOM      9  C   UNL A   1      33.575  22.566  27.484  1.00  0.00     0.220 C 
ATOM     10  N   UNL A   1      34.396  21.490  27.631  1.00  0.00    -0.370 N 
ATOM     11  H   UNL A   1      34.153  20.767  28.253  1.00  0.00     0.159 HD
ATOM     12  H   UNL A   1      35.232  21.436  27.116  1.00  0.00     0.159 HD
ATOM     13  O   UNL A   1      32.498  22.582  28.073  1.00  0.00    -0.275 OA
ENDBRANCH   8   9
ENDBRANCH   7   8
BRANCH   7  14
ATOM     14  N   UNL A   1      31.588  24.384  25.730  1.00  0.00    -0.340 N 
ATOM     15  C   UNL A   1      30.874  25.521  26.009  1.00  0.00     0.252 C 
ATOM     16  H   UNL A   1      30.992  23.601  25.731  1.00  0.00     0.164 HD
ATOM     17  O   UNL A   1      29.720  25.391  26.411  1.00  0.00    -0.269 OA
BRANCH  15  18
ATOM     18  C   UNL A   1      31.441  26.868  25.872  1.00  0.00     0.049 A 
ATOM     19  C   UNL A   1      32.441  27.305  26.743  1.00  0.00     0.014 A 
ATOM     20  C   UNL A   1      31.006  27.730  24.840  1.00  0.00     0.012 A 
ATOM     21  C   UNL A   1      32.828  28.642  26.758  1.00  0.00     0.003 A 
ATOM     22  C   UNL A   1      31.404  29.069  24.886  1.00  0.00     0.046 A 
ATOM     23  C   UNL A   1      30.201  27.588  23.673  1.00  0.00     0.029 A 
ATOM     24  C   UNL A   1      32.276  29.563  25.864  1.00  0.00     0.027 A 
ATOM     25  N   UNL A   1      30.782  29.719  23.843  1.00  0.00    -0.361 N 
ATOM     26  C   UNL A   1      30.081  28.825  23.083  1.00  0.00     0.083 A 
ATOM     27  H   UNL A   1      30.834  30.687  23.671  1.00  0.00     0.166 HD
ENDBRANCH  15  18
ENDBRANCH   7  14
ENDBRANCH   4   7
ENDBRANCH   2   3
ENDBRANCH   1   2
BRANCH   1  28
ATOM     28  C   UNL A   1      36.896  22.387  25.512  1.00  0.00     0.118 C 
BRANCH  28  29
ATOM     29  N   UNL A   1      37.960  21.447  25.846  1.00  0.00    -0.352 N 
ATOM     30  C   UNL A   1      39.242  21.670  26.278  1.00  0.00     0.251 C 
ATOM     31  H   UNL A   1      37.718  20.499  25.743  1.00  0.00     0.163 HD
ATOM     32  O   UNL A   1      40.040  20.733  26.276  1.00  0.00    -0.269 OA
BRANCH  30  33
ATOM     33  C   UNL A   1      39.673  23.013  26.728  1.00  0.00     0.039 A 
ATOM     34  C   UNL A   1      40.562  23.111  27.802  1.00  0.00     0.014 A 
ATOM     35  C   UNL A   1      39.180  24.173  26.126  1.00  0.00     0.014 A 
ATOM     36  C   UNL A   1      41.003  24.367  28.227  1.00  0.00     0.010 A 
ATOM     37  C   UNL A   1      39.687  25.417  26.492  1.00  0.00     0.010 A 
ATOM     38  C   UNL A   1      40.598  25.530  27.551  1.00  0.00    -0.014 A 
BRANCH  38  39
ATOM     39  C   UNL A   1      41.117  26.867  27.941  1.00  0.00     0.031 A 
ATOM     40  C   UNL A   1      42.551  27.236  27.672  1.00  0.00     0.074 A 
ATOM     41  C   UNL A   1      40.307  27.734  28.582  1.00  0.00     0.049 A 
ATOM     42  N   UNL A   1      43.199  28.330  27.983  1.00  0.00    -0.248 NA
ATOM     43  C   UNL A   1      43.371  26.225  26.989  1.00  0.00     0.031 C 
ATOM     44  C   UNL A   1      38.907  27.482  28.929  1.00  0.00     0.029 A 
ATOM     45  N   UNL A   1      40.542  29.000  29.056  1.00  0.00    -0.354 N 
ATOM     46  C   UNL A   1      44.503  28.139  27.537  1.00  0.00     0.074 A 
ATOM     47  C   UNL A   1      44.567  26.792  27.010  1.00  0.00     0.031 C 
ATOM     48  C   UNL A   1      38.396  28.574  29.518  1.00  0.00     0.029 A 
ATOM     49  C   UNL A   1      39.443  29.583  29.643  1.00  0.00     0.049 A 
ATOM     50  H   UNL A   1      41.415  29.449  28.984  1.00  0.00     0.167 HD
ATOM     51  C   UNL A   1      45.542  29.013  27.539  1.00  0.00     0.034 A 
ATOM     52  C   UNL A   1      39.296  30.791  30.221  1.00  0.00     0.034 A 
ATOM     53  C   UNL A   1      45.461  30.351  28.077  1.00  0.00     0.049 A 
ATOM     54  C   UNL A   1      40.480  31.722  30.273  1.00  0.00     0.074 A 
ATOM     55  C   UNL A   1      46.437  31.330  28.105  1.00  0.00     0.029 A 
ATOM     56  N   UNL A   1      44.340  30.894  28.696  1.00  0.00    -0.354 N 
ATOM     57  N   UNL A   1      41.696  31.543  29.809  1.00  0.00    -0.248 NA
ATOM     58  C   UNL A   1      40.268  33.022  30.919  1.00  0.00     0.031 C 
ATOM     59  C   UNL A   1      45.936  32.433  28.806  1.00  0.00     0.029 A 
ATOM     60  C   UNL A   1      44.615  32.181  29.139  1.00  0.00     0.049 A 
ATOM     61  H   UNL A   1      43.478  30.433  28.804  1.00  0.00     0.167 HD
ATOM     62  C   UNL A   1      42.381  32.726  30.075  1.00  0.00     0.074 A 
ATOM     63  C   UNL A   1      41.437  33.612  30.725  1.00  0.00     0.031 C 
ATOM     64  C   UNL A   1      43.671  33.053  29.801  1.00  0.00     0.034 A 
BRANCH  51  65
ATOM     65  C   UNL A   1      46.854  28.525  26.964  1.00  0.00     0.023 A 
ATOM     66  C   UNL A   1      47.067  28.455  25.575  1.00  0.00     0.031 A 
ATOM     67  C   UNL A   1      47.885  28.074  27.807  1.00  0.00     0.131 A 
ATOM     68  C   UNL A   1      48.230  27.853  25.073  1.00  0.00     0.055 A 
ATOM     69  C   UNL A   1      49.083  27.567  27.300  1.00  0.00     0.041 A 
ATOM     70  F   UNL A   1      47.737  28.094  29.141  1.00  0.00    -0.206 F 
ATOM     71  C   UNL A   1      49.253  27.433  25.925  1.00  0.00     0.022 A 
BRANCH  68  72
ATOM     72  S   UNL A   1      48.299  27.454  23.304  1.00  0.00     0.124 S 
ATOM     73  O   UNL A   1      47.154  28.202  22.789  1.00  0.00    -0.237 OA
ATOM     74  O   UNL A   1      49.613  27.953  22.918  1.00  0.00    -0.237 OA
ATOM     75  O   UNL A   1      48.148  26.000  23.274  1.00  0.00    -0.744 OA
ENDBRANCH  68  72
ENDBRANCH  51  65
BRANCH  52  76
ATOM     76  C   UNL A   1      37.981  31.202  30.791  1.00  0.00     0.023 A 
ATOM     77  C   UNL A   1      37.020  31.839  29.989  1.00  0.00     0.031 A 
ATOM     78  C   UNL A   1      37.678  31.002  32.149  1.00  0.00     0.131 A 
ATOM     79  C   UNL A   1      35.824  32.297  30.561  1.00  0.00     0.055 A 
ATOM     80  C   UNL A   1      36.462  31.407  32.701  1.00  0.00     0.041 A 
ATOM     81  F   UNL A   1      38.560  30.396  32.960  1.00  0.00    -0.206 F 
ATOM     82  C   UNL A   1      35.530  32.071  31.908  1.00  0.00     0.022 A 
BRANCH  79  83
ATOM     83  S   UNL A   1      34.691  33.274  29.534  1.00  0.00     0.124 S 
ATOM     84  O   UNL A   1      34.065  32.239  28.719  1.00  0.00    -0.237 OA
ATOM     85  O   UNL A   1      33.839  33.903  30.537  1.00  0.00    -0.237 OA
ATOM     86  O   UNL A   1      35.581  34.183  28.815  1.00  0.00    -0.744 OA
ENDBRANCH  79  83
ENDBRANCH  52  76
BRANCH  64  87
ATOM     87  C   UNL A   1      44.115  34.452  30.163  1.00  0.00     0.023 A 
ATOM     88  C   UNL A   1      43.899  35.546  29.306  1.00  0.00     0.031 A 
ATOM     89  C   UNL A   1      44.788  34.688  31.374  1.00  0.00     0.131 A 
ATOM     90  C   UNL A   1      44.414  36.808  29.639  1.00  0.00     0.055 A 
ATOM     91  C   UNL A   1      45.232  35.961  31.735  1.00  0.00     0.041 A 
ATOM     92  F   UNL A   1      45.027  33.682  32.232  1.00  0.00    -0.206 F 
ATOM     93  C   UNL A   1      45.061  37.027  30.858  1.00  0.00     0.022 A 
BRANCH  90  94
ATOM     94  S   UNL A   1      44.325  38.138  28.408  1.00  0.00     0.124 S 
ATOM     95  O   UNL A   1      44.999  39.233  29.097  1.00  0.00    -0.237 OA
ATOM     96  O   UNL A   1      45.040  37.561  27.274  1.00  0.00    -0.237 OA
ATOM     97  O   UNL A   1      42.889  38.322  28.205  1.00  0.00    -0.744 OA
ENDBRANCH  90  94
ENDBRANCH  64  87
ENDBRANCH  38  39
ENDBRANCH  30  33
ENDBRANCH  28  29
ENDBRANCH   1  28
TORSDOF 17
ENDMDL
MODEL 2
REMARK VINA RESULT:     -12.0      4.738      9.915
REMARK SMILES NC(=O)C[C@H](NC(=O)c1cccc2[nH]ccc12)C(=O)NCCCNC(=O)c1ccc(-c2c3nc(c(-c4cc(S(=O)(=O)[O-])ccc4F)c4ccc([nH]4)c(-c4cc(S(=O)(=O)[O-])ccc4F)c4nc(c(-c5cc(S(=O)(=O)[O-])ccc5F)c5ccc2[nH]5)C=C4)C=C3)cc1
REMARK SMILES IDX 22 1 21 2 20 3 18 4 19 5 5 7 4 8 2 9 1 10 3 13 6 14 7 15
REMARK SMILES IDX 8 17 9 18 10 19 17 20 11 21 13 22 16 23 12 24 14 25 15 26
REMARK SMILES IDX 23 28 24 29 25 30 26 32 27 33 28 34 89 35 29 36 88 37 30 38
REMARK SMILES IDX 31 39 32 40 82 41 33 42 87 43 81 44 83 45 34 46 86 47 80 48
REMARK SMILES IDX 79 49 35 51 67 52 47 53 66 54 48 55 51 56 65 57 84 58 49 59
REMARK SMILES IDX 50 60 64 62 85 63 52 64 36 65 37 66 45 67 38 68 44 69 46 70
REMARK SMILES IDX 43 71 39 72 40 73 41 74 42 75 68 76 69 77 77 78 70 79 76 80
REMARK SMILES IDX 78 81 75 82 71 83 72 84 73 85 74 86 53 87 54 88 62 89 55 90
REMARK SMILES IDX 61 91 63 92 60 93 56 94 57 95 58 96 59 97
REMARK H PARENT 20 6 1 11 1 12 6 16 14 27 24 31 83 50 51 61
REMARK Flexibility Score: inf
ROOT
ATOM      1  C   UNL A   1      31.903  29.264  25.717  1.00  0.00     0.042 C 
ENDROOT
BRANCH   1   2
ATOM      2  C   UNL A   1      32.135  28.027  24.859  1.00  0.00     0.117 C 
BRANCH   2   3
ATOM      3  N   UNL A   1      33.279  27.266  25.316  1.00  0.00    -0.354 N 
ATOM      4  C   UNL A   1      33.461  25.919  25.369  1.00  0.00     0.243 C 
ATOM      5  O   UNL A   1      34.575  25.505  25.711  1.00  0.00    -0.273 OA
ATOM      6  H   UNL A   1      34.039  27.804  25.637  1.00  0.00     0.163 HD
BRANCH   4   7
ATOM      7  C   UNL A   1      32.411  24.923  24.823  1.00  0.00     0.180 C 
BRANCH   7   8
ATOM      8  C   UNL A   1      31.973  24.055  26.008  1.00  0.00     0.134 C 
BRANCH   8   9
ATOM      9  C   UNL A   1      30.514  24.201  26.383  1.00  0.00     0.220 C 
ATOM     10  N   UNL A   1      29.786  25.128  25.703  1.00  0.00    -0.370 N 
ATOM     11  H   UNL A   1      28.833  25.257  25.914  1.00  0.00     0.159 HD
ATOM     12  H   UNL A   1      30.212  25.668  25.000  1.00  0.00     0.159 HD
ATOM     13  O   UNL A   1      29.989  23.591  27.310  1.00  0.00    -0.275 OA
ENDBRANCH   8   9
ENDBRANCH   7   8
BRANCH   7  14
ATOM     14  N   UNL A   1      32.749  24.366  23.492  1.00  0.00    -0.340 N 
ATOM     15  C   UNL A   1      33.610  23.464  22.923  1.00  0.00     0.252 C 
ATOM     16  H   UNL A   1      32.177  24.770  22.801  1.00  0.00     0.164 HD
ATOM     17  O   UNL A   1      33.697  23.445  21.697  1.00  0.00    -0.269 OA
BRANCH  15  18
ATOM     18  C   UNL A   1      34.439  22.548  23.716  1.00  0.00     0.049 A 
ATOM     19  C   UNL A   1      35.783  22.840  23.954  1.00  0.00     0.014 A 
ATOM     20  C   UNL A   1      33.883  21.375  24.276  1.00  0.00     0.012 A 
ATOM     21  C   UNL A   1      36.624  21.883  24.516  1.00  0.00     0.003 A 
ATOM     22  C   UNL A   1      34.753  20.430  24.826  1.00  0.00     0.046 A 
ATOM     23  C   UNL A   1      32.566  20.857  24.439  1.00  0.00     0.029 A 
ATOM     24  C   UNL A   1      36.134  20.637  24.913  1.00  0.00     0.027 A 
ATOM     25  N   UNL A   1      33.992  19.348  25.212  1.00  0.00    -0.361 N 
ATOM     26  C   UNL A   1      32.665  19.611  25.015  1.00  0.00     0.083 A 
ATOM     27  H   UNL A   1      34.352  18.507  25.576  1.00  0.00     0.166 HD
ENDBRANCH  15  18
ENDBRANCH   7  14
ENDBRANCH   4   7
ENDBRANCH   2   3
ENDBRANCH   1   2
BRANCH   1  28
ATOM     28  C   UNL A   1      33.092  29.624  26.601  1.00  0.00     0.118 C 
BRANCH  28  29
ATOM     29  N   UNL A   1      33.125  31.045  26.926  1.00  0.00    -0.352 N 
ATOM     30  C   UNL A   1      33.979  31.755  27.732  1.00  0.00     0.251 C 
ATOM     31  H   UNL A   1      32.421  31.583  26.498  1.00  0.00     0.163 HD
ATOM     32  O   UNL A   1      33.679  32.908  28.044  1.00  0.00    -0.269 OA
BRANCH  30  33
ATOM     33  C   UNL A   1      35.232  31.150  28.235  1.00  0.00     0.039 A 
ATOM     34  C   UNL A   1      36.429  31.857  28.085  1.00  0.00     0.014 A 
ATOM     35  C   UNL A   1      35.244  29.880  28.816  1.00  0.00     0.014 A 
ATOM     36  C   UNL A   1      37.621  31.319  28.575  1.00  0.00     0.010 A 
ATOM     37  C   UNL A   1      36.416  29.384  29.382  1.00  0.00     0.010 A 
ATOM     38  C   UNL A   1      37.619  30.094  29.262  1.00  0.00    -0.014 A 
BRANCH  38  39
ATOM     39  C   UNL A   1      38.865  29.542  29.857  1.00  0.00     0.031 A 
ATOM     40  C   UNL A   1      39.410  30.105  31.142  1.00  0.00     0.074 A 
ATOM     41  C   UNL A   1      39.533  28.563  29.213  1.00  0.00     0.049 A 
ATOM     42  N   UNL A   1      40.505  29.793  31.786  1.00  0.00    -0.248 NA
ATOM     43  C   UNL A   1      38.632  31.185  31.766  1.00  0.00     0.031 C 
ATOM     44  C   UNL A   1      39.124  27.956  27.945  1.00  0.00     0.029 A 
ATOM     45  N   UNL A   1      40.694  27.907  29.535  1.00  0.00    -0.354 N 
ATOM     46  C   UNL A   1      40.551  30.638  32.890  1.00  0.00     0.074 A 
ATOM     47  C   UNL A   1      39.414  31.528  32.777  1.00  0.00     0.031 C 
ATOM     48  C   UNL A   1      39.994  26.987  27.620  1.00  0.00     0.029 A 
ATOM     49  C   UNL A   1      41.052  26.940  28.624  1.00  0.00     0.049 A 
ATOM     50  H   UNL A   1      41.222  28.109  30.341  1.00  0.00     0.167 HD
ATOM     51  C   UNL A   1      41.439  30.652  33.917  1.00  0.00     0.034 A 
ATOM     52  C   UNL A   1      42.116  26.112  28.598  1.00  0.00     0.034 A 
ATOM     53  C   UNL A   1      42.571  29.761  34.009  1.00  0.00     0.049 A 
ATOM     54  C   UNL A   1      43.126  26.190  29.714  1.00  0.00     0.074 A 
ATOM     55  C   UNL A   1      43.516  29.666  35.015  1.00  0.00     0.029 A 
ATOM     56  N   UNL A   1      42.922  28.818  33.049  1.00  0.00    -0.354 N 
ATOM     57  N   UNL A   1      43.133  26.966  30.774  1.00  0.00    -0.248 NA
ATOM     58  C   UNL A   1      44.268  25.271  29.633  1.00  0.00     0.031 C 
ATOM     59  C   UNL A   1      44.477  28.725  34.630  1.00  0.00     0.029 A 
ATOM     60  C   UNL A   1      44.088  28.164  33.425  1.00  0.00     0.049 A 
ATOM     61  H   UNL A   1      42.417  28.641  32.223  1.00  0.00     0.167 HD
ATOM     62  C   UNL A   1      44.260  26.600  31.503  1.00  0.00     0.074 A 
ATOM     63  C   UNL A   1      44.897  25.525  30.769  1.00  0.00     0.031 C 
ATOM     64  C   UNL A   1      44.724  27.102  32.678  1.00  0.00     0.034 A 
BRANCH  51  65
ATOM     65  C   UNL A   1      41.222  31.687  35.001  1.00  0.00     0.023 A 
ATOM     66  C   UNL A   1      40.191  31.554  35.949  1.00  0.00     0.031 A 
ATOM     67  C   UNL A   1      42.017  32.846  35.057  1.00  0.00     0.131 A 
ATOM     68  C   UNL A   1      39.917  32.602  36.839  1.00  0.00     0.055 A 
ATOM     69  C   UNL A   1      41.801  33.841  36.013  1.00  0.00     0.041 A 
ATOM     70  F   UNL A   1      43.003  33.044  34.169  1.00  0.00    -0.206 F 
ATOM     71  C   UNL A   1      40.732  33.734  36.897  1.00  0.00     0.022 A 
BRANCH  68  72
ATOM     72  S   UNL A   1      38.369  32.547  37.784  1.00  0.00     0.124 S 
ATOM     73  O   UNL A   1      37.852  33.899  37.583  1.00  0.00    -0.237 OA
ATOM     74  O   UNL A   1      37.632  31.477  37.122  1.00  0.00    -0.237 OA
ATOM     75  O   UNL A   1      38.809  32.254  39.147  1.00  0.00    -0.744 OA
ENDBRANCH  68  72
ENDBRANCH  51  65
BRANCH  52  76
ATOM     76  C   UNL A   1      42.283  25.131  27.488  1.00  0.00     0.023 A 
ATOM     77  C   UNL A   1      41.603  23.903  27.509  1.00  0.00     0.031 A 
ATOM     78  C   UNL A   1      43.151  25.385  26.412  1.00  0.00     0.131 A 
ATOM     79  C   UNL A   1      41.838  22.955  26.502  1.00  0.00     0.055 A 
ATOM     80  C   UNL A   1      43.338  24.463  25.381  1.00  0.00     0.041 A 
ATOM     81  F   UNL A   1      43.825  26.545  26.342  1.00  0.00    -0.206 F 
ATOM     82  C   UNL A   1      42.689  23.233  25.429  1.00  0.00     0.022 A 
BRANCH  79  83
ATOM     83  S   UNL A   1      41.081  21.314  26.662  1.00  0.00     0.124 S 
ATOM     84  O   UNL A   1      39.898  21.451  25.819  1.00  0.00    -0.237 OA
ATOM     85  O   UNL A   1      42.135  20.443  26.153  1.00  0.00    -0.237 OA
ATOM     86  O   UNL A   1      40.817  21.199  28.095  1.00  0.00    -0.744 OA
ENDBRANCH  79  83
ENDBRANCH  52  76
BRANCH  64  87
ATOM     87  C   UNL A   1      45.957  26.451  33.262  1.00  0.00     0.023 A 
ATOM     88  C   UNL A   1      45.876  25.338  34.118  1.00  0.00     0.031 A 
ATOM     89  C   UNL A   1      47.232  26.971  32.977  1.00  0.00     0.131 A 
ATOM     90  C   UNL A   1      47.040  24.826  34.713  1.00  0.00     0.055 A 
ATOM     91  C   UNL A   1      48.393  26.411  33.513  1.00  0.00     0.041 A 
ATOM     92  F   UNL A   1      47.373  28.035  32.170  1.00  0.00    -0.206 F 
ATOM     93  C   UNL A   1      48.300  25.343  34.400  1.00  0.00     0.022 A 
BRANCH  90  94
ATOM     94  S   UNL A   1      46.876  23.548  35.990  1.00  0.00     0.124 S 
ATOM     95  O   UNL A   1      47.069  24.318  37.214  1.00  0.00    -0.237 OA
ATOM     96  O   UNL A   1      45.525  23.046  35.758  1.00  0.00    -0.237 OA
ATOM     97  O   UNL A   1      47.948  22.606  35.672  1.00  0.00    -0.744 OA
ENDBRANCH  90  94
ENDBRANCH  64  87
ENDBRANCH  38  39
ENDBRANCH  30  33
ENDBRANCH  28  29
ENDBRANCH   1  28
TORSDOF 17
ENDMDL
MODEL 3
REMARK VINA RESULT:     -11.9      5.690      8.653
REMARK SMILES NC(=O)C[C@H](NC(=O)c1cccc2[nH]ccc12)C(=O)NCCCNC(=O)c1ccc(-c2c3nc(c(-c4cc(S(=O)(=O)[O-])ccc4F)c4ccc([nH]4)c(-c4cc(S(=O)(=O)[O-])ccc4F)c4nc(c(-c5cc(S(=O)(=O)[O-])ccc5F)c5ccc2[nH]5)C=C4)C=C3)cc1
REMARK SMILES IDX 22 1 21 2 20 3 18 4 19 5 5 7 4 8 2 9 1 10 3 13 6 14 7 15
REMARK SMILES IDX 8 17 9 18 10 19 17 20 11 21 13 22 16 23 12 24 14 25 15 26
REMARK SMILES IDX 23 28 24 29 25 30 26 32 27 33 28 34 89 35 29 36 88 37 30 38
REMARK SMILES IDX 31 39 32 40 82 41 33 42 87 43 81 44 83 45 34 46 86 47 80 48
REMARK SMILES IDX 79 49 35 51 67 52 47 53 66 54 48 55 51 56 65 57 84 58 49 59
REMARK SMILES IDX 50 60 64 62 85 63 52 64 36 65 37 66 45 67 38 68 44 69 46 70
REMARK SMILES IDX 43 71 39 72 40 73 41 74 42 75 68 76 69 77 77 78 70 79 76 80
REMARK SMILES IDX 78 81 75 82 71 83 72 84 73 85 74 86 53 87 54 88 62 89 55 90
REMARK SMILES IDX 61 91 63 92 60 93 56 94 57 95 58 96 59 97
REMARK H PARENT 20 6 1 11 1 12 6 16 14 27 24 31 83 50 51 61
REMARK Flexibility Score: inf
ROOT
ATOM      1  C   UNL A   1      31.456  31.965  26.644  1.00  0.00     0.042 C 
ENDROOT
BRANCH   1   2
ATOM      2  C   UNL A   1      31.718  30.710  25.819  1.00  0.00     0.117 C 
BRANCH   2   3
ATOM      3  N   UNL A   1      30.727  30.537  24.779  1.00  0.00    -0.354 N 
ATOM      4  C   UNL A   1      30.525  29.488  23.938  1.00  0.00     0.243 C 
ATOM      5  O   UNL A   1      29.541  29.535  23.190  1.00  0.00    -0.273 OA
ATOM      6  H   UNL A   1      30.104  31.292  24.663  1.00  0.00     0.163 HD
BRANCH   4   7
ATOM      7  C   UNL A   1      31.348  28.182  24.037  1.00  0.00     0.180 C 
BRANCH   7   8
ATOM      8  C   UNL A   1      31.896  27.902  22.633  1.00  0.00     0.134 C 
BRANCH   8   9
ATOM      9  C   UNL A   1      33.402  28.009  22.519  1.00  0.00     0.220 C 
ATOM     10  N   UNL A   1      34.027  28.896  23.340  1.00  0.00    -0.370 N 
ATOM     11  H   UNL A   1      35.005  28.999  23.300  1.00  0.00     0.159 HD
ATOM     12  H   UNL A   1      33.501  29.434  23.973  1.00  0.00     0.159 HD
ATOM     13  O   UNL A   1      34.061  27.403  21.679  1.00  0.00    -0.275 OA
ENDBRANCH   8   9
ENDBRANCH   7   8
BRANCH   7  14
ATOM     14  N   UNL A   1      30.717  27.141  24.883  1.00  0.00    -0.340 N 
ATOM     15  C   UNL A   1      30.954  25.865  25.324  1.00  0.00     0.252 C 
ATOM     16  H   UNL A   1      29.861  27.469  25.241  1.00  0.00     0.164 HD
ATOM     17  O   UNL A   1      30.036  25.267  25.880  1.00  0.00    -0.269 OA
BRANCH  15  18
ATOM     18  C   UNL A   1      32.242  25.186  25.134  1.00  0.00     0.049 A 
ATOM     19  C   UNL A   1      33.381  25.634  25.807  1.00  0.00     0.014 A 
ATOM     20  C   UNL A   1      32.343  24.053  24.295  1.00  0.00     0.012 A 
ATOM     21  C   UNL A   1      34.638  25.139  25.472  1.00  0.00     0.003 A 
ATOM     22  C   UNL A   1      33.619  23.584  23.970  1.00  0.00     0.046 A 
ATOM     23  C   UNL A   1      31.416  23.196  23.634  1.00  0.00     0.029 A 
ATOM     24  C   UNL A   1      34.786  24.141  24.506  1.00  0.00     0.027 A 
ATOM     25  N   UNL A   1      33.460  22.550  23.074  1.00  0.00    -0.361 N 
ATOM     26  C   UNL A   1      32.131  22.284  22.893  1.00  0.00     0.083 A 
ATOM     27  H   UNL A   1      34.196  22.072  22.629  1.00  0.00     0.166 HD
ENDBRANCH  15  18
ENDBRANCH   7  14
ENDBRANCH   4   7
ENDBRANCH   2   3
ENDBRANCH   1   2
BRANCH   1  28
ATOM     28  C   UNL A   1      32.706  32.533  27.304  1.00  0.00     0.118 C 
BRANCH  28  29
ATOM     29  N   UNL A   1      32.558  33.944  27.641  1.00  0.00    -0.352 N 
ATOM     30  C   UNL A   1      33.156  34.693  28.623  1.00  0.00     0.251 C 
ATOM     31  H   UNL A   1      31.926  34.439  27.072  1.00  0.00     0.163 HD
ATOM     32  O   UNL A   1      32.707  35.812  28.870  1.00  0.00    -0.269 OA
BRANCH  30  33
ATOM     33  C   UNL A   1      34.310  34.169  29.385  1.00  0.00     0.039 A 
ATOM     34  C   UNL A   1      34.071  33.448  30.559  1.00  0.00     0.014 A 
ATOM     35  C   UNL A   1      35.623  34.412  28.975  1.00  0.00     0.014 A 
ATOM     36  C   UNL A   1      35.144  32.921  31.283  1.00  0.00     0.010 A 
ATOM     37  C   UNL A   1      36.685  33.813  29.647  1.00  0.00     0.010 A 
ATOM     38  C   UNL A   1      36.459  33.066  30.812  1.00  0.00    -0.014 A 
BRANCH  38  39
ATOM     39  C   UNL A   1      37.606  32.447  31.527  1.00  0.00     0.031 A 
ATOM     40  C   UNL A   1      38.357  31.298  30.911  1.00  0.00     0.074 A 
ATOM     41  C   UNL A   1      37.942  32.889  32.755  1.00  0.00     0.049 A 
ATOM     42  N   UNL A   1      39.348  30.595  31.400  1.00  0.00    -0.248 NA
ATOM     43  C   UNL A   1      37.912  30.863  29.578  1.00  0.00     0.031 C 
ATOM     44  C   UNL A   1      37.271  33.975  33.473  1.00  0.00     0.029 A 
ATOM     45  N   UNL A   1      38.929  32.484  33.617  1.00  0.00    -0.354 N 
ATOM     46  C   UNL A   1      39.643  29.634  30.438  1.00  0.00     0.074 A 
ATOM     47  C   UNL A   1      38.670  29.796  29.378  1.00  0.00     0.031 C 
ATOM     48  C   UNL A   1      37.893  34.179  34.645  1.00  0.00     0.029 A 
ATOM     49  C   UNL A   1      38.970  33.205  34.788  1.00  0.00     0.049 A 
ATOM     50  H   UNL A   1      39.549  31.746  33.418  1.00  0.00     0.167 HD
ATOM     51  C   UNL A   1      40.648  28.721  30.426  1.00  0.00     0.034 A 
ATOM     52  C   UNL A   1      39.781  33.090  35.859  1.00  0.00     0.034 A 
ATOM     53  C   UNL A   1      41.604  28.569  31.497  1.00  0.00     0.049 A 
ATOM     54  C   UNL A   1      40.848  32.026  35.854  1.00  0.00     0.074 A 
ATOM     55  C   UNL A   1      42.678  27.701  31.579  1.00  0.00     0.029 A 
ATOM     56  N   UNL A   1      41.592  29.293  32.684  1.00  0.00    -0.354 N 
ATOM     57  N   UNL A   1      41.142  31.151  34.919  1.00  0.00    -0.248 NA
ATOM     58  C   UNL A   1      41.698  31.941  37.047  1.00  0.00     0.031 C 
ATOM     59  C   UNL A   1      43.267  27.845  32.840  1.00  0.00     0.029 A 
ATOM     60  C   UNL A   1      42.619  28.866  33.516  1.00  0.00     0.049 A 
ATOM     61  H   UNL A   1      40.950  30.006  32.903  1.00  0.00     0.167 HD
ATOM     62  C   UNL A   1      42.237  30.438  35.399  1.00  0.00     0.074 A 
ATOM     63  C   UNL A   1      42.557  30.997  36.697  1.00  0.00     0.031 C 
ATOM     64  C   UNL A   1      42.922  29.419  34.816  1.00  0.00     0.034 A 
BRANCH  51  65
ATOM     65  C   UNL A   1      40.733  27.807  29.223  1.00  0.00     0.023 A 
ATOM     66  C   UNL A   1      41.678  28.020  28.202  1.00  0.00     0.031 A 
ATOM     67  C   UNL A   1      39.828  26.743  29.063  1.00  0.00     0.131 A 
ATOM     68  C   UNL A   1      41.629  27.254  27.029  1.00  0.00     0.055 A 
ATOM     69  C   UNL A   1      39.850  25.919  27.935  1.00  0.00     0.041 A 
ATOM     70  F   UNL A   1      38.888  26.498  29.989  1.00  0.00    -0.206 F 
ATOM     71  C   UNL A   1      40.740  26.186  26.899  1.00  0.00     0.022 A 
BRANCH  68  72
ATOM     72  S   UNL A   1      42.613  27.796  25.604  1.00  0.00     0.124 S 
ATOM     73  O   UNL A   1      41.827  28.927  25.116  1.00  0.00    -0.237 OA
ATOM     74  O   UNL A   1      43.896  28.127  26.213  1.00  0.00    -0.237 OA
ATOM     75  O   UNL A   1      42.620  26.627  24.726  1.00  0.00    -0.744 OA
ENDBRANCH  68  72
ENDBRANCH  51  65
BRANCH  52  76
ATOM     76  C   UNL A   1      39.628  34.009  37.023  1.00  0.00     0.023 A 
ATOM     77  C   UNL A   1      39.060  33.555  38.225  1.00  0.00     0.031 A 
ATOM     78  C   UNL A   1      40.008  35.360  36.944  1.00  0.00     0.131 A 
ATOM     79  C   UNL A   1      38.844  34.453  39.280  1.00  0.00     0.055 A 
ATOM     80  C   UNL A   1      39.845  36.237  38.018  1.00  0.00     0.041 A 
ATOM     81  F   UNL A   1      40.558  35.846  35.819  1.00  0.00    -0.206 F 
ATOM     82  C   UNL A   1      39.247  35.788  39.191  1.00  0.00     0.022 A 
BRANCH  79  83
ATOM     83  S   UNL A   1      37.945  33.870  40.744  1.00  0.00     0.124 S 
ATOM     84  O   UNL A   1      36.811  33.181  40.140  1.00  0.00    -0.237 OA
ATOM     85  O   UNL A   1      38.940  33.023  41.394  1.00  0.00    -0.237 OA
ATOM     86  O   UNL A   1      37.619  35.104  41.457  1.00  0.00    -0.744 OA
ENDBRANCH  79  83
ENDBRANCH  52  76
BRANCH  64  87
ATOM     87  C   UNL A   1      44.118  28.880  35.567  1.00  0.00     0.023 A 
ATOM     88  C   UNL A   1      44.016  27.784  36.442  1.00  0.00     0.031 A 
ATOM     89  C   UNL A   1      45.376  29.491  35.422  1.00  0.00     0.131 A 
ATOM     90  C   UNL A   1      45.132  27.379  37.191  1.00  0.00     0.055 A 
ATOM     91  C   UNL A   1      46.500  29.037  36.113  1.00  0.00     0.041 A 
ATOM     92  F   UNL A   1      45.536  30.544  34.604  1.00  0.00    -0.206 F 
ATOM     93  C   UNL A   1      46.378  27.986  37.016  1.00  0.00     0.022 A 
BRANCH  90  94
ATOM     94  S   UNL A   1      44.907  26.122  38.479  1.00  0.00     0.124 S 
ATOM     95  O   UNL A   1      46.270  25.640  38.673  1.00  0.00    -0.237 OA
ATOM     96  O   UNL A   1      44.342  26.899  39.578  1.00  0.00    -0.237 OA
ATOM     97  O   UNL A   1      43.990  25.162  37.866  1.00  0.00    -0.744 OA
ENDBRANCH  90  94
ENDBRANCH  64  87
ENDBRANCH  38  39
ENDBRANCH  30  33
ENDBRANCH  28  29
ENDBRANCH   1  28
TORSDOF 17
ENDMDL
