MODEL 1
REMARK VINA RESULT:     -13.0      0.000      0.000
REMARK SMILES CN1C(=O)C[C@H](C(=O)Nc2ccc(C(=O)NCCCNC(=O)c3ccc(-c4c5nc(c(-c6cc(S(=O)(=O)[O-])ccc6F)c6ccc([nH]6)c(-c6cc(S(=O)(=O)[O-])ccc6F)c6nc(c(-c7cc(S(=O)(=O)[O-])ccc7F)c7ccc4[nH]7)C=C6)C=C5)cc3)cc2)S/C1=[NH+]\c1cccc(C(F)(F)F)c1
REMARK SMILES IDX 17 1 16 2 14 3 15 4 13 6 10 7 11 8 87 9 12 10 86 11 9 12
REMARK SMILES IDX 7 13 8 14 6 16 1 17 2 18 3 19 89 20 4 21 5 22 88 23 90 24
REMARK SMILES IDX 91 26 92 27 100 28 93 29 95 30 94 31 96 32 97 33 98 34 99 35
REMARK SMILES IDX 18 36 19 37 20 38 21 39 22 41 23 42 24 43 85 44 25 45 84 46
REMARK SMILES IDX 26 47 27 48 28 49 78 50 29 51 83 52 77 53 79 54 30 55 82 56
REMARK SMILES IDX 76 57 75 58 31 60 63 61 43 62 62 63 44 64 47 65 61 66 80 67
REMARK SMILES IDX 45 68 46 69 60 71 81 72 48 73 32 74 33 75 41 76 34 77 40 78
REMARK SMILES IDX 42 79 39 80 35 81 36 82 37 83 38 84 64 85 65 86 73 87 66 88
REMARK SMILES IDX 72 89 74 90 71 91 67 92 68 93 69 94 70 95 49 96 50 97 58 98
REMARK SMILES IDX 51 99 57 100 59 101 56 102 52 103 53 104 54 105 55 106
REMARK H PARENT 16 5 9 15 90 25 20 40 79 59 47 70
REMARK Flexibility Score: inf
ROOT
ATOM      1  C   UNL A   1      36.867  20.845  25.051  1.00  0.00     0.118 C 
ENDROOT
BRANCH   1   2
ATOM      2  N   UNL A   1      37.091  21.652  23.854  1.00  0.00    -0.352 N 
ATOM      3  C   UNL A   1      36.499  22.795  23.365  1.00  0.00     0.251 C 
ATOM      4  O   UNL A   1      37.013  23.346  22.391  1.00  0.00    -0.269 OA
ATOM      5  H   UNL A   1      37.813  21.309  23.280  1.00  0.00     0.163 HD
BRANCH   3   6
ATOM      6  C   UNL A   1      35.290  23.415  23.971  1.00  0.00     0.039 A 
ATOM      7  C   UNL A   1      32.946  24.614  25.012  1.00  0.00     0.041 A 
ATOM      8  C   UNL A   1      32.846  23.639  24.025  1.00  0.00     0.027 A 
ATOM      9  C   UNL A   1      34.196  24.833  25.573  1.00  0.00     0.027 A 
ATOM     10  C   UNL A   1      34.015  23.056  23.497  1.00  0.00     0.016 A 
ATOM     11  C   UNL A   1      35.361  24.258  25.066  1.00  0.00     0.016 A 
BRANCH   7  12
ATOM     12  N   UNL A   1      31.797  25.246  25.522  1.00  0.00    -0.325 N 
ATOM     13  C   UNL A   1      31.206  26.441  25.153  1.00  0.00     0.238 C 
ATOM     14  O   UNL A   1      30.468  27.004  25.966  1.00  0.00    -0.273 OA
ATOM     15  H   UNL A   1      31.345  24.764  26.251  1.00  0.00     0.169 HD
BRANCH  13  16
ATOM     16  C   UNL A   1      31.286  26.922  23.691  1.00  0.00     0.160 C 
ATOM     17  C   UNL A   1      29.205  30.839  23.748  1.00  0.00     0.301 C 
ATOM     18  N   UNL A   1      29.873  29.548  23.708  1.00  0.00    -0.194 N 
ATOM     19  C   UNL A   1      29.236  28.478  23.093  1.00  0.00     0.311 C 
ATOM     20  C   UNL A   1      31.124  29.488  24.292  1.00  0.00     0.319 C 
ATOM     21  O   UNL A   1      28.124  28.588  22.564  1.00  0.00    -0.247 OA
ATOM     22  C   UNL A   1      29.908  27.105  23.059  1.00  0.00     0.153 C 
ATOM     23  S   UNL A   1      32.204  28.433  23.443  1.00  0.00    -0.024 SA
ATOM     24  N   UNL A   1      31.399  30.218  25.324  1.00  0.00    -0.235 N 
ATOM     25  H   UNL A   1      30.759  30.918  25.591  1.00  0.00     0.313 HD
BRANCH  24  26
ATOM     26  C   UNL A   1      32.568  30.056  26.077  1.00  0.00     0.126 A 
ATOM     27  C   UNL A   1      33.215  28.813  26.021  1.00  0.00     0.052 A 
ATOM     28  C   UNL A   1      33.102  31.057  26.892  1.00  0.00     0.064 A 
ATOM     29  C   UNL A   1      34.395  28.582  26.727  1.00  0.00     0.005 A 
ATOM     30  C   UNL A   1      34.315  30.850  27.578  1.00  0.00     0.060 A 
ATOM     31  C   UNL A   1      34.949  29.599  27.495  1.00  0.00     0.013 A 
BRANCH  30  32
ATOM     32  C   UNL A   1      34.962  31.961  28.362  1.00  0.00     0.416 C 
ATOM     33  F   UNL A   1      35.266  31.620  29.637  1.00  0.00    -0.166 F 
ATOM     34  F   UNL A   1      36.130  32.373  27.788  1.00  0.00    -0.166 F 
ATOM     35  F   UNL A   1      34.186  33.079  28.432  1.00  0.00    -0.166 F 
ENDBRANCH  30  32
ENDBRANCH  24  26
ENDBRANCH  13  16
ENDBRANCH   7  12
ENDBRANCH   3   6
ENDBRANCH   1   2
BRANCH   1  36
ATOM     36  C   UNL A   1      37.971  19.807  25.254  1.00  0.00     0.042 C 
BRANCH  36  37
ATOM     37  C   UNL A   1      39.169  20.313  26.059  1.00  0.00     0.118 C 
BRANCH  37  38
ATOM     38  N   UNL A   1      40.288  19.382  26.026  1.00  0.00    -0.352 N 
ATOM     39  C   UNL A   1      41.648  19.594  26.021  1.00  0.00     0.251 C 
ATOM     40  H   UNL A   1      40.026  18.433  26.004  1.00  0.00     0.163 HD
ATOM     41  O   UNL A   1      42.379  18.643  25.744  1.00  0.00    -0.269 OA
BRANCH  39  42
ATOM     42  C   UNL A   1      42.254  20.919  26.323  1.00  0.00     0.039 A 
ATOM     43  C   UNL A   1      42.476  21.265  27.664  1.00  0.00     0.014 A 
ATOM     44  C   UNL A   1      42.525  21.863  25.332  1.00  0.00     0.014 A 
ATOM     45  C   UNL A   1      43.005  22.519  27.999  1.00  0.00     0.010 A 
ATOM     46  C   UNL A   1      43.131  23.080  25.659  1.00  0.00     0.010 A 
ATOM     47  C   UNL A   1      43.367  23.434  26.998  1.00  0.00    -0.014 A 
BRANCH  47  48
ATOM     48  C   UNL A   1      43.942  24.774  27.321  1.00  0.00     0.031 A 
ATOM     49  C   UNL A   1      43.056  25.856  27.889  1.00  0.00     0.074 A 
ATOM     50  C   UNL A   1      45.237  25.046  27.057  1.00  0.00     0.049 A 
ATOM     51  N   UNL A   1      43.318  27.122  28.101  1.00  0.00    -0.248 NA
ATOM     52  C   UNL A   1      41.682  25.465  28.235  1.00  0.00     0.031 C 
ATOM     53  C   UNL A   1      46.205  24.099  26.502  1.00  0.00     0.029 A 
ATOM     54  N   UNL A   1      45.961  26.204  27.212  1.00  0.00    -0.354 N 
ATOM     55  C   UNL A   1      42.136  27.682  28.579  1.00  0.00     0.074 A 
ATOM     56  C   UNL A   1      41.143  26.628  28.569  1.00  0.00     0.031 C 
ATOM     57  C   UNL A   1      47.397  24.706  26.383  1.00  0.00     0.029 A 
ATOM     58  C   UNL A   1      47.270  26.100  26.797  1.00  0.00     0.049 A 
ATOM     59  H   UNL A   1      45.579  27.031  27.584  1.00  0.00     0.167 HD
ATOM     60  C   UNL A   1      41.903  28.948  29.010  1.00  0.00     0.034 A 
ATOM     61  C   UNL A   1      48.251  27.024  26.738  1.00  0.00     0.034 A 
ATOM     62  C   UNL A   1      42.906  29.986  29.042  1.00  0.00     0.049 A 
ATOM     63  C   UNL A   1      47.959  28.437  27.183  1.00  0.00     0.074 A 
ATOM     64  C   UNL A   1      42.784  31.290  29.489  1.00  0.00     0.029 A 
ATOM     65  N   UNL A   1      44.218  29.838  28.612  1.00  0.00    -0.354 N 
ATOM     66  N   UNL A   1      46.838  28.944  27.642  1.00  0.00    -0.248 NA
ATOM     67  C   UNL A   1      49.067  29.399  27.108  1.00  0.00     0.031 C 
ATOM     68  C   UNL A   1      44.002  31.945  29.278  1.00  0.00     0.029 A 
ATOM     69  C   UNL A   1      44.907  31.031  28.765  1.00  0.00     0.049 A 
ATOM     70  H   UNL A   1      44.602  29.007  28.251  1.00  0.00     0.167 HD
ATOM     71  C   UNL A   1      47.120  30.274  27.945  1.00  0.00     0.074 A 
ATOM     72  C   UNL A   1      48.516  30.487  27.626  1.00  0.00     0.031 C 
ATOM     73  C   UNL A   1      46.300  31.231  28.448  1.00  0.00     0.034 A 
BRANCH  60  74
ATOM     74  C   UNL A   1      40.499  29.281  29.462  1.00  0.00     0.023 A 
ATOM     75  C   UNL A   1      40.160  29.344  30.824  1.00  0.00     0.031 A 
ATOM     76  C   UNL A   1      39.481  29.516  28.519  1.00  0.00     0.131 A 
ATOM     77  C   UNL A   1      38.825  29.551  31.206  1.00  0.00     0.055 A 
ATOM     78  C   UNL A   1      38.171  29.808  28.908  1.00  0.00     0.041 A 
ATOM     79  F   UNL A   1      39.738  29.455  27.204  1.00  0.00    -0.206 F 
ATOM     80  C   UNL A   1      37.833  29.809  30.258  1.00  0.00     0.022 A 
BRANCH  77  81
ATOM     81  S   UNL A   1      38.382  29.329  32.950  1.00  0.00     0.124 S 
ATOM     82  O   UNL A   1      39.687  29.066  33.553  1.00  0.00    -0.237 OA
ATOM     83  O   UNL A   1      37.767  30.606  33.286  1.00  0.00    -0.237 OA
ATOM     84  O   UNL A   1      37.473  28.183  32.929  1.00  0.00    -0.744 OA
ENDBRANCH  77  81
ENDBRANCH  60  74
BRANCH  61  85
ATOM     85  C   UNL A   1      49.606  26.664  26.223  1.00  0.00     0.023 A 
ATOM     86  C   UNL A   1      50.036  27.102  24.961  1.00  0.00     0.031 A 
ATOM     87  C   UNL A   1      50.465  25.827  26.956  1.00  0.00     0.131 A 
ATOM     88  C   UNL A   1      51.264  26.660  24.445  1.00  0.00     0.055 A 
ATOM     89  C   UNL A   1      51.712  25.436  26.465  1.00  0.00     0.041 A 
ATOM     90  F   UNL A   1      50.105  25.378  28.169  1.00  0.00    -0.206 F 
ATOM     91  C   UNL A   1      52.111  25.841  25.194  1.00  0.00     0.022 A 
BRANCH  88  92
ATOM     92  S   UNL A   1      51.693  27.089  22.735  1.00  0.00     0.124 S 
ATOM     93  O   UNL A   1      50.401  26.975  22.067  1.00  0.00    -0.237 OA
ATOM     94  O   UNL A   1      52.222  28.440  22.886  1.00  0.00    -0.237 OA
ATOM     95  O   UNL A   1      52.677  26.073  22.367  1.00  0.00    -0.744 OA
ENDBRANCH  88  92
ENDBRANCH  61  85
BRANCH  73  96
ATOM     96  C   UNL A   1      46.914  32.578  28.744  1.00  0.00     0.023 A 
ATOM     97  C   UNL A   1      47.440  32.892  30.008  1.00  0.00     0.031 A 
ATOM     98  C   UNL A   1      46.968  33.561  27.740  1.00  0.00     0.131 A 
ATOM     99  C   UNL A   1      47.956  34.175  30.250  1.00  0.00     0.055 A 
ATOM    100  C   UNL A   1      47.532  34.816  27.970  1.00  0.00     0.041 A 
ATOM    101  F   UNL A   1      46.480  33.312  26.514  1.00  0.00    -0.206 F 
ATOM    102  C   UNL A   1      48.018  35.133  29.235  1.00  0.00     0.022 A 
BRANCH  99 103
ATOM    103  S   UNL A   1      48.477  34.604  31.934  1.00  0.00     0.124 S 
ATOM    104  O   UNL A   1      49.887  34.225  31.922  1.00  0.00    -0.237 OA
ATOM    105  O   UNL A   1      48.202  36.035  31.993  1.00  0.00    -0.237 OA
ATOM    106  O   UNL A   1      47.620  33.775  32.781  1.00  0.00    -0.744 OA
ENDBRANCH  99 103
ENDBRANCH  73  96
ENDBRANCH  47  48
ENDBRANCH  39  42
ENDBRANCH  37  38
ENDBRANCH  36  37
ENDBRANCH   1  36
TORSDOF 17
ENDMDL
MODEL 2
REMARK VINA RESULT:     -12.5      5.631     11.635
REMARK SMILES CN1C(=O)C[C@H](C(=O)Nc2ccc(C(=O)NCCCNC(=O)c3ccc(-c4c5nc(c(-c6cc(S(=O)(=O)[O-])ccc6F)c6ccc([nH]6)c(-c6cc(S(=O)(=O)[O-])ccc6F)c6nc(c(-c7cc(S(=O)(=O)[O-])ccc7F)c7ccc4[nH]7)C=C6)C=C5)cc3)cc2)S/C1=[NH+]\c1cccc(C(F)(F)F)c1
REMARK SMILES IDX 17 1 16 2 14 3 15 4 13 6 10 7 11 8 87 9 12 10 86 11 9 12
REMARK SMILES IDX 7 13 8 14 6 16 1 17 2 18 3 19 89 20 4 21 5 22 88 23 90 24
REMARK SMILES IDX 91 26 92 27 100 28 93 29 95 30 94 31 96 32 97 33 98 34 99 35
REMARK SMILES IDX 18 36 19 37 20 38 21 39 22 41 23 42 24 43 85 44 25 45 84 46
REMARK SMILES IDX 26 47 27 48 28 49 78 50 29 51 83 52 77 53 79 54 30 55 82 56
REMARK SMILES IDX 76 57 75 58 31 60 63 61 43 62 62 63 44 64 47 65 61 66 80 67
REMARK SMILES IDX 45 68 46 69 60 71 81 72 48 73 32 74 33 75 41 76 34 77 40 78
REMARK SMILES IDX 42 79 39 80 35 81 36 82 37 83 38 84 64 85 65 86 73 87 66 88
REMARK SMILES IDX 72 89 74 90 71 91 67 92 68 93 69 94 70 95 49 96 50 97 58 98
REMARK SMILES IDX 51 99 57 100 59 101 56 102 52 103 53 104 54 105 55 106
REMARK H PARENT 16 5 9 15 90 25 20 40 79 59 47 70
REMARK Flexibility Score: inf
ROOT
ATOM      1  C   UNL A   1      39.860  33.256  39.231  1.00  0.00     0.118 C 
ENDROOT
BRANCH   1   2
ATOM      2  N   UNL A   1      38.734  32.325  39.249  1.00  0.00    -0.352 N 
ATOM      3  C   UNL A   1      37.835  31.918  38.289  1.00  0.00     0.251 C 
ATOM      4  O   UNL A   1      37.078  30.985  38.559  1.00  0.00    -0.269 OA
ATOM      5  H   UNL A   1      38.590  31.901  40.126  1.00  0.00     0.163 HD
BRANCH   3   6
ATOM      6  C   UNL A   1      37.753  32.524  36.933  1.00  0.00     0.039 A 
ATOM      7  C   UNL A   1      37.717  33.654  34.337  1.00  0.00     0.041 A 
ATOM      8  C   UNL A   1      38.322  32.419  34.547  1.00  0.00     0.027 A 
ATOM      9  C   UNL A   1      36.998  34.203  35.389  1.00  0.00     0.027 A 
ATOM     10  C   UNL A   1      38.353  31.866  35.843  1.00  0.00     0.016 A 
ATOM     11  C   UNL A   1      37.013  33.664  36.675  1.00  0.00     0.016 A 
BRANCH   7  12
ATOM     12  N   UNL A   1      37.714  34.249  33.063  1.00  0.00    -0.325 N 
ATOM     13  C   UNL A   1      37.034  33.883  31.916  1.00  0.00     0.238 C 
ATOM     14  O   UNL A   1      37.466  34.277  30.828  1.00  0.00    -0.273 OA
ATOM     15  H   UNL A   1      38.282  35.048  32.975  1.00  0.00     0.169 HD
BRANCH  13  16
ATOM     16  C   UNL A   1      35.654  33.205  32.019  1.00  0.00     0.160 C 
ATOM     17  C   UNL A   1      34.351  32.796  27.799  1.00  0.00     0.301 C 
ATOM     18  N   UNL A   1      34.755  32.941  29.189  1.00  0.00    -0.194 N 
ATOM     19  C   UNL A   1      34.111  33.880  29.984  1.00  0.00     0.311 C 
ATOM     20  C   UNL A   1      35.765  32.104  29.622  1.00  0.00     0.319 C 
ATOM     21  O   UNL A   1      33.196  34.591  29.554  1.00  0.00    -0.247 OA
ATOM     22  C   UNL A   1      34.533  34.066  31.442  1.00  0.00     0.153 C 
ATOM     23  S   UNL A   1      35.547  31.592  31.263  1.00  0.00    -0.024 SA
ATOM     24  N   UNL A   1      36.706  31.740  28.812  1.00  0.00    -0.235 N 
ATOM     25  H   UNL A   1      36.608  31.946  27.854  1.00  0.00     0.313 HD
BRANCH  24  26
ATOM     26  C   UNL A   1      37.856  31.065  29.239  1.00  0.00     0.126 A 
ATOM     27  C   UNL A   1      38.903  31.831  29.771  1.00  0.00     0.052 A 
ATOM     28  C   UNL A   1      38.017  29.682  29.139  1.00  0.00     0.064 A 
ATOM     29  C   UNL A   1      40.072  31.230  30.236  1.00  0.00     0.005 A 
ATOM     30  C   UNL A   1      39.175  29.057  29.642  1.00  0.00     0.060 A 
ATOM     31  C   UNL A   1      40.205  29.847  30.181  1.00  0.00     0.013 A 
BRANCH  30  32
ATOM     32  C   UNL A   1      39.307  27.557  29.649  1.00  0.00     0.416 C 
ATOM     33  F   UNL A   1      40.571  27.125  29.877  1.00  0.00    -0.166 F 
ATOM     34  F   UNL A   1      38.528  26.985  30.613  1.00  0.00    -0.166 F 
ATOM     35  F   UNL A   1      38.904  26.986  28.480  1.00  0.00    -0.166 F 
ENDBRANCH  30  32
ENDBRANCH  24  26
ENDBRANCH  13  16
ENDBRANCH   7  12
ENDBRANCH   3   6
ENDBRANCH   1   2
BRANCH   1  36
ATOM     36  C   UNL A   1      39.553  34.537  40.010  1.00  0.00     0.042 C 
BRANCH  36  37
ATOM     37  C   UNL A   1      39.188  35.734  39.131  1.00  0.00     0.118 C 
BRANCH  37  38
ATOM     38  N   UNL A   1      40.253  36.726  39.084  1.00  0.00    -0.352 N 
ATOM     39  C   UNL A   1      41.441  36.754  38.389  1.00  0.00     0.251 C 
ATOM     40  H   UNL A   1      40.095  37.517  39.649  1.00  0.00     0.163 HD
ATOM     41  O   UNL A   1      42.278  37.597  38.711  1.00  0.00    -0.269 OA
BRANCH  39  42
ATOM     42  C   UNL A   1      41.745  35.805  37.284  1.00  0.00     0.039 A 
ATOM     43  C   UNL A   1      43.059  35.334  37.147  1.00  0.00     0.014 A 
ATOM     44  C   UNL A   1      40.797  35.438  36.328  1.00  0.00     0.014 A 
ATOM     45  C   UNL A   1      43.402  34.472  36.096  1.00  0.00     0.010 A 
ATOM     46  C   UNL A   1      41.118  34.512  35.330  1.00  0.00     0.010 A 
ATOM     47  C   UNL A   1      42.428  34.026  35.190  1.00  0.00    -0.014 A 
BRANCH  47  48
ATOM     48  C   UNL A   1      42.759  33.100  34.066  1.00  0.00     0.031 A 
ATOM     49  C   UNL A   1      42.932  33.644  32.668  1.00  0.00     0.074 A 
ATOM     50  C   UNL A   1      42.850  31.771  34.276  1.00  0.00     0.049 A 
ATOM     51  N   UNL A   1      43.075  33.002  31.535  1.00  0.00    -0.248 NA
ATOM     52  C   UNL A   1      42.909  35.107  32.526  1.00  0.00     0.031 C 
ATOM     53  C   UNL A   1      42.699  31.107  35.572  1.00  0.00     0.029 A 
ATOM     54  N   UNL A   1      43.083  30.736  33.402  1.00  0.00    -0.354 N 
ATOM     55  C   UNL A   1      43.133  33.980  30.546  1.00  0.00     0.074 A 
ATOM     56  C   UNL A   1      42.950  35.254  31.210  1.00  0.00     0.031 C 
ATOM     57  C   UNL A   1      42.862  29.784  35.411  1.00  0.00     0.029 A 
ATOM     58  C   UNL A   1      43.073  29.494  33.996  1.00  0.00     0.049 A 
ATOM     59  H   UNL A   1      43.240  30.871  32.440  1.00  0.00     0.167 HD
ATOM     60  C   UNL A   1      43.342  33.836  29.212  1.00  0.00     0.034 A 
ATOM     61  C   UNL A   1      43.200  28.261  33.463  1.00  0.00     0.034 A 
ATOM     62  C   UNL A   1      43.551  32.565  28.562  1.00  0.00     0.049 A 
ATOM     63  C   UNL A   1      43.392  28.121  31.971  1.00  0.00     0.074 A 
ATOM     64  C   UNL A   1      43.804  32.311  27.225  1.00  0.00     0.029 A 
ATOM     65  N   UNL A   1      43.532  31.332  29.201  1.00  0.00    -0.354 N 
ATOM     66  N   UNL A   1      43.454  29.059  31.054  1.00  0.00    -0.248 NA
ATOM     67  C   UNL A   1      43.536  26.757  31.446  1.00  0.00     0.031 C 
ATOM     68  C   UNL A   1      43.883  30.925  27.046  1.00  0.00     0.029 A 
ATOM     69  C   UNL A   1      43.750  30.316  28.283  1.00  0.00     0.049 A 
ATOM     70  H   UNL A   1      43.386  31.199  30.165  1.00  0.00     0.167 HD
ATOM     71  C   UNL A   1      43.683  28.397  29.851  1.00  0.00     0.074 A 
ATOM     72  C   UNL A   1      43.756  26.984  30.159  1.00  0.00     0.031 C 
ATOM     73  C   UNL A   1      43.826  28.911  28.603  1.00  0.00     0.034 A 
BRANCH  60  74
ATOM     74  C   UNL A   1      43.336  35.091  28.368  1.00  0.00     0.023 A 
ATOM     75  C   UNL A   1      44.530  35.694  27.936  1.00  0.00     0.031 A 
ATOM     76  C   UNL A   1      42.122  35.705  28.010  1.00  0.00     0.131 A 
ATOM     77  C   UNL A   1      44.488  36.915  27.245  1.00  0.00     0.055 A 
ATOM     78  C   UNL A   1      42.086  36.874  27.246  1.00  0.00     0.041 A 
ATOM     79  F   UNL A   1      40.949  35.187  28.406  1.00  0.00    -0.206 F 
ATOM     80  C   UNL A   1      43.274  37.496  26.874  1.00  0.00     0.022 A 
BRANCH  77  81
ATOM     81  S   UNL A   1      46.045  37.803  26.970  1.00  0.00     0.124 S 
ATOM     82  O   UNL A   1      46.633  37.033  25.876  1.00  0.00    -0.237 OA
ATOM     83  O   UNL A   1      45.589  39.146  26.636  1.00  0.00    -0.237 OA
ATOM     84  O   UNL A   1      46.740  37.679  28.251  1.00  0.00    -0.744 OA
ENDBRANCH  77  81
ENDBRANCH  60  74
BRANCH  61  85
ATOM     85  C   UNL A   1      43.136  27.046  34.329  1.00  0.00     0.023 A 
ATOM     86  C   UNL A   1      44.307  26.382  34.725  1.00  0.00     0.031 A 
ATOM     87  C   UNL A   1      41.903  26.496  34.720  1.00  0.00     0.131 A 
ATOM     88  C   UNL A   1      44.223  25.179  35.442  1.00  0.00     0.055 A 
ATOM     89  C   UNL A   1      41.824  25.329  35.483  1.00  0.00     0.041 A 
ATOM     90  F   UNL A   1      40.751  27.089  34.369  1.00  0.00    -0.206 F 
ATOM     91  C   UNL A   1      42.990  24.655  35.835  1.00  0.00     0.022 A 
BRANCH  88  92
ATOM     92  S   UNL A   1      45.749  24.251  35.764  1.00  0.00     0.124 S 
ATOM     93  O   UNL A   1      45.237  22.904  35.985  1.00  0.00    -0.237 OA
ATOM     94  O   UNL A   1      46.495  24.461  34.527  1.00  0.00    -0.237 OA
ATOM     95  O   UNL A   1      46.304  24.910  36.944  1.00  0.00    -0.744 OA
ENDBRANCH  88  92
ENDBRANCH  61  85
BRANCH  73  96
ATOM     96  C   UNL A   1      44.142  27.942  27.490  1.00  0.00     0.023 A 
ATOM     97  C   UNL A   1      45.455  27.736  27.034  1.00  0.00     0.031 A 
ATOM     98  C   UNL A   1      43.105  27.214  26.878  1.00  0.00     0.131 A 
ATOM     99  C   UNL A   1      45.693  26.861  25.963  1.00  0.00     0.055 A 
ATOM    100  C   UNL A   1      43.354  26.304  25.850  1.00  0.00     0.041 A 
ATOM    101  F   UNL A   1      41.832  27.372  27.275  1.00  0.00    -0.206 F 
ATOM    102  C   UNL A   1      44.653  26.133  25.379  1.00  0.00     0.022 A 
BRANCH  99 103
ATOM    103  S   UNL A   1      47.373  26.740  25.290  1.00  0.00     0.124 S 
ATOM    104  O   UNL A   1      48.143  26.340  26.464  1.00  0.00    -0.237 OA
ATOM    105  O   UNL A   1      47.223  25.728  24.251  1.00  0.00    -0.237 OA
ATOM    106  O   UNL A   1      47.645  28.092  24.802  1.00  0.00    -0.744 OA
ENDBRANCH  99 103
ENDBRANCH  73  96
ENDBRANCH  47  48
ENDBRANCH  39  42
ENDBRANCH  37  38
ENDBRANCH  36  37
ENDBRANCH   1  36
TORSDOF 17
ENDMDL
MODEL 3
REMARK VINA RESULT:     -12.5      5.696     11.467
REMARK SMILES CN1C(=O)C[C@H](C(=O)Nc2ccc(C(=O)NCCCNC(=O)c3ccc(-c4c5nc(c(-c6cc(S(=O)(=O)[O-])ccc6F)c6ccc([nH]6)c(-c6cc(S(=O)(=O)[O-])ccc6F)c6nc(c(-c7cc(S(=O)(=O)[O-])ccc7F)c7ccc4[nH]7)C=C6)C=C5)cc3)cc2)S/C1=[NH+]\c1cccc(C(F)(F)F)c1
REMARK SMILES IDX 17 1 16 2 14 3 15 4 13 6 10 7 11 8 87 9 12 10 86 11 9 12
REMARK SMILES IDX 7 13 8 14 6 16 1 17 2 18 3 19 89 20 4 21 5 22 88 23 90 24
REMARK SMILES IDX 91 26 92 27 100 28 93 29 95 30 94 31 96 32 97 33 98 34 99 35
REMARK SMILES IDX 18 36 19 37 20 38 21 39 22 41 23 42 24 43 85 44 25 45 84 46
REMARK SMILES IDX 26 47 27 48 28 49 78 50 29 51 83 52 77 53 79 54 30 55 82 56
REMARK SMILES IDX 76 57 75 58 31 60 63 61 43 62 62 63 44 64 47 65 61 66 80 67
REMARK SMILES IDX 45 68 46 69 60 71 81 72 48 73 32 74 33 75 41 76 34 77 40 78
REMARK SMILES IDX 42 79 39 80 35 81 36 82 37 83 38 84 64 85 65 86 73 87 66 88
REMARK SMILES IDX 72 89 74 90 71 91 67 92 68 93 69 94 70 95 49 96 50 97 58 98
REMARK SMILES IDX 51 99 57 100 59 101 56 102 52 103 53 104 54 105 55 106
REMARK H PARENT 16 5 9 15 90 25 20 40 79 59 47 70
REMARK Flexibility Score: inf
ROOT
ATOM      1  C   UNL A   1      40.058  33.132  39.091  1.00  0.00     0.118 C 
ENDROOT
BRANCH   1   2
ATOM      2  N   UNL A   1      38.892  32.252  39.051  1.00  0.00    -0.352 N 
ATOM      3  C   UNL A   1      38.037  31.868  38.043  1.00  0.00     0.251 C 
ATOM      4  O   UNL A   1      37.222  30.976  38.278  1.00  0.00    -0.269 OA
ATOM      5  H   UNL A   1      38.673  31.851  39.923  1.00  0.00     0.163 HD
BRANCH   3   6
ATOM      6  C   UNL A   1      38.068  32.453  36.676  1.00  0.00     0.039 A 
ATOM      7  C   UNL A   1      38.008  33.595  34.085  1.00  0.00     0.041 A 
ATOM      8  C   UNL A   1      37.455  34.284  35.160  1.00  0.00     0.027 A 
ATOM      9  C   UNL A   1      38.727  32.442  34.364  1.00  0.00     0.027 A 
ATOM     10  C   UNL A   1      37.472  33.707  36.445  1.00  0.00     0.016 A 
ATOM     11  C   UNL A   1      38.758  31.862  35.632  1.00  0.00     0.016 A 
BRANCH   7  12
ATOM     12  N   UNL A   1      37.962  34.128  32.785  1.00  0.00    -0.325 N 
ATOM     13  C   UNL A   1      37.226  33.721  31.686  1.00  0.00     0.238 C 
ATOM     14  O   UNL A   1      37.619  34.052  30.563  1.00  0.00    -0.273 OA
ATOM     15  H   UNL A   1      38.541  34.909  32.633  1.00  0.00     0.169 HD
BRANCH  13  16
ATOM     16  C   UNL A   1      35.839  33.079  31.881  1.00  0.00     0.160 C 
ATOM     17  C   UNL A   1      34.323  32.549  27.747  1.00  0.00     0.301 C 
ATOM     18  N   UNL A   1      34.797  32.734  29.109  1.00  0.00    -0.194 N 
ATOM     19  C   UNL A   1      34.213  33.716  29.898  1.00  0.00     0.311 C 
ATOM     20  C   UNL A   1      35.809  31.890  29.524  1.00  0.00     0.319 C 
ATOM     21  O   UNL A   1      33.293  34.432  29.487  1.00  0.00    -0.247 OA
ATOM     22  C   UNL A   1      34.710  33.945  31.326  1.00  0.00     0.153 C 
ATOM     23  S   UNL A   1      35.661  31.443  31.190  1.00  0.00    -0.024 SA
ATOM     24  N   UNL A   1      36.701  31.476  28.683  1.00  0.00    -0.235 N 
ATOM     25  H   UNL A   1      36.561  31.650  27.724  1.00  0.00     0.313 HD
BRANCH  24  26
ATOM     26  C   UNL A   1      37.857  30.791  29.079  1.00  0.00     0.126 A 
ATOM     27  C   UNL A   1      38.906  31.542  29.627  1.00  0.00     0.052 A 
ATOM     28  C   UNL A   1      38.020  29.412  28.932  1.00  0.00     0.064 A 
ATOM     29  C   UNL A   1      40.080  30.929  30.063  1.00  0.00     0.005 A 
ATOM     30  C   UNL A   1      39.184  28.775  29.406  1.00  0.00     0.060 A 
ATOM     31  C   UNL A   1      40.215  29.549  29.962  1.00  0.00     0.013 A 
BRANCH  30  32
ATOM     32  C   UNL A   1      39.319  27.276  29.363  1.00  0.00     0.416 C 
ATOM     33  F   UNL A   1      38.895  26.725  28.200  1.00  0.00    -0.166 F 
ATOM     34  F   UNL A   1      40.615  26.879  29.523  1.00  0.00    -0.166 F 
ATOM     35  F   UNL A   1      38.631  26.655  30.362  1.00  0.00    -0.166 F 
ENDBRANCH  30  32
ENDBRANCH  24  26
ENDBRANCH  13  16
ENDBRANCH   7  12
ENDBRANCH   3   6
ENDBRANCH   1   2
BRANCH   1  36
ATOM     36  C   UNL A   1      39.814  34.361  39.968  1.00  0.00     0.042 C 
BRANCH  36  37
ATOM     37  C   UNL A   1      41.080  34.941  40.601  1.00  0.00     0.118 C 
BRANCH  37  38
ATOM     38  N   UNL A   1      41.355  36.295  40.140  1.00  0.00    -0.352 N 
ATOM     39  C   UNL A   1      41.870  36.764  38.953  1.00  0.00     0.251 C 
ATOM     40  H   UNL A   1      41.133  36.999  40.792  1.00  0.00     0.163 HD
ATOM     41  O   UNL A   1      42.231  37.940  38.906  1.00  0.00    -0.269 OA
BRANCH  39  42
ATOM     42  C   UNL A   1      42.013  35.906  37.746  1.00  0.00     0.039 A 
ATOM     43  C   UNL A   1      43.268  35.349  37.464  1.00  0.00     0.014 A 
ATOM     44  C   UNL A   1      40.971  35.710  36.838  1.00  0.00     0.014 A 
ATOM     45  C   UNL A   1      43.461  34.569  36.315  1.00  0.00     0.010 A 
ATOM     46  C   UNL A   1      41.140  34.863  35.738  1.00  0.00     0.010 A 
ATOM     47  C   UNL A   1      42.390  34.291  35.451  1.00  0.00    -0.014 A 
BRANCH  47  48
ATOM     48  C   UNL A   1      42.560  33.456  34.225  1.00  0.00     0.031 A 
ATOM     49  C   UNL A   1      42.612  31.952  34.339  1.00  0.00     0.074 A 
ATOM     50  C   UNL A   1      42.724  34.036  33.018  1.00  0.00     0.049 A 
ATOM     51  N   UNL A   1      42.897  31.055  33.427  1.00  0.00    -0.248 NA
ATOM     52  C   UNL A   1      42.337  31.385  35.667  1.00  0.00     0.031 C 
ATOM     53  C   UNL A   1      42.703  35.477  32.761  1.00  0.00     0.029 A 
ATOM     54  N   UNL A   1      42.951  33.485  31.779  1.00  0.00    -0.354 N 
ATOM     55  C   UNL A   1      42.861  29.824  34.076  1.00  0.00     0.074 A 
ATOM     56  C   UNL A   1      42.583  30.098  35.471  1.00  0.00     0.031 C 
ATOM     57  C   UNL A   1      42.888  35.694  31.449  1.00  0.00     0.029 A 
ATOM     58  C   UNL A   1      43.097  34.415  30.775  1.00  0.00     0.049 A 
ATOM     59  H   UNL A   1      43.005  32.514  31.624  1.00  0.00     0.167 HD
ATOM     60  C   UNL A   1      43.018  28.579  33.558  1.00  0.00     0.034 A 
ATOM     61  C   UNL A   1      43.385  34.261  29.466  1.00  0.00     0.034 A 
ATOM     62  C   UNL A   1      43.268  28.313  32.161  1.00  0.00     0.049 A 
ATOM     63  C   UNL A   1      43.598  32.870  28.918  1.00  0.00     0.074 A 
ATOM     64  C   UNL A   1      43.410  27.091  31.528  1.00  0.00     0.029 A 
ATOM     65  N   UNL A   1      43.409  29.285  31.179  1.00  0.00    -0.354 N 
ATOM     66  N   UNL A   1      43.549  31.718  29.547  1.00  0.00    -0.248 NA
ATOM     67  C   UNL A   1      43.898  32.760  27.485  1.00  0.00     0.031 C 
ATOM     68  C   UNL A   1      43.693  27.324  30.177  1.00  0.00     0.029 A 
ATOM     69  C   UNL A   1      43.656  28.690  29.952  1.00  0.00     0.049 A 
ATOM     70  H   UNL A   1      43.343  30.255  31.333  1.00  0.00     0.167 HD
ATOM     71  C   UNL A   1      43.774  30.747  28.574  1.00  0.00     0.074 A 
ATOM     72  C   UNL A   1      43.951  31.447  27.319  1.00  0.00     0.031 C 
ATOM     73  C   UNL A   1      43.826  29.398  28.706  1.00  0.00     0.034 A 
BRANCH  60  74
ATOM     74  C   UNL A   1      42.945  27.413  34.517  1.00  0.00     0.023 A 
ATOM     75  C   UNL A   1      44.078  26.963  35.218  1.00  0.00     0.031 A 
ATOM     76  C   UNL A   1      41.734  26.726  34.717  1.00  0.00     0.131 A 
ATOM     77  C   UNL A   1      43.997  25.813  36.018  1.00  0.00     0.055 A 
ATOM     78  C   UNL A   1      41.640  25.634  35.583  1.00  0.00     0.041 A 
ATOM     79  F   UNL A   1      40.621  27.097  34.064  1.00  0.00    -0.206 F 
ATOM     80  C   UNL A   1      42.780  25.160  36.226  1.00  0.00     0.022 A 
BRANCH  77  81
ATOM     81  S   UNL A   1      45.535  25.099  36.660  1.00  0.00     0.124 S 
ATOM     82  O   UNL A   1      45.081  24.506  37.916  1.00  0.00    -0.237 OA
ATOM     83  O   UNL A   1      45.913  24.164  35.609  1.00  0.00    -0.237 OA
ATOM     84  O   UNL A   1      46.413  26.259  36.811  1.00  0.00    -0.744 OA
ENDBRANCH  77  81
ENDBRANCH  60  74
BRANCH  61  85
ATOM     85  C   UNL A   1      43.512  35.449  28.569  1.00  0.00     0.023 A 
ATOM     86  C   UNL A   1      44.762  36.041  28.331  1.00  0.00     0.031 A 
ATOM     87  C   UNL A   1      42.380  36.046  27.988  1.00  0.00     0.131 A 
ATOM     88  C   UNL A   1      44.846  37.223  27.579  1.00  0.00     0.055 A 
ATOM     89  C   UNL A   1      42.474  37.189  27.192  1.00  0.00     0.041 A 
ATOM     90  F   UNL A   1      41.159  35.521  28.182  1.00  0.00    -0.206 F 
ATOM     91  C   UNL A   1      43.712  37.793  26.997  1.00  0.00     0.022 A 
BRANCH  88  92
ATOM     92  S   UNL A   1      46.450  38.064  27.460  1.00  0.00     0.124 S 
ATOM     93  O   UNL A   1      46.209  39.010  26.377  1.00  0.00    -0.237 OA
ATOM     94  O   UNL A   1      46.590  38.636  28.795  1.00  0.00    -0.237 OA
ATOM     95  O   UNL A   1      47.379  36.980  27.148  1.00  0.00    -0.744 OA
ENDBRANCH  88  92
ENDBRANCH  61  85
BRANCH  73  96
ATOM     96  C   UNL A   1      44.017  28.589  27.446  1.00  0.00     0.023 A 
ATOM     97  C   UNL A   1      45.293  28.302  26.933  1.00  0.00     0.031 A 
ATOM     98  C   UNL A   1      42.897  28.100  26.750  1.00  0.00     0.131 A 
ATOM     99  C   UNL A   1      45.418  27.588  25.731  1.00  0.00     0.055 A 
ATOM    100  C   UNL A   1      43.029  27.343  25.584  1.00  0.00     0.041 A 
ATOM    101  F   UNL A   1      41.654  28.345  27.196  1.00  0.00    -0.206 F 
ATOM    102  C   UNL A   1      44.295  27.094  25.063  1.00  0.00     0.022 A 
BRANCH  99 103
ATOM    103  S   UNL A   1      47.069  27.375  25.010  1.00  0.00     0.124 S 
ATOM    104  O   UNL A   1      46.948  26.077  24.351  1.00  0.00    -0.237 OA
ATOM    105  O   UNL A   1      47.176  28.530  24.126  1.00  0.00    -0.237 OA
ATOM    106  O   UNL A   1      47.957  27.400  26.171  1.00  0.00    -0.744 OA
ENDBRANCH  99 103
ENDBRANCH  73  96
ENDBRANCH  47  48
ENDBRANCH  39  42
ENDBRANCH  37  38
ENDBRANCH  36  37
ENDBRANCH   1  36
TORSDOF 17
ENDMDL
