MODEL 1
REMARK VINA RESULT:     -13.0      0.000      0.000
REMARK SMILES O=C(NCCCNC(=O)[C@@H]1CC[C@@H](CN2C(=O)CC3(CCCC3)CC2=O)O1)c1ccc(-c2c3nc(c(-c4cc(S(=O)(=O)[O-])ccc4F)c4ccc([nH]4)c(-c4cc(S(=O)(=O)[O-])ccc4F)c4nc(c(-c5cc(S(=O)(=O)[O-])ccc5F)c5ccc2[nH]5)C=C4)C=C3)cc1
REMARK SMILES IDX 4 1 3 2 1 3 2 4 28 6 29 7 90 8 30 9 89 10 31 11 32 12 33 13
REMARK SMILES IDX 83 14 34 15 88 16 82 17 84 18 35 19 87 20 81 21 80 22 36 24
REMARK SMILES IDX 68 25 48 26 67 27 49 28 52 29 66 30 85 31 50 32 51 33 65 35
REMARK SMILES IDX 86 36 53 37 37 38 38 39 46 40 39 41 45 42 47 43 44 44 40 45
REMARK SMILES IDX 41 46 42 47 43 48 69 49 70 50 78 51 71 52 77 53 79 54 76 55
REMARK SMILES IDX 72 56 73 57 74 58 75 59 54 60 55 61 63 62 56 63 62 64 64 65
REMARK SMILES IDX 61 66 57 67 58 68 59 69 60 70 5 71 6 72 7 73 8 74 9 76 10 77
REMARK SMILES IDX 11 78 27 79 12 80 13 81 14 82 15 83 16 84 25 85 17 86 18 87
REMARK SMILES IDX 24 88 26 89 19 90 20 91 23 92 21 93 22 94
REMARK H PARENT 3 5 84 23 52 34 7 75
REMARK Flexibility Score: inf
ROOT
ATOM      1  C   UNL A   1      36.784  22.212  25.758  1.00  0.00     0.118 C 
ENDROOT
BRANCH   1   2
ATOM      2  N   UNL A   1      37.888  21.261  25.819  1.00  0.00    -0.352 N 
ATOM      3  O   UNL A   1      39.987  20.498  26.055  1.00  0.00    -0.269 OA
ATOM      4  C   UNL A   1      39.202  21.437  26.179  1.00  0.00     0.251 C 
ATOM      5  H   UNL A   1      37.652  20.342  25.559  1.00  0.00     0.163 HD
BRANCH   4   6
ATOM      6  C   UNL A   1      39.691  22.741  26.685  1.00  0.00     0.039 A 
ATOM      7  C   UNL A   1      39.224  23.947  26.161  1.00  0.00     0.014 A 
ATOM      8  C   UNL A   1      40.622  22.754  27.730  1.00  0.00     0.014 A 
ATOM      9  C   UNL A   1      39.803  25.148  26.563  1.00  0.00     0.010 A 
ATOM     10  C   UNL A   1      41.139  23.969  28.194  1.00  0.00     0.010 A 
ATOM     11  C   UNL A   1      40.768  25.176  27.583  1.00  0.00    -0.014 A 
BRANCH  11  12
ATOM     12  C   UNL A   1      41.358  26.479  27.995  1.00  0.00     0.031 A 
ATOM     13  C   UNL A   1      42.757  26.860  27.588  1.00  0.00     0.074 A 
ATOM     14  C   UNL A   1      40.604  27.345  28.701  1.00  0.00     0.049 A 
ATOM     15  N   UNL A   1      43.405  27.979  27.801  1.00  0.00    -0.248 NA
ATOM     16  C   UNL A   1      43.534  25.851  26.855  1.00  0.00     0.031 C 
ATOM     17  C   UNL A   1      39.240  27.084  29.168  1.00  0.00     0.029 A 
ATOM     18  N   UNL A   1      40.861  28.623  29.129  1.00  0.00    -0.354 N 
ATOM     19  C   UNL A   1      44.669  27.803  27.249  1.00  0.00     0.074 A 
ATOM     20  C   UNL A   1      44.708  26.454  26.724  1.00  0.00     0.031 C 
ATOM     21  C   UNL A   1      38.760  28.187  29.764  1.00  0.00     0.029 A 
ATOM     22  C   UNL A   1      39.799  29.212  29.775  1.00  0.00     0.049 A 
ATOM     23  H   UNL A   1      41.724  29.075  28.987  1.00  0.00     0.167 HD
ATOM     24  C   UNL A   1      45.698  28.686  27.177  1.00  0.00     0.034 A 
ATOM     25  C   UNL A   1      39.671  30.438  30.319  1.00  0.00     0.034 A 
ATOM     26  C   UNL A   1      45.642  30.034  27.696  1.00  0.00     0.049 A 
ATOM     27  C   UNL A   1      40.833  31.391  30.242  1.00  0.00     0.074 A 
ATOM     28  C   UNL A   1      46.609  31.024  27.634  1.00  0.00     0.029 A 
ATOM     29  N   UNL A   1      44.564  30.579  28.383  1.00  0.00    -0.354 N 
ATOM     30  N   UNL A   1      42.010  31.219  29.685  1.00  0.00    -0.248 NA
ATOM     31  C   UNL A   1      40.645  32.708  30.863  1.00  0.00     0.031 C 
ATOM     32  C   UNL A   1      46.143  32.141  28.337  1.00  0.00     0.029 A 
ATOM     33  C   UNL A   1      44.856  31.879  28.776  1.00  0.00     0.049 A 
ATOM     34  H   UNL A   1      43.718  30.113  28.564  1.00  0.00     0.167 HD
ATOM     35  C   UNL A   1      42.694  32.416  29.872  1.00  0.00     0.074 A 
ATOM     36  C   UNL A   1      41.790  33.306  30.572  1.00  0.00     0.031 C 
ATOM     37  C   UNL A   1      43.954  32.751  29.493  1.00  0.00     0.034 A 
BRANCH  24  38
ATOM     38  C   UNL A   1      46.986  28.204  26.550  1.00  0.00     0.023 A 
ATOM     39  C   UNL A   1      47.195  28.236  25.160  1.00  0.00     0.031 A 
ATOM     40  C   UNL A   1      48.012  27.678  27.356  1.00  0.00     0.131 A 
ATOM     41  C   UNL A   1      48.365  27.687  24.613  1.00  0.00     0.055 A 
ATOM     42  C   UNL A   1      49.207  27.202  26.812  1.00  0.00     0.041 A 
ATOM     43  F   UNL A   1      47.865  27.604  28.688  1.00  0.00    -0.206 F 
ATOM     44  C   UNL A   1      49.383  27.191  25.431  1.00  0.00     0.022 A 
BRANCH  41  45
ATOM     45  S   UNL A   1      48.476  27.501  22.811  1.00  0.00     0.124 S 
ATOM     46  O   UNL A   1      48.473  26.047  22.660  1.00  0.00    -0.237 OA
ATOM     47  O   UNL A   1      47.278  28.192  22.348  1.00  0.00    -0.237 OA
ATOM     48  O   UNL A   1      49.740  28.152  22.475  1.00  0.00    -0.744 OA
ENDBRANCH  41  45
ENDBRANCH  24  38
BRANCH  25  49
ATOM     49  C   UNL A   1      38.403  30.831  30.993  1.00  0.00     0.023 A 
ATOM     50  C   UNL A   1      37.388  31.499  30.292  1.00  0.00     0.031 A 
ATOM     51  C   UNL A   1      38.200  30.567  32.360  1.00  0.00     0.131 A 
ATOM     52  C   UNL A   1      36.230  31.913  30.967  1.00  0.00     0.055 A 
ATOM     53  C   UNL A   1      37.025  30.937  33.014  1.00  0.00     0.041 A 
ATOM     54  F   UNL A   1      39.139  29.926  33.074  1.00  0.00    -0.206 F 
ATOM     55  C   UNL A   1      36.035  31.625  32.320  1.00  0.00     0.022 A 
BRANCH  52  56
ATOM     56  S   UNL A   1      35.004  32.899  30.063  1.00  0.00     0.124 S 
ATOM     57  O   UNL A   1      34.074  33.265  31.125  1.00  0.00    -0.237 OA
ATOM     58  O   UNL A   1      35.823  33.979  29.525  1.00  0.00    -0.237 OA
ATOM     59  O   UNL A   1      34.481  31.963  29.070  1.00  0.00    -0.744 OA
ENDBRANCH  52  56
ENDBRANCH  25  49
BRANCH  37  60
ATOM     60  C   UNL A   1      44.404  34.157  29.805  1.00  0.00     0.023 A 
ATOM     61  C   UNL A   1      44.151  35.226  28.926  1.00  0.00     0.031 A 
ATOM     62  C   UNL A   1      45.130  34.422  30.979  1.00  0.00     0.131 A 
ATOM     63  C   UNL A   1      44.678  36.497  29.202  1.00  0.00     0.055 A 
ATOM     64  C   UNL A   1      45.601  35.702  31.277  1.00  0.00     0.041 A 
ATOM     65  F   UNL A   1      45.402  33.439  31.851  1.00  0.00    -0.206 F 
ATOM     66  C   UNL A   1      45.388  36.745  30.380  1.00  0.00     0.022 A 
BRANCH  63  67
ATOM     67  S   UNL A   1      44.512  37.798  27.950  1.00  0.00     0.124 S 
ATOM     68  O   UNL A   1      43.212  37.492  27.362  1.00  0.00    -0.237 OA
ATOM     69  O   UNL A   1      44.578  39.014  28.754  1.00  0.00    -0.237 OA
ATOM     70  O   UNL A   1      45.658  37.576  27.069  1.00  0.00    -0.744 OA
ENDBRANCH  63  67
ENDBRANCH  37  60
ENDBRANCH  11  12
ENDBRANCH   4   6
ENDBRANCH   1   2
BRANCH   1  71
ATOM     71  C   UNL A   1      35.408  21.565  25.876  1.00  0.00     0.042 C 
BRANCH  71  72
ATOM     72  C   UNL A   1      35.149  20.423  24.901  1.00  0.00     0.117 C 
BRANCH  72  73
ATOM     73  N   UNL A   1      34.241  19.415  25.430  1.00  0.00    -0.354 N 
ATOM     74  C   UNL A   1      32.888  19.302  25.264  1.00  0.00     0.249 C 
ATOM     75  H   UNL A   1      34.659  18.719  25.985  1.00  0.00     0.163 HD
ATOM     76  O   UNL A   1      32.315  18.340  25.778  1.00  0.00    -0.272 OA
BRANCH  74  77
ATOM     77  C   UNL A   1      32.129  20.414  24.524  1.00  0.00     0.207 C 
ATOM     78  C   UNL A   1      32.640  20.654  23.113  1.00  0.00     0.045 C 
ATOM     79  O   UNL A   1      32.196  21.693  25.159  1.00  0.00    -0.363 OA
ATOM     80  C   UNL A   1      32.108  22.035  22.806  1.00  0.00     0.037 C 
ATOM     81  C   UNL A   1      32.148  22.732  24.164  1.00  0.00     0.139 C 
BRANCH  81  82
ATOM     82  C   UNL A   1      30.980  23.710  24.464  1.00  0.00     0.160 C 
BRANCH  82  83
ATOM     83  N   UNL A   1      31.474  25.006  24.940  1.00  0.00    -0.280 N 
ATOM     84  C   UNL A   1      32.069  25.857  24.025  1.00  0.00     0.229 C 
ATOM     85  C   UNL A   1      31.415  25.264  26.300  1.00  0.00     0.229 C 
ATOM     86  O   UNL A   1      32.406  25.496  22.895  1.00  0.00    -0.274 OA
ATOM     87  C   UNL A   1      32.165  27.317  24.399  1.00  0.00     0.108 C 
ATOM     88  C   UNL A   1      31.261  26.717  26.665  1.00  0.00     0.108 C 
ATOM     89  O   UNL A   1      31.382  24.389  27.162  1.00  0.00    -0.274 OA
ATOM     90  C   UNL A   1      32.184  27.652  25.892  1.00  0.00    -0.012 C 
ATOM     91  C   UNL A   1      31.707  29.121  26.078  1.00  0.00     0.008 C 
ATOM     92  C   UNL A   1      33.617  27.627  26.474  1.00  0.00     0.008 C 
ATOM     93  C   UNL A   1      32.728  29.781  26.986  1.00  0.00     0.001 C 
ATOM     94  C   UNL A   1      34.023  29.093  26.597  1.00  0.00     0.001 C 
ENDBRANCH  82  83
ENDBRANCH  81  82
ENDBRANCH  74  77
ENDBRANCH  72  73
ENDBRANCH  71  72
ENDBRANCH   1  71
TORSDOF 15
ENDMDL
MODEL 2
REMARK VINA RESULT:     -12.9      5.570      8.849
REMARK SMILES O=C(NCCCNC(=O)[C@@H]1CC[C@@H](CN2C(=O)CC3(CCCC3)CC2=O)O1)c1ccc(-c2c3nc(c(-c4cc(S(=O)(=O)[O-])ccc4F)c4ccc([nH]4)c(-c4cc(S(=O)(=O)[O-])ccc4F)c4nc(c(-c5cc(S(=O)(=O)[O-])ccc5F)c5ccc2[nH]5)C=C4)C=C3)cc1
REMARK SMILES IDX 4 1 3 2 1 3 2 4 28 6 29 7 90 8 30 9 89 10 31 11 32 12 33 13
REMARK SMILES IDX 83 14 34 15 88 16 82 17 84 18 35 19 87 20 81 21 80 22 36 24
REMARK SMILES IDX 68 25 48 26 67 27 49 28 52 29 66 30 85 31 50 32 51 33 65 35
REMARK SMILES IDX 86 36 53 37 37 38 38 39 46 40 39 41 45 42 47 43 44 44 40 45
REMARK SMILES IDX 41 46 42 47 43 48 69 49 70 50 78 51 71 52 77 53 79 54 76 55
REMARK SMILES IDX 72 56 73 57 74 58 75 59 54 60 55 61 63 62 56 63 62 64 64 65
REMARK SMILES IDX 61 66 57 67 58 68 59 69 60 70 5 71 6 72 7 73 8 74 9 76 10 77
REMARK SMILES IDX 11 78 27 79 12 80 13 81 14 82 15 83 16 84 25 85 17 86 18 87
REMARK SMILES IDX 24 88 26 89 19 90 20 91 23 92 21 93 22 94
REMARK H PARENT 3 5 84 23 52 34 7 75
REMARK Flexibility Score: inf
ROOT
ATOM      1  C   UNL A   1      32.748  32.602  27.204  1.00  0.00     0.118 C 
ENDROOT
BRANCH   1   2
ATOM      2  N   UNL A   1      32.574  33.989  27.619  1.00  0.00    -0.352 N 
ATOM      3  O   UNL A   1      32.811  35.857  28.843  1.00  0.00    -0.269 OA
ATOM      4  C   UNL A   1      33.198  34.714  28.604  1.00  0.00     0.251 C 
ATOM      5  H   UNL A   1      31.898  34.488  27.107  1.00  0.00     0.163 HD
BRANCH   4   6
ATOM      6  C   UNL A   1      34.307  34.133  29.398  1.00  0.00     0.039 A 
ATOM      7  C   UNL A   1      35.641  34.360  29.060  1.00  0.00     0.014 A 
ATOM      8  C   UNL A   1      33.999  33.361  30.524  1.00  0.00     0.014 A 
ATOM      9  C   UNL A   1      36.653  33.689  29.742  1.00  0.00     0.010 A 
ATOM     10  C   UNL A   1      35.024  32.758  31.263  1.00  0.00     0.010 A 
ATOM     11  C   UNL A   1      36.359  32.879  30.851  1.00  0.00    -0.014 A 
BRANCH  11  12
ATOM     12  C   UNL A   1      37.467  32.185  31.563  1.00  0.00     0.031 A 
ATOM     13  C   UNL A   1      38.257  31.093  30.891  1.00  0.00     0.074 A 
ATOM     14  C   UNL A   1      37.793  32.581  32.810  1.00  0.00     0.049 A 
ATOM     15  N   UNL A   1      39.294  30.429  31.337  1.00  0.00    -0.248 NA
ATOM     16  C   UNL A   1      37.819  30.686  29.549  1.00  0.00     0.031 C 
ATOM     17  C   UNL A   1      37.093  33.618  33.573  1.00  0.00     0.029 A 
ATOM     18  N   UNL A   1      38.805  32.183  33.647  1.00  0.00    -0.354 N 
ATOM     19  C   UNL A   1      39.622  29.513  30.342  1.00  0.00     0.074 A 
ATOM     20  C   UNL A   1      38.647  29.684  29.285  1.00  0.00     0.031 C 
ATOM     21  C   UNL A   1      37.730  33.814  34.737  1.00  0.00     0.029 A 
ATOM     22  C   UNL A   1      38.847  32.879  34.832  1.00  0.00     0.049 A 
ATOM     23  H   UNL A   1      39.439  31.465  33.421  1.00  0.00     0.167 HD
ATOM     24  C   UNL A   1      40.644  28.621  30.309  1.00  0.00     0.034 A 
ATOM     25  C   UNL A   1      39.686  32.779  35.881  1.00  0.00     0.034 A 
ATOM     26  C   UNL A   1      41.616  28.468  31.367  1.00  0.00     0.049 A 
ATOM     27  C   UNL A   1      40.800  31.769  35.826  1.00  0.00     0.074 A 
ATOM     28  C   UNL A   1      42.718  27.629  31.413  1.00  0.00     0.029 A 
ATOM     29  N   UNL A   1      41.600  29.161  32.571  1.00  0.00    -0.354 N 
ATOM     30  N   UNL A   1      41.114  30.935  34.862  1.00  0.00    -0.248 NA
ATOM     31  C   UNL A   1      41.676  31.693  37.002  1.00  0.00     0.031 C 
ATOM     32  C   UNL A   1      43.327  27.767  32.666  1.00  0.00     0.029 A 
ATOM     33  C   UNL A   1      42.652  28.746  33.377  1.00  0.00     0.049 A 
ATOM     34  H   UNL A   1      40.939  29.847  32.817  1.00  0.00     0.167 HD
ATOM     35  C   UNL A   1      42.240  30.250  35.308  1.00  0.00     0.074 A 
ATOM     36  C   UNL A   1      42.560  30.784  36.617  1.00  0.00     0.031 C 
ATOM     37  C   UNL A   1      42.948  29.271  34.690  1.00  0.00     0.034 A 
BRANCH  24  38
ATOM     38  C   UNL A   1      40.735  27.712  29.104  1.00  0.00     0.023 A 
ATOM     39  C   UNL A   1      41.676  27.923  28.082  1.00  0.00     0.031 A 
ATOM     40  C   UNL A   1      39.845  26.632  28.965  1.00  0.00     0.131 A 
ATOM     41  C   UNL A   1      41.660  27.115  26.935  1.00  0.00     0.055 A 
ATOM     42  C   UNL A   1      39.884  25.783  27.856  1.00  0.00     0.041 A 
ATOM     43  F   UNL A   1      38.913  26.389  29.898  1.00  0.00    -0.206 F 
ATOM     44  C   UNL A   1      40.786  26.031  26.825  1.00  0.00     0.022 A 
BRANCH  41  45
ATOM     45  S   UNL A   1      42.703  27.587  25.526  1.00  0.00     0.124 S 
ATOM     46  O   UNL A   1      42.621  26.397  24.682  1.00  0.00    -0.237 OA
ATOM     47  O   UNL A   1      42.028  28.776  25.019  1.00  0.00    -0.237 OA
ATOM     48  O   UNL A   1      44.012  27.823  26.131  1.00  0.00    -0.744 OA
ENDBRANCH  41  45
ENDBRANCH  24  38
BRANCH  25  49
ATOM     49  C   UNL A   1      39.500  33.650  37.075  1.00  0.00     0.023 A 
ATOM     50  C   UNL A   1      38.882  33.162  38.236  1.00  0.00     0.031 A 
ATOM     51  C   UNL A   1      39.916  34.993  37.061  1.00  0.00     0.131 A 
ATOM     52  C   UNL A   1      38.664  34.021  39.324  1.00  0.00     0.055 A 
ATOM     53  C   UNL A   1      39.742  35.829  38.164  1.00  0.00     0.041 A 
ATOM     54  F   UNL A   1      40.518  35.506  35.976  1.00  0.00    -0.206 F 
ATOM     55  C   UNL A   1      39.101  35.347  39.301  1.00  0.00     0.022 A 
BRANCH  52  56
ATOM     56  S   UNL A   1      37.734  33.395  40.751  1.00  0.00     0.124 S 
ATOM     57  O   UNL A   1      37.743  34.550  41.641  1.00  0.00    -0.237 OA
ATOM     58  O   UNL A   1      36.449  33.057  40.149  1.00  0.00    -0.237 OA
ATOM     59  O   UNL A   1      38.529  32.254  41.200  1.00  0.00    -0.744 OA
ENDBRANCH  52  56
ENDBRANCH  25  49
BRANCH  37  60
ATOM     60  C   UNL A   1      44.161  28.748  35.421  1.00  0.00     0.023 A 
ATOM     61  C   UNL A   1      44.070  27.686  36.338  1.00  0.00     0.031 A 
ATOM     62  C   UNL A   1      45.417  29.348  35.224  1.00  0.00     0.131 A 
ATOM     63  C   UNL A   1      45.200  27.300  37.074  1.00  0.00     0.055 A 
ATOM     64  C   UNL A   1      46.551  28.920  35.916  1.00  0.00     0.041 A 
ATOM     65  F   UNL A   1      45.561  30.367  34.363  1.00  0.00    -0.206 F 
ATOM     66  C   UNL A   1      46.443  27.900  36.858  1.00  0.00     0.022 A 
BRANCH  63  67
ATOM     67  S   UNL A   1      45.002  26.072  38.395  1.00  0.00     0.124 S 
ATOM     68  O   UNL A   1      44.441  24.935  37.672  1.00  0.00    -0.237 OA
ATOM     69  O   UNL A   1      46.369  25.911  38.878  1.00  0.00    -0.237 OA
ATOM     70  O   UNL A   1      44.087  26.722  39.333  1.00  0.00    -0.744 OA
ENDBRANCH  63  67
ENDBRANCH  37  60
ENDBRANCH  11  12
ENDBRANCH   4   6
ENDBRANCH   1   2
BRANCH   1  71
ATOM     71  C   UNL A   1      31.474  31.955  26.671  1.00  0.00     0.042 C 
BRANCH  71  72
ATOM     72  C   UNL A   1      31.663  30.577  26.047  1.00  0.00     0.117 C 
BRANCH  72  73
ATOM     73  N   UNL A   1      30.981  30.430  24.770  1.00  0.00    -0.354 N 
ATOM     74  C   UNL A   1      30.914  29.337  23.950  1.00  0.00     0.249 C 
ATOM     75  H   UNL A   1      30.502  31.228  24.452  1.00  0.00     0.163 HD
ATOM     76  O   UNL A   1      30.244  29.421  22.919  1.00  0.00    -0.272 OA
BRANCH  74  77
ATOM     77  C   UNL A   1      31.738  28.087  24.299  1.00  0.00     0.207 C 
ATOM     78  C   UNL A   1      33.228  28.264  24.059  1.00  0.00     0.045 C 
ATOM     79  O   UNL A   1      31.383  26.923  23.549  1.00  0.00    -0.363 OA
ATOM     80  C   UNL A   1      33.718  26.835  23.997  1.00  0.00     0.037 C 
ATOM     81  C   UNL A   1      32.544  26.093  23.363  1.00  0.00     0.139 C 
BRANCH  81  82
ATOM     82  C   UNL A   1      32.272  24.662  23.897  1.00  0.00     0.160 C 
BRANCH  82  83
ATOM     83  N   UNL A   1      33.522  23.948  24.180  1.00  0.00    -0.280 N 
ATOM     84  C   UNL A   1      34.268  23.484  23.110  1.00  0.00     0.229 C 
ATOM     85  C   UNL A   1      33.832  23.681  25.503  1.00  0.00     0.229 C 
ATOM     86  O   UNL A   1      33.833  23.442  21.958  1.00  0.00    -0.274 OA
ATOM     87  C   UNL A   1      35.721  23.162  23.370  1.00  0.00     0.108 C 
ATOM     88  C   UNL A   1      35.305  23.604  25.808  1.00  0.00     0.108 C 
ATOM     89  O   UNL A   1      32.996  23.613  26.402  1.00  0.00    -0.274 OA
ATOM     90  C   UNL A   1      36.104  22.783  24.802  1.00  0.00    -0.012 C 
ATOM     91  C   UNL A   1      37.623  23.057  25.000  1.00  0.00     0.008 C 
ATOM     92  C   UNL A   1      35.940  21.267  25.064  1.00  0.00     0.008 C 
ATOM     93  C   UNL A   1      38.196  21.800  25.629  1.00  0.00     0.001 C 
ATOM     94  C   UNL A   1      37.355  20.699  25.013  1.00  0.00     0.001 C 
ENDBRANCH  82  83
ENDBRANCH  81  82
ENDBRANCH  74  77
ENDBRANCH  72  73
ENDBRANCH  71  72
ENDBRANCH   1  71
TORSDOF 15
ENDMDL
MODEL 3
REMARK VINA RESULT:     -12.8      4.824     10.126
REMARK SMILES O=C(NCCCNC(=O)[C@@H]1CC[C@@H](CN2C(=O)CC3(CCCC3)CC2=O)O1)c1ccc(-c2c3nc(c(-c4cc(S(=O)(=O)[O-])ccc4F)c4ccc([nH]4)c(-c4cc(S(=O)(=O)[O-])ccc4F)c4nc(c(-c5cc(S(=O)(=O)[O-])ccc5F)c5ccc2[nH]5)C=C4)C=C3)cc1
REMARK SMILES IDX 4 1 3 2 1 3 2 4 28 6 29 7 90 8 30 9 89 10 31 11 32 12 33 13
REMARK SMILES IDX 83 14 34 15 88 16 82 17 84 18 35 19 87 20 81 21 80 22 36 24
REMARK SMILES IDX 68 25 48 26 67 27 49 28 52 29 66 30 85 31 50 32 51 33 65 35
REMARK SMILES IDX 86 36 53 37 37 38 38 39 46 40 39 41 45 42 47 43 44 44 40 45
REMARK SMILES IDX 41 46 42 47 43 48 69 49 70 50 78 51 71 52 77 53 79 54 76 55
REMARK SMILES IDX 72 56 73 57 74 58 75 59 54 60 55 61 63 62 56 63 62 64 64 65
REMARK SMILES IDX 61 66 57 67 58 68 59 69 60 70 5 71 6 72 7 73 8 74 9 76 10 77
REMARK SMILES IDX 11 78 27 79 12 80 13 81 14 82 15 83 16 84 25 85 17 86 18 87
REMARK SMILES IDX 24 88 26 89 19 90 20 91 23 92 21 93 22 94
REMARK H PARENT 3 5 84 23 52 34 7 75
REMARK Flexibility Score: inf
ROOT
ATOM      1  C   UNL A   1      33.298  29.526  26.051  1.00  0.00     0.118 C 
ENDROOT
BRANCH   1   2
ATOM      2  N   UNL A   1      33.069  30.858  26.597  1.00  0.00    -0.352 N 
ATOM      3  O   UNL A   1      33.357  32.672  27.890  1.00  0.00    -0.269 OA
ATOM      4  C   UNL A   1      33.803  31.597  27.493  1.00  0.00     0.251 C 
ATOM      5  H   UNL A   1      32.254  31.302  26.269  1.00  0.00     0.163 HD
BRANCH   4   6
ATOM      6  C   UNL A   1      35.105  31.108  28.004  1.00  0.00     0.039 A 
ATOM      7  C   UNL A   1      35.265  29.796  28.453  1.00  0.00     0.014 A 
ATOM      8  C   UNL A   1      36.200  31.980  28.010  1.00  0.00     0.014 A 
ATOM      9  C   UNL A   1      36.461  29.411  29.053  1.00  0.00     0.010 A 
ATOM     10  C   UNL A   1      37.428  31.562  28.535  1.00  0.00     0.010 A 
ATOM     11  C   UNL A   1      37.557  30.287  29.104  1.00  0.00    -0.014 A 
BRANCH  11  12
ATOM     12  C   UNL A   1      38.824  29.836  29.744  1.00  0.00     0.031 A 
ATOM     13  C   UNL A   1      39.205  30.307  31.123  1.00  0.00     0.074 A 
ATOM     14  C   UNL A   1      39.610  28.956  29.093  1.00  0.00     0.049 A 
ATOM     15  N   UNL A   1      40.235  29.966  31.857  1.00  0.00    -0.248 NA
ATOM     16  C   UNL A   1      38.324  31.298  31.755  1.00  0.00     0.031 C 
ATOM     17  C   UNL A   1      39.354  28.438  27.746  1.00  0.00     0.029 A 
ATOM     18  N   UNL A   1      40.763  28.321  29.477  1.00  0.00    -0.354 N 
ATOM     19  C   UNL A   1      40.137  30.712  33.028  1.00  0.00     0.074 A 
ATOM     20  C   UNL A   1      38.966  31.552  32.886  1.00  0.00     0.031 C 
ATOM     21  C   UNL A   1      40.287  27.523  27.442  1.00  0.00     0.029 A 
ATOM     22  C   UNL A   1      41.241  27.431  28.543  1.00  0.00     0.049 A 
ATOM     23  H   UNL A   1      41.208  28.488  30.340  1.00  0.00     0.167 HD
ATOM     24  C   UNL A   1      40.942  30.691  34.120  1.00  0.00     0.034 A 
ATOM     25  C   UNL A   1      42.324  26.631  28.565  1.00  0.00     0.034 A 
ATOM     26  C   UNL A   1      42.103  29.840  34.252  1.00  0.00     0.049 A 
ATOM     27  C   UNL A   1      43.210  26.641  29.782  1.00  0.00     0.074 A 
ATOM     28  C   UNL A   1      42.957  29.707  35.334  1.00  0.00     0.029 A 
ATOM     29  N   UNL A   1      42.579  28.984  33.267  1.00  0.00    -0.354 N 
ATOM     30  N   UNL A   1      43.082  27.328  30.893  1.00  0.00    -0.248 NA
ATOM     31  C   UNL A   1      44.384  25.761  29.747  1.00  0.00     0.031 C 
ATOM     32  C   UNL A   1      43.984  28.823  34.981  1.00  0.00     0.029 A 
ATOM     33  C   UNL A   1      43.732  28.345  33.705  1.00  0.00     0.049 A 
ATOM     34  H   UNL A   1      42.160  28.850  32.387  1.00  0.00     0.167 HD
ATOM     35  C   UNL A   1      44.150  26.945  31.698  1.00  0.00     0.074 A 
ATOM     36  C   UNL A   1      44.897  25.952  30.953  1.00  0.00     0.031 C 
ATOM     37  C   UNL A   1      44.481  27.372  32.944  1.00  0.00     0.034 A 
BRANCH  24  38
ATOM     38  C   UNL A   1      40.616  31.651  35.243  1.00  0.00     0.023 A 
ATOM     39  C   UNL A   1      39.586  31.395  36.164  1.00  0.00     0.031 A 
ATOM     40  C   UNL A   1      41.331  32.854  35.375  1.00  0.00     0.131 A 
ATOM     41  C   UNL A   1      39.252  32.358  37.129  1.00  0.00     0.055 A 
ATOM     42  C   UNL A   1      41.044  33.775  36.384  1.00  0.00     0.041 A 
ATOM     43  F   UNL A   1      42.314  33.163  34.515  1.00  0.00    -0.206 F 
ATOM     44  C   UNL A   1      39.989  33.537  37.261  1.00  0.00     0.022 A 
BRANCH  41  45
ATOM     45  S   UNL A   1      37.750  32.112  38.117  1.00  0.00     0.124 S 
ATOM     46  O   UNL A   1      38.241  32.347  39.473  1.00  0.00    -0.237 OA
ATOM     47  O   UNL A   1      36.849  33.126  37.581  1.00  0.00    -0.237 OA
ATOM     48  O   UNL A   1      37.373  30.729  37.831  1.00  0.00    -0.744 OA
ENDBRANCH  41  45
ENDBRANCH  24  38
BRANCH  25  49
ATOM     49  C   UNL A   1      42.639  25.763  27.397  1.00  0.00     0.023 A 
ATOM     50  C   UNL A   1      42.196  24.433  27.344  1.00  0.00     0.031 A 
ATOM     51  C   UNL A   1      43.414  26.245  26.327  1.00  0.00     0.131 A 
ATOM     52  C   UNL A   1      42.559  23.619  26.260  1.00  0.00     0.055 A 
ATOM     53  C   UNL A   1      43.730  25.447  25.228  1.00  0.00     0.041 A 
ATOM     54  F   UNL A   1      43.858  27.513  26.328  1.00  0.00    -0.206 F 
ATOM     55  C   UNL A   1      43.312  24.120  25.196  1.00  0.00     0.022 A 
BRANCH  52  56
ATOM     56  S   UNL A   1      42.090  21.867  26.295  1.00  0.00     0.124 S 
ATOM     57  O   UNL A   1      42.428  21.495  27.664  1.00  0.00    -0.237 OA
ATOM     58  O   UNL A   1      40.667  21.928  25.979  1.00  0.00    -0.237 OA
ATOM     59  O   UNL A   1      42.931  21.270  25.260  1.00  0.00    -0.744 OA
ENDBRANCH  52  56
ENDBRANCH  25  49
BRANCH  37  60
ATOM     60  C   UNL A   1      45.688  26.729  33.582  1.00  0.00     0.023 A 
ATOM     61  C   UNL A   1      45.588  25.534  34.317  1.00  0.00     0.031 A 
ATOM     62  C   UNL A   1      46.949  27.344  33.486  1.00  0.00     0.131 A 
ATOM     63  C   UNL A   1      46.714  25.027  34.982  1.00  0.00     0.055 A 
ATOM     64  C   UNL A   1      48.079  26.802  34.101  1.00  0.00     0.041 A 
ATOM     65  F   UNL A   1      47.101  28.488  32.800  1.00  0.00    -0.206 F 
ATOM     66  C   UNL A   1      47.962  25.645  34.866  1.00  0.00     0.022 A 
BRANCH  63  67
ATOM     67  S   UNL A   1      46.504  23.604  36.088  1.00  0.00     0.124 S 
ATOM     68  O   UNL A   1      45.229  23.904  36.730  1.00  0.00    -0.237 OA
ATOM     69  O   UNL A   1      46.501  22.482  35.155  1.00  0.00    -0.237 OA
ATOM     70  O   UNL A   1      47.672  23.677  36.965  1.00  0.00    -0.744 OA
ENDBRANCH  63  67
ENDBRANCH  37  60
ENDBRANCH  11  12
ENDBRANCH   4   6
ENDBRANCH   1   2
BRANCH   1  71
ATOM     71  C   UNL A   1      32.651  29.301  24.687  1.00  0.00     0.042 C 
BRANCH  71  72
ATOM     72  C   UNL A   1      31.155  29.587  24.630  1.00  0.00     0.117 C 
BRANCH  72  73
ATOM     73  N   UNL A   1      30.703  29.999  23.309  1.00  0.00    -0.354 N 
ATOM     74  C   UNL A   1      30.061  29.264  22.351  1.00  0.00     0.249 C 
ATOM     75  H   UNL A   1      30.886  30.936  23.072  1.00  0.00     0.163 HD
ATOM     76  O   UNL A   1      29.734  29.827  21.304  1.00  0.00    -0.272 OA
BRANCH  74  77
ATOM     77  C   UNL A   1      29.850  27.758  22.577  1.00  0.00     0.207 C 
ATOM     78  C   UNL A   1      28.966  27.450  23.774  1.00  0.00     0.045 C 
ATOM     79  O   UNL A   1      31.055  27.027  22.813  1.00  0.00    -0.363 OA
ATOM     80  C   UNL A   1      29.307  26.005  24.064  1.00  0.00     0.037 C 
ATOM     81  C   UNL A   1      30.784  25.915  23.685  1.00  0.00     0.139 C 
BRANCH  81  82
ATOM     82  C   UNL A   1      31.238  24.588  23.022  1.00  0.00     0.160 C 
BRANCH  82  83
ATOM     83  N   UNL A   1      32.520  24.126  23.564  1.00  0.00    -0.280 N 
ATOM     84  C   UNL A   1      32.533  23.567  24.830  1.00  0.00     0.229 C 
ATOM     85  C   UNL A   1      33.665  24.375  22.825  1.00  0.00     0.229 C 
ATOM     86  O   UNL A   1      31.577  23.640  25.605  1.00  0.00    -0.274 OA
ATOM     87  C   UNL A   1      33.723  22.711  25.196  1.00  0.00     0.108 C 
ATOM     88  C   UNL A   1      34.771  23.369  23.009  1.00  0.00     0.108 C 
ATOM     89  O   UNL A   1      33.762  25.277  21.995  1.00  0.00    -0.274 OA
ATOM     90  C   UNL A   1      35.036  22.998  24.464  1.00  0.00    -0.012 C 
ATOM     91  C   UNL A   1      35.925  21.722  24.519  1.00  0.00     0.008 C 
ATOM     92  C   UNL A   1      35.870  24.090  25.175  1.00  0.00     0.008 C 
ATOM     93  C   UNL A   1      37.295  22.187  24.977  1.00  0.00     0.001 C 
ATOM     94  C   UNL A   1      36.968  23.333  25.915  1.00  0.00     0.001 C 
ENDBRANCH  82  83
ENDBRANCH  81  82
ENDBRANCH  74  77
ENDBRANCH  72  73
ENDBRANCH  71  72
ENDBRANCH   1  71
TORSDOF 15
ENDMDL
