MODEL 1
REMARK VINA RESULT:     -13.2      0.000      0.000
REMARK SMILES Cc1ccc(C(=O)N2CCC3(CCC(=O)N(CC(=O)NCCCNC(=O)c4ccc(-c5c6nc(c(-c7cc(S(=O)(=O)[O-])ccc7F)c7ccc([nH]7)c(-c7cc(S(=O)(=O)[O-])ccc7F)c7nc(c(-c8cc(S(=O)(=O)[O-])ccc8F)c8ccc5[nH]8)C=C7)C=C6)cc4)C3)CC2)cc1O
REMARK SMILES IDX 22 1 21 2 20 3 18 4 19 5 17 7 16 8 6 9 7 10 8 11 9 12 92 13
REMARK SMILES IDX 10 14 91 15 11 16 12 17 90 18 13 19 14 20 15 21 5 22 1 23
REMARK SMILES IDX 2 24 3 25 94 26 4 27 93 28 95 29 23 31 24 32 25 33 26 35
REMARK SMILES IDX 27 36 28 37 89 38 29 39 88 40 30 41 31 42 32 43 82 44 33 45
REMARK SMILES IDX 87 46 81 47 83 48 34 49 86 50 80 51 79 52 35 54 67 55 47 56
REMARK SMILES IDX 66 57 48 58 51 59 65 60 84 61 49 62 50 63 64 65 85 66 52 67
REMARK SMILES IDX 36 68 37 69 45 70 38 71 44 72 46 73 43 74 39 75 40 76 41 77
REMARK SMILES IDX 42 78 68 79 69 80 77 81 70 82 76 83 78 84 75 85 71 86 72 87
REMARK SMILES IDX 73 88 74 89 53 90 54 91 62 92 55 93 61 94 63 95 60 96 56 97
REMARK SMILES IDX 57 98 58 99 59 100
REMARK H PARENT 20 6 95 30 24 34 83 53 51 64
REMARK Flexibility Score: inf
ROOT
ATOM      1  C   UNL A   1      38.252  20.061  24.670  1.00  0.00     0.042 C 
ENDROOT
BRANCH   1   2
ATOM      2  C   UNL A   1      36.785  20.230  25.039  1.00  0.00     0.117 C 
BRANCH   2   3
ATOM      3  N   UNL A   1      36.497  21.550  25.549  1.00  0.00    -0.354 N 
ATOM      4  C   UNL A   1      35.364  22.010  26.151  1.00  0.00     0.239 C 
ATOM      5  O   UNL A   1      35.430  23.102  26.724  1.00  0.00    -0.273 OA
ATOM      6  H   UNL A   1      37.219  22.210  25.446  1.00  0.00     0.163 HD
BRANCH   4   7
ATOM      7  C   UNL A   1      34.127  21.113  26.283  1.00  0.00     0.219 C 
BRANCH   7   8
ATOM      8  N   UNL A   1      33.005  21.328  25.364  1.00  0.00    -0.333 N 
ATOM      9  C   UNL A   1      33.018  27.082  22.526  1.00  0.00     0.253 C 
ATOM     10  O   UNL A   1      33.876  27.293  21.667  1.00  0.00    -0.269 OA
ATOM     11  N   UNL A   1      32.528  25.802  22.765  1.00  0.00    -0.339 N 
ATOM     12  C   UNL A   1      33.387  24.675  22.445  1.00  0.00     0.120 C 
ATOM     13  C   UNL A   1      31.148  25.457  23.100  1.00  0.00     0.120 C 
ATOM     14  C   UNL A   1      33.452  23.756  23.656  1.00  0.00     0.030 C 
ATOM     15  C   UNL A   1      31.093  24.468  24.271  1.00  0.00     0.030 C 
ATOM     16  C   UNL A   1      32.054  23.256  24.108  1.00  0.00    -0.008 C 
ATOM     17  C   UNL A   1      31.435  22.229  23.139  1.00  0.00     0.019 C 
ATOM     18  C   UNL A   1      32.197  22.537  25.459  1.00  0.00     0.127 C 
ATOM     19  C   UNL A   1      32.248  20.948  23.036  1.00  0.00     0.101 C 
ATOM     20  C   UNL A   1      32.853  20.423  24.326  1.00  0.00     0.223 C 
ATOM     21  O   UNL A   1      33.332  19.293  24.366  1.00  0.00    -0.275 OA
BRANCH   9  22
ATOM     22  C   UNL A   1      32.642  28.214  23.426  1.00  0.00     0.043 A 
ATOM     23  C   UNL A   1      31.454  31.030  26.494  1.00  0.00     0.048 C 
ATOM     24  C   UNL A   1      31.902  30.078  25.423  1.00  0.00    -0.009 A 
ATOM     25  C   UNL A   1      30.982  29.665  24.453  1.00  0.00     0.008 A 
ATOM     26  C   UNL A   1      33.194  29.544  25.379  1.00  0.00     0.119 A 
ATOM     27  C   UNL A   1      31.342  28.727  23.483  1.00  0.00     0.014 A 
ATOM     28  C   UNL A   1      33.567  28.634  24.388  1.00  0.00     0.060 A 
BRANCH  26  29
ATOM     29  O   UNL A   1      34.148  29.844  26.310  1.00  0.00    -0.508 OA
ATOM     30  H   UNL A   1      33.989  30.515  26.944  1.00  0.00     0.293 HD
ENDBRANCH  26  29
ENDBRANCH   9  22
ENDBRANCH   7   8
ENDBRANCH   4   7
ENDBRANCH   2   3
ENDBRANCH   1   2
BRANCH   1  31
ATOM     31  C   UNL A   1      39.212  20.355  25.817  1.00  0.00     0.118 C 
BRANCH  31  32
ATOM     32  N   UNL A   1      40.226  19.320  25.975  1.00  0.00    -0.352 N 
ATOM     33  C   UNL A   1      41.584  19.427  26.138  1.00  0.00     0.251 C 
ATOM     34  H   UNL A   1      39.881  18.399  25.964  1.00  0.00     0.163 HD
ATOM     35  O   UNL A   1      42.278  18.416  26.032  1.00  0.00    -0.269 OA
BRANCH  33  36
ATOM     36  C   UNL A   1      42.212  20.737  26.413  1.00  0.00     0.039 A 
ATOM     37  C   UNL A   1      42.501  21.586  25.340  1.00  0.00     0.014 A 
ATOM     38  C   UNL A   1      42.541  21.124  27.715  1.00  0.00     0.014 A 
ATOM     39  C   UNL A   1      43.052  22.846  25.581  1.00  0.00     0.010 A 
ATOM     40  C   UNL A   1      43.011  22.411  27.960  1.00  0.00     0.010 A 
ATOM     41  C   UNL A   1      43.274  23.286  26.895  1.00  0.00    -0.014 A 
BRANCH  41  42
ATOM     42  C   UNL A   1      43.784  24.654  27.177  1.00  0.00     0.031 A 
ATOM     43  C   UNL A   1      42.858  25.713  27.708  1.00  0.00     0.074 A 
ATOM     44  C   UNL A   1      45.068  24.955  26.899  1.00  0.00     0.049 A 
ATOM     45  N   UNL A   1      43.095  26.978  27.946  1.00  0.00    -0.248 NA
ATOM     46  C   UNL A   1      41.473  25.300  27.979  1.00  0.00     0.031 C 
ATOM     47  C   UNL A   1      46.055  24.021  26.352  1.00  0.00     0.029 A 
ATOM     48  N   UNL A   1      45.765  26.130  27.033  1.00  0.00    -0.354 N 
ATOM     49  C   UNL A   1      41.890  27.514  28.388  1.00  0.00     0.074 A 
ATOM     50  C   UNL A   1      40.910  26.451  28.313  1.00  0.00     0.031 C 
ATOM     51  C   UNL A   1      47.234  24.650  26.227  1.00  0.00     0.029 A 
ATOM     52  C   UNL A   1      47.078  26.043  26.633  1.00  0.00     0.049 A 
ATOM     53  H   UNL A   1      45.363  26.957  27.382  1.00  0.00     0.167 HD
ATOM     54  C   UNL A   1      41.630  28.767  28.838  1.00  0.00     0.034 A 
ATOM     55  C   UNL A   1      48.045  26.981  26.586  1.00  0.00     0.034 A 
ATOM     56  C   UNL A   1      42.621  29.815  28.904  1.00  0.00     0.049 A 
ATOM     57  C   UNL A   1      47.721  28.383  27.040  1.00  0.00     0.074 A 
ATOM     58  C   UNL A   1      42.479  31.108  29.378  1.00  0.00     0.029 A 
ATOM     59  N   UNL A   1      43.937  29.696  28.470  1.00  0.00    -0.354 N 
ATOM     60  N   UNL A   1      46.586  28.862  27.496  1.00  0.00    -0.248 NA
ATOM     61  C   UNL A   1      48.810  29.364  26.983  1.00  0.00     0.031 C 
ATOM     62  C   UNL A   1      43.682  31.789  29.163  1.00  0.00     0.029 A 
ATOM     63  C   UNL A   1      44.605  30.901  28.635  1.00  0.00     0.049 A 
ATOM     64  H   UNL A   1      44.336  28.876  28.101  1.00  0.00     0.167 HD
ATOM     65  C   UNL A   1      46.838  30.195  27.812  1.00  0.00     0.074 A 
ATOM     66  C   UNL A   1      48.234  30.436  27.506  1.00  0.00     0.031 C 
ATOM     67  C   UNL A   1      45.994  31.133  28.314  1.00  0.00     0.034 A 
BRANCH  54  68
ATOM     68  C   UNL A   1      40.213  29.069  29.266  1.00  0.00     0.023 A 
ATOM     69  C   UNL A   1      39.827  29.033  30.618  1.00  0.00     0.031 A 
ATOM     70  C   UNL A   1      39.222  29.359  28.311  1.00  0.00     0.131 A 
ATOM     71  C   UNL A   1      38.478  29.190  30.970  1.00  0.00     0.055 A 
ATOM     72  C   UNL A   1      37.896  29.605  28.676  1.00  0.00     0.041 A 
ATOM     73  F   UNL A   1      39.520  29.387  27.003  1.00  0.00    -0.206 F 
ATOM     74  C   UNL A   1      37.513  29.503  30.010  1.00  0.00     0.022 A 
BRANCH  71  75
ATOM     75  S   UNL A   1      37.979  28.811  32.672  1.00  0.00     0.124 S 
ATOM     76  O   UNL A   1      36.629  29.369  32.715  1.00  0.00    -0.237 OA
ATOM     77  O   UNL A   1      38.071  27.356  32.711  1.00  0.00    -0.237 OA
ATOM     78  O   UNL A   1      38.965  29.522  33.484  1.00  0.00    -0.744 OA
ENDBRANCH  71  75
ENDBRANCH  54  68
BRANCH  55  79
ATOM     79  C   UNL A   1      49.408  26.638  26.088  1.00  0.00     0.023 A 
ATOM     80  C   UNL A   1      49.857  27.101  24.842  1.00  0.00     0.031 A 
ATOM     81  C   UNL A   1      50.268  25.812  26.833  1.00  0.00     0.131 A 
ATOM     82  C   UNL A   1      51.110  26.698  24.356  1.00  0.00     0.055 A 
ATOM     83  C   UNL A   1      51.537  25.459  26.370  1.00  0.00     0.041 A 
ATOM     84  F   UNL A   1      49.892  25.346  28.035  1.00  0.00    -0.206 F 
ATOM     85  C   UNL A   1      51.959  25.893  25.118  1.00  0.00     0.022 A 
BRANCH  82  86
ATOM     86  S   UNL A   1      51.583  27.176  22.671  1.00  0.00     0.124 S 
ATOM     87  O   UNL A   1      51.834  28.605  22.830  1.00  0.00    -0.237 OA
ATOM     88  O   UNL A   1      52.756  26.341  22.439  1.00  0.00    -0.237 OA
ATOM     89  O   UNL A   1      50.408  26.830  21.876  1.00  0.00    -0.744 OA
ENDBRANCH  82  86
ENDBRANCH  55  79
BRANCH  67  90
ATOM     90  C   UNL A   1      46.579  32.494  28.611  1.00  0.00     0.023 A 
ATOM     91  C   UNL A   1      46.666  33.496  27.629  1.00  0.00     0.031 A 
ATOM     92  C   UNL A   1      47.067  32.787  29.898  1.00  0.00     0.131 A 
ATOM     93  C   UNL A   1      47.282  34.720  27.930  1.00  0.00     0.055 A 
ATOM     94  C   UNL A   1      47.618  34.030  30.211  1.00  0.00     0.041 A 
ATOM     95  F   UNL A   1      47.014  31.867  30.874  1.00  0.00    -0.206 F 
ATOM     96  C   UNL A   1      47.740  35.000  29.220  1.00  0.00     0.022 A 
BRANCH  93  97
ATOM     97  S   UNL A   1      47.568  35.906  26.588  1.00  0.00     0.124 S 
ATOM     98  O   UNL A   1      48.831  36.517  26.990  1.00  0.00    -0.237 OA
ATOM     99  O   UNL A   1      47.623  35.043  25.414  1.00  0.00    -0.237 OA
ATOM    100  O   UNL A   1      46.404  36.788  26.656  1.00  0.00    -0.744 OA
ENDBRANCH  93  97
ENDBRANCH  67  90
ENDBRANCH  41  42
ENDBRANCH  33  36
ENDBRANCH  31  32
ENDBRANCH   1  31
TORSDOF 16
ENDMDL
MODEL 2
REMARK VINA RESULT:     -12.9      5.528     11.669
REMARK SMILES Cc1ccc(C(=O)N2CCC3(CCC(=O)N(CC(=O)NCCCNC(=O)c4ccc(-c5c6nc(c(-c7cc(S(=O)(=O)[O-])ccc7F)c7ccc([nH]7)c(-c7cc(S(=O)(=O)[O-])ccc7F)c7nc(c(-c8cc(S(=O)(=O)[O-])ccc8F)c8ccc5[nH]8)C=C7)C=C6)cc4)C3)CC2)cc1O
REMARK SMILES IDX 22 1 21 2 20 3 18 4 19 5 17 7 16 8 6 9 7 10 8 11 9 12 92 13
REMARK SMILES IDX 10 14 91 15 11 16 12 17 90 18 13 19 14 20 15 21 5 22 1 23
REMARK SMILES IDX 2 24 3 25 94 26 4 27 93 28 95 29 23 31 24 32 25 33 26 35
REMARK SMILES IDX 27 36 28 37 89 38 29 39 88 40 30 41 31 42 32 43 82 44 33 45
REMARK SMILES IDX 87 46 81 47 83 48 34 49 86 50 80 51 79 52 35 54 67 55 47 56
REMARK SMILES IDX 66 57 48 58 51 59 65 60 84 61 49 62 50 63 64 65 85 66 52 67
REMARK SMILES IDX 36 68 37 69 45 70 38 71 44 72 46 73 43 74 39 75 40 76 41 77
REMARK SMILES IDX 42 78 68 79 69 80 77 81 70 82 76 83 78 84 75 85 71 86 72 87
REMARK SMILES IDX 73 88 74 89 53 90 54 91 62 92 55 93 61 94 63 95 60 96 56 97
REMARK SMILES IDX 57 98 58 99 59 100
REMARK H PARENT 20 6 95 30 24 34 83 53 51 64
REMARK Flexibility Score: inf
ROOT
ATOM      1  C   UNL A   1      31.813  31.638  26.861  1.00  0.00     0.042 C 
ENDROOT
BRANCH   1   2
ATOM      2  C   UNL A   1      32.066  30.140  26.941  1.00  0.00     0.117 C 
BRANCH   2   3
ATOM      3  N   UNL A   1      32.965  29.679  25.908  1.00  0.00    -0.354 N 
ATOM      4  C   UNL A   1      32.701  29.406  24.600  1.00  0.00     0.239 C 
ATOM      5  O   UNL A   1      33.667  29.262  23.844  1.00  0.00    -0.273 OA
ATOM      6  H   UNL A   1      33.898  29.544  26.189  1.00  0.00     0.163 HD
BRANCH   4   7
ATOM      7  C   UNL A   1      31.268  29.480  24.058  1.00  0.00     0.219 C 
BRANCH   7   8
ATOM      8  N   UNL A   1      30.651  28.253  23.542  1.00  0.00    -0.333 N 
ATOM      9  C   UNL A   1      32.387  22.935  26.684  1.00  0.00     0.253 C 
ATOM     10  O   UNL A   1      31.952  22.779  27.826  1.00  0.00    -0.269 OA
ATOM     11  N   UNL A   1      31.675  23.651  25.726  1.00  0.00    -0.339 N 
ATOM     12  C   UNL A   1      30.747  24.668  26.189  1.00  0.00     0.120 C 
ATOM     13  C   UNL A   1      31.594  23.339  24.301  1.00  0.00     0.120 C 
ATOM     14  C   UNL A   1      31.036  25.964  25.445  1.00  0.00     0.030 C 
ATOM     15  C   UNL A   1      31.799  24.595  23.446  1.00  0.00     0.030 C 
ATOM     16  C   UNL A   1      30.938  25.806  23.904  1.00  0.00    -0.008 C 
ATOM     17  C   UNL A   1      29.490  25.634  23.403  1.00  0.00     0.019 C 
ATOM     18  C   UNL A   1      31.470  27.087  23.240  1.00  0.00     0.127 C 
ATOM     19  C   UNL A   1      28.617  26.846  23.688  1.00  0.00     0.101 C 
ATOM     20  C   UNL A   1      29.267  28.206  23.508  1.00  0.00     0.223 C 
ATOM     21  O   UNL A   1      28.576  29.223  23.505  1.00  0.00    -0.275 OA
BRANCH   9  22
ATOM     22  C   UNL A   1      33.782  22.481  26.403  1.00  0.00     0.043 A 
ATOM     23  C   UNL A   1      37.741  21.438  24.993  1.00  0.00     0.048 C 
ATOM     24  C   UNL A   1      36.387  21.817  25.517  1.00  0.00    -0.009 A 
ATOM     25  C   UNL A   1      35.363  20.864  25.507  1.00  0.00     0.008 A 
ATOM     26  C   UNL A   1      36.087  23.105  25.975  1.00  0.00     0.119 A 
ATOM     27  C   UNL A   1      34.072  21.201  25.922  1.00  0.00     0.014 A 
ATOM     28  C   UNL A   1      34.808  23.433  26.425  1.00  0.00     0.060 A 
BRANCH  26  29
ATOM     29  O   UNL A   1      37.004  24.118  25.976  1.00  0.00    -0.508 OA
ATOM     30  H   UNL A   1      37.915  23.927  26.080  1.00  0.00     0.293 HD
ENDBRANCH  26  29
ENDBRANCH   9  22
ENDBRANCH   7   8
ENDBRANCH   4   7
ENDBRANCH   2   3
ENDBRANCH   1   2
BRANCH   1  31
ATOM     31  C   UNL A   1      33.053  32.486  27.118  1.00  0.00     0.118 C 
BRANCH  31  32
ATOM     32  N   UNL A   1      32.725  33.825  27.592  1.00  0.00    -0.352 N 
ATOM     33  C   UNL A   1      33.195  34.522  28.676  1.00  0.00     0.251 C 
ATOM     34  H   UNL A   1      32.061  34.305  27.047  1.00  0.00     0.163 HD
ATOM     35  O   UNL A   1      32.619  35.555  29.016  1.00  0.00    -0.269 OA
BRANCH  33  36
ATOM     36  C   UNL A   1      34.360  34.031  29.443  1.00  0.00     0.039 A 
ATOM     37  C   UNL A   1      34.142  33.204  30.550  1.00  0.00     0.014 A 
ATOM     38  C   UNL A   1      35.663  34.398  29.095  1.00  0.00     0.014 A 
ATOM     39  C   UNL A   1      35.230  32.694  31.260  1.00  0.00     0.010 A 
ATOM     40  C   UNL A   1      36.747  33.821  29.750  1.00  0.00     0.010 A 
ATOM     41  C   UNL A   1      36.543  32.964  30.842  1.00  0.00    -0.014 A 
BRANCH  41  42
ATOM     42  C   UNL A   1      37.714  32.365  31.535  1.00  0.00     0.031 A 
ATOM     43  C   UNL A   1      38.462  31.221  30.907  1.00  0.00     0.074 A 
ATOM     44  C   UNL A   1      38.065  32.814  32.756  1.00  0.00     0.049 A 
ATOM     45  N   UNL A   1      39.458  30.520  31.385  1.00  0.00    -0.248 NA
ATOM     46  C   UNL A   1      38.009  30.791  29.576  1.00  0.00     0.031 C 
ATOM     47  C   UNL A   1      37.397  33.896  33.482  1.00  0.00     0.029 A 
ATOM     48  N   UNL A   1      39.067  32.416  33.606  1.00  0.00    -0.354 N 
ATOM     49  C   UNL A   1      39.747  29.562  30.419  1.00  0.00     0.074 A 
ATOM     50  C   UNL A   1      38.772  29.730  29.362  1.00  0.00     0.031 C 
ATOM     51  C   UNL A   1      38.025  34.096  34.651  1.00  0.00     0.029 A 
ATOM     52  C   UNL A   1      39.106  33.124  34.785  1.00  0.00     0.049 A 
ATOM     53  H   UNL A   1      39.697  31.691  33.393  1.00  0.00     0.167 HD
ATOM     54  C   UNL A   1      40.747  28.646  30.401  1.00  0.00     0.034 A 
ATOM     55  C   UNL A   1      39.913  32.998  35.857  1.00  0.00     0.034 A 
ATOM     56  C   UNL A   1      41.710  28.492  31.466  1.00  0.00     0.049 A 
ATOM     57  C   UNL A   1      40.984  31.937  35.841  1.00  0.00     0.074 A 
ATOM     58  C   UNL A   1      42.787  27.625  31.536  1.00  0.00     0.029 A 
ATOM     59  N   UNL A   1      41.706  29.214  32.654  1.00  0.00    -0.354 N 
ATOM     60  N   UNL A   1      41.272  31.067  34.899  1.00  0.00    -0.248 NA
ATOM     61  C   UNL A   1      41.845  31.848  37.026  1.00  0.00     0.031 C 
ATOM     62  C   UNL A   1      43.386  27.770  32.792  1.00  0.00     0.029 A 
ATOM     63  C   UNL A   1      42.740  28.788  33.475  1.00  0.00     0.049 A 
ATOM     64  H   UNL A   1      41.064  29.925  32.879  1.00  0.00     0.167 HD
ATOM     65  C   UNL A   1      42.370  30.352  35.368  1.00  0.00     0.074 A 
ATOM     66  C   UNL A   1      42.699  30.901  36.667  1.00  0.00     0.031 C 
ATOM     67  C   UNL A   1      43.050  29.336  34.776  1.00  0.00     0.034 A 
BRANCH  54  68
ATOM     68  C   UNL A   1      40.825  27.728  29.204  1.00  0.00     0.023 A 
ATOM     69  C   UNL A   1      41.774  27.924  28.184  1.00  0.00     0.031 A 
ATOM     70  C   UNL A   1      39.915  26.666  29.054  1.00  0.00     0.131 A 
ATOM     71  C   UNL A   1      41.735  27.135  27.025  1.00  0.00     0.055 A 
ATOM     72  C   UNL A   1      39.940  25.824  27.938  1.00  0.00     0.041 A 
ATOM     73  F   UNL A   1      38.972  26.438  29.981  1.00  0.00    -0.206 F 
ATOM     74  C   UNL A   1      40.841  26.069  26.907  1.00  0.00     0.022 A 
BRANCH  71  75
ATOM     75  S   UNL A   1      42.752  27.632  25.607  1.00  0.00     0.124 S 
ATOM     76  O   UNL A   1      42.002  28.776  25.093  1.00  0.00    -0.237 OA
ATOM     77  O   UNL A   1      44.035  27.935  26.230  1.00  0.00    -0.237 OA
ATOM     78  O   UNL A   1      42.739  26.451  24.746  1.00  0.00    -0.744 OA
ENDBRANCH  71  75
ENDBRANCH  54  68
BRANCH  55  79
ATOM     79  C   UNL A   1      39.742  33.890  37.040  1.00  0.00     0.023 A 
ATOM     80  C   UNL A   1      39.135  33.421  38.215  1.00  0.00     0.031 A 
ATOM     81  C   UNL A   1      40.150  35.235  37.002  1.00  0.00     0.131 A 
ATOM     82  C   UNL A   1      38.909  34.299  39.285  1.00  0.00     0.055 A 
ATOM     83  C   UNL A   1      39.974  36.091  38.091  1.00  0.00     0.041 A 
ATOM     84  F   UNL A   1      40.743  35.735  35.906  1.00  0.00    -0.206 F 
ATOM     85  C   UNL A   1      39.338  35.627  39.237  1.00  0.00     0.022 A 
BRANCH  82  86
ATOM     86  S   UNL A   1      37.970  33.700  40.717  1.00  0.00     0.124 S 
ATOM     87  O   UNL A   1      37.018  32.792  40.087  1.00  0.00    -0.237 OA
ATOM     88  O   UNL A   1      39.014  33.078  41.524  1.00  0.00    -0.237 OA
ATOM     89  O   UNL A   1      37.394  34.919  41.280  1.00  0.00    -0.744 OA
ENDBRANCH  82  86
ENDBRANCH  55  79
BRANCH  67  90
ATOM     90  C   UNL A   1      44.250  28.790  35.514  1.00  0.00     0.023 A 
ATOM     91  C   UNL A   1      44.136  27.756  36.459  1.00  0.00     0.031 A 
ATOM     92  C   UNL A   1      45.530  29.325  35.273  1.00  0.00     0.131 A 
ATOM     93  C   UNL A   1      45.266  27.331  37.172  1.00  0.00     0.055 A 
ATOM     94  C   UNL A   1      46.662  28.851  35.936  1.00  0.00     0.041 A 
ATOM     95  F   UNL A   1      45.699  30.317  34.384  1.00  0.00    -0.206 F 
ATOM     96  C   UNL A   1      46.532  27.859  36.902  1.00  0.00     0.022 A 
BRANCH  93  97
ATOM     97  S   UNL A   1      45.047  26.148  38.530  1.00  0.00     0.124 S 
ATOM     98  O   UNL A   1      44.779  24.908  37.809  1.00  0.00    -0.237 OA
ATOM     99  O   UNL A   1      46.332  26.220  39.218  1.00  0.00    -0.237 OA
ATOM    100  O   UNL A   1      43.913  26.690  39.277  1.00  0.00    -0.744 OA
ENDBRANCH  93  97
ENDBRANCH  67  90
ENDBRANCH  41  42
ENDBRANCH  33  36
ENDBRANCH  31  32
ENDBRANCH   1  31
TORSDOF 16
ENDMDL
MODEL 3
REMARK VINA RESULT:     -12.8      5.493     11.336
REMARK SMILES Cc1ccc(C(=O)N2CCC3(CCC(=O)N(CC(=O)NCCCNC(=O)c4ccc(-c5c6nc(c(-c7cc(S(=O)(=O)[O-])ccc7F)c7ccc([nH]7)c(-c7cc(S(=O)(=O)[O-])ccc7F)c7nc(c(-c8cc(S(=O)(=O)[O-])ccc8F)c8ccc5[nH]8)C=C7)C=C6)cc4)C3)CC2)cc1O
REMARK SMILES IDX 22 1 21 2 20 3 18 4 19 5 17 7 16 8 6 9 7 10 8 11 9 12 92 13
REMARK SMILES IDX 10 14 91 15 11 16 12 17 90 18 13 19 14 20 15 21 5 22 1 23
REMARK SMILES IDX 2 24 3 25 94 26 4 27 93 28 95 29 23 31 24 32 25 33 26 35
REMARK SMILES IDX 27 36 28 37 89 38 29 39 88 40 30 41 31 42 32 43 82 44 33 45
REMARK SMILES IDX 87 46 81 47 83 48 34 49 86 50 80 51 79 52 35 54 67 55 47 56
REMARK SMILES IDX 66 57 48 58 51 59 65 60 84 61 49 62 50 63 64 65 85 66 52 67
REMARK SMILES IDX 36 68 37 69 45 70 38 71 44 72 46 73 43 74 39 75 40 76 41 77
REMARK SMILES IDX 42 78 68 79 69 80 77 81 70 82 76 83 78 84 75 85 71 86 72 87
REMARK SMILES IDX 73 88 74 89 53 90 54 91 62 92 55 93 61 94 63 95 60 96 56 97
REMARK SMILES IDX 57 98 58 99 59 100
REMARK H PARENT 20 6 95 30 24 34 83 53 51 64
REMARK Flexibility Score: inf
ROOT
ATOM      1  C   UNL A   1      31.687  31.235  26.607  1.00  0.00     0.042 C 
ENDROOT
BRANCH   1   2
ATOM      2  C   UNL A   1      31.769  29.721  26.487  1.00  0.00     0.117 C 
BRANCH   2   3
ATOM      3  N   UNL A   1      32.872  29.295  25.658  1.00  0.00    -0.354 N 
ATOM      4  C   UNL A   1      32.908  29.102  24.309  1.00  0.00     0.239 C 
ATOM      5  O   UNL A   1      34.018  28.974  23.784  1.00  0.00    -0.273 OA
ATOM      6  H   UNL A   1      33.715  29.120  26.133  1.00  0.00     0.163 HD
BRANCH   4   7
ATOM      7  C   UNL A   1      31.636  29.243  23.463  1.00  0.00     0.219 C 
BRANCH   7   8
ATOM      8  N   UNL A   1      30.855  28.038  23.167  1.00  0.00    -0.333 N 
ATOM      9  C   UNL A   1      32.455  22.945  26.725  1.00  0.00     0.253 C 
ATOM     10  O   UNL A   1      32.143  22.961  27.917  1.00  0.00    -0.269 OA
ATOM     11  N   UNL A   1      31.705  23.621  25.768  1.00  0.00    -0.339 N 
ATOM     12  C   UNL A   1      30.932  24.773  26.201  1.00  0.00     0.120 C 
ATOM     13  C   UNL A   1      31.431  23.165  24.408  1.00  0.00     0.120 C 
ATOM     14  C   UNL A   1      31.250  25.943  25.280  1.00  0.00     0.030 C 
ATOM     15  C   UNL A   1      31.648  24.293  23.391  1.00  0.00     0.030 C 
ATOM     16  C   UNL A   1      30.960  25.629  23.788  1.00  0.00    -0.008 C 
ATOM     17  C   UNL A   1      29.454  25.554  23.465  1.00  0.00     0.019 C 
ATOM     18  C   UNL A   1      31.525  26.767  22.923  1.00  0.00     0.127 C 
ATOM     19  C   UNL A   1      28.733  26.873  23.693  1.00  0.00     0.101 C 
ATOM     20  C   UNL A   1      29.478  28.131  23.284  1.00  0.00     0.223 C 
ATOM     21  O   UNL A   1      28.886  29.207  23.231  1.00  0.00    -0.275 OA
BRANCH   9  22
ATOM     22  C   UNL A   1      33.761  22.321  26.356  1.00  0.00     0.043 A 
ATOM     23  C   UNL A   1      37.501  20.866  24.729  1.00  0.00     0.048 C 
ATOM     24  C   UNL A   1      36.226  21.380  25.330  1.00  0.00    -0.009 A 
ATOM     25  C   UNL A   1      35.067  20.603  25.235  1.00  0.00     0.008 A 
ATOM     26  C   UNL A   1      36.132  22.634  25.945  1.00  0.00     0.119 A 
ATOM     27  C   UNL A   1      33.847  21.079  25.720  1.00  0.00     0.014 A 
ATOM     28  C   UNL A   1      34.921  23.096  26.464  1.00  0.00     0.060 A 
BRANCH  26  29
ATOM     29  O   UNL A   1      37.194  23.489  26.041  1.00  0.00    -0.508 OA
ATOM     30  H   UNL A   1      38.068  23.160  25.972  1.00  0.00     0.293 HD
ENDBRANCH  26  29
ENDBRANCH   9  22
ENDBRANCH   7   8
ENDBRANCH   4   7
ENDBRANCH   2   3
ENDBRANCH   1   2
BRANCH   1  31
ATOM     31  C   UNL A   1      32.944  31.874  27.188  1.00  0.00     0.118 C 
BRANCH  31  32
ATOM     32  N   UNL A   1      32.773  33.297  27.457  1.00  0.00    -0.352 N 
ATOM     33  C   UNL A   1      33.369  34.100  28.396  1.00  0.00     0.251 C 
ATOM     34  H   UNL A   1      32.128  33.753  26.871  1.00  0.00     0.163 HD
ATOM     35  O   UNL A   1      32.915  35.227  28.591  1.00  0.00    -0.269 OA
BRANCH  33  36
ATOM     36  C   UNL A   1      34.525  33.615  29.181  1.00  0.00     0.039 A 
ATOM     37  C   UNL A   1      34.300  32.720  30.232  1.00  0.00     0.014 A 
ATOM     38  C   UNL A   1      35.823  34.054  28.906  1.00  0.00     0.014 A 
ATOM     39  C   UNL A   1      35.381  32.216  30.957  1.00  0.00     0.010 A 
ATOM     40  C   UNL A   1      36.905  33.485  29.573  1.00  0.00     0.010 A 
ATOM     41  C   UNL A   1      36.696  32.562  30.608  1.00  0.00    -0.014 A 
BRANCH  41  42
ATOM     42  C   UNL A   1      37.864  31.973  31.314  1.00  0.00     0.031 A 
ATOM     43  C   UNL A   1      38.656  30.865  30.676  1.00  0.00     0.074 A 
ATOM     44  C   UNL A   1      38.175  32.399  32.555  1.00  0.00     0.049 A 
ATOM     45  N   UNL A   1      39.657  30.176  31.160  1.00  0.00    -0.248 NA
ATOM     46  C   UNL A   1      38.246  30.459  29.323  1.00  0.00     0.031 C 
ATOM     47  C   UNL A   1      37.462  33.445  33.291  1.00  0.00     0.029 A 
ATOM     48  N   UNL A   1      39.165  32.003  33.419  1.00  0.00    -0.354 N 
ATOM     49  C   UNL A   1      39.993  29.251  30.177  1.00  0.00     0.074 A 
ATOM     50  C   UNL A   1      39.039  29.423  29.102  1.00  0.00     0.031 C 
ATOM     51  C   UNL A   1      38.058  33.629  34.480  1.00  0.00     0.029 A 
ATOM     52  C   UNL A   1      39.158  32.681  34.616  1.00  0.00     0.049 A 
ATOM     53  H   UNL A   1      39.818  31.299  33.203  1.00  0.00     0.167 HD
ATOM     54  C   UNL A   1      41.016  28.360  30.161  1.00  0.00     0.034 A 
ATOM     55  C   UNL A   1      39.942  32.547  35.704  1.00  0.00     0.034 A 
ATOM     56  C   UNL A   1      41.956  28.202  31.245  1.00  0.00     0.049 A 
ATOM     57  C   UNL A   1      41.039  31.512  35.687  1.00  0.00     0.074 A 
ATOM     58  C   UNL A   1      43.052  27.359  31.320  1.00  0.00     0.029 A 
ATOM     59  N   UNL A   1      41.905  28.892  32.451  1.00  0.00    -0.354 N 
ATOM     60  N   UNL A   1      41.371  30.674  34.731  1.00  0.00    -0.248 NA
ATOM     61  C   UNL A   1      41.873  31.414  36.891  1.00  0.00     0.031 C 
ATOM     62  C   UNL A   1      43.617  27.485  32.594  1.00  0.00     0.029 A 
ATOM     63  C   UNL A   1      42.930  28.470  33.286  1.00  0.00     0.049 A 
ATOM     64  H   UNL A   1      41.240  29.581  32.678  1.00  0.00     0.167 HD
ATOM     65  C   UNL A   1      42.475  29.974  35.209  1.00  0.00     0.074 A 
ATOM     66  C   UNL A   1      42.759  30.497  36.530  1.00  0.00     0.031 C 
ATOM     67  C   UNL A   1      43.194  28.991  34.608  1.00  0.00     0.034 A 
BRANCH  54  68
ATOM     68  C   UNL A   1      41.145  27.476  28.943  1.00  0.00     0.023 A 
ATOM     69  C   UNL A   1      42.147  27.690  27.979  1.00  0.00     0.031 A 
ATOM     70  C   UNL A   1      40.233  26.429  28.716  1.00  0.00     0.131 A 
ATOM     71  C   UNL A   1      42.159  26.934  26.797  1.00  0.00     0.055 A 
ATOM     72  C   UNL A   1      40.306  25.619  27.580  1.00  0.00     0.041 A 
ATOM     73  F   UNL A   1      39.241  26.186  29.587  1.00  0.00    -0.206 F 
ATOM     74  C   UNL A   1      41.261  25.882  26.603  1.00  0.00     0.022 A 
BRANCH  71  75
ATOM     75  S   UNL A   1      43.252  27.460  25.448  1.00  0.00     0.124 S 
ATOM     76  O   UNL A   1      43.760  26.177  24.964  1.00  0.00    -0.237 OA
ATOM     77  O   UNL A   1      42.338  28.163  24.556  1.00  0.00    -0.237 OA
ATOM     78  O   UNL A   1      44.243  28.300  26.118  1.00  0.00    -0.744 OA
ENDBRANCH  71  75
ENDBRANCH  54  68
BRANCH  55  79
ATOM     79  C   UNL A   1      39.721  33.403  36.905  1.00  0.00     0.023 A 
ATOM     80  C   UNL A   1      40.511  34.539  37.135  1.00  0.00     0.031 A 
ATOM     81  C   UNL A   1      38.741  33.078  37.860  1.00  0.00     0.131 A 
ATOM     82  C   UNL A   1      40.341  35.283  38.312  1.00  0.00     0.055 A 
ATOM     83  C   UNL A   1      38.538  33.853  39.003  1.00  0.00     0.041 A 
ATOM     84  F   UNL A   1      37.952  32.005  37.687  1.00  0.00    -0.206 F 
ATOM     85  C   UNL A   1      39.350  34.957  39.240  1.00  0.00     0.022 A 
BRANCH  82  86
ATOM     86  S   UNL A   1      41.493  36.642  38.655  1.00  0.00     0.124 S 
ATOM     87  O   UNL A   1      40.586  37.691  39.107  1.00  0.00    -0.237 OA
ATOM     88  O   UNL A   1      42.356  36.056  39.674  1.00  0.00    -0.237 OA
ATOM     89  O   UNL A   1      42.132  36.880  37.363  1.00  0.00    -0.744 OA
ENDBRANCH  82  86
ENDBRANCH  55  79
BRANCH  67  90
ATOM     90  C   UNL A   1      44.389  28.455  35.361  1.00  0.00     0.023 A 
ATOM     91  C   UNL A   1      44.299  27.327  36.195  1.00  0.00     0.031 A 
ATOM     92  C   UNL A   1      45.638  29.095  35.250  1.00  0.00     0.131 A 
ATOM     93  C   UNL A   1      45.418  26.909  36.931  1.00  0.00     0.055 A 
ATOM     94  C   UNL A   1      46.765  28.634  35.932  1.00  0.00     0.041 A 
ATOM     95  F   UNL A   1      45.783  30.180  34.472  1.00  0.00    -0.206 F 
ATOM     96  C   UNL A   1      46.655  27.543  36.789  1.00  0.00     0.022 A 
BRANCH  93  97
ATOM     97  S   UNL A   1      45.212  25.585  38.153  1.00  0.00     0.124 S 
ATOM     98  O   UNL A   1      45.066  26.340  39.394  1.00  0.00    -0.237 OA
ATOM     99  O   UNL A   1      44.013  24.903  37.677  1.00  0.00    -0.237 OA
ATOM    100  O   UNL A   1      46.450  24.816  38.038  1.00  0.00    -0.744 OA
ENDBRANCH  93  97
ENDBRANCH  67  90
ENDBRANCH  41  42
ENDBRANCH  33  36
ENDBRANCH  31  32
ENDBRANCH   1  31
TORSDOF 16
ENDMDL
