MODEL 1
REMARK VINA RESULT:     -13.5      0.000      0.000
REMARK SMILES Cc1ccc(-c2cc([C@@H](C)C(=O)NCCCNC(=O)c3ccc(-c4c5nc(c(-c6cc(S(=O)(=O)[O-])ccc6F)c6ccc([nH]6)c(-c6cc(S(=O)(=O)[O-])ccc6F)c6nc(c(-c7cc(S(=O)(=O)[O-])ccc7F)c7ccc4[nH]7)C=C6)C=C5)cc3)ccc2C[C@H]2CCCC2=O)cc1
REMARK SMILES IDX 15 1 14 2 13 3 11 4 12 5 9 7 10 8 8 9 6 10 7 11 85 12 84 13
REMARK SMILES IDX 83 14 5 15 1 16 2 17 3 18 94 19 4 20 93 21 86 22 87 23 88 24
REMARK SMILES IDX 91 25 89 26 90 27 92 28 16 29 17 30 18 31 19 33 20 34 21 35
REMARK SMILES IDX 82 36 22 37 81 38 23 39 24 40 25 41 75 42 26 43 80 44 74 45
REMARK SMILES IDX 76 46 27 47 79 48 73 49 72 50 28 52 60 53 40 54 59 55 41 56
REMARK SMILES IDX 44 57 58 58 77 59 42 60 43 61 57 63 78 64 45 65 29 66 30 67
REMARK SMILES IDX 38 68 31 69 37 70 39 71 36 72 32 73 33 74 34 75 35 76 61 77
REMARK SMILES IDX 62 78 70 79 63 80 69 81 71 82 68 83 64 84 65 85 66 86 67 87
REMARK SMILES IDX 46 88 47 89 55 90 48 91 54 92 56 93 53 94 49 95 50 96 51 97
REMARK SMILES IDX 52 98
REMARK H PARENT 13 6 17 32 76 51 44 62
REMARK Flexibility Score: inf
ROOT
ATOM      1  C   UNL A   1      32.788  30.378  27.310  1.00  0.00     0.042 C 
ENDROOT
BRANCH   1   2
ATOM      2  C   UNL A   1      32.208  29.001  26.994  1.00  0.00     0.117 C 
BRANCH   2   3
ATOM      3  N   UNL A   1      31.418  28.997  25.771  1.00  0.00    -0.356 N 
ATOM      4  C   UNL A   1      31.706  28.672  24.482  1.00  0.00     0.227 C 
ATOM      5  O   UNL A   1      30.806  28.841  23.648  1.00  0.00    -0.274 OA
ATOM      6  H   UNL A   1      30.487  29.289  25.904  1.00  0.00     0.163 HD
BRANCH   4   7
ATOM      7  C   UNL A   1      33.068  28.132  24.005  1.00  0.00     0.105 C 
ATOM      8  C   UNL A   1      33.744  28.934  22.895  1.00  0.00     0.023 C 
BRANCH   7   9
ATOM      9  C   UNL A   1      33.084  26.622  23.816  1.00  0.00    -0.035 A 
ATOM     10  C   UNL A   1      34.125  24.437  24.286  1.00  0.00    -0.015 A 
ATOM     11  C   UNL A   1      34.117  25.846  24.372  1.00  0.00     0.013 A 
ATOM     12  C   UNL A   1      32.985  23.789  23.756  1.00  0.00    -0.039 A 
ATOM     13  C   UNL A   1      32.005  24.565  23.122  1.00  0.00     0.004 A 
ATOM     14  C   UNL A   1      32.087  25.956  23.110  1.00  0.00     0.005 A 
BRANCH  10  15
ATOM     15  C   UNL A   1      35.360  23.706  24.624  1.00  0.00    -0.018 A 
ATOM     16  C   UNL A   1      38.980  21.643  25.802  1.00  0.00     0.044 C 
ATOM     17  C   UNL A   1      37.717  22.338  25.392  1.00  0.00    -0.051 A 
ATOM     18  C   UNL A   1      37.249  23.415  26.147  1.00  0.00     0.004 A 
ATOM     19  C   UNL A   1      36.998  21.942  24.257  1.00  0.00     0.004 A 
ATOM     20  C   UNL A   1      36.081  24.078  25.773  1.00  0.00     0.009 A 
ATOM     21  C   UNL A   1      35.828  22.616  23.879  1.00  0.00     0.009 A 
ENDBRANCH  10  15
BRANCH  12  22
ATOM     22  C   UNL A   1      32.756  22.292  23.857  1.00  0.00     0.047 C 
BRANCH  22  23
ATOM     23  C   UNL A   1      32.283  21.764  25.219  1.00  0.00     0.060 C 
ATOM     24  C   UNL A   1      33.212  20.794  25.958  1.00  0.00     0.012 C 
ATOM     25  C   UNL A   1      32.081  22.855  26.247  1.00  0.00     0.136 C 
ATOM     26  C   UNL A   1      33.935  21.620  27.014  1.00  0.00     0.009 C 
ATOM     27  C   UNL A   1      32.916  22.647  27.483  1.00  0.00     0.076 C 
ATOM     28  O   UNL A   1      31.283  23.775  26.109  1.00  0.00    -0.299 OA
ENDBRANCH  22  23
ENDBRANCH  12  22
ENDBRANCH   7   9
ENDBRANCH   4   7
ENDBRANCH   2   3
ENDBRANCH   1   2
BRANCH   1  29
ATOM     29  C   UNL A   1      34.309  30.450  27.250  1.00  0.00     0.118 C 
BRANCH  29  30
ATOM     30  N   UNL A   1      34.849  31.262  28.347  1.00  0.00    -0.352 N 
ATOM     31  C   UNL A   1      35.874  30.981  29.232  1.00  0.00     0.251 C 
ATOM     32  H   UNL A   1      34.418  32.140  28.470  1.00  0.00     0.163 HD
ATOM     33  O   UNL A   1      36.250  31.767  30.080  1.00  0.00    -0.269 OA
BRANCH  31  34
ATOM     34  C   UNL A   1      36.600  29.713  29.023  1.00  0.00     0.039 A 
ATOM     35  C   UNL A   1      37.052  29.057  30.170  1.00  0.00     0.014 A 
ATOM     36  C   UNL A   1      37.101  29.405  27.761  1.00  0.00     0.014 A 
ATOM     37  C   UNL A   1      38.185  28.257  30.082  1.00  0.00     0.010 A 
ATOM     38  C   UNL A   1      38.273  28.671  27.689  1.00  0.00     0.010 A 
ATOM     39  C   UNL A   1      38.859  28.170  28.860  1.00  0.00    -0.014 A 
BRANCH  39  40
ATOM     40  C   UNL A   1      40.259  27.758  28.791  1.00  0.00     0.031 A 
ATOM     41  C   UNL A   1      40.642  26.406  28.327  1.00  0.00     0.074 A 
ATOM     42  C   UNL A   1      41.251  28.565  29.240  1.00  0.00     0.049 A 
ATOM     43  N   UNL A   1      41.619  25.726  28.836  1.00  0.00    -0.248 NA
ATOM     44  C   UNL A   1      39.936  25.698  27.264  1.00  0.00     0.031 C 
ATOM     45  C   UNL A   1      42.689  28.339  29.097  1.00  0.00     0.029 A 
ATOM     46  N   UNL A   1      41.203  29.673  30.065  1.00  0.00    -0.354 N 
ATOM     47  C   UNL A   1      41.860  24.668  27.997  1.00  0.00     0.074 A 
ATOM     48  C   UNL A   1      40.735  24.640  27.086  1.00  0.00     0.031 C 
ATOM     49  C   UNL A   1      43.333  29.046  30.041  1.00  0.00     0.029 A 
ATOM     50  C   UNL A   1      42.328  29.657  30.888  1.00  0.00     0.049 A 
ATOM     51  H   UNL A   1      40.496  30.358  30.070  1.00  0.00     0.167 HD
ATOM     52  C   UNL A   1      43.050  24.009  28.032  1.00  0.00     0.034 A 
ATOM     53  C   UNL A   1      42.310  29.625  32.252  1.00  0.00     0.034 A 
ATOM     54  C   UNL A   1      43.992  24.581  28.987  1.00  0.00     0.049 A 
ATOM     55  C   UNL A   1      43.115  28.484  32.842  1.00  0.00     0.074 A 
ATOM     56  C   UNL A   1      45.084  25.421  28.834  1.00  0.00     0.029 A 
ATOM     57  N   UNL A   1      43.743  24.508  30.352  1.00  0.00    -0.354 N 
ATOM     58  N   UNL A   1      43.541  27.463  32.153  1.00  0.00    -0.248 NA
ATOM     59  C   UNL A   1      43.458  28.371  34.258  1.00  0.00     0.031 C 
ATOM     60  C   UNL A   1      45.489  25.860  30.117  1.00  0.00     0.029 A 
ATOM     61  C   UNL A   1      44.651  25.281  31.053  1.00  0.00     0.049 A 
ATOM     62  H   UNL A   1      43.021  23.980  30.763  1.00  0.00     0.167 HD
ATOM     63  C   UNL A   1      44.149  26.554  32.986  1.00  0.00     0.074 A 
ATOM     64  C   UNL A   1      44.099  27.189  34.291  1.00  0.00     0.031 C 
ATOM     65  C   UNL A   1      44.609  25.356  32.509  1.00  0.00     0.034 A 
BRANCH  52  66
ATOM     66  C   UNL A   1      43.454  23.046  26.946  1.00  0.00     0.023 A 
ATOM     67  C   UNL A   1      42.958  21.728  26.952  1.00  0.00     0.031 A 
ATOM     68  C   UNL A   1      44.346  23.364  25.906  1.00  0.00     0.131 A 
ATOM     69  C   UNL A   1      43.421  20.770  26.036  1.00  0.00     0.055 A 
ATOM     70  C   UNL A   1      44.848  22.400  25.023  1.00  0.00     0.041 A 
ATOM     71  F   UNL A   1      44.756  24.628  25.708  1.00  0.00    -0.206 F 
ATOM     72  C   UNL A   1      44.397  21.088  25.097  1.00  0.00     0.022 A 
BRANCH  69  73
ATOM     73  S   UNL A   1      42.730  19.093  26.100  1.00  0.00     0.124 S 
ATOM     74  O   UNL A   1      41.485  19.240  25.353  1.00  0.00    -0.237 OA
ATOM     75  O   UNL A   1      43.777  18.305  25.458  1.00  0.00    -0.237 OA
ATOM     76  O   UNL A   1      42.564  18.850  27.531  1.00  0.00    -0.744 OA
ENDBRANCH  69  73
ENDBRANCH  52  66
BRANCH  53  77
ATOM     77  C   UNL A   1      41.087  30.205  32.866  1.00  0.00     0.023 A 
ATOM     78  C   UNL A   1      40.940  31.605  32.809  1.00  0.00     0.031 A 
ATOM     79  C   UNL A   1      39.952  29.434  33.148  1.00  0.00     0.131 A 
ATOM     80  C   UNL A   1      39.665  32.184  32.856  1.00  0.00     0.055 A 
ATOM     81  C   UNL A   1      38.687  30.022  33.258  1.00  0.00     0.041 A 
ATOM     82  F   UNL A   1      40.029  28.096  33.195  1.00  0.00    -0.206 F 
ATOM     83  C   UNL A   1      38.532  31.397  33.067  1.00  0.00     0.022 A 
BRANCH  80  84
ATOM     84  S   UNL A   1      39.472  33.925  32.368  1.00  0.00     0.124 S 
ATOM     85  O   UNL A   1      40.840  34.421  32.443  1.00  0.00    -0.237 OA
ATOM     86  O   UNL A   1      38.903  33.829  31.026  1.00  0.00    -0.237 OA
ATOM     87  O   UNL A   1      38.547  34.455  33.365  1.00  0.00    -0.744 OA
ENDBRANCH  80  84
ENDBRANCH  53  77
BRANCH  65  88
ATOM     88  C   UNL A   1      45.135  24.182  33.318  1.00  0.00     0.023 A 
ATOM     89  C   UNL A   1      46.395  24.151  33.933  1.00  0.00     0.031 A 
ATOM     90  C   UNL A   1      44.323  23.039  33.552  1.00  0.00     0.131 A 
ATOM     91  C   UNL A   1      46.827  23.028  34.671  1.00  0.00     0.055 A 
ATOM     92  C   UNL A   1      44.729  21.952  34.334  1.00  0.00     0.041 A 
ATOM     93  F   UNL A   1      43.089  22.928  33.039  1.00  0.00    -0.206 F 
ATOM     94  C   UNL A   1      45.995  21.935  34.890  1.00  0.00     0.022 A 
BRANCH  91  95
ATOM     95  S   UNL A   1      48.528  23.012  35.298  1.00  0.00     0.124 S 
ATOM     96  O   UNL A   1      49.248  23.712  34.237  1.00  0.00    -0.237 OA
ATOM     97  O   UNL A   1      48.401  23.732  36.560  1.00  0.00    -0.237 OA
ATOM     98  O   UNL A   1      48.838  21.588  35.423  1.00  0.00    -0.744 OA
ENDBRANCH  91  95
ENDBRANCH  65  88
ENDBRANCH  39  40
ENDBRANCH  31  34
ENDBRANCH  29  30
ENDBRANCH   1  29
TORSDOF 17
ENDMDL
MODEL 2
REMARK VINA RESULT:     -13.0      1.433      2.566
REMARK SMILES Cc1ccc(-c2cc([C@@H](C)C(=O)NCCCNC(=O)c3ccc(-c4c5nc(c(-c6cc(S(=O)(=O)[O-])ccc6F)c6ccc([nH]6)c(-c6cc(S(=O)(=O)[O-])ccc6F)c6nc(c(-c7cc(S(=O)(=O)[O-])ccc7F)c7ccc4[nH]7)C=C6)C=C5)cc3)ccc2C[C@H]2CCCC2=O)cc1
REMARK SMILES IDX 15 1 14 2 13 3 11 4 12 5 9 7 10 8 8 9 6 10 7 11 85 12 84 13
REMARK SMILES IDX 83 14 5 15 1 16 2 17 3 18 94 19 4 20 93 21 86 22 87 23 88 24
REMARK SMILES IDX 91 25 89 26 90 27 92 28 16 29 17 30 18 31 19 33 20 34 21 35
REMARK SMILES IDX 82 36 22 37 81 38 23 39 24 40 25 41 75 42 26 43 80 44 74 45
REMARK SMILES IDX 76 46 27 47 79 48 73 49 72 50 28 52 60 53 40 54 59 55 41 56
REMARK SMILES IDX 44 57 58 58 77 59 42 60 43 61 57 63 78 64 45 65 29 66 30 67
REMARK SMILES IDX 38 68 31 69 37 70 39 71 36 72 32 73 33 74 34 75 35 76 61 77
REMARK SMILES IDX 62 78 70 79 63 80 69 81 71 82 68 83 64 84 65 85 66 86 67 87
REMARK SMILES IDX 46 88 47 89 55 90 48 91 54 92 56 93 53 94 49 95 50 96 51 97
REMARK SMILES IDX 52 98
REMARK H PARENT 13 6 17 32 76 51 44 62
REMARK Flexibility Score: inf
ROOT
ATOM      1  C   UNL A   1      32.716  30.530  26.516  1.00  0.00     0.042 C 
ENDROOT
BRANCH   1   2
ATOM      2  C   UNL A   1      32.102  29.600  25.473  1.00  0.00     0.117 C 
BRANCH   2   3
ATOM      3  N   UNL A   1      32.917  29.496  24.271  1.00  0.00    -0.356 N 
ATOM      4  C   UNL A   1      33.104  28.502  23.361  1.00  0.00     0.227 C 
ATOM      5  O   UNL A   1      33.933  28.712  22.465  1.00  0.00    -0.274 OA
ATOM      6  H   UNL A   1      33.439  30.309  24.078  1.00  0.00     0.163 HD
BRANCH   4   7
ATOM      7  C   UNL A   1      32.372  27.147  23.390  1.00  0.00     0.105 C 
ATOM      8  C   UNL A   1      30.867  27.214  23.635  1.00  0.00     0.023 C 
BRANCH   7   9
ATOM      9  C   UNL A   1      33.112  26.080  24.184  1.00  0.00    -0.035 A 
ATOM     10  C   UNL A   1      33.768  23.721  24.469  1.00  0.00    -0.015 A 
ATOM     11  C   UNL A   1      33.034  24.728  23.805  1.00  0.00     0.013 A 
ATOM     12  C   UNL A   1      34.717  24.110  25.442  1.00  0.00    -0.039 A 
ATOM     13  C   UNL A   1      34.724  25.441  25.879  1.00  0.00     0.004 A 
ATOM     14  C   UNL A   1      33.894  26.394  25.291  1.00  0.00     0.005 A 
BRANCH  10  15
ATOM     15  C   UNL A   1      33.427  22.307  24.223  1.00  0.00    -0.018 A 
ATOM     16  C   UNL A   1      32.476  18.116  23.694  1.00  0.00     0.044 C 
ATOM     17  C   UNL A   1      32.785  19.572  23.873  1.00  0.00    -0.051 A 
ATOM     18  C   UNL A   1      33.539  19.983  24.974  1.00  0.00     0.004 A 
ATOM     19  C   UNL A   1      32.347  20.533  22.954  1.00  0.00     0.004 A 
ATOM     20  C   UNL A   1      33.842  21.333  25.150  1.00  0.00     0.009 A 
ATOM     21  C   UNL A   1      32.660  21.888  23.129  1.00  0.00     0.009 A 
ENDBRANCH  10  15
BRANCH  12  22
ATOM     22  C   UNL A   1      35.749  23.162  26.024  1.00  0.00     0.047 C 
BRANCH  22  23
ATOM     23  C   UNL A   1      37.145  23.194  25.385  1.00  0.00     0.060 C 
ATOM     24  C   UNL A   1      38.204  24.077  26.055  1.00  0.00     0.012 C 
ATOM     25  C   UNL A   1      37.826  21.844  25.364  1.00  0.00     0.136 C 
ATOM     26  C   UNL A   1      39.076  23.140  26.882  1.00  0.00     0.009 C 
ATOM     27  C   UNL A   1      39.153  21.853  26.076  1.00  0.00     0.076 C 
ATOM     28  O   UNL A   1      37.370  20.866  24.782  1.00  0.00    -0.299 OA
ENDBRANCH  22  23
ENDBRANCH  12  22
ENDBRANCH   7   9
ENDBRANCH   4   7
ENDBRANCH   2   3
ENDBRANCH   1   2
BRANCH   1  29
ATOM     29  C   UNL A   1      33.979  29.990  27.176  1.00  0.00     0.118 C 
BRANCH  29  30
ATOM     30  N   UNL A   1      34.534  30.951  28.136  1.00  0.00    -0.352 N 
ATOM     31  C   UNL A   1      35.752  30.942  28.791  1.00  0.00     0.251 C 
ATOM     32  H   UNL A   1      33.952  31.719  28.344  1.00  0.00     0.163 HD
ATOM     33  O   UNL A   1      36.105  31.831  29.542  1.00  0.00    -0.269 OA
BRANCH  31  34
ATOM     34  C   UNL A   1      36.685  29.854  28.439  1.00  0.00     0.039 A 
ATOM     35  C   UNL A   1      37.005  28.953  29.458  1.00  0.00     0.014 A 
ATOM     36  C   UNL A   1      37.453  29.951  27.282  1.00  0.00     0.014 A 
ATOM     37  C   UNL A   1      38.241  28.318  29.426  1.00  0.00     0.010 A 
ATOM     38  C   UNL A   1      38.714  29.378  27.290  1.00  0.00     0.010 A 
ATOM     39  C   UNL A   1      39.138  28.633  28.400  1.00  0.00    -0.014 A 
BRANCH  39  40
ATOM     40  C   UNL A   1      40.572  28.388  28.541  1.00  0.00     0.031 A 
ATOM     41  C   UNL A   1      41.215  27.206  27.926  1.00  0.00     0.074 A 
ATOM     42  C   UNL A   1      41.345  29.183  29.319  1.00  0.00     0.049 A 
ATOM     43  N   UNL A   1      42.171  26.540  28.490  1.00  0.00    -0.248 NA
ATOM     44  C   UNL A   1      40.815  26.663  26.633  1.00  0.00     0.031 C 
ATOM     45  C   UNL A   1      42.803  29.140  29.430  1.00  0.00     0.029 A 
ATOM     46  N   UNL A   1      40.998  30.088  30.304  1.00  0.00    -0.354 N 
ATOM     47  C   UNL A   1      42.702  25.705  27.539  1.00  0.00     0.074 A 
ATOM     48  C   UNL A   1      41.773  25.750  26.431  1.00  0.00     0.031 C 
ATOM     49  C   UNL A   1      43.164  29.700  30.596  1.00  0.00     0.029 A 
ATOM     50  C   UNL A   1      41.950  30.019  31.320  1.00  0.00     0.049 A 
ATOM     51  H   UNL A   1      40.213  30.683  30.290  1.00  0.00     0.167 HD
ATOM     52  C   UNL A   1      43.948  25.178  27.693  1.00  0.00     0.034 A 
ATOM     53  C   UNL A   1      41.694  29.708  32.624  1.00  0.00     0.034 A 
ATOM     54  C   UNL A   1      44.616  25.636  28.906  1.00  0.00     0.049 A 
ATOM     55  C   UNL A   1      42.533  28.558  33.147  1.00  0.00     0.074 A 
ATOM     56  C   UNL A   1      45.589  26.597  29.131  1.00  0.00     0.029 A 
ATOM     57  N   UNL A   1      44.141  25.261  30.156  1.00  0.00    -0.354 N 
ATOM     58  N   UNL A   1      43.213  27.748  32.384  1.00  0.00    -0.248 NA
ATOM     59  C   UNL A   1      42.631  28.193  34.559  1.00  0.00     0.031 C 
ATOM     60  C   UNL A   1      45.695  26.803  30.527  1.00  0.00     0.029 A 
ATOM     61  C   UNL A   1      44.793  25.962  31.154  1.00  0.00     0.049 A 
ATOM     62  H   UNL A   1      43.438  24.589  30.311  1.00  0.00     0.167 HD
ATOM     63  C   UNL A   1      43.783  26.755  33.145  1.00  0.00     0.074 A 
ATOM     64  C   UNL A   1      43.415  27.101  34.505  1.00  0.00     0.031 C 
ATOM     65  C   UNL A   1      44.483  25.734  32.561  1.00  0.00     0.034 A 
BRANCH  52  66
ATOM     66  C   UNL A   1      44.668  24.504  26.555  1.00  0.00     0.023 A 
ATOM     67  C   UNL A   1      44.404  23.153  26.255  1.00  0.00     0.031 A 
ATOM     68  C   UNL A   1      45.643  25.134  25.760  1.00  0.00     0.131 A 
ATOM     69  C   UNL A   1      45.156  22.460  25.293  1.00  0.00     0.055 A 
ATOM     70  C   UNL A   1      46.428  24.433  24.836  1.00  0.00     0.041 A 
ATOM     71  F   UNL A   1      45.861  26.456  25.850  1.00  0.00    -0.206 F 
ATOM     72  C   UNL A   1      46.196  23.082  24.610  1.00  0.00     0.022 A 
BRANCH  69  73
ATOM     73  S   UNL A   1      44.753  20.723  24.954  1.00  0.00     0.124 S 
ATOM     74  O   UNL A   1      43.575  20.507  25.788  1.00  0.00    -0.237 OA
ATOM     75  O   UNL A   1      44.528  20.736  23.512  1.00  0.00    -0.237 OA
ATOM     76  O   UNL A   1      45.953  20.008  25.385  1.00  0.00    -0.744 OA
ENDBRANCH  69  73
ENDBRANCH  52  66
BRANCH  53  77
ATOM     77  C   UNL A   1      40.313  30.022  33.074  1.00  0.00     0.023 A 
ATOM     78  C   UNL A   1      40.007  31.376  33.313  1.00  0.00     0.031 A 
ATOM     79  C   UNL A   1      39.250  29.124  32.914  1.00  0.00     0.131 A 
ATOM     80  C   UNL A   1      38.685  31.830  33.213  1.00  0.00     0.055 A 
ATOM     81  C   UNL A   1      37.924  29.570  32.879  1.00  0.00     0.041 A 
ATOM     82  F   UNL A   1      39.482  27.827  32.664  1.00  0.00    -0.206 F 
ATOM     83  C   UNL A   1      37.639  30.934  32.983  1.00  0.00     0.022 A 
BRANCH  80  84
ATOM     84  S   UNL A   1      38.375  33.618  33.113  1.00  0.00     0.124 S 
ATOM     85  O   UNL A   1      37.439  33.708  32.000  1.00  0.00    -0.237 OA
ATOM     86  O   UNL A   1      37.828  33.931  34.431  1.00  0.00    -0.237 OA
ATOM     87  O   UNL A   1      39.702  34.180  32.877  1.00  0.00    -0.744 OA
ENDBRANCH  80  84
ENDBRANCH  53  77
BRANCH  65  88
ATOM     88  C   UNL A   1      45.015  24.478  33.233  1.00  0.00     0.023 A 
ATOM     89  C   UNL A   1      46.250  24.401  33.893  1.00  0.00     0.031 A 
ATOM     90  C   UNL A   1      44.233  23.292  33.282  1.00  0.00     0.131 A 
ATOM     91  C   UNL A   1      46.690  23.204  34.496  1.00  0.00     0.055 A 
ATOM     92  C   UNL A   1      44.643  22.125  33.933  1.00  0.00     0.041 A 
ATOM     93  F   UNL A   1      43.024  23.216  32.706  1.00  0.00    -0.206 F 
ATOM     94  C   UNL A   1      45.886  22.069  34.536  1.00  0.00     0.022 A 
BRANCH  91  95
ATOM     95  S   UNL A   1      48.365  23.152  35.189  1.00  0.00     0.124 S 
ATOM     96  O   UNL A   1      48.980  24.330  34.580  1.00  0.00    -0.237 OA
ATOM     97  O   UNL A   1      48.112  23.240  36.623  1.00  0.00    -0.237 OA
ATOM     98  O   UNL A   1      48.892  21.869  34.727  1.00  0.00    -0.744 OA
ENDBRANCH  91  95
ENDBRANCH  65  88
ENDBRANCH  39  40
ENDBRANCH  31  34
ENDBRANCH  29  30
ENDBRANCH   1  29
TORSDOF 17
ENDMDL
MODEL 3
REMARK VINA RESULT:     -12.9      1.474      1.923
REMARK SMILES Cc1ccc(-c2cc([C@@H](C)C(=O)NCCCNC(=O)c3ccc(-c4c5nc(c(-c6cc(S(=O)(=O)[O-])ccc6F)c6ccc([nH]6)c(-c6cc(S(=O)(=O)[O-])ccc6F)c6nc(c(-c7cc(S(=O)(=O)[O-])ccc7F)c7ccc4[nH]7)C=C6)C=C5)cc3)ccc2C[C@H]2CCCC2=O)cc1
REMARK SMILES IDX 15 1 14 2 13 3 11 4 12 5 9 7 10 8 8 9 6 10 7 11 85 12 84 13
REMARK SMILES IDX 83 14 5 15 1 16 2 17 3 18 94 19 4 20 93 21 86 22 87 23 88 24
REMARK SMILES IDX 91 25 89 26 90 27 92 28 16 29 17 30 18 31 19 33 20 34 21 35
REMARK SMILES IDX 82 36 22 37 81 38 23 39 24 40 25 41 75 42 26 43 80 44 74 45
REMARK SMILES IDX 76 46 27 47 79 48 73 49 72 50 28 52 60 53 40 54 59 55 41 56
REMARK SMILES IDX 44 57 58 58 77 59 42 60 43 61 57 63 78 64 45 65 29 66 30 67
REMARK SMILES IDX 38 68 31 69 37 70 39 71 36 72 32 73 33 74 34 75 35 76 61 77
REMARK SMILES IDX 62 78 70 79 63 80 69 81 71 82 68 83 64 84 65 85 66 86 67 87
REMARK SMILES IDX 46 88 47 89 55 90 48 91 54 92 56 93 53 94 49 95 50 96 51 97
REMARK SMILES IDX 52 98
REMARK H PARENT 13 6 17 32 76 51 44 62
REMARK Flexibility Score: inf
ROOT
ATOM      1  C   UNL A   1      32.412  29.878  27.111  1.00  0.00     0.042 C 
ENDROOT
BRANCH   1   2
ATOM      2  C   UNL A   1      32.001  30.067  25.652  1.00  0.00     0.117 C 
BRANCH   2   3
ATOM      3  N   UNL A   1      33.059  29.696  24.724  1.00  0.00    -0.356 N 
ATOM      4  C   UNL A   1      33.099  28.863  23.649  1.00  0.00     0.227 C 
ATOM      5  O   UNL A   1      34.198  28.717  23.095  1.00  0.00    -0.274 OA
ATOM      6  H   UNL A   1      33.919  30.138  24.911  1.00  0.00     0.163 HD
BRANCH   4   7
ATOM      7  C   UNL A   1      31.885  28.090  23.101  1.00  0.00     0.105 C 
ATOM      8  C   UNL A   1      30.519  28.702  23.406  1.00  0.00     0.023 C 
BRANCH   7   9
ATOM      9  C   UNL A   1      31.983  26.586  23.313  1.00  0.00    -0.035 A 
ATOM     10  C   UNL A   1      33.195  24.648  24.237  1.00  0.00    -0.015 A 
ATOM     11  C   UNL A   1      33.104  26.028  23.953  1.00  0.00     0.013 A 
ATOM     12  C   UNL A   1      32.061  23.837  24.003  1.00  0.00    -0.039 A 
ATOM     13  C   UNL A   1      30.986  24.376  23.283  1.00  0.00     0.004 A 
ATOM     14  C   UNL A   1      30.978  25.716  22.901  1.00  0.00     0.005 A 
BRANCH  10  15
ATOM     15  C   UNL A   1      34.498  24.084  24.637  1.00  0.00    -0.018 A 
ATOM     16  C   UNL A   1      38.388  22.458  25.620  1.00  0.00     0.044 C 
ATOM     17  C   UNL A   1      37.045  23.036  25.294  1.00  0.00    -0.051 A 
ATOM     18  C   UNL A   1      36.662  23.173  23.958  1.00  0.00     0.004 A 
ATOM     19  C   UNL A   1      36.153  23.434  26.298  1.00  0.00     0.004 A 
ATOM     20  C   UNL A   1      35.412  23.702  23.638  1.00  0.00     0.009 A 
ATOM     21  C   UNL A   1      34.894  23.956  25.973  1.00  0.00     0.009 A 
ENDBRANCH  10  15
BRANCH  12  22
ATOM     22  C   UNL A   1      31.937  22.413  24.512  1.00  0.00     0.047 C 
BRANCH  22  23
ATOM     23  C   UNL A   1      32.872  21.375  23.874  1.00  0.00     0.060 C 
ATOM     24  C   UNL A   1      33.464  20.302  24.795  1.00  0.00     0.012 C 
ATOM     25  C   UNL A   1      32.200  20.540  22.806  1.00  0.00     0.136 C 
ATOM     26  C   UNL A   1      32.628  19.047  24.577  1.00  0.00     0.009 C 
ATOM     27  C   UNL A   1      32.261  19.065  23.101  1.00  0.00     0.076 C 
ATOM     28  O   UNL A   1      31.712  21.013  21.786  1.00  0.00    -0.299 OA
ENDBRANCH  22  23
ENDBRANCH  12  22
ENDBRANCH   7   9
ENDBRANCH   4   7
ENDBRANCH   2   3
ENDBRANCH   1   2
BRANCH   1  29
ATOM     29  C   UNL A   1      33.911  29.709  27.326  1.00  0.00     0.118 C 
BRANCH  29  30
ATOM     30  N   UNL A   1      34.448  30.759  28.198  1.00  0.00    -0.352 N 
ATOM     31  C   UNL A   1      35.682  30.849  28.816  1.00  0.00     0.251 C 
ATOM     32  H   UNL A   1      33.839  31.515  28.369  1.00  0.00     0.163 HD
ATOM     33  O   UNL A   1      36.016  31.804  29.491  1.00  0.00    -0.269 OA
BRANCH  31  34
ATOM     34  C   UNL A   1      36.653  29.779  28.515  1.00  0.00     0.039 A 
ATOM     35  C   UNL A   1      37.009  28.943  29.576  1.00  0.00     0.014 A 
ATOM     36  C   UNL A   1      37.413  29.845  27.351  1.00  0.00     0.014 A 
ATOM     37  C   UNL A   1      38.267  28.352  29.570  1.00  0.00     0.010 A 
ATOM     38  C   UNL A   1      38.694  29.319  27.381  1.00  0.00     0.010 A 
ATOM     39  C   UNL A   1      39.148  28.646  28.525  1.00  0.00    -0.014 A 
BRANCH  39  40
ATOM     40  C   UNL A   1      40.591  28.461  28.671  1.00  0.00     0.031 A 
ATOM     41  C   UNL A   1      41.286  27.311  28.052  1.00  0.00     0.074 A 
ATOM     42  C   UNL A   1      41.327  29.282  29.458  1.00  0.00     0.049 A 
ATOM     43  N   UNL A   1      42.266  26.682  28.615  1.00  0.00    -0.248 NA
ATOM     44  C   UNL A   1      40.914  26.761  26.752  1.00  0.00     0.031 C 
ATOM     45  C   UNL A   1      42.785  29.299  29.576  1.00  0.00     0.029 A 
ATOM     46  N   UNL A   1      40.938  30.165  30.448  1.00  0.00    -0.354 N 
ATOM     47  C   UNL A   1      42.836  25.877  27.661  1.00  0.00     0.074 A 
ATOM     48  C   UNL A   1      41.910  25.891  26.549  1.00  0.00     0.031 C 
ATOM     49  C   UNL A   1      43.117  29.865  30.748  1.00  0.00     0.029 A 
ATOM     50  C   UNL A   1      41.887  30.128  31.468  1.00  0.00     0.049 A 
ATOM     51  H   UNL A   1      40.128  30.726  30.435  1.00  0.00     0.167 HD
ATOM     52  C   UNL A   1      44.102  25.401  27.817  1.00  0.00     0.034 A 
ATOM     53  C   UNL A   1      41.639  29.797  32.768  1.00  0.00     0.034 A 
ATOM     54  C   UNL A   1      44.745  25.878  29.036  1.00  0.00     0.049 A 
ATOM     55  C   UNL A   1      42.522  28.680  33.288  1.00  0.00     0.074 A 
ATOM     56  C   UNL A   1      45.676  26.877  29.272  1.00  0.00     0.029 A 
ATOM     57  N   UNL A   1      44.280  25.474  30.282  1.00  0.00    -0.354 N 
ATOM     58  N   UNL A   1      43.239  27.905  32.523  1.00  0.00    -0.248 NA
ATOM     59  C   UNL A   1      42.630  28.309  34.697  1.00  0.00     0.031 C 
ATOM     60  C   UNL A   1      45.767  27.077  30.670  1.00  0.00     0.029 A 
ATOM     61  C   UNL A   1      44.898  26.195  31.287  1.00  0.00     0.049 A 
ATOM     62  H   UNL A   1      43.605  24.773  30.429  1.00  0.00     0.167 HD
ATOM     63  C   UNL A   1      43.848  26.931  33.278  1.00  0.00     0.074 A 
ATOM     64  C   UNL A   1      43.459  27.251  34.640  1.00  0.00     0.031 C 
ATOM     65  C   UNL A   1      44.592  25.944  32.691  1.00  0.00     0.034 A 
BRANCH  52  66
ATOM     66  C   UNL A   1      44.854  24.766  26.678  1.00  0.00     0.023 A 
ATOM     67  C   UNL A   1      44.627  23.416  26.348  1.00  0.00     0.031 A 
ATOM     68  C   UNL A   1      45.826  25.433  25.910  1.00  0.00     0.131 A 
ATOM     69  C   UNL A   1      45.408  22.758  25.384  1.00  0.00     0.055 A 
ATOM     70  C   UNL A   1      46.641  24.768  24.985  1.00  0.00     0.041 A 
ATOM     71  F   UNL A   1      46.013  26.758  26.028  1.00  0.00    -0.206 F 
ATOM     72  C   UNL A   1      46.445  23.417  24.730  1.00  0.00     0.022 A 
BRANCH  69  73
ATOM     73  S   UNL A   1      45.051  21.020  25.006  1.00  0.00     0.124 S 
ATOM     74  O   UNL A   1      43.914  20.738  25.876  1.00  0.00    -0.237 OA
ATOM     75  O   UNL A   1      44.770  21.068  23.575  1.00  0.00    -0.237 OA
ATOM     76  O   UNL A   1      46.289  20.334  25.369  1.00  0.00    -0.744 OA
ENDBRANCH  69  73
ENDBRANCH  52  66
BRANCH  53  77
ATOM     77  C   UNL A   1      40.244  30.050  33.214  1.00  0.00     0.023 A 
ATOM     78  C   UNL A   1      39.877  31.390  33.451  1.00  0.00     0.031 A 
ATOM     79  C   UNL A   1      39.223  29.106  33.052  1.00  0.00     0.131 A 
ATOM     80  C   UNL A   1      38.537  31.784  33.347  1.00  0.00     0.055 A 
ATOM     81  C   UNL A   1      37.878  29.493  33.012  1.00  0.00     0.041 A 
ATOM     82  F   UNL A   1      39.513  27.820  32.803  1.00  0.00    -0.206 F 
ATOM     83  C   UNL A   1      37.533  30.843  33.114  1.00  0.00     0.022 A 
BRANCH  80  84
ATOM     84  S   UNL A   1      38.148  33.557  33.245  1.00  0.00     0.124 S 
ATOM     85  O   UNL A   1      39.470  34.159  33.133  1.00  0.00    -0.237 OA
ATOM     86  O   UNL A   1      37.308  33.641  32.053  1.00  0.00    -0.237 OA
ATOM     87  O   UNL A   1      37.433  33.819  34.491  1.00  0.00    -0.744 OA
ENDBRANCH  80  84
ENDBRANCH  53  77
BRANCH  65  88
ATOM     88  C   UNL A   1      45.173  24.707  33.357  1.00  0.00     0.023 A 
ATOM     89  C   UNL A   1      46.409  24.676  34.019  1.00  0.00     0.031 A 
ATOM     90  C   UNL A   1      44.440  23.490  33.396  1.00  0.00     0.131 A 
ATOM     91  C   UNL A   1      46.896  23.494  34.616  1.00  0.00     0.055 A 
ATOM     92  C   UNL A   1      44.896  22.336  34.042  1.00  0.00     0.041 A 
ATOM     93  F   UNL A   1      43.236  23.368  32.818  1.00  0.00    -0.206 F 
ATOM     94  C   UNL A   1      46.139  22.328  34.648  1.00  0.00     0.022 A 
BRANCH  91  95
ATOM     95  S   UNL A   1      48.570  23.507  35.313  1.00  0.00     0.124 S 
ATOM     96  O   UNL A   1      48.594  22.254  36.064  1.00  0.00    -0.237 OA
ATOM     97  O   UNL A   1      49.404  23.544  34.117  1.00  0.00    -0.237 OA
ATOM     98  O   UNL A   1      48.597  24.720  36.129  1.00  0.00    -0.744 OA
ENDBRANCH  91  95
ENDBRANCH  65  88
ENDBRANCH  39  40
ENDBRANCH  31  34
ENDBRANCH  29  30
ENDBRANCH   1  29
TORSDOF 17
ENDMDL
