MODEL 1
REMARK VINA RESULT:     -12.6      0.000      0.000
REMARK SMILES O=C(NCCCNC(=O)[C@@H]1CCCC[C@@H]1C(=O)Nc1nc(-c2ccc(Cl)c(Cl)c2)cs1)c1ccc(-c2c3nc(c(-c4cc(S(=O)(=O)[O-])ccc4F)c4ccc([nH]4)c(-c4cc(S(=O)(=O)[O-])ccc4F)c4nc(c(-c5cc(S(=O)(=O)[O-])ccc5F)c5ccc2[nH]5)C=C4)C=C3)cc1
REMARK SMILES IDX 5 1 4 2 3 3 1 4 2 5 32 7 33 8 94 9 34 10 93 11 35 12 36 13
REMARK SMILES IDX 37 14 87 15 38 16 92 17 86 18 88 19 39 20 91 21 85 22 84 23
REMARK SMILES IDX 40 25 72 26 52 27 71 28 53 29 56 30 70 31 89 32 54 33 55 34
REMARK SMILES IDX 69 36 90 37 57 38 41 39 42 40 50 41 43 42 49 43 51 44 48 45
REMARK SMILES IDX 44 46 45 47 46 48 47 49 73 50 74 51 82 52 75 53 81 54 83 55
REMARK SMILES IDX 80 56 76 57 77 58 78 59 79 60 58 61 59 62 67 63 60 64 66 65
REMARK SMILES IDX 68 66 65 67 61 68 62 69 63 70 64 71 6 72 7 73 8 74 9 76
REMARK SMILES IDX 10 77 11 78 15 79 12 80 14 81 13 82 16 83 17 84 18 85 19 87
REMARK SMILES IDX 20 88 31 89 21 90 30 91 22 92 23 93 29 94 24 95 27 96 25 97
REMARK SMILES IDX 28 98 26 99
REMARK H PARENT 3 6 88 24 56 35 7 75 18 86
REMARK Flexibility Score: inf
ROOT
ATOM      1  C   UNL A   1      32.845  27.609  24.626  1.00  0.00     0.042 C 
ENDROOT
BRANCH   1   2
ATOM      2  C   UNL A   1      33.146  29.106  24.417  1.00  0.00     0.118 C 
BRANCH   2   3
ATOM      3  N   UNL A   1      32.513  30.084  25.311  1.00  0.00    -0.352 N 
ATOM      4  O   UNL A   1      32.077  31.631  26.857  1.00  0.00    -0.269 OA
ATOM      5  C   UNL A   1      32.883  30.793  26.443  1.00  0.00     0.251 C 
ATOM      6  H   UNL A   1      31.590  30.289  25.035  1.00  0.00     0.163 HD
BRANCH   5   7
ATOM      7  C   UNL A   1      34.113  30.534  27.261  1.00  0.00     0.039 A 
ATOM      8  C   UNL A   1      34.488  29.280  27.720  1.00  0.00     0.014 A 
ATOM      9  C   UNL A   1      34.926  31.631  27.624  1.00  0.00     0.014 A 
ATOM     10  C   UNL A   1      35.552  29.144  28.630  1.00  0.00     0.010 A 
ATOM     11  C   UNL A   1      36.050  31.479  28.468  1.00  0.00     0.010 A 
ATOM     12  C   UNL A   1      36.378  30.228  29.005  1.00  0.00    -0.014 A 
BRANCH  12  13
ATOM     13  C   UNL A   1      37.631  29.961  29.803  1.00  0.00     0.031 A 
ATOM     14  C   UNL A   1      37.856  30.424  31.232  1.00  0.00     0.074 A 
ATOM     15  C   UNL A   1      38.609  29.229  29.222  1.00  0.00     0.049 A 
ATOM     16  N   UNL A   1      38.862  30.152  32.035  1.00  0.00    -0.248 NA
ATOM     17  C   UNL A   1      36.842  31.293  31.840  1.00  0.00     0.031 C 
ATOM     18  C   UNL A   1      38.575  28.737  27.843  1.00  0.00     0.029 A 
ATOM     19  N   UNL A   1      39.803  28.747  29.708  1.00  0.00    -0.354 N 
ATOM     20  C   UNL A   1      38.600  30.801  33.241  1.00  0.00     0.074 A 
ATOM     21  C   UNL A   1      37.339  31.492  33.059  1.00  0.00     0.031 C 
ATOM     22  C   UNL A   1      39.645  27.965  27.622  1.00  0.00     0.029 A 
ATOM     23  C   UNL A   1      40.513  28.003  28.793  1.00  0.00     0.049 A 
ATOM     24  H   UNL A   1      40.120  28.919  30.625  1.00  0.00     0.167 HD
ATOM     25  C   UNL A   1      39.339  30.829  34.384  1.00  0.00     0.034 A 
ATOM     26  C   UNL A   1      41.742  27.449  28.837  1.00  0.00     0.034 A 
ATOM     27  C   UNL A   1      40.617  30.166  34.563  1.00  0.00     0.049 A 
ATOM     28  C   UNL A   1      42.578  27.579  30.081  1.00  0.00     0.074 A 
ATOM     29  C   UNL A   1      41.386  30.088  35.716  1.00  0.00     0.029 A 
ATOM     30  N   UNL A   1      41.342  29.516  33.574  1.00  0.00    -0.354 N 
ATOM     31  N   UNL A   1      42.268  28.137  31.225  1.00  0.00    -0.248 NA
ATOM     32  C   UNL A   1      43.934  27.017  30.032  1.00  0.00     0.031 C 
ATOM     33  C   UNL A   1      42.613  29.496  35.398  1.00  0.00     0.029 A 
ATOM     34  C   UNL A   1      42.575  29.106  34.072  1.00  0.00     0.049 A 
ATOM     35  H   UNL A   1      41.028  29.366  32.654  1.00  0.00     0.167 HD
ATOM     36  C   UNL A   1      43.391  27.984  32.033  1.00  0.00     0.074 A 
ATOM     37  C   UNL A   1      44.370  27.255  31.259  1.00  0.00     0.031 C 
ATOM     38  C   UNL A   1      43.585  28.415  33.305  1.00  0.00     0.034 A 
BRANCH  25  39
ATOM     39  C   UNL A   1      38.842  31.661  35.550  1.00  0.00     0.023 A 
ATOM     40  C   UNL A   1      38.136  31.106  36.632  1.00  0.00     0.031 A 
ATOM     41  C   UNL A   1      39.185  33.027  35.621  1.00  0.00     0.131 A 
ATOM     42  C   UNL A   1      37.784  31.917  37.728  1.00  0.00     0.055 A 
ATOM     43  C   UNL A   1      38.883  33.811  36.736  1.00  0.00     0.041 A 
ATOM     44  F   UNL A   1      39.850  33.615  34.614  1.00  0.00    -0.206 F 
ATOM     45  C   UNL A   1      38.175  33.258  37.796  1.00  0.00     0.022 A 
BRANCH  42  46
ATOM     46  S   UNL A   1      36.742  31.226  39.044  1.00  0.00     0.124 S 
ATOM     47  O   UNL A   1      37.669  31.186  40.171  1.00  0.00    -0.237 OA
ATOM     48  O   UNL A   1      35.661  32.200  39.137  1.00  0.00    -0.237 OA
ATOM     49  O   UNL A   1      36.355  29.915  38.523  1.00  0.00    -0.744 OA
ENDBRANCH  42  46
ENDBRANCH  25  39
BRANCH  26  50
ATOM     50  C   UNL A   1      42.304  26.801  27.615  1.00  0.00     0.023 A 
ATOM     51  C   UNL A   1      42.129  25.433  27.362  1.00  0.00     0.031 A 
ATOM     52  C   UNL A   1      43.072  27.549  26.701  1.00  0.00     0.131 A 
ATOM     53  C   UNL A   1      42.750  24.849  26.246  1.00  0.00     0.055 A 
ATOM     54  C   UNL A   1      43.617  26.980  25.553  1.00  0.00     0.041 A 
ATOM     55  F   UNL A   1      43.283  28.861  26.903  1.00  0.00    -0.206 F 
ATOM     56  C   UNL A   1      43.470  25.617  25.329  1.00  0.00     0.022 A 
BRANCH  53  57
ATOM     57  S   UNL A   1      42.702  23.044  26.076  1.00  0.00     0.124 S 
ATOM     58  O   UNL A   1      41.331  22.746  26.465  1.00  0.00    -0.237 OA
ATOM     59  O   UNL A   1      43.028  22.864  24.667  1.00  0.00    -0.237 OA
ATOM     60  O   UNL A   1      43.731  22.590  27.014  1.00  0.00    -0.744 OA
ENDBRANCH  53  57
ENDBRANCH  26  50
BRANCH  38  61
ATOM     61  C   UNL A   1      44.914  28.090  33.950  1.00  0.00     0.023 A 
ATOM     62  C   UNL A   1      45.097  26.928  34.722  1.00  0.00     0.031 A 
ATOM     63  C   UNL A   1      46.004  28.968  33.815  1.00  0.00     0.131 A 
ATOM     64  C   UNL A   1      46.322  26.701  35.370  1.00  0.00     0.055 A 
ATOM     65  C   UNL A   1      47.241  28.706  34.413  1.00  0.00     0.041 A 
ATOM     66  F   UNL A   1      45.889  30.099  33.101  1.00  0.00    -0.206 F 
ATOM     67  C   UNL A   1      47.400  27.573  35.206  1.00  0.00     0.022 A 
BRANCH  64  68
ATOM     68  S   UNL A   1      46.464  25.292  36.507  1.00  0.00     0.124 S 
ATOM     69  O   UNL A   1      46.935  25.934  37.729  1.00  0.00    -0.237 OA
ATOM     70  O   UNL A   1      45.099  24.778  36.542  1.00  0.00    -0.237 OA
ATOM     71  O   UNL A   1      47.436  24.418  35.850  1.00  0.00    -0.744 OA
ENDBRANCH  64  68
ENDBRANCH  38  61
ENDBRANCH  12  13
ENDBRANCH   5   7
ENDBRANCH   2   3
ENDBRANCH   1   2
BRANCH   1  72
ATOM     72  C   UNL A   1      34.026  26.650  24.678  1.00  0.00     0.117 C 
BRANCH  72  73
ATOM     73  N   UNL A   1      34.037  25.702  23.589  1.00  0.00    -0.356 N 
ATOM     74  C   UNL A   1      34.446  24.408  23.515  1.00  0.00     0.223 C 
ATOM     75  H   UNL A   1      33.684  26.059  22.743  1.00  0.00     0.163 HD
ATOM     76  O   UNL A   1      34.310  23.895  22.398  1.00  0.00    -0.275 OA
BRANCH  74  77
ATOM     77  C   UNL A   1      35.156  23.650  24.669  1.00  0.00     0.091 C 
ATOM     78  C   UNL A   1      36.524  23.187  24.099  1.00  0.00     0.014 C 
ATOM     79  C   UNL A   1      34.380  22.526  25.421  1.00  0.00     0.091 C 
ATOM     80  C   UNL A   1      37.333  22.296  25.020  1.00  0.00     0.001 C 
ATOM     81  C   UNL A   1      35.262  21.465  26.124  1.00  0.00     0.014 C 
ATOM     82  C   UNL A   1      36.523  21.065  25.367  1.00  0.00     0.001 C 
BRANCH  79  83
ATOM     83  C   UNL A   1      33.360  21.792  24.562  1.00  0.00     0.230 C 
ATOM     84  O   UNL A   1      33.659  20.712  24.041  1.00  0.00    -0.274 OA
ATOM     85  N   UNL A   1      32.079  22.227  24.393  1.00  0.00    -0.302 N 
ATOM     86  H   UNL A   1      31.475  21.569  23.977  1.00  0.00     0.172 HD
BRANCH  85  87
ATOM     87  C   UNL A   1      31.489  23.424  24.703  1.00  0.00     0.189 A 
ATOM     88  N   UNL A   1      31.119  24.427  23.946  1.00  0.00    -0.220 NA
ATOM     89  S   UNL A   1      31.023  23.524  26.349  1.00  0.00    -0.105 S 
ATOM     90  C   UNL A   1      30.317  25.305  24.681  1.00  0.00     0.084 A 
ATOM     91  C   UNL A   1      30.126  24.948  26.002  1.00  0.00     0.097 A 
BRANCH  90  92
ATOM     92  C   UNL A   1      29.536  26.339  24.016  1.00  0.00     0.003 A 
ATOM     93  C   UNL A   1      30.219  27.247  23.215  1.00  0.00     0.012 A 
ATOM     94  C   UNL A   1      28.173  26.534  24.199  1.00  0.00     0.032 A 
ATOM     95  C   UNL A   1      29.622  28.391  22.691  1.00  0.00     0.023 A 
ATOM     96  C   UNL A   1      27.541  27.661  23.633  1.00  0.00     0.060 A 
ATOM     97  C   UNL A   1      28.274  28.614  22.915  1.00  0.00     0.059 A 
ATOM     98  Cl  UNL A   1      25.843  27.823  23.871  1.00  0.00    -0.083 Cl
ATOM     99  Cl  UNL A   1      27.610  30.083  22.305  1.00  0.00    -0.083 Cl
ENDBRANCH  90  92
ENDBRANCH  85  87
ENDBRANCH  79  83
ENDBRANCH  74  77
ENDBRANCH  72  73
ENDBRANCH   1  72
TORSDOF 16
ENDMDL
MODEL 2
REMARK VINA RESULT:     -12.5      2.393      3.215
REMARK SMILES O=C(NCCCNC(=O)[C@@H]1CCCC[C@@H]1C(=O)Nc1nc(-c2ccc(Cl)c(Cl)c2)cs1)c1ccc(-c2c3nc(c(-c4cc(S(=O)(=O)[O-])ccc4F)c4ccc([nH]4)c(-c4cc(S(=O)(=O)[O-])ccc4F)c4nc(c(-c5cc(S(=O)(=O)[O-])ccc5F)c5ccc2[nH]5)C=C4)C=C3)cc1
REMARK SMILES IDX 5 1 4 2 3 3 1 4 2 5 32 7 33 8 94 9 34 10 93 11 35 12 36 13
REMARK SMILES IDX 37 14 87 15 38 16 92 17 86 18 88 19 39 20 91 21 85 22 84 23
REMARK SMILES IDX 40 25 72 26 52 27 71 28 53 29 56 30 70 31 89 32 54 33 55 34
REMARK SMILES IDX 69 36 90 37 57 38 41 39 42 40 50 41 43 42 49 43 51 44 48 45
REMARK SMILES IDX 44 46 45 47 46 48 47 49 73 50 74 51 82 52 75 53 81 54 83 55
REMARK SMILES IDX 80 56 76 57 77 58 78 59 79 60 58 61 59 62 67 63 60 64 66 65
REMARK SMILES IDX 68 66 65 67 61 68 62 69 63 70 64 71 6 72 7 73 8 74 9 76
REMARK SMILES IDX 10 77 11 78 15 79 12 80 14 81 13 82 16 83 17 84 18 85 19 87
REMARK SMILES IDX 20 88 31 89 21 90 30 91 22 92 23 93 29 94 24 95 27 96 25 97
REMARK SMILES IDX 28 98 26 99
REMARK H PARENT 3 6 88 24 56 35 7 75 18 86
REMARK Flexibility Score: inf
ROOT
ATOM      1  C   UNL A   1      33.737  27.463  25.755  1.00  0.00     0.042 C 
ENDROOT
BRANCH   1   2
ATOM      2  C   UNL A   1      33.104  28.075  27.019  1.00  0.00     0.118 C 
BRANCH   2   3
ATOM      3  N   UNL A   1      33.238  29.520  27.245  1.00  0.00    -0.352 N 
ATOM      4  O   UNL A   1      33.990  31.591  27.588  1.00  0.00    -0.269 OA
ATOM      5  C   UNL A   1      34.257  30.387  27.611  1.00  0.00     0.251 C 
ATOM      6  H   UNL A   1      32.387  29.995  27.100  1.00  0.00     0.163 HD
BRANCH   5   7
ATOM      7  C   UNL A   1      35.596  29.970  28.142  1.00  0.00     0.039 A 
ATOM      8  C   UNL A   1      35.804  29.491  29.428  1.00  0.00     0.014 A 
ATOM      9  C   UNL A   1      36.726  30.106  27.306  1.00  0.00     0.014 A 
ATOM     10  C   UNL A   1      37.111  29.294  29.909  1.00  0.00     0.010 A 
ATOM     11  C   UNL A   1      38.033  29.820  27.765  1.00  0.00     0.010 A 
ATOM     12  C   UNL A   1      38.255  29.422  29.089  1.00  0.00    -0.014 A 
BRANCH  12  13
ATOM     13  C   UNL A   1      39.597  28.975  29.617  1.00  0.00     0.031 A 
ATOM     14  C   UNL A   1      40.344  29.653  30.751  1.00  0.00     0.074 A 
ATOM     15  C   UNL A   1      40.160  27.875  29.066  1.00  0.00     0.049 A 
ATOM     16  N   UNL A   1      41.457  29.276  31.342  1.00  0.00    -0.248 NA
ATOM     17  C   UNL A   1      39.787  30.897  31.295  1.00  0.00     0.031 C 
ATOM     18  C   UNL A   1      39.597  27.125  27.941  1.00  0.00     0.029 A 
ATOM     19  N   UNL A   1      41.303  27.178  29.381  1.00  0.00    -0.354 N 
ATOM     20  C   UNL A   1      41.729  30.223  32.330  1.00  0.00     0.074 A 
ATOM     21  C   UNL A   1      40.662  31.201  32.250  1.00  0.00     0.031 C 
ATOM     22  C   UNL A   1      40.345  26.039  27.715  1.00  0.00     0.029 A 
ATOM     23  C   UNL A   1      41.513  26.073  28.587  1.00  0.00     0.049 A 
ATOM     24  H   UNL A   1      41.914  27.444  30.106  1.00  0.00     0.167 HD
ATOM     25  C   UNL A   1      42.766  30.279  33.209  1.00  0.00     0.034 A 
ATOM     26  C   UNL A   1      42.539  25.200  28.506  1.00  0.00     0.034 A 
ATOM     27  C   UNL A   1      43.854  29.321  33.273  1.00  0.00     0.049 A 
ATOM     28  C   UNL A   1      43.720  25.346  29.425  1.00  0.00     0.074 A 
ATOM     29  C   UNL A   1      44.899  29.273  34.186  1.00  0.00     0.029 A 
ATOM     30  N   UNL A   1      44.077  28.283  32.379  1.00  0.00    -0.354 N 
ATOM     31  N   UNL A   1      43.908  26.208  30.393  1.00  0.00    -0.248 NA
ATOM     32  C   UNL A   1      44.833  24.407  29.230  1.00  0.00     0.031 C 
ATOM     33  C   UNL A   1      45.804  28.286  33.780  1.00  0.00     0.029 A 
ATOM     34  C   UNL A   1      45.277  27.643  32.675  1.00  0.00     0.049 A 
ATOM     35  H   UNL A   1      43.472  28.035  31.643  1.00  0.00     0.167 HD
ATOM     36  C   UNL A   1      45.158  25.908  30.927  1.00  0.00     0.074 A 
ATOM     37  C   UNL A   1      45.664  24.768  30.197  1.00  0.00     0.031 C 
ATOM     38  C   UNL A   1      45.822  26.531  31.933  1.00  0.00     0.034 A 
BRANCH  25  39
ATOM     39  C   UNL A   1      42.849  31.457  34.160  1.00  0.00     0.023 A 
ATOM     40  C   UNL A   1      42.276  31.438  35.444  1.00  0.00     0.031 A 
ATOM     41  C   UNL A   1      43.618  32.584  33.801  1.00  0.00     0.131 A 
ATOM     42  C   UNL A   1      42.469  32.530  36.312  1.00  0.00     0.055 A 
ATOM     43  C   UNL A   1      43.853  33.636  34.687  1.00  0.00     0.041 A 
ATOM     44  F   UNL A   1      44.181  32.664  32.585  1.00  0.00    -0.206 F 
ATOM     45  C   UNL A   1      43.274  33.614  35.950  1.00  0.00     0.022 A 
BRANCH  42  46
ATOM     46  S   UNL A   1      41.600  32.558  37.905  1.00  0.00     0.124 S 
ATOM     47  O   UNL A   1      40.243  32.191  37.514  1.00  0.00    -0.237 OA
ATOM     48  O   UNL A   1      42.333  31.566  38.684  1.00  0.00    -0.237 OA
ATOM     49  O   UNL A   1      41.754  33.940  38.357  1.00  0.00    -0.744 OA
ENDBRANCH  42  46
ENDBRANCH  25  39
BRANCH  26  50
ATOM     50  C   UNL A   1      42.541  24.161  27.434  1.00  0.00     0.023 A 
ATOM     51  C   UNL A   1      41.912  22.921  27.611  1.00  0.00     0.031 A 
ATOM     52  C   UNL A   1      43.224  24.390  26.222  1.00  0.00     0.131 A 
ATOM     53  C   UNL A   1      42.015  21.942  26.610  1.00  0.00     0.055 A 
ATOM     54  C   UNL A   1      43.253  23.444  25.201  1.00  0.00     0.041 A 
ATOM     55  F   UNL A   1      43.855  25.555  26.006  1.00  0.00    -0.206 F 
ATOM     56  C   UNL A   1      42.659  22.204  25.399  1.00  0.00     0.022 A 
BRANCH  53  57
ATOM     57  S   UNL A   1      41.397  20.274  26.965  1.00  0.00     0.124 S 
ATOM     58  O   UNL A   1      42.623  19.489  26.922  1.00  0.00    -0.237 OA
ATOM     59  O   UNL A   1      40.789  20.450  28.278  1.00  0.00    -0.237 OA
ATOM     60  O   UNL A   1      40.455  20.024  25.873  1.00  0.00    -0.744 OA
ENDBRANCH  53  57
ENDBRANCH  26  50
BRANCH  38  61
ATOM     61  C   UNL A   1      47.174  25.974  32.317  1.00  0.00     0.023 A 
ATOM     62  C   UNL A   1      47.321  25.044  33.363  1.00  0.00     0.031 A 
ATOM     63  C   UNL A   1      48.336  26.399  31.649  1.00  0.00     0.131 A 
ATOM     64  C   UNL A   1      48.602  24.610  33.743  1.00  0.00     0.055 A 
ATOM     65  C   UNL A   1      49.603  25.917  31.991  1.00  0.00     0.041 A 
ATOM     66  F   UNL A   1      48.263  27.294  30.650  1.00  0.00    -0.206 F 
ATOM     67  C   UNL A   1      49.742  25.027  33.052  1.00  0.00     0.022 A 
BRANCH  64  68
ATOM     68  S   UNL A   1      48.771  23.557  35.213  1.00  0.00     0.124 S 
ATOM     69  O   UNL A   1      50.214  23.565  35.427  1.00  0.00    -0.237 OA
ATOM     70  O   UNL A   1      47.974  24.273  36.205  1.00  0.00    -0.237 OA
ATOM     71  O   UNL A   1      48.215  22.275  34.783  1.00  0.00    -0.744 OA
ENDBRANCH  64  68
ENDBRANCH  38  61
ENDBRANCH  12  13
ENDBRANCH   5   7
ENDBRANCH   2   3
ENDBRANCH   1   2
BRANCH   1  72
ATOM     72  C   UNL A   1      33.934  25.954  25.721  1.00  0.00     0.117 C 
BRANCH  72  73
ATOM     73  N   UNL A   1      34.280  25.454  24.411  1.00  0.00    -0.356 N 
ATOM     74  C   UNL A   1      34.304  24.197  23.896  1.00  0.00     0.223 C 
ATOM     75  H   UNL A   1      34.551  26.153  23.773  1.00  0.00     0.163 HD
ATOM     76  O   UNL A   1      34.662  24.139  22.713  1.00  0.00    -0.275 OA
BRANCH  74  77
ATOM     77  C   UNL A   1      34.046  22.909  24.723  1.00  0.00     0.091 C 
ATOM     78  C   UNL A   1      35.253  21.973  24.445  1.00  0.00     0.014 C 
ATOM     79  C   UNL A   1      32.664  22.200  24.601  1.00  0.00     0.091 C 
ATOM     80  C   UNL A   1      35.140  20.587  25.047  1.00  0.00     0.001 C 
ATOM     81  C   UNL A   1      32.654  20.694  24.965  1.00  0.00     0.014 C 
ATOM     82  C   UNL A   1      33.888  19.913  24.527  1.00  0.00     0.001 C 
BRANCH  79  83
ATOM     83  C   UNL A   1      32.002  22.356  23.241  1.00  0.00     0.230 C 
ATOM     84  O   UNL A   1      32.103  21.455  22.400  1.00  0.00    -0.274 OA
ATOM     85  N   UNL A   1      31.218  23.423  22.911  1.00  0.00    -0.302 N 
ATOM     86  H   UNL A   1      30.701  23.310  22.081  1.00  0.00     0.172 HD
BRANCH  85  87
ATOM     87  C   UNL A   1      31.029  24.626  23.541  1.00  0.00     0.189 A 
ATOM     88  N   UNL A   1      31.073  25.854  23.088  1.00  0.00    -0.220 NA
ATOM     89  S   UNL A   1      30.487  24.447  25.157  1.00  0.00    -0.105 S 
ATOM     90  C   UNL A   1      30.545  26.729  24.041  1.00  0.00     0.084 A 
ATOM     91  C   UNL A   1      30.139  26.129  25.217  1.00  0.00     0.097 A 
BRANCH  90  92
ATOM     92  C   UNL A   1      30.204  28.101  23.689  1.00  0.00     0.003 A 
ATOM     93  C   UNL A   1      30.739  29.118  24.471  1.00  0.00     0.012 A 
ATOM     94  C   UNL A   1      29.313  28.456  22.685  1.00  0.00     0.032 A 
ATOM     95  C   UNL A   1      30.334  30.447  24.363  1.00  0.00     0.023 A 
ATOM     96  C   UNL A   1      28.929  29.805  22.528  1.00  0.00     0.060 A 
ATOM     97  C   UNL A   1      29.407  30.795  23.396  1.00  0.00     0.059 A 
ATOM     98  Cl  UNL A   1      27.847  30.180  21.242  1.00  0.00    -0.083 Cl
ATOM     99  Cl  UNL A   1      28.890  32.439  23.360  1.00  0.00    -0.083 Cl
ENDBRANCH  90  92
ENDBRANCH  85  87
ENDBRANCH  79  83
ENDBRANCH  74  77
ENDBRANCH  72  73
ENDBRANCH   1  72
TORSDOF 16
ENDMDL
MODEL 3
REMARK VINA RESULT:     -12.3      2.771      3.482
REMARK SMILES O=C(NCCCNC(=O)[C@@H]1CCCC[C@@H]1C(=O)Nc1nc(-c2ccc(Cl)c(Cl)c2)cs1)c1ccc(-c2c3nc(c(-c4cc(S(=O)(=O)[O-])ccc4F)c4ccc([nH]4)c(-c4cc(S(=O)(=O)[O-])ccc4F)c4nc(c(-c5cc(S(=O)(=O)[O-])ccc5F)c5ccc2[nH]5)C=C4)C=C3)cc1
REMARK SMILES IDX 5 1 4 2 3 3 1 4 2 5 32 7 33 8 94 9 34 10 93 11 35 12 36 13
REMARK SMILES IDX 37 14 87 15 38 16 92 17 86 18 88 19 39 20 91 21 85 22 84 23
REMARK SMILES IDX 40 25 72 26 52 27 71 28 53 29 56 30 70 31 89 32 54 33 55 34
REMARK SMILES IDX 69 36 90 37 57 38 41 39 42 40 50 41 43 42 49 43 51 44 48 45
REMARK SMILES IDX 44 46 45 47 46 48 47 49 73 50 74 51 82 52 75 53 81 54 83 55
REMARK SMILES IDX 80 56 76 57 77 58 78 59 79 60 58 61 59 62 67 63 60 64 66 65
REMARK SMILES IDX 68 66 65 67 61 68 62 69 63 70 64 71 6 72 7 73 8 74 9 76
REMARK SMILES IDX 10 77 11 78 15 79 12 80 14 81 13 82 16 83 17 84 18 85 19 87
REMARK SMILES IDX 20 88 31 89 21 90 30 91 22 92 23 93 29 94 24 95 27 96 25 97
REMARK SMILES IDX 28 98 26 99
REMARK H PARENT 3 6 88 24 56 35 7 75 18 86
REMARK Flexibility Score: inf
ROOT
ATOM      1  C   UNL A   1      33.635  27.526  25.621  1.00  0.00     0.042 C 
ENDROOT
BRANCH   1   2
ATOM      2  C   UNL A   1      33.084  28.191  26.898  1.00  0.00     0.118 C 
BRANCH   2   3
ATOM      3  N   UNL A   1      33.286  29.634  27.084  1.00  0.00    -0.352 N 
ATOM      4  O   UNL A   1      34.134  31.674  27.388  1.00  0.00    -0.269 OA
ATOM      5  C   UNL A   1      34.337  30.459  27.457  1.00  0.00     0.251 C 
ATOM      6  H   UNL A   1      32.466  30.146  26.896  1.00  0.00     0.163 HD
BRANCH   5   7
ATOM      7  C   UNL A   1      35.635  29.992  28.044  1.00  0.00     0.039 A 
ATOM      8  C   UNL A   1      35.772  29.519  29.342  1.00  0.00     0.014 A 
ATOM      9  C   UNL A   1      36.802  30.071  27.253  1.00  0.00     0.014 A 
ATOM     10  C   UNL A   1      37.049  29.272  29.877  1.00  0.00     0.010 A 
ATOM     11  C   UNL A   1      38.076  29.736  27.766  1.00  0.00     0.010 A 
ATOM     12  C   UNL A   1      38.229  29.343  29.102  1.00  0.00    -0.014 A 
BRANCH  12  13
ATOM     13  C   UNL A   1      39.529  28.846  29.686  1.00  0.00     0.031 A 
ATOM     14  C   UNL A   1      40.186  29.417  30.931  1.00  0.00     0.074 A 
ATOM     15  C   UNL A   1      40.135  27.798  29.083  1.00  0.00     0.049 A 
ATOM     16  N   UNL A   1      41.254  28.985  31.567  1.00  0.00    -0.248 NA
ATOM     17  C   UNL A   1      39.586  30.609  31.541  1.00  0.00     0.031 C 
ATOM     18  C   UNL A   1      39.662  27.154  27.856  1.00  0.00     0.029 A 
ATOM     19  N   UNL A   1      41.254  27.071  29.420  1.00  0.00    -0.354 N 
ATOM     20  C   UNL A   1      41.447  29.837  32.653  1.00  0.00     0.074 A 
ATOM     21  C   UNL A   1      40.386  30.823  32.582  1.00  0.00     0.031 C 
ATOM     22  C   UNL A   1      40.428  26.090  27.590  1.00  0.00     0.029 A 
ATOM     23  C   UNL A   1      41.527  26.041  28.547  1.00  0.00     0.049 A 
ATOM     24  H   UNL A   1      41.807  27.269  30.209  1.00  0.00     0.167 HD
ATOM     25  C   UNL A   1      42.415  29.811  33.609  1.00  0.00     0.034 A 
ATOM     26  C   UNL A   1      42.558  25.176  28.465  1.00  0.00     0.034 A 
ATOM     27  C   UNL A   1      43.498  28.847  33.669  1.00  0.00     0.049 A 
ATOM     28  C   UNL A   1      43.667  25.234  29.480  1.00  0.00     0.074 A 
ATOM     29  C   UNL A   1      44.471  28.713  34.650  1.00  0.00     0.029 A 
ATOM     30  N   UNL A   1      43.791  27.893  32.705  1.00  0.00    -0.354 N 
ATOM     31  N   UNL A   1      43.778  26.005  30.533  1.00  0.00    -0.248 NA
ATOM     32  C   UNL A   1      44.794  24.312  29.286  1.00  0.00     0.031 C 
ATOM     33  C   UNL A   1      45.408  27.763  34.226  1.00  0.00     0.029 A 
ATOM     34  C   UNL A   1      44.967  27.225  33.030  1.00  0.00     0.049 A 
ATOM     35  H   UNL A   1      43.244  27.714  31.906  1.00  0.00     0.167 HD
ATOM     36  C   UNL A   1      44.986  25.654  31.130  1.00  0.00     0.074 A 
ATOM     37  C   UNL A   1      45.549  24.582  30.340  1.00  0.00     0.031 C 
ATOM     38  C   UNL A   1      45.570  26.181  32.235  1.00  0.00     0.034 A 
BRANCH  25  39
ATOM     39  C   UNL A   1      42.422  30.898  34.666  1.00  0.00     0.023 A 
ATOM     40  C   UNL A   1      43.003  32.161  34.452  1.00  0.00     0.031 A 
ATOM     41  C   UNL A   1      41.731  30.690  35.878  1.00  0.00     0.131 A 
ATOM     42  C   UNL A   1      42.894  33.158  35.440  1.00  0.00     0.055 A 
ATOM     43  C   UNL A   1      41.578  31.701  36.828  1.00  0.00     0.041 A 
ATOM     44  F   UNL A   1      41.165  29.502  36.144  1.00  0.00    -0.206 F 
ATOM     45  C   UNL A   1      42.164  32.943  36.614  1.00  0.00     0.022 A 
BRANCH  42  46
ATOM     46  S   UNL A   1      43.776  34.728  35.216  1.00  0.00     0.124 S 
ATOM     47  O   UNL A   1      43.879  35.214  36.588  1.00  0.00    -0.237 OA
ATOM     48  O   UNL A   1      45.024  34.303  34.591  1.00  0.00    -0.237 OA
ATOM     49  O   UNL A   1      42.884  35.505  34.356  1.00  0.00    -0.744 OA
ENDBRANCH  42  46
ENDBRANCH  25  39
BRANCH  26  50
ATOM     50  C   UNL A   1      42.645  24.238  27.307  1.00  0.00     0.023 A 
ATOM     51  C   UNL A   1      42.002  22.991  27.321  1.00  0.00     0.031 A 
ATOM     52  C   UNL A   1      43.421  24.568  26.179  1.00  0.00     0.131 A 
ATOM     53  C   UNL A   1      42.183  22.105  26.248  1.00  0.00     0.055 A 
ATOM     54  C   UNL A   1      43.531  23.718  25.082  1.00  0.00     0.041 A 
ATOM     55  F   UNL A   1      44.069  25.743  26.119  1.00  0.00    -0.206 F 
ATOM     56  C   UNL A   1      42.921  22.470  25.119  1.00  0.00     0.022 A 
BRANCH  53  57
ATOM     57  S   UNL A   1      41.537  20.418  26.401  1.00  0.00     0.124 S 
ATOM     58  O   UNL A   1      41.885  20.092  27.777  1.00  0.00    -0.237 OA
ATOM     59  O   UNL A   1      40.120  20.610  26.122  1.00  0.00    -0.237 OA
ATOM     60  O   UNL A   1      42.278  19.679  25.376  1.00  0.00    -0.744 OA
ENDBRANCH  53  57
ENDBRANCH  26  50
BRANCH  38  61
ATOM     61  C   UNL A   1      46.892  25.587  32.668  1.00  0.00     0.023 A 
ATOM     62  C   UNL A   1      46.962  24.562  33.629  1.00  0.00     0.031 A 
ATOM     63  C   UNL A   1      48.100  26.071  32.135  1.00  0.00     0.131 A 
ATOM     64  C   UNL A   1      48.212  24.091  34.064  1.00  0.00     0.055 A 
ATOM     65  C   UNL A   1      49.339  25.557  32.527  1.00  0.00     0.041 A 
ATOM     66  F   UNL A   1      48.099  27.057  31.223  1.00  0.00    -0.206 F 
ATOM     67  C   UNL A   1      49.400  24.569  33.506  1.00  0.00     0.022 A 
BRANCH  64  68
ATOM     68  S   UNL A   1      48.272  22.903  35.437  1.00  0.00     0.124 S 
ATOM     69  O   UNL A   1      47.070  23.247  36.188  1.00  0.00    -0.237 OA
ATOM     70  O   UNL A   1      48.246  21.620  34.742  1.00  0.00    -0.237 OA
ATOM     71  O   UNL A   1      49.534  23.217  36.107  1.00  0.00    -0.744 OA
ENDBRANCH  64  68
ENDBRANCH  38  61
ENDBRANCH  12  13
ENDBRANCH   5   7
ENDBRANCH   2   3
ENDBRANCH   1   2
BRANCH   1  72
ATOM     72  C   UNL A   1      34.002  26.051  25.692  1.00  0.00     0.117 C 
BRANCH  72  73
ATOM     73  N   UNL A   1      34.396  25.500  24.417  1.00  0.00    -0.356 N 
ATOM     74  C   UNL A   1      34.347  24.236  23.919  1.00  0.00     0.223 C 
ATOM     75  H   UNL A   1      34.770  26.162  23.792  1.00  0.00     0.163 HD
ATOM     76  O   UNL A   1      34.782  24.127  22.766  1.00  0.00    -0.275 OA
BRANCH  74  77
ATOM     77  C   UNL A   1      33.921  22.991  24.741  1.00  0.00     0.091 C 
ATOM     78  C   UNL A   1      35.057  21.948  24.558  1.00  0.00     0.014 C 
ATOM     79  C   UNL A   1      32.493  22.402  24.531  1.00  0.00     0.091 C 
ATOM     80  C   UNL A   1      34.781  20.587  25.167  1.00  0.00     0.001 C 
ATOM     81  C   UNL A   1      32.326  20.910  24.910  1.00  0.00     0.014 C 
ATOM     82  C   UNL A   1      33.514  20.017  24.567  1.00  0.00     0.001 C 
BRANCH  79  83
ATOM     83  C   UNL A   1      31.942  22.592  23.125  1.00  0.00     0.230 C 
ATOM     84  O   UNL A   1      32.081  21.696  22.284  1.00  0.00    -0.274 OA
ATOM     85  N   UNL A   1      31.219  23.686  22.750  1.00  0.00    -0.302 N 
ATOM     86  H   UNL A   1      30.763  23.597  21.881  1.00  0.00     0.172 HD
BRANCH  85  87
ATOM     87  C   UNL A   1      31.019  24.887  23.377  1.00  0.00     0.189 A 
ATOM     88  N   UNL A   1      31.065  26.116  22.926  1.00  0.00    -0.220 NA
ATOM     89  S   UNL A   1      30.456  24.707  24.986  1.00  0.00    -0.105 S 
ATOM     90  C   UNL A   1      30.521  26.989  23.872  1.00  0.00     0.084 A 
ATOM     91  C   UNL A   1      30.102  26.387  25.043  1.00  0.00     0.097 A 
BRANCH  90  92
ATOM     92  C   UNL A   1      30.182  28.360  23.517  1.00  0.00     0.003 A 
ATOM     93  C   UNL A   1      30.608  29.371  24.370  1.00  0.00     0.012 A 
ATOM     94  C   UNL A   1      29.386  28.717  22.436  1.00  0.00     0.032 A 
ATOM     95  C   UNL A   1      30.182  30.692  24.249  1.00  0.00     0.023 A 
ATOM     96  C   UNL A   1      28.985  30.059  22.269  1.00  0.00     0.060 A 
ATOM     97  C   UNL A   1      29.347  31.040  23.201  1.00  0.00     0.059 A 
ATOM     98  Cl  UNL A   1      28.028  30.438  20.889  1.00  0.00    -0.083 Cl
ATOM     99  Cl  UNL A   1      28.793  32.672  23.149  1.00  0.00    -0.083 Cl
ENDBRANCH  90  92
ENDBRANCH  85  87
ENDBRANCH  79  83
ENDBRANCH  74  77
ENDBRANCH  72  73
ENDBRANCH   1  72
TORSDOF 16
ENDMDL
