MODEL 1
REMARK VINA RESULT:     -11.9      0.000      0.000
REMARK SMILES O=C(C[C@H]1C[N@@H+](Cc2c(F)cccc2F)CCO1)NCCCNC(=O)c1ccc(-c2c3nc(c(-c4cc(S(=O)(=O)[O-])ccc4F)c4ccc([nH]4)c(-c4cc(S(=O)(=O)[O-])ccc4F)c4nc(c(-c5cc(S(=O)(=O)[O-])ccc5F)c5ccc2[nH]5)C=C4)C=C3)cc1
REMARK SMILES IDX 21 1 20 2 19 3 1 4 2 5 3 7 4 8 5 9 18 10 6 11 17 12 16 13
REMARK SMILES IDX 7 15 8 16 9 17 14 18 10 19 11 20 13 21 15 22 12 23 22 24
REMARK SMILES IDX 23 25 24 26 25 28 26 29 27 30 88 31 28 32 87 33 29 34 30 35
REMARK SMILES IDX 31 36 81 37 32 38 86 39 80 40 82 41 33 42 85 43 79 44 78 45
REMARK SMILES IDX 34 47 66 48 46 49 65 50 47 51 50 52 64 53 83 54 48 55 49 56
REMARK SMILES IDX 63 58 84 59 51 60 35 61 36 62 44 63 37 64 43 65 45 66 42 67
REMARK SMILES IDX 38 68 39 69 40 70 41 71 67 72 68 73 76 74 69 75 75 76 77 77
REMARK SMILES IDX 74 78 70 79 71 80 72 81 73 82 52 83 53 84 61 85 54 86 60 87
REMARK SMILES IDX 62 88 59 89 55 90 56 91 57 92 58 93
REMARK H PARENT 19 6 6 14 23 27 82 46 50 57
REMARK Flexibility Score: inf
ROOT
ATOM      1  C   UNL A   1      35.396  20.984  25.190  1.00  0.00     0.042 C 
ENDROOT
BRANCH   1   2
ATOM      2  C   UNL A   1      34.405  21.115  26.379  1.00  0.00     0.117 C 
BRANCH   2   3
ATOM      3  N   UNL A   1      32.998  21.348  26.050  1.00  0.00    -0.356 N 
ATOM      4  O   UNL A   1      32.765  23.357  27.119  1.00  0.00    -0.275 OA
ATOM      5  C   UNL A   1      32.330  22.527  26.321  1.00  0.00     0.222 C 
ATOM      6  H   UNL A   1      32.499  20.622  25.610  1.00  0.00     0.163 HD
BRANCH   5   7
ATOM      7  C   UNL A   1      31.075  22.840  25.482  1.00  0.00     0.138 C 
BRANCH   7   8
ATOM      8  C   UNL A   1      31.361  23.194  23.993  1.00  0.00     0.182 C 
ATOM      9  C   UNL A   1      30.945  24.620  23.590  1.00  0.00     0.295 C 
ATOM     10  O   UNL A   1      32.751  22.938  23.648  1.00  0.00    -0.366 OA
ATOM     11  N   UNL A   1      32.065  25.550  23.414  1.00  0.00    -0.327 N 
ATOM     12  C   UNL A   1      33.204  23.574  22.422  1.00  0.00     0.222 C 
ATOM     13  C   UNL A   1      32.840  25.068  22.285  1.00  0.00     0.291 C 
ATOM     14  H   UNL A   1      31.669  26.472  23.230  1.00  0.00     0.348 HD
BRANCH  11  15
ATOM     15  C   UNL A   1      32.875  25.883  24.604  1.00  0.00     0.305 C 
BRANCH  15  16
ATOM     16  C   UNL A   1      32.673  27.130  25.450  1.00  0.00     0.078 A 
ATOM     17  C   UNL A   1      31.825  27.078  26.554  1.00  0.00     0.135 A 
ATOM     18  C   UNL A   1      33.336  28.353  25.274  1.00  0.00     0.135 A 
ATOM     19  F   UNL A   1      31.265  25.913  26.902  1.00  0.00    -0.206 F 
ATOM     20  C   UNL A   1      31.550  28.199  27.343  1.00  0.00     0.040 A 
ATOM     21  C   UNL A   1      33.040  29.500  26.011  1.00  0.00     0.040 A 
ATOM     22  F   UNL A   1      34.369  28.472  24.442  1.00  0.00    -0.206 F 
ATOM     23  C   UNL A   1      32.126  29.429  27.046  1.00  0.00     0.006 A 
ENDBRANCH  15  16
ENDBRANCH  11  15
ENDBRANCH   7   8
ENDBRANCH   5   7
ENDBRANCH   2   3
ENDBRANCH   1   2
BRANCH   1  24
ATOM     24  C   UNL A   1      36.827  21.580  25.213  1.00  0.00     0.118 C 
BRANCH  24  25
ATOM     25  N   UNL A   1      37.928  20.638  25.348  1.00  0.00    -0.352 N 
ATOM     26  C   UNL A   1      39.179  20.804  25.922  1.00  0.00     0.251 C 
ATOM     27  H   UNL A   1      37.757  19.744  24.973  1.00  0.00     0.163 HD
ATOM     28  O   UNL A   1      39.971  19.872  25.916  1.00  0.00    -0.269 OA
BRANCH  26  29
ATOM     29  C   UNL A   1      39.601  22.107  26.504  1.00  0.00     0.039 A 
ATOM     30  C   UNL A   1      40.573  22.103  27.512  1.00  0.00     0.014 A 
ATOM     31  C   UNL A   1      39.027  23.319  26.113  1.00  0.00     0.014 A 
ATOM     32  C   UNL A   1      41.053  23.311  28.040  1.00  0.00     0.010 A 
ATOM     33  C   UNL A   1      39.527  24.530  26.623  1.00  0.00     0.010 A 
ATOM     34  C   UNL A   1      40.579  24.542  27.557  1.00  0.00    -0.014 A 
BRANCH  34  35
ATOM     35  C   UNL A   1      41.261  25.824  27.920  1.00  0.00     0.031 A 
ATOM     36  C   UNL A   1      40.543  26.937  28.635  1.00  0.00     0.074 A 
ATOM     37  C   UNL A   1      42.543  26.012  27.535  1.00  0.00     0.049 A 
ATOM     38  N   UNL A   1      40.973  28.139  28.940  1.00  0.00    -0.248 NA
ATOM     39  C   UNL A   1      39.162  26.670  29.053  1.00  0.00     0.031 C 
ATOM     40  C   UNL A   1      43.358  25.024  26.823  1.00  0.00     0.029 A 
ATOM     41  N   UNL A   1      43.383  27.092  27.670  1.00  0.00    -0.354 N 
ATOM     42  C   UNL A   1      39.916  28.777  29.582  1.00  0.00     0.074 A 
ATOM     43  C   UNL A   1      38.811  27.836  29.582  1.00  0.00     0.031 C 
ATOM     44  C   UNL A   1      44.577  25.537  26.599  1.00  0.00     0.029 A 
ATOM     45  C   UNL A   1      44.620  26.909  27.094  1.00  0.00     0.049 A 
ATOM     46  H   UNL A   1      43.124  27.920  28.137  1.00  0.00     0.167 HD
ATOM     47  C   UNL A   1      39.873  30.021  30.126  1.00  0.00     0.034 A 
ATOM     48  C   UNL A   1      45.666  27.749  26.947  1.00  0.00     0.034 A 
ATOM     49  C   UNL A   1      40.977  30.957  30.113  1.00  0.00     0.049 A 
ATOM     50  C   UNL A   1      45.566  29.152  27.493  1.00  0.00     0.074 A 
ATOM     51  C   UNL A   1      41.044  32.219  30.681  1.00  0.00     0.029 A 
ATOM     52  N   UNL A   1      42.199  30.747  29.486  1.00  0.00    -0.354 N 
ATOM     53  N   UNL A   1      44.572  29.720  28.135  1.00  0.00    -0.248 NA
ATOM     54  C   UNL A   1      46.731  30.024  27.299  1.00  0.00     0.031 C 
ATOM     55  C   UNL A   1      42.264  32.803  30.326  1.00  0.00     0.029 A 
ATOM     56  C   UNL A   1      43.003  31.874  29.613  1.00  0.00     0.049 A 
ATOM     57  H   UNL A   1      42.459  29.921  29.020  1.00  0.00     0.167 HD
ATOM     58  C   UNL A   1      45.006  31.007  28.443  1.00  0.00     0.074 A 
ATOM     59  C   UNL A   1      46.357  31.122  27.937  1.00  0.00     0.031 C 
ATOM     60  C   UNL A   1      44.344  32.001  29.089  1.00  0.00     0.034 A 
BRANCH  47  61
ATOM     61  C   UNL A   1      38.571  30.467  30.756  1.00  0.00     0.023 A 
ATOM     62  C   UNL A   1      37.553  31.073  30.000  1.00  0.00     0.031 A 
ATOM     63  C   UNL A   1      38.344  30.284  32.133  1.00  0.00     0.131 A 
ATOM     64  C   UNL A   1      36.389  31.536  30.635  1.00  0.00     0.055 A 
ATOM     65  C   UNL A   1      37.149  30.672  32.743  1.00  0.00     0.041 A 
ATOM     66  F   UNL A   1      39.284  29.726  32.913  1.00  0.00    -0.206 F 
ATOM     67  C   UNL A   1      36.169  31.316  31.996  1.00  0.00     0.022 A 
BRANCH  64  68
ATOM     68  S   UNL A   1      35.234  32.560  29.683  1.00  0.00     0.124 S 
ATOM     69  O   UNL A   1      36.114  33.615  29.186  1.00  0.00    -0.237 OA
ATOM     70  O   UNL A   1      34.732  31.624  28.683  1.00  0.00    -0.237 OA
ATOM     71  O   UNL A   1      34.256  32.993  30.680  1.00  0.00    -0.744 OA
ENDBRANCH  64  68
ENDBRANCH  47  61
BRANCH  48  72
ATOM     72  C   UNL A   1      46.893  27.311  26.217  1.00  0.00     0.023 A 
ATOM     73  C   UNL A   1      47.131  27.711  24.893  1.00  0.00     0.031 A 
ATOM     74  C   UNL A   1      47.819  26.437  26.816  1.00  0.00     0.131 A 
ATOM     75  C   UNL A   1      48.237  27.201  24.195  1.00  0.00     0.055 A 
ATOM     76  C   UNL A   1      48.952  25.984  26.139  1.00  0.00     0.041 A 
ATOM     77  F   UNL A   1      47.640  26.018  28.080  1.00  0.00    -0.206 F 
ATOM     78  C   UNL A   1      49.158  26.354  24.814  1.00  0.00     0.022 A 
BRANCH  75  79
ATOM     79  S   UNL A   1      48.401  27.583  22.430  1.00  0.00     0.124 S 
ATOM     80  O   UNL A   1      49.663  28.314  22.401  1.00  0.00    -0.237 OA
ATOM     81  O   UNL A   1      48.415  26.252  21.831  1.00  0.00    -0.237 OA
ATOM     82  O   UNL A   1      47.211  28.381  22.143  1.00  0.00    -0.744 OA
ENDBRANCH  75  79
ENDBRANCH  48  72
BRANCH  60  83
ATOM     83  C   UNL A   1      45.093  33.295  29.314  1.00  0.00     0.023 A 
ATOM     84  C   UNL A   1      45.022  34.362  28.400  1.00  0.00     0.031 A 
ATOM     85  C   UNL A   1      45.906  33.457  30.451  1.00  0.00     0.131 A 
ATOM     86  C   UNL A   1      45.792  35.517  28.608  1.00  0.00     0.055 A 
ATOM     87  C   UNL A   1      46.618  34.635  30.686  1.00  0.00     0.041 A 
ATOM     88  F   UNL A   1      46.021  32.473  31.355  1.00  0.00    -0.206 F 
ATOM     89  C   UNL A   1      46.575  35.669  29.755  1.00  0.00     0.022 A 
BRANCH  86  90
ATOM     90  S   UNL A   1      45.838  36.782  27.307  1.00  0.00     0.124 S 
ATOM     91  O   UNL A   1      46.447  37.910  28.003  1.00  0.00    -0.237 OA
ATOM     92  O   UNL A   1      46.659  36.146  26.282  1.00  0.00    -0.237 OA
ATOM     93  O   UNL A   1      44.431  36.958  26.950  1.00  0.00    -0.744 OA
ENDBRANCH  86  90
ENDBRANCH  60  83
ENDBRANCH  34  35
ENDBRANCH  26  29
ENDBRANCH  24  25
ENDBRANCH   1  24
TORSDOF 16
ENDMDL
MODEL 2
REMARK VINA RESULT:     -11.8      1.879      2.577
REMARK SMILES O=C(C[C@H]1C[N@@H+](Cc2c(F)cccc2F)CCO1)NCCCNC(=O)c1ccc(-c2c3nc(c(-c4cc(S(=O)(=O)[O-])ccc4F)c4ccc([nH]4)c(-c4cc(S(=O)(=O)[O-])ccc4F)c4nc(c(-c5cc(S(=O)(=O)[O-])ccc5F)c5ccc2[nH]5)C=C4)C=C3)cc1
REMARK SMILES IDX 21 1 20 2 19 3 1 4 2 5 3 7 4 8 5 9 18 10 6 11 17 12 16 13
REMARK SMILES IDX 7 15 8 16 9 17 14 18 10 19 11 20 13 21 15 22 12 23 22 24
REMARK SMILES IDX 23 25 24 26 25 28 26 29 27 30 88 31 28 32 87 33 29 34 30 35
REMARK SMILES IDX 31 36 81 37 32 38 86 39 80 40 82 41 33 42 85 43 79 44 78 45
REMARK SMILES IDX 34 47 66 48 46 49 65 50 47 51 50 52 64 53 83 54 48 55 49 56
REMARK SMILES IDX 63 58 84 59 51 60 35 61 36 62 44 63 37 64 43 65 45 66 42 67
REMARK SMILES IDX 38 68 39 69 40 70 41 71 67 72 68 73 76 74 69 75 75 76 77 77
REMARK SMILES IDX 74 78 70 79 71 80 72 81 73 82 52 83 53 84 61 85 54 86 60 87
REMARK SMILES IDX 62 88 59 89 55 90 56 91 57 92 58 93
REMARK H PARENT 19 6 6 14 23 27 82 46 50 57
REMARK Flexibility Score: inf
ROOT
ATOM      1  C   UNL A   1      35.328  22.258  23.945  1.00  0.00     0.042 C 
ENDROOT
BRANCH   1   2
ATOM      2  C   UNL A   1      33.900  22.860  24.044  1.00  0.00     0.117 C 
BRANCH   2   3
ATOM      3  N   UNL A   1      33.778  24.311  23.899  1.00  0.00    -0.356 N 
ATOM      4  O   UNL A   1      33.468  24.365  21.632  1.00  0.00    -0.275 OA
ATOM      5  C   UNL A   1      33.420  24.938  22.720  1.00  0.00     0.222 C 
ATOM      6  H   UNL A   1      33.960  24.873  24.686  1.00  0.00     0.163 HD
BRANCH   5   7
ATOM      7  C   UNL A   1      32.822  26.356  22.823  1.00  0.00     0.138 C 
BRANCH   7   8
ATOM      8  C   UNL A   1      33.623  27.333  23.733  1.00  0.00     0.182 C 
ATOM      9  C   UNL A   1      33.396  28.822  23.417  1.00  0.00     0.295 C 
ATOM     10  O   UNL A   1      33.386  27.057  25.142  1.00  0.00    -0.366 OA
ATOM     11  N   UNL A   1      32.562  29.529  24.394  1.00  0.00    -0.327 N 
ATOM     12  C   UNL A   1      33.775  28.123  26.050  1.00  0.00     0.222 C 
ATOM     13  C   UNL A   1      33.294  29.534  25.648  1.00  0.00     0.291 C 
ATOM     14  H   UNL A   1      32.415  30.475  24.042  1.00  0.00     0.348 HD
BRANCH  11  15
ATOM     15  C   UNL A   1      31.150  29.111  24.522  1.00  0.00     0.305 C 
BRANCH  15  16
ATOM     16  C   UNL A   1      30.007  29.724  23.729  1.00  0.00     0.078 A 
ATOM     17  C   UNL A   1      29.548  30.997  24.060  1.00  0.00     0.135 A 
ATOM     18  C   UNL A   1      29.394  29.151  22.605  1.00  0.00     0.135 A 
ATOM     19  F   UNL A   1      30.172  31.695  25.017  1.00  0.00    -0.206 F 
ATOM     20  C   UNL A   1      28.466  31.598  23.409  1.00  0.00     0.040 A 
ATOM     21  C   UNL A   1      28.279  29.704  21.974  1.00  0.00     0.040 A 
ATOM     22  F   UNL A   1      29.902  28.075  22.007  1.00  0.00    -0.206 F 
ATOM     23  C   UNL A   1      27.798  30.932  22.389  1.00  0.00     0.006 A 
ENDBRANCH  15  16
ENDBRANCH  11  15
ENDBRANCH   7   8
ENDBRANCH   5   7
ENDBRANCH   2   3
ENDBRANCH   1   2
BRANCH   1  24
ATOM     24  C   UNL A   1      36.410  22.465  25.035  1.00  0.00     0.118 C 
BRANCH  24  25
ATOM     25  N   UNL A   1      37.426  21.430  25.156  1.00  0.00    -0.352 N 
ATOM     26  C   UNL A   1      38.663  21.462  25.781  1.00  0.00     0.251 C 
ATOM     27  H   UNL A   1      37.199  20.574  24.727  1.00  0.00     0.163 HD
ATOM     28  O   UNL A   1      39.378  20.471  25.751  1.00  0.00    -0.269 OA
BRANCH  26  29
ATOM     29  C   UNL A   1      39.166  22.695  26.448  1.00  0.00     0.039 A 
ATOM     30  C   UNL A   1      40.294  22.593  27.271  1.00  0.00     0.014 A 
ATOM     31  C   UNL A   1      38.522  23.928  26.318  1.00  0.00     0.014 A 
ATOM     32  C   UNL A   1      40.845  23.740  27.864  1.00  0.00     0.010 A 
ATOM     33  C   UNL A   1      39.090  25.079  26.890  1.00  0.00     0.010 A 
ATOM     34  C   UNL A   1      40.284  25.007  27.630  1.00  0.00    -0.014 A 
BRANCH  34  35
ATOM     35  C   UNL A   1      41.007  26.253  28.037  1.00  0.00     0.031 A 
ATOM     36  C   UNL A   1      40.306  27.395  28.723  1.00  0.00     0.074 A 
ATOM     37  C   UNL A   1      42.314  26.382  27.719  1.00  0.00     0.049 A 
ATOM     38  N   UNL A   1      40.775  28.573  29.058  1.00  0.00    -0.248 NA
ATOM     39  C   UNL A   1      38.893  27.191  29.068  1.00  0.00     0.031 C 
ATOM     40  C   UNL A   1      43.117  25.361  27.042  1.00  0.00     0.029 A 
ATOM     41  N   UNL A   1      43.196  27.420  27.906  1.00  0.00    -0.354 N 
ATOM     42  C   UNL A   1      39.717  29.258  29.650  1.00  0.00     0.074 A 
ATOM     43  C   UNL A   1      38.571  28.370  29.587  1.00  0.00     0.031 C 
ATOM     44  C   UNL A   1      44.368  25.817  26.885  1.00  0.00     0.029 A 
ATOM     45  C   UNL A   1      44.451  27.182  27.391  1.00  0.00     0.049 A 
ATOM     46  H   UNL A   1      42.952  28.257  28.365  1.00  0.00     0.167 HD
ATOM     47  C   UNL A   1      39.705  30.499  30.201  1.00  0.00     0.034 A 
ATOM     48  C   UNL A   1      45.541  27.974  27.305  1.00  0.00     0.034 A 
ATOM     49  C   UNL A   1      40.851  31.382  30.251  1.00  0.00     0.049 A 
ATOM     50  C   UNL A   1      45.479  29.376  27.855  1.00  0.00     0.074 A 
ATOM     51  C   UNL A   1      40.948  32.637  30.832  1.00  0.00     0.029 A 
ATOM     52  N   UNL A   1      42.093  31.119  29.687  1.00  0.00    -0.354 N 
ATOM     53  N   UNL A   1      44.480  29.987  28.450  1.00  0.00    -0.248 NA
ATOM     54  C   UNL A   1      46.692  30.194  27.727  1.00  0.00     0.031 C 
ATOM     55  C   UNL A   1      42.210  33.165  30.544  1.00  0.00     0.029 A 
ATOM     56  C   UNL A   1      42.941  32.206  29.863  1.00  0.00     0.049 A 
ATOM     57  H   UNL A   1      42.337  30.283  29.227  1.00  0.00     0.167 HD
ATOM     58  C   UNL A   1      44.958  31.251  28.789  1.00  0.00     0.074 A 
ATOM     59  C   UNL A   1      46.337  31.305  28.354  1.00  0.00     0.031 C 
ATOM     60  C   UNL A   1      44.311  32.271  29.408  1.00  0.00     0.034 A 
BRANCH  47  61
ATOM     61  C   UNL A   1      38.395  31.002  30.768  1.00  0.00     0.023 A 
ATOM     62  C   UNL A   1      37.392  31.543  29.944  1.00  0.00     0.031 A 
ATOM     63  C   UNL A   1      38.143  30.942  32.151  1.00  0.00     0.131 A 
ATOM     64  C   UNL A   1      36.220  32.064  30.516  1.00  0.00     0.055 A 
ATOM     65  C   UNL A   1      36.940  31.386  32.704  1.00  0.00     0.041 A 
ATOM     66  F   UNL A   1      39.068  30.452  32.993  1.00  0.00    -0.206 F 
ATOM     67  C   UNL A   1      35.976  31.965  31.887  1.00  0.00     0.022 A 
BRANCH  64  68
ATOM     68  S   UNL A   1      35.086  33.004  29.458  1.00  0.00     0.124 S 
ATOM     69  O   UNL A   1      34.581  31.964  28.566  1.00  0.00    -0.237 OA
ATOM     70  O   UNL A   1      34.129  33.541  30.420  1.00  0.00    -0.237 OA
ATOM     71  O   UNL A   1      35.953  33.995  28.821  1.00  0.00    -0.744 OA
ENDBRANCH  64  68
ENDBRANCH  47  61
BRANCH  48  72
ATOM     72  C   UNL A   1      46.781  27.481  26.635  1.00  0.00     0.023 A 
ATOM     73  C   UNL A   1      47.044  27.777  25.288  1.00  0.00     0.031 A 
ATOM     74  C   UNL A   1      47.697  26.660  27.318  1.00  0.00     0.131 A 
ATOM     75  C   UNL A   1      48.164  27.216  24.654  1.00  0.00     0.055 A 
ATOM     76  C   UNL A   1      48.843  26.157  26.701  1.00  0.00     0.041 A 
ATOM     77  F   UNL A   1      47.494  26.341  28.607  1.00  0.00    -0.206 F 
ATOM     78  C   UNL A   1      49.073  26.422  25.354  1.00  0.00     0.022 A 
BRANCH  75  79
ATOM     79  S   UNL A   1      48.362  27.458  22.867  1.00  0.00     0.124 S 
ATOM     80  O   UNL A   1      47.153  28.203  22.534  1.00  0.00    -0.237 OA
ATOM     81  O   UNL A   1      49.615  28.202  22.798  1.00  0.00    -0.237 OA
ATOM     82  O   UNL A   1      48.419  26.094  22.344  1.00  0.00    -0.744 OA
ENDBRANCH  75  79
ENDBRANCH  48  72
BRANCH  60  83
ATOM     83  C   UNL A   1      45.107  33.528  29.681  1.00  0.00     0.023 A 
ATOM     84  C   UNL A   1      45.138  34.599  28.771  1.00  0.00     0.031 A 
ATOM     85  C   UNL A   1      45.863  33.647  30.862  1.00  0.00     0.131 A 
ATOM     86  C   UNL A   1      45.949  35.716  29.026  1.00  0.00     0.055 A 
ATOM     87  C   UNL A   1      46.617  34.789  31.143  1.00  0.00     0.041 A 
ATOM     88  F   UNL A   1      45.881  32.656  31.766  1.00  0.00    -0.206 F 
ATOM     89  C   UNL A   1      46.674  35.827  30.216  1.00  0.00     0.022 A 
BRANCH  86  90
ATOM     90  S   UNL A   1      46.127  36.980  27.737  1.00  0.00     0.124 S 
ATOM     91  O   UNL A   1      44.779  37.532  27.665  1.00  0.00    -0.237 OA
ATOM     92  O   UNL A   1      47.146  37.860  28.301  1.00  0.00    -0.237 OA
ATOM     93  O   UNL A   1      46.549  36.218  26.564  1.00  0.00    -0.744 OA
ENDBRANCH  86  90
ENDBRANCH  60  83
ENDBRANCH  34  35
ENDBRANCH  26  29
ENDBRANCH  24  25
ENDBRANCH   1  24
TORSDOF 16
ENDMDL
MODEL 3
REMARK VINA RESULT:     -11.8      1.578      1.947
REMARK SMILES O=C(C[C@H]1C[N@@H+](Cc2c(F)cccc2F)CCO1)NCCCNC(=O)c1ccc(-c2c3nc(c(-c4cc(S(=O)(=O)[O-])ccc4F)c4ccc([nH]4)c(-c4cc(S(=O)(=O)[O-])ccc4F)c4nc(c(-c5cc(S(=O)(=O)[O-])ccc5F)c5ccc2[nH]5)C=C4)C=C3)cc1
REMARK SMILES IDX 21 1 20 2 19 3 1 4 2 5 3 7 4 8 5 9 18 10 6 11 17 12 16 13
REMARK SMILES IDX 7 15 8 16 9 17 14 18 10 19 11 20 13 21 15 22 12 23 22 24
REMARK SMILES IDX 23 25 24 26 25 28 26 29 27 30 88 31 28 32 87 33 29 34 30 35
REMARK SMILES IDX 31 36 81 37 32 38 86 39 80 40 82 41 33 42 85 43 79 44 78 45
REMARK SMILES IDX 34 47 66 48 46 49 65 50 47 51 50 52 64 53 83 54 48 55 49 56
REMARK SMILES IDX 63 58 84 59 51 60 35 61 36 62 44 63 37 64 43 65 45 66 42 67
REMARK SMILES IDX 38 68 39 69 40 70 41 71 67 72 68 73 76 74 69 75 75 76 77 77
REMARK SMILES IDX 74 78 70 79 71 80 72 81 73 82 52 83 53 84 61 85 54 86 60 87
REMARK SMILES IDX 62 88 59 89 55 90 56 91 57 92 58 93
REMARK H PARENT 19 6 6 14 23 27 82 46 50 57
REMARK Flexibility Score: inf
ROOT
ATOM      1  C   UNL A   1      35.888  20.664  25.220  1.00  0.00     0.042 C 
ENDROOT
BRANCH   1   2
ATOM      2  C   UNL A   1      34.918  21.540  26.058  1.00  0.00     0.117 C 
BRANCH   2   3
ATOM      3  N   UNL A   1      33.863  22.247  25.331  1.00  0.00    -0.356 N 
ATOM      4  O   UNL A   1      32.317  20.560  25.319  1.00  0.00    -0.275 OA
ATOM      5  C   UNL A   1      32.586  21.749  25.150  1.00  0.00     0.222 C 
ATOM      6  H   UNL A   1      34.075  23.130  24.949  1.00  0.00     0.163 HD
BRANCH   5   7
ATOM      7  C   UNL A   1      31.463  22.765  24.859  1.00  0.00     0.138 C 
BRANCH   7   8
ATOM      8  C   UNL A   1      31.664  23.601  23.561  1.00  0.00     0.182 C 
ATOM      9  C   UNL A   1      30.452  24.465  23.170  1.00  0.00     0.295 C 
ATOM     10  O   UNL A   1      32.876  24.404  23.633  1.00  0.00    -0.366 OA
ATOM     11  N   UNL A   1      30.625  25.899  23.418  1.00  0.00    -0.327 N 
ATOM     12  C   UNL A   1      32.956  25.479  22.660  1.00  0.00     0.222 C 
ATOM     13  C   UNL A   1      31.689  26.354  22.542  1.00  0.00     0.291 C 
ATOM     14  H   UNL A   1      29.739  26.355  23.200  1.00  0.00     0.348 HD
BRANCH  11  15
ATOM     15  C   UNL A   1      30.769  26.341  24.821  1.00  0.00     0.305 C 
BRANCH  15  16
ATOM     16  C   UNL A   1      31.809  27.343  25.295  1.00  0.00     0.078 A 
ATOM     17  C   UNL A   1      31.585  28.705  25.106  1.00  0.00     0.135 A 
ATOM     18  C   UNL A   1      32.981  27.032  26.000  1.00  0.00     0.135 A 
ATOM     19  F   UNL A   1      30.423  29.116  24.583  1.00  0.00    -0.206 F 
ATOM     20  C   UNL A   1      32.522  29.678  25.467  1.00  0.00     0.040 A 
ATOM     21  C   UNL A   1      33.957  27.977  26.322  1.00  0.00     0.040 A 
ATOM     22  F   UNL A   1      33.194  25.814  26.493  1.00  0.00    -0.206 F 
ATOM     23  C   UNL A   1      33.735  29.312  26.039  1.00  0.00     0.006 A 
ENDBRANCH  15  16
ENDBRANCH  11  15
ENDBRANCH   7   8
ENDBRANCH   5   7
ENDBRANCH   2   3
ENDBRANCH   1   2
BRANCH   1  24
ATOM     24  C   UNL A   1      37.352  21.074  24.919  1.00  0.00     0.118 C 
BRANCH  24  25
ATOM     25  N   UNL A   1      38.388  20.118  25.279  1.00  0.00    -0.352 N 
ATOM     26  C   UNL A   1      39.550  20.295  26.014  1.00  0.00     0.251 C 
ATOM     27  H   UNL A   1      38.241  19.203  24.948  1.00  0.00     0.163 HD
ATOM     28  O   UNL A   1      40.302  19.346  26.189  1.00  0.00    -0.269 OA
BRANCH  26  29
ATOM     29  C   UNL A   1      39.931  21.628  26.557  1.00  0.00     0.039 A 
ATOM     30  C   UNL A   1      40.872  21.681  27.592  1.00  0.00     0.014 A 
ATOM     31  C   UNL A   1      39.348  22.813  26.101  1.00  0.00     0.014 A 
ATOM     32  C   UNL A   1      41.314  22.917  28.087  1.00  0.00     0.010 A 
ATOM     33  C   UNL A   1      39.811  24.051  26.578  1.00  0.00     0.010 A 
ATOM     34  C   UNL A   1      40.833  24.120  27.541  1.00  0.00    -0.014 A 
BRANCH  34  35
ATOM     35  C   UNL A   1      41.482  25.427  27.874  1.00  0.00     0.031 A 
ATOM     36  C   UNL A   1      40.743  26.527  28.589  1.00  0.00     0.074 A 
ATOM     37  C   UNL A   1      42.749  25.650  27.461  1.00  0.00     0.049 A 
ATOM     38  N   UNL A   1      41.140  27.745  28.869  1.00  0.00    -0.248 NA
ATOM     39  C   UNL A   1      39.378  26.222  29.038  1.00  0.00     0.031 C 
ATOM     40  C   UNL A   1      43.581  24.679  26.746  1.00  0.00     0.029 A 
ATOM     41  N   UNL A   1      43.557  26.758  27.566  1.00  0.00    -0.354 N 
ATOM     42  C   UNL A   1      40.076  28.359  29.523  1.00  0.00     0.074 A 
ATOM     43  C   UNL A   1      39.001  27.384  29.558  1.00  0.00     0.031 C 
ATOM     44  C   UNL A   1      44.778  25.227  26.491  1.00  0.00     0.029 A 
ATOM     45  C   UNL A   1      44.788  26.606  26.967  1.00  0.00     0.049 A 
ATOM     46  H   UNL A   1      43.281  27.583  28.026  1.00  0.00     0.167 HD
ATOM     47  C   UNL A   1      40.004  29.608  30.052  1.00  0.00     0.034 A 
ATOM     48  C   UNL A   1      45.803  27.477  26.789  1.00  0.00     0.034 A 
ATOM     49  C   UNL A   1      41.077  30.578  30.004  1.00  0.00     0.049 A 
ATOM     50  C   UNL A   1      45.669  28.883  27.318  1.00  0.00     0.074 A 
ATOM     51  C   UNL A   1      41.115  31.850  30.555  1.00  0.00     0.029 A 
ATOM     52  N   UNL A   1      42.293  30.399  29.357  1.00  0.00    -0.354 N 
ATOM     53  N   UNL A   1      44.670  29.428  27.972  1.00  0.00    -0.248 NA
ATOM     54  C   UNL A   1      46.802  29.789  27.089  1.00  0.00     0.031 C 
ATOM     55  C   UNL A   1      42.309  32.467  30.168  1.00  0.00     0.029 A 
ATOM     56  C   UNL A   1      43.063  31.552  29.453  1.00  0.00     0.049 A 
ATOM     57  H   UNL A   1      42.570  29.575  28.896  1.00  0.00     0.167 HD
ATOM     58  C   UNL A   1      45.069  30.733  28.254  1.00  0.00     0.074 A 
ATOM     59  C   UNL A   1      46.405  30.883  27.720  1.00  0.00     0.031 C 
ATOM     60  C   UNL A   1      44.388  31.713  28.900  1.00  0.00     0.034 A 
BRANCH  47  61
ATOM     61  C   UNL A   1      38.701  30.022  30.702  1.00  0.00     0.023 A 
ATOM     62  C   UNL A   1      37.694  30.689  29.983  1.00  0.00     0.031 A 
ATOM     63  C   UNL A   1      38.460  29.744  32.061  1.00  0.00     0.131 A 
ATOM     64  C   UNL A   1      36.530  31.118  30.640  1.00  0.00     0.055 A 
ATOM     65  C   UNL A   1      37.264  30.100  32.688  1.00  0.00     0.041 A 
ATOM     66  F   UNL A   1      39.389  29.124  32.807  1.00  0.00    -0.206 F 
ATOM     67  C   UNL A   1      36.297  30.806  31.981  1.00  0.00     0.022 A 
BRANCH  64  68
ATOM     68  S   UNL A   1      35.392  32.218  29.753  1.00  0.00     0.124 S 
ATOM     69  O   UNL A   1      34.406  32.520  30.788  1.00  0.00    -0.237 OA
ATOM     70  O   UNL A   1      36.263  33.321  29.359  1.00  0.00    -0.237 OA
ATOM     71  O   UNL A   1      34.898  31.389  28.655  1.00  0.00    -0.744 OA
ENDBRANCH  64  68
ENDBRANCH  47  61
BRANCH  48  72
ATOM     72  C   UNL A   1      47.029  27.067  26.041  1.00  0.00     0.023 A 
ATOM     73  C   UNL A   1      48.095  26.426  26.691  1.00  0.00     0.031 A 
ATOM     74  C   UNL A   1      47.175  27.361  24.673  1.00  0.00     0.131 A 
ATOM     75  C   UNL A   1      49.277  26.145  25.988  1.00  0.00     0.055 A 
ATOM     76  C   UNL A   1      48.328  27.022  23.962  1.00  0.00     0.041 A 
ATOM     77  F   UNL A   1      46.189  27.978  24.000  1.00  0.00    -0.206 F 
ATOM     78  C   UNL A   1      49.395  26.423  24.625  1.00  0.00     0.022 A 
BRANCH  75  79
ATOM     79  S   UNL A   1      50.702  25.499  26.906  1.00  0.00     0.124 S 
ATOM     80  O   UNL A   1      51.621  25.160  25.826  1.00  0.00    -0.237 OA
ATOM     81  O   UNL A   1      51.074  26.643  27.732  1.00  0.00    -0.237 OA
ATOM     82  O   UNL A   1      50.147  24.360  27.635  1.00  0.00    -0.744 OA
ENDBRANCH  75  79
ENDBRANCH  48  72
BRANCH  60  83
ATOM     83  C   UNL A   1      45.100  33.034  29.093  1.00  0.00     0.023 A 
ATOM     84  C   UNL A   1      44.989  34.080  28.160  1.00  0.00     0.031 A 
ATOM     85  C   UNL A   1      45.918  33.242  30.219  1.00  0.00     0.131 A 
ATOM     86  C   UNL A   1      45.726  35.262  28.338  1.00  0.00     0.055 A 
ATOM     87  C   UNL A   1      46.597  34.445  30.425  1.00  0.00     0.041 A 
ATOM     88  F   UNL A   1      46.071  32.279  31.141  1.00  0.00    -0.206 F 
ATOM     89  C   UNL A   1      46.514  35.459  29.475  1.00  0.00     0.022 A 
BRANCH  86  90
ATOM     90  S   UNL A   1      45.721  36.502  27.014  1.00  0.00     0.124 S 
ATOM     91  O   UNL A   1      46.241  35.740  25.884  1.00  0.00    -0.237 OA
ATOM     92  O   UNL A   1      44.312  36.874  26.938  1.00  0.00    -0.237 OA
ATOM     93  O   UNL A   1      46.610  37.547  27.519  1.00  0.00    -0.744 OA
ENDBRANCH  86  90
ENDBRANCH  60  83
ENDBRANCH  34  35
ENDBRANCH  26  29
ENDBRANCH  24  25
ENDBRANCH   1  24
TORSDOF 16
ENDMDL
