MODEL 1
REMARK VINA RESULT:     -11.3      0.000      0.000
REMARK SMILES CCn1ccnc1[C@H](F)C(=O)NCCCNC(=O)c1ccc(-c2c3nc(c(-c4cc(S(=O)(=O)[O-])ccc4F)c4ccc([nH]4)c(-c4cc(S(=O)(=O)[O-])ccc4F)c4nc(c(-c5cc(S(=O)(=O)[O-])ccc5F)c5ccc2[nH]5)C=C4)C=C3)cc1
REMARK SMILES IDX 14 1 13 2 12 3 10 4 11 5 8 7 9 8 7 9 3 10 4 11 5 12 6 13
REMARK SMILES IDX 2 14 1 15 15 16 16 17 17 18 18 20 19 21 20 22 81 23 21 24
REMARK SMILES IDX 80 25 22 26 23 27 24 28 74 29 25 30 79 31 73 32 75 33 26 34
REMARK SMILES IDX 78 35 72 36 71 37 27 39 59 40 39 41 58 42 40 43 43 44 57 45
REMARK SMILES IDX 76 46 41 47 42 48 56 50 77 51 44 52 28 53 29 54 37 55 30 56
REMARK SMILES IDX 36 57 38 58 35 59 31 60 32 61 33 62 34 63 60 64 61 65 69 66
REMARK SMILES IDX 62 67 68 68 70 69 67 70 63 71 64 72 65 73 66 74 45 75 46 76
REMARK SMILES IDX 54 77 47 78 53 79 55 80 52 81 48 82 49 83 50 84 51 85
REMARK H PARENT 12 6 16 19 75 38 43 49
REMARK Flexibility Score: inf
ROOT
ATOM      1  C   UNL A   1      37.347  30.875  32.400  1.00  0.00     0.042 C 
ENDROOT
BRANCH   1   2
ATOM      2  C   UNL A   1      36.901  32.171  33.074  1.00  0.00     0.117 C 
BRANCH   2   3
ATOM      3  N   UNL A   1      35.454  32.332  33.097  1.00  0.00    -0.353 N 
ATOM      4  C   UNL A   1      34.669  33.226  32.424  1.00  0.00     0.262 C 
ATOM      5  O   UNL A   1      33.474  33.265  32.742  1.00  0.00    -0.271 OA
ATOM      6  H   UNL A   1      34.971  31.706  33.682  1.00  0.00     0.163 HD
BRANCH   4   7
ATOM      7  C   UNL A   1      35.210  34.163  31.338  1.00  0.00     0.321 C 
ATOM      8  F   UNL A   1      36.581  34.100  31.317  1.00  0.00    -0.228 F 
BRANCH   7   9
ATOM      9  C   UNL A   1      34.647  33.866  29.973  1.00  0.00     0.153 A 
ATOM     10  N   UNL A   1      33.633  34.537  29.312  1.00  0.00    -0.332 N 
ATOM     11  C   UNL A   1      33.336  33.796  28.185  1.00  0.00     0.107 A 
ATOM     12  C   UNL A   1      34.243  32.774  28.150  1.00  0.00     0.131 A 
ATOM     13  N   UNL A   1      35.065  32.846  29.231  1.00  0.00    -0.238 NA
BRANCH  10  14
ATOM     14  C   UNL A   1      33.031  35.841  29.520  1.00  0.00     0.120 C 
ATOM     15  C   UNL A   1      33.496  37.024  28.700  1.00  0.00     0.027 C 
ENDBRANCH  10  14
ENDBRANCH   7   9
ENDBRANCH   4   7
ENDBRANCH   2   3
ENDBRANCH   1   2
BRANCH   1  16
ATOM     16  C   UNL A   1      37.471  30.992  30.893  1.00  0.00     0.118 C 
BRANCH  16  17
ATOM     17  N   UNL A   1      36.414  30.287  30.160  1.00  0.00    -0.352 N 
ATOM     18  C   UNL A   1      36.536  29.545  28.988  1.00  0.00     0.251 C 
ATOM     19  H   UNL A   1      35.508  30.345  30.542  1.00  0.00     0.163 HD
ATOM     20  O   UNL A   1      35.570  29.333  28.280  1.00  0.00    -0.269 OA
BRANCH  18  21
ATOM     21  C   UNL A   1      37.872  29.014  28.640  1.00  0.00     0.039 A 
ATOM     22  C   UNL A   1      38.631  29.496  27.570  1.00  0.00     0.014 A 
ATOM     23  C   UNL A   1      38.378  28.028  29.476  1.00  0.00     0.014 A 
ATOM     24  C   UNL A   1      39.934  29.016  27.407  1.00  0.00     0.010 A 
ATOM     25  C   UNL A   1      39.714  27.760  29.468  1.00  0.00     0.010 A 
ATOM     26  C   UNL A   1      40.470  28.152  28.376  1.00  0.00    -0.014 A 
BRANCH  26  27
ATOM     27  C   UNL A   1      41.861  27.712  28.382  1.00  0.00     0.031 A 
ATOM     28  C   UNL A   1      42.079  26.454  27.630  1.00  0.00     0.074 A 
ATOM     29  C   UNL A   1      42.872  28.531  28.757  1.00  0.00     0.049 A 
ATOM     30  N   UNL A   1      42.306  25.279  28.113  1.00  0.00    -0.248 NA
ATOM     31  C   UNL A   1      41.792  26.450  26.183  1.00  0.00     0.031 C 
ATOM     32  C   UNL A   1      42.780  29.928  29.209  1.00  0.00     0.029 A 
ATOM     33  N   UNL A   1      44.219  28.339  28.698  1.00  0.00    -0.354 N 
ATOM     34  C   UNL A   1      42.500  24.459  27.007  1.00  0.00     0.074 A 
ATOM     35  C   UNL A   1      41.882  25.146  25.909  1.00  0.00     0.031 C 
ATOM     36  C   UNL A   1      43.999  30.511  29.163  1.00  0.00     0.029 A 
ATOM     37  C   UNL A   1      44.988  29.499  28.839  1.00  0.00     0.049 A 
ATOM     38  H   UNL A   1      44.621  27.451  28.566  1.00  0.00     0.167 HD
ATOM     39  C   UNL A   1      43.434  23.467  27.034  1.00  0.00     0.034 A 
ATOM     40  C   UNL A   1      46.338  29.626  28.693  1.00  0.00     0.034 A 
ATOM     41  C   UNL A   1      43.881  23.236  28.396  1.00  0.00     0.049 A 
ATOM     42  C   UNL A   1      46.903  28.265  28.855  1.00  0.00     0.074 A 
ATOM     43  C   UNL A   1      43.255  22.895  29.581  1.00  0.00     0.029 A 
ATOM     44  N   UNL A   1      45.101  23.767  28.762  1.00  0.00    -0.354 N 
ATOM     45  N   UNL A   1      46.840  27.598  29.975  1.00  0.00    -0.248 NA
ATOM     46  C   UNL A   1      47.075  27.449  27.663  1.00  0.00     0.031 C 
ATOM     47  C   UNL A   1      43.905  23.679  30.581  1.00  0.00     0.029 A 
ATOM     48  C   UNL A   1      44.961  24.375  29.985  1.00  0.00     0.049 A 
ATOM     49  H   UNL A   1      45.931  23.720  28.234  1.00  0.00     0.167 HD
ATOM     50  C   UNL A   1      46.498  26.308  29.602  1.00  0.00     0.074 A 
ATOM     51  C   UNL A   1      46.773  26.247  28.167  1.00  0.00     0.031 C 
ATOM     52  C   UNL A   1      45.745  25.517  30.426  1.00  0.00     0.034 A 
BRANCH  39  53
ATOM     53  C   UNL A   1      44.257  23.005  25.843  1.00  0.00     0.023 A 
ATOM     54  C   UNL A   1      44.267  21.619  25.587  1.00  0.00     0.031 A 
ATOM     55  C   UNL A   1      45.227  23.755  25.138  1.00  0.00     0.131 A 
ATOM     56  C   UNL A   1      45.273  21.031  24.804  1.00  0.00     0.055 A 
ATOM     57  C   UNL A   1      46.188  23.171  24.306  1.00  0.00     0.041 A 
ATOM     58  F   UNL A   1      45.365  25.078  25.260  1.00  0.00    -0.206 F 
ATOM     59  C   UNL A   1      46.241  21.797  24.166  1.00  0.00     0.022 A 
BRANCH  56  60
ATOM     60  S   UNL A   1      45.400  19.226  24.796  1.00  0.00     0.124 S 
ATOM     61  O   UNL A   1      45.271  18.935  23.372  1.00  0.00    -0.237 OA
ATOM     62  O   UNL A   1      46.719  19.017  25.382  1.00  0.00    -0.237 OA
ATOM     63  O   UNL A   1      44.274  18.805  25.625  1.00  0.00    -0.744 OA
ENDBRANCH  56  60
ENDBRANCH  39  53
BRANCH  40  64
ATOM     64  C   UNL A   1      47.113  30.775  28.134  1.00  0.00     0.023 A 
ATOM     65  C   UNL A   1      46.554  31.764  27.289  1.00  0.00     0.031 A 
ATOM     66  C   UNL A   1      48.397  31.051  28.658  1.00  0.00     0.131 A 
ATOM     67  C   UNL A   1      47.270  32.958  27.009  1.00  0.00     0.055 A 
ATOM     68  C   UNL A   1      49.094  32.230  28.382  1.00  0.00     0.041 A 
ATOM     69  F   UNL A   1      48.980  30.214  29.531  1.00  0.00    -0.206 F 
ATOM     70  C   UNL A   1      48.529  33.195  27.565  1.00  0.00     0.022 A 
BRANCH  67  71
ATOM     71  S   UNL A   1      46.540  34.276  25.974  1.00  0.00     0.124 S 
ATOM     72  O   UNL A   1      47.666  34.682  25.141  1.00  0.00    -0.237 OA
ATOM     73  O   UNL A   1      45.450  33.581  25.300  1.00  0.00    -0.237 OA
ATOM     74  O   UNL A   1      46.110  35.281  26.950  1.00  0.00    -0.744 OA
ENDBRANCH  67  71
ENDBRANCH  40  64
BRANCH  52  75
ATOM     75  C   UNL A   1      45.566  25.960  31.869  1.00  0.00     0.023 A 
ATOM     76  C   UNL A   1      44.389  26.528  32.414  1.00  0.00     0.031 A 
ATOM     77  C   UNL A   1      46.624  25.690  32.752  1.00  0.00     0.131 A 
ATOM     78  C   UNL A   1      44.317  26.814  33.793  1.00  0.00     0.055 A 
ATOM     79  C   UNL A   1      46.540  25.952  34.118  1.00  0.00     0.041 A 
ATOM     80  F   UNL A   1      47.760  25.129  32.302  1.00  0.00    -0.206 F 
ATOM     81  C   UNL A   1      45.387  26.523  34.643  1.00  0.00     0.022 A 
BRANCH  78  82
ATOM     82  S   UNL A   1      42.834  27.599  34.511  1.00  0.00     0.124 S 
ATOM     83  O   UNL A   1      42.362  28.480  33.448  1.00  0.00    -0.237 OA
ATOM     84  O   UNL A   1      41.983  26.453  34.816  1.00  0.00    -0.237 OA
ATOM     85  O   UNL A   1      43.355  28.296  35.690  1.00  0.00    -0.744 OA
ENDBRANCH  78  82
ENDBRANCH  52  75
ENDBRANCH  26  27
ENDBRANCH  18  21
ENDBRANCH  16  17
ENDBRANCH   1  16
TORSDOF 15
ENDMDL
MODEL 2
REMARK VINA RESULT:     -11.1      1.311      2.155
REMARK SMILES CCn1ccnc1[C@H](F)C(=O)NCCCNC(=O)c1ccc(-c2c3nc(c(-c4cc(S(=O)(=O)[O-])ccc4F)c4ccc([nH]4)c(-c4cc(S(=O)(=O)[O-])ccc4F)c4nc(c(-c5cc(S(=O)(=O)[O-])ccc5F)c5ccc2[nH]5)C=C4)C=C3)cc1
REMARK SMILES IDX 14 1 13 2 12 3 10 4 11 5 8 7 9 8 7 9 3 10 4 11 5 12 6 13
REMARK SMILES IDX 2 14 1 15 15 16 16 17 17 18 18 20 19 21 20 22 81 23 21 24
REMARK SMILES IDX 80 25 22 26 23 27 24 28 74 29 25 30 79 31 73 32 75 33 26 34
REMARK SMILES IDX 78 35 72 36 71 37 27 39 59 40 39 41 58 42 40 43 43 44 57 45
REMARK SMILES IDX 76 46 41 47 42 48 56 50 77 51 44 52 28 53 29 54 37 55 30 56
REMARK SMILES IDX 36 57 38 58 35 59 31 60 32 61 33 62 34 63 60 64 61 65 69 66
REMARK SMILES IDX 62 67 68 68 70 69 67 70 63 71 64 72 65 73 66 74 45 75 46 76
REMARK SMILES IDX 54 77 47 78 53 79 55 80 52 81 48 82 49 83 50 84 51 85
REMARK H PARENT 12 6 16 19 75 38 43 49
REMARK Flexibility Score: inf
ROOT
ATOM      1  C   UNL A   1      34.616  30.325  27.246  1.00  0.00     0.042 C 
ENDROOT
BRANCH   1   2
ATOM      2  C   UNL A   1      34.881  31.775  27.644  1.00  0.00     0.117 C 
BRANCH   2   3
ATOM      3  N   UNL A   1      33.688  32.608  27.588  1.00  0.00    -0.353 N 
ATOM      4  C   UNL A   1      33.452  33.828  28.158  1.00  0.00     0.262 C 
ATOM      5  O   UNL A   1      32.293  34.255  28.095  1.00  0.00    -0.271 OA
ATOM      6  H   UNL A   1      32.942  32.238  27.062  1.00  0.00     0.163 HD
BRANCH   4   7
ATOM      7  C   UNL A   1      34.540  34.644  28.864  1.00  0.00     0.321 C 
ATOM      8  F   UNL A   1      34.202  35.974  28.847  1.00  0.00    -0.228 F 
BRANCH   7   9
ATOM      9  C   UNL A   1      34.799  34.182  30.274  1.00  0.00     0.153 A 
ATOM     10  N   UNL A   1      35.859  33.423  30.735  1.00  0.00    -0.332 N 
ATOM     11  C   UNL A   1      35.573  33.093  32.045  1.00  0.00     0.107 A 
ATOM     12  C   UNL A   1      34.415  33.748  32.358  1.00  0.00     0.131 A 
ATOM     13  N   UNL A   1      33.967  34.442  31.278  1.00  0.00    -0.238 NA
BRANCH  10  14
ATOM     14  C   UNL A   1      37.154  33.107  30.159  1.00  0.00     0.120 C 
ATOM     15  C   UNL A   1      38.089  34.224  29.754  1.00  0.00     0.027 C 
ENDBRANCH  10  14
ENDBRANCH   7   9
ENDBRANCH   4   7
ENDBRANCH   2   3
ENDBRANCH   1   2
BRANCH   1  16
ATOM     16  C   UNL A   1      35.373  29.320  28.093  1.00  0.00     0.118 C 
BRANCH  16  17
ATOM     17  N   UNL A   1      35.574  29.753  29.480  1.00  0.00    -0.352 N 
ATOM     18  C   UNL A   1      36.619  29.421  30.337  1.00  0.00     0.251 C 
ATOM     19  H   UNL A   1      34.886  30.353  29.851  1.00  0.00     0.163 HD
ATOM     20  O   UNL A   1      36.493  29.518  31.543  1.00  0.00    -0.269 OA
BRANCH  18  21
ATOM     21  C   UNL A   1      37.888  28.956  29.734  1.00  0.00     0.039 A 
ATOM     22  C   UNL A   1      38.484  29.577  28.634  1.00  0.00     0.014 A 
ATOM     23  C   UNL A   1      38.506  27.881  30.357  1.00  0.00     0.014 A 
ATOM     24  C   UNL A   1      39.747  29.139  28.224  1.00  0.00     0.010 A 
ATOM     25  C   UNL A   1      39.825  27.633  30.121  1.00  0.00     0.010 A 
ATOM     26  C   UNL A   1      40.415  28.168  28.988  1.00  0.00    -0.014 A 
BRANCH  26  27
ATOM     27  C   UNL A   1      41.790  27.750  28.736  1.00  0.00     0.031 A 
ATOM     28  C   UNL A   1      41.884  26.473  27.990  1.00  0.00     0.074 A 
ATOM     29  C   UNL A   1      42.837  28.596  28.887  1.00  0.00     0.049 A 
ATOM     30  N   UNL A   1      42.225  25.317  28.451  1.00  0.00    -0.248 NA
ATOM     31  C   UNL A   1      41.324  26.421  26.627  1.00  0.00     0.031 C 
ATOM     32  C   UNL A   1      42.805  30.004  29.311  1.00  0.00     0.029 A 
ATOM     33  N   UNL A   1      44.151  28.423  28.573  1.00  0.00    -0.354 N 
ATOM     34  C   UNL A   1      42.219  24.468  27.351  1.00  0.00     0.074 A 
ATOM     35  C   UNL A   1      41.387  25.112  26.376  1.00  0.00     0.031 C 
ATOM     36  C   UNL A   1      43.979  30.604  29.013  1.00  0.00     0.029 A 
ATOM     37  C   UNL A   1      44.908  29.598  28.531  1.00  0.00     0.049 A 
ATOM     38  H   UNL A   1      44.538  27.537  28.389  1.00  0.00     0.167 HD
ATOM     39  C   UNL A   1      43.161  23.491  27.223  1.00  0.00     0.034 A 
ATOM     40  C   UNL A   1      46.201  29.742  28.123  1.00  0.00     0.034 A 
ATOM     41  C   UNL A   1      43.867  23.308  28.478  1.00  0.00     0.049 A 
ATOM     42  C   UNL A   1      46.816  28.394  28.209  1.00  0.00     0.074 A 
ATOM     43  C   UNL A   1      43.489  22.994  29.770  1.00  0.00     0.029 A 
ATOM     44  N   UNL A   1      45.123  23.869  28.586  1.00  0.00    -0.354 N 
ATOM     45  N   UNL A   1      46.984  27.761  29.337  1.00  0.00    -0.248 NA
ATOM     46  C   UNL A   1      46.771  27.545  27.028  1.00  0.00     0.031 C 
ATOM     47  C   UNL A   1      44.303  23.817  30.604  1.00  0.00     0.029 A 
ATOM     48  C   UNL A   1      45.210  24.511  29.797  1.00  0.00     0.049 A 
ATOM     49  H   UNL A   1      45.837  23.818  27.909  1.00  0.00     0.167 HD
ATOM     50  C   UNL A   1      46.603  26.454  29.072  1.00  0.00     0.074 A 
ATOM     51  C   UNL A   1      46.597  26.355  27.613  1.00  0.00     0.031 C 
ATOM     52  C   UNL A   1      46.040  25.678  30.047  1.00  0.00     0.034 A 
BRANCH  39  53
ATOM     53  C   UNL A   1      43.748  23.006  25.907  1.00  0.00     0.023 A 
ATOM     54  C   UNL A   1      43.676  21.621  25.662  1.00  0.00     0.031 A 
ATOM     55  C   UNL A   1      44.596  23.729  25.038  1.00  0.00     0.131 A 
ATOM     56  C   UNL A   1      44.513  21.005  24.717  1.00  0.00     0.055 A 
ATOM     57  C   UNL A   1      45.379  23.119  24.052  1.00  0.00     0.041 A 
ATOM     58  F   UNL A   1      44.788  25.048  25.125  1.00  0.00    -0.206 F 
ATOM     59  C   UNL A   1      45.372  21.744  23.913  1.00  0.00     0.022 A 
BRANCH  56  60
ATOM     60  S   UNL A   1      44.589  19.197  24.697  1.00  0.00     0.124 S 
ATOM     61  O   UNL A   1      44.882  18.937  23.292  1.00  0.00    -0.237 OA
ATOM     62  O   UNL A   1      45.668  18.934  25.643  1.00  0.00    -0.237 OA
ATOM     63  O   UNL A   1      43.256  18.798  25.143  1.00  0.00    -0.744 OA
ENDBRANCH  56  60
ENDBRANCH  39  53
BRANCH  40  64
ATOM     64  C   UNL A   1      46.830  30.884  27.394  1.00  0.00     0.023 A 
ATOM     65  C   UNL A   1      46.100  31.976  26.864  1.00  0.00     0.031 A 
ATOM     66  C   UNL A   1      48.235  31.034  27.441  1.00  0.00     0.131 A 
ATOM     67  C   UNL A   1      46.775  33.144  26.419  1.00  0.00     0.055 A 
ATOM     68  C   UNL A   1      48.893  32.187  27.006  1.00  0.00     0.041 A 
ATOM     69  F   UNL A   1      49.011  30.090  27.998  1.00  0.00    -0.206 F 
ATOM     70  C   UNL A   1      48.164  33.253  26.503  1.00  0.00     0.022 A 
BRANCH  67  71
ATOM     71  S   UNL A   1      45.848  34.589  25.792  1.00  0.00     0.124 S 
ATOM     72  O   UNL A   1      45.451  34.154  24.458  1.00  0.00    -0.237 OA
ATOM     73  O   UNL A   1      44.781  34.730  26.775  1.00  0.00    -0.237 OA
ATOM     74  O   UNL A   1      46.840  35.667  25.812  1.00  0.00    -0.744 OA
ENDBRANCH  67  71
ENDBRANCH  40  64
BRANCH  52  75
ATOM     75  C   UNL A   1      46.134  26.161  31.485  1.00  0.00     0.023 A 
ATOM     76  C   UNL A   1      45.089  26.778  32.214  1.00  0.00     0.031 A 
ATOM     77  C   UNL A   1      47.327  25.882  32.172  1.00  0.00     0.131 A 
ATOM     78  C   UNL A   1      45.272  27.100  33.575  1.00  0.00     0.055 A 
ATOM     79  C   UNL A   1      47.496  26.180  33.523  1.00  0.00     0.041 A 
ATOM     80  F   UNL A   1      48.349  25.276  31.544  1.00  0.00    -0.206 F 
ATOM     81  C   UNL A   1      46.471  26.797  34.228  1.00  0.00     0.022 A 
BRANCH  78  82
ATOM     82  S   UNL A   1      43.962  27.946  34.523  1.00  0.00     0.124 S 
ATOM     83  O   UNL A   1      43.069  26.863  34.918  1.00  0.00    -0.237 OA
ATOM     84  O   UNL A   1      44.712  28.583  35.602  1.00  0.00    -0.237 OA
ATOM     85  O   UNL A   1      43.390  28.881  33.550  1.00  0.00    -0.744 OA
ENDBRANCH  78  82
ENDBRANCH  52  75
ENDBRANCH  26  27
ENDBRANCH  18  21
ENDBRANCH  16  17
ENDBRANCH   1  16
TORSDOF 15
ENDMDL
MODEL 3
REMARK VINA RESULT:     -11.0      4.696      7.260
REMARK SMILES CCn1ccnc1[C@H](F)C(=O)NCCCNC(=O)c1ccc(-c2c3nc(c(-c4cc(S(=O)(=O)[O-])ccc4F)c4ccc([nH]4)c(-c4cc(S(=O)(=O)[O-])ccc4F)c4nc(c(-c5cc(S(=O)(=O)[O-])ccc5F)c5ccc2[nH]5)C=C4)C=C3)cc1
REMARK SMILES IDX 14 1 13 2 12 3 10 4 11 5 8 7 9 8 7 9 3 10 4 11 5 12 6 13
REMARK SMILES IDX 2 14 1 15 15 16 16 17 17 18 18 20 19 21 20 22 81 23 21 24
REMARK SMILES IDX 80 25 22 26 23 27 24 28 74 29 25 30 79 31 73 32 75 33 26 34
REMARK SMILES IDX 78 35 72 36 71 37 27 39 59 40 39 41 58 42 40 43 43 44 57 45
REMARK SMILES IDX 76 46 41 47 42 48 56 50 77 51 44 52 28 53 29 54 37 55 30 56
REMARK SMILES IDX 36 57 38 58 35 59 31 60 32 61 33 62 34 63 60 64 61 65 69 66
REMARK SMILES IDX 62 67 68 68 70 69 67 70 63 71 64 72 65 73 66 74 45 75 46 76
REMARK SMILES IDX 54 77 47 78 53 79 55 80 52 81 48 82 49 83 50 84 51 85
REMARK H PARENT 12 6 16 19 75 38 43 49
REMARK Flexibility Score: inf
ROOT
ATOM      1  C   UNL A   1      31.440  31.531  26.453  1.00  0.00     0.042 C 
ENDROOT
BRANCH   1   2
ATOM      2  C   UNL A   1      31.773  30.181  25.823  1.00  0.00     0.117 C 
BRANCH   2   3
ATOM      3  N   UNL A   1      31.237  30.032  24.478  1.00  0.00    -0.353 N 
ATOM      4  C   UNL A   1      30.799  28.908  23.836  1.00  0.00     0.262 C 
ATOM      5  O   UNL A   1      30.541  29.021  22.631  1.00  0.00    -0.271 OA
ATOM      6  H   UNL A   1      31.181  30.864  23.953  1.00  0.00     0.163 HD
BRANCH   4   7
ATOM      7  C   UNL A   1      30.641  27.554  24.536  1.00  0.00     0.321 C 
ATOM      8  F   UNL A   1      29.492  26.942  24.103  1.00  0.00    -0.228 F 
BRANCH   7   9
ATOM      9  C   UNL A   1      31.829  26.648  24.338  1.00  0.00     0.153 A 
ATOM     10  N   UNL A   1      32.360  25.740  25.236  1.00  0.00    -0.332 N 
ATOM     11  C   UNL A   1      33.544  25.285  24.689  1.00  0.00     0.107 A 
ATOM     12  C   UNL A   1      33.630  25.849  23.447  1.00  0.00     0.131 A 
ATOM     13  N   UNL A   1      32.558  26.654  23.226  1.00  0.00    -0.238 NA
BRANCH  10  14
ATOM     14  C   UNL A   1      31.826  25.140  26.445  1.00  0.00     0.120 C 
ATOM     15  C   UNL A   1      32.130  23.694  26.766  1.00  0.00     0.027 C 
ENDBRANCH  10  14
ENDBRANCH   7   9
ENDBRANCH   4   7
ENDBRANCH   2   3
ENDBRANCH   1   2
BRANCH   1  16
ATOM     16  C   UNL A   1      32.622  32.178  27.149  1.00  0.00     0.118 C 
BRANCH  16  17
ATOM     17  N   UNL A   1      32.436  33.609  27.416  1.00  0.00    -0.352 N 
ATOM     18  C   UNL A   1      33.060  34.385  28.388  1.00  0.00     0.251 C 
ATOM     19  H   UNL A   1      31.792  34.077  26.837  1.00  0.00     0.163 HD
ATOM     20  O   UNL A   1      32.566  35.432  28.762  1.00  0.00    -0.269 OA
BRANCH  18  21
ATOM     21  C   UNL A   1      34.343  33.901  28.943  1.00  0.00     0.039 A 
ATOM     22  C   UNL A   1      34.435  33.159  30.123  1.00  0.00     0.014 A 
ATOM     23  C   UNL A   1      35.478  34.176  28.193  1.00  0.00     0.014 A 
ATOM     24  C   UNL A   1      35.681  32.641  30.490  1.00  0.00     0.010 A 
ATOM     25  C   UNL A   1      36.619  33.463  28.413  1.00  0.00     0.010 A 
ATOM     26  C   UNL A   1      36.768  32.791  29.614  1.00  0.00    -0.014 A 
BRANCH  26  27
ATOM     27  C   UNL A   1      38.068  32.164  29.829  1.00  0.00     0.031 A 
ATOM     28  C   UNL A   1      38.124  30.760  29.359  1.00  0.00     0.074 A 
ATOM     29  C   UNL A   1      39.174  32.888  30.126  1.00  0.00     0.049 A 
ATOM     30  N   UNL A   1      38.132  29.690  30.080  1.00  0.00    -0.248 NA
ATOM     31  C   UNL A   1      37.925  30.500  27.921  1.00  0.00     0.031 C 
ATOM     32  C   UNL A   1      39.280  34.346  30.287  1.00  0.00     0.029 A 
ATOM     33  N   UNL A   1      40.473  32.495  30.225  1.00  0.00    -0.354 N 
ATOM     34  C   UNL A   1      38.256  28.641  29.176  1.00  0.00     0.074 A 
ATOM     35  C   UNL A   1      37.821  29.169  27.915  1.00  0.00     0.031 C 
ATOM     36  C   UNL A   1      40.577  34.724  30.236  1.00  0.00     0.029 A 
ATOM     37  C   UNL A   1      41.409  33.534  30.205  1.00  0.00     0.049 A 
ATOM     38  H   UNL A   1      40.735  31.549  30.304  1.00  0.00     0.167 HD
ATOM     39  C   UNL A   1      39.016  27.551  29.479  1.00  0.00     0.034 A 
ATOM     40  C   UNL A   1      42.768  33.431  30.157  1.00  0.00     0.034 A 
ATOM     41  C   UNL A   1      39.341  27.543  30.894  1.00  0.00     0.049 A 
ATOM     42  C   UNL A   1      43.098  32.065  30.632  1.00  0.00     0.074 A 
ATOM     43  C   UNL A   1      38.601  27.549  32.062  1.00  0.00     0.029 A 
ATOM     44  N   UNL A   1      40.607  27.955  31.256  1.00  0.00    -0.354 N 
ATOM     45  N   UNL A   1      42.864  31.660  31.849  1.00  0.00    -0.248 NA
ATOM     46  C   UNL A   1      43.205  31.005  29.641  1.00  0.00     0.031 C 
ATOM     47  C   UNL A   1      39.309  28.418  32.944  1.00  0.00     0.029 A 
ATOM     48  C   UNL A   1      40.495  28.816  32.320  1.00  0.00     0.049 A 
ATOM     49  H   UNL A   1      41.447  27.680  30.823  1.00  0.00     0.167 HD
ATOM     50  C   UNL A   1      42.342  30.384  31.706  1.00  0.00     0.074 A 
ATOM     51  C   UNL A   1      42.686  29.990  30.341  1.00  0.00     0.031 C 
ATOM     52  C   UNL A   1      41.426  29.898  32.598  1.00  0.00     0.034 A 
BRANCH  39  53
ATOM     53  C   UNL A   1      39.822  26.738  28.478  1.00  0.00     0.023 A 
ATOM     54  C   UNL A   1      40.957  27.367  27.930  1.00  0.00     0.031 A 
ATOM     55  C   UNL A   1      39.419  25.549  27.829  1.00  0.00     0.131 A 
ATOM     56  C   UNL A   1      41.535  26.911  26.734  1.00  0.00     0.055 A 
ATOM     57  C   UNL A   1      40.040  25.061  26.674  1.00  0.00     0.041 A 
ATOM     58  F   UNL A   1      38.364  24.823  28.210  1.00  0.00    -0.206 F 
ATOM     59  C   UNL A   1      41.079  25.764  26.096  1.00  0.00     0.022 A 
BRANCH  56  60
ATOM     60  S   UNL A   1      42.772  27.960  25.932  1.00  0.00     0.124 S 
ATOM     61  O   UNL A   1      42.343  27.898  24.539  1.00  0.00    -0.237 OA
ATOM     62  O   UNL A   1      42.570  29.234  26.614  1.00  0.00    -0.237 OA
ATOM     63  O   UNL A   1      44.032  27.285  26.230  1.00  0.00    -0.744 OA
ENDBRANCH  56  60
ENDBRANCH  39  53
BRANCH  40  64
ATOM     64  C   UNL A   1      43.748  34.315  29.457  1.00  0.00     0.023 A 
ATOM     65  C   UNL A   1      44.316  34.014  28.195  1.00  0.00     0.031 A 
ATOM     66  C   UNL A   1      43.941  35.632  29.933  1.00  0.00     0.131 A 
ATOM     67  C   UNL A   1      45.030  35.007  27.473  1.00  0.00     0.055 A 
ATOM     68  C   UNL A   1      44.640  36.606  29.215  1.00  0.00     0.041 A 
ATOM     69  F   UNL A   1      43.375  36.041  31.079  1.00  0.00    -0.206 F 
ATOM     70  C   UNL A   1      45.179  36.301  27.976  1.00  0.00     0.022 A 
BRANCH  67  71
ATOM     71  S   UNL A   1      45.716  34.659  25.814  1.00  0.00     0.124 S 
ATOM     72  O   UNL A   1      46.428  33.404  26.026  1.00  0.00    -0.237 OA
ATOM     73  O   UNL A   1      44.519  34.596  24.985  1.00  0.00    -0.237 OA
ATOM     74  O   UNL A   1      46.579  35.813  25.551  1.00  0.00    -0.744 OA
ENDBRANCH  67  71
ENDBRANCH  40  64
BRANCH  52  75
ATOM     75  C   UNL A   1      41.237  30.650  33.905  1.00  0.00     0.023 A 
ATOM     76  C   UNL A   1      40.267  31.653  34.143  1.00  0.00     0.031 A 
ATOM     77  C   UNL A   1      42.029  30.243  34.992  1.00  0.00     0.131 A 
ATOM     78  C   UNL A   1      40.132  32.213  35.431  1.00  0.00     0.055 A 
ATOM     79  C   UNL A   1      41.877  30.783  36.268  1.00  0.00     0.041 A 
ATOM     80  F   UNL A   1      42.952  29.279  34.838  1.00  0.00    -0.206 F 
ATOM     81  C   UNL A   1      40.931  31.776  36.490  1.00  0.00     0.022 A 
BRANCH  78  82
ATOM     82  S   UNL A   1      38.928  33.547  35.751  1.00  0.00     0.124 S 
ATOM     83  O   UNL A   1      39.000  34.371  34.550  1.00  0.00    -0.237 OA
ATOM     84  O   UNL A   1      37.682  32.811  35.948  1.00  0.00    -0.237 OA
ATOM     85  O   UNL A   1      39.448  34.190  36.961  1.00  0.00    -0.744 OA
ENDBRANCH  78  82
ENDBRANCH  52  75
ENDBRANCH  26  27
ENDBRANCH  18  21
ENDBRANCH  16  17
ENDBRANCH   1  16
TORSDOF 15
ENDMDL
