MODEL 1
REMARK VINA RESULT:     -12.9      0.000      0.000
REMARK SMILES Cc1cc(C)c2c(CCCC(=O)NCCCNC(=O)c3ccc(-c4c5nc(c(-c6cc(S(=O)(=O)[O-])ccc6F)c6ccc([nH]6)c(-c6cc(S(=O)(=O)[O-])ccc6F)c6nc(c(-c7cc(S(=O)(=O)[O-])ccc7F)c7ccc4[nH]7)C=C6)C=C5)cc3)c(-c3ccccn3)[nH]c2c1
REMARK SMILES IDX 14 1 13 2 11 3 12 4 10 6 9 7 8 8 7 9 1 10 2 11 3 12 92 13
REMARK SMILES IDX 4 14 91 15 5 16 6 17 90 18 83 19 84 21 85 22 89 23 86 24
REMARK SMILES IDX 88 25 87 26 15 27 16 28 17 29 18 30 19 32 20 33 21 34 82 35
REMARK SMILES IDX 22 36 81 37 23 38 24 39 25 40 75 41 26 42 80 43 74 44 76 45
REMARK SMILES IDX 27 46 79 47 73 48 72 49 28 51 60 52 40 53 59 54 41 55 44 56
REMARK SMILES IDX 58 57 77 58 42 59 43 60 57 62 78 63 45 64 29 65 30 66 38 67
REMARK SMILES IDX 31 68 37 69 39 70 36 71 32 72 33 73 34 74 35 75 61 76 62 77
REMARK SMILES IDX 70 78 63 79 69 80 71 81 68 82 64 83 65 84 66 85 67 86 46 87
REMARK SMILES IDX 47 88 55 89 48 90 54 91 56 92 53 93 49 94 50 95 51 96 52 97
REMARK H PARENT 13 5 90 20 17 31 76 50 44 61
REMARK Flexibility Score: inf
ROOT
ATOM      1  C   UNL A   1      33.064  29.276  25.835  1.00  0.00     0.117 C 
ENDROOT
BRANCH   1   2
ATOM      2  N   UNL A   1      33.680  28.910  24.577  1.00  0.00    -0.356 N 
ATOM      3  C   UNL A   1      33.718  27.724  23.914  1.00  0.00     0.220 C 
ATOM      4  O   UNL A   1      34.163  27.746  22.761  1.00  0.00    -0.275 OA
ATOM      5  H   UNL A   1      34.152  29.645  24.125  1.00  0.00     0.163 HD
BRANCH   3   6
ATOM      6  C   UNL A   1      33.131  26.431  24.452  1.00  0.00     0.100 C 
BRANCH   6   7
ATOM      7  C   UNL A   1      33.940  25.391  25.194  1.00  0.00     0.015 C 
BRANCH   7   8
ATOM      8  C   UNL A   1      34.787  24.372  24.460  1.00  0.00     0.039 C 
BRANCH   8   9
ATOM      9  C   UNL A   1      35.072  22.936  24.872  1.00  0.00    -0.013 A 
ATOM     10  C   UNL A   1      32.065  18.148  23.762  1.00  0.00     0.044 C 
ATOM     11  C   UNL A   1      32.849  19.415  23.928  1.00  0.00    -0.049 A 
ATOM     12  C   UNL A   1      32.391  20.593  23.339  1.00  0.00     0.007 A 
ATOM     13  C   UNL A   1      34.004  19.440  24.713  1.00  0.00     0.030 A 
ATOM     14  C   UNL A   1      33.049  21.829  23.512  1.00  0.00    -0.041 A 
ATOM     15  C   UNL A   1      34.639  20.671  24.917  1.00  0.00     0.047 A 
ATOM     16  C   UNL A   1      32.502  23.005  22.736  1.00  0.00     0.045 C 
ATOM     17  C   UNL A   1      34.182  21.872  24.384  1.00  0.00     0.006 A 
ATOM     18  N   UNL A   1      35.783  20.949  25.613  1.00  0.00    -0.353 N 
ATOM     19  C   UNL A   1      36.133  22.277  25.524  1.00  0.00     0.068 A 
ATOM     20  H   UNL A   1      36.296  20.277  26.118  1.00  0.00     0.167 HD
BRANCH  19  21
ATOM     21  C   UNL A   1      37.495  22.638  25.942  1.00  0.00     0.087 A 
ATOM     22  C   UNL A   1      37.754  23.907  26.468  1.00  0.00     0.030 A 
ATOM     23  N   UNL A   1      38.434  21.675  25.869  1.00  0.00    -0.255 NA
ATOM     24  C   UNL A   1      38.965  24.138  27.115  1.00  0.00     0.004 A 
ATOM     25  C   UNL A   1      39.611  21.933  26.503  1.00  0.00     0.112 A 
ATOM     26  C   UNL A   1      39.901  23.116  27.168  1.00  0.00     0.020 A 
ENDBRANCH  19  21
ENDBRANCH   8   9
ENDBRANCH   7   8
ENDBRANCH   6   7
ENDBRANCH   3   6
ENDBRANCH   1   2
BRANCH   1  27
ATOM     27  C   UNL A   1      33.677  28.596  27.057  1.00  0.00     0.042 C 
BRANCH  27  28
ATOM     28  C   UNL A   1      35.123  28.974  27.272  1.00  0.00     0.118 C 
BRANCH  28  29
ATOM     29  N   UNL A   1      35.314  29.906  28.388  1.00  0.00    -0.352 N 
ATOM     30  C   UNL A   1      36.369  29.905  29.298  1.00  0.00     0.251 C 
ATOM     31  H   UNL A   1      34.626  30.601  28.508  1.00  0.00     0.163 HD
ATOM     32  O   UNL A   1      36.278  30.434  30.382  1.00  0.00    -0.269 OA
BRANCH  30  33
ATOM     33  C   UNL A   1      37.605  29.225  28.862  1.00  0.00     0.039 A 
ATOM     34  C   UNL A   1      38.376  29.700  27.800  1.00  0.00     0.014 A 
ATOM     35  C   UNL A   1      38.059  28.206  29.691  1.00  0.00     0.014 A 
ATOM     36  C   UNL A   1      39.674  29.207  27.655  1.00  0.00     0.010 A 
ATOM     37  C   UNL A   1      39.390  27.891  29.672  1.00  0.00     0.010 A 
ATOM     38  C   UNL A   1      40.192  28.332  28.623  1.00  0.00    -0.014 A 
BRANCH  38  39
ATOM     39  C   UNL A   1      41.609  27.966  28.652  1.00  0.00     0.031 A 
ATOM     40  C   UNL A   1      41.956  26.749  27.862  1.00  0.00     0.074 A 
ATOM     41  C   UNL A   1      42.561  28.789  29.149  1.00  0.00     0.049 A 
ATOM     42  N   UNL A   1      42.371  25.612  28.313  1.00  0.00    -0.248 NA
ATOM     43  C   UNL A   1      41.674  26.740  26.415  1.00  0.00     0.031 C 
ATOM     44  C   UNL A   1      42.398  30.142  29.703  1.00  0.00     0.029 A 
ATOM     45  N   UNL A   1      43.913  28.641  29.160  1.00  0.00    -0.354 N 
ATOM     46  C   UNL A   1      42.642  24.832  27.194  1.00  0.00     0.074 A 
ATOM     47  C   UNL A   1      42.005  25.489  26.083  1.00  0.00     0.031 C 
ATOM     48  C   UNL A   1      43.592  30.769  29.752  1.00  0.00     0.029 A 
ATOM     49  C   UNL A   1      44.629  29.809  29.425  1.00  0.00     0.049 A 
ATOM     50  H   UNL A   1      44.353  27.776  28.993  1.00  0.00     0.167 HD
ATOM     51  C   UNL A   1      43.579  23.842  27.228  1.00  0.00     0.034 A 
ATOM     52  C   UNL A   1      45.977  29.979  29.391  1.00  0.00     0.034 A 
ATOM     53  C   UNL A   1      43.927  23.495  28.586  1.00  0.00     0.049 A 
ATOM     54  C   UNL A   1      46.559  28.629  29.570  1.00  0.00     0.074 A 
ATOM     55  C   UNL A   1      43.212  23.031  29.674  1.00  0.00     0.029 A 
ATOM     56  N   UNL A   1      45.082  24.032  29.107  1.00  0.00    -0.354 N 
ATOM     57  N   UNL A   1      46.396  27.916  30.652  1.00  0.00    -0.248 NA
ATOM     58  C   UNL A   1      46.899  27.878  28.374  1.00  0.00     0.031 C 
ATOM     59  C   UNL A   1      43.721  23.767  30.786  1.00  0.00     0.029 A 
ATOM     60  C   UNL A   1      44.776  24.565  30.337  1.00  0.00     0.049 A 
ATOM     61  H   UNL A   1      45.968  24.035  28.676  1.00  0.00     0.167 HD
ATOM     62  C   UNL A   1      46.170  26.627  30.194  1.00  0.00     0.074 A 
ATOM     63  C   UNL A   1      46.586  26.648  28.791  1.00  0.00     0.031 C 
ATOM     64  C   UNL A   1      45.408  25.744  30.905  1.00  0.00     0.034 A 
BRANCH  51  65
ATOM     65  C   UNL A   1      44.422  23.436  26.045  1.00  0.00     0.023 A 
ATOM     66  C   UNL A   1      44.399  22.095  25.619  1.00  0.00     0.031 A 
ATOM     67  C   UNL A   1      45.432  24.249  25.479  1.00  0.00     0.131 A 
ATOM     68  C   UNL A   1      45.355  21.617  24.701  1.00  0.00     0.055 A 
ATOM     69  C   UNL A   1      46.337  23.787  24.522  1.00  0.00     0.041 A 
ATOM     70  F   UNL A   1      45.658  25.502  25.894  1.00  0.00    -0.206 F 
ATOM     71  C   UNL A   1      46.315  22.457  24.140  1.00  0.00     0.022 A 
BRANCH  68  72
ATOM     72  S   UNL A   1      45.406  19.842  24.336  1.00  0.00     0.124 S 
ATOM     73  O   UNL A   1      44.707  19.281  25.487  1.00  0.00    -0.237 OA
ATOM     74  O   UNL A   1      44.704  19.774  23.059  1.00  0.00    -0.237 OA
ATOM     75  O   UNL A   1      46.837  19.549  24.272  1.00  0.00    -0.744 OA
ENDBRANCH  68  72
ENDBRANCH  51  65
BRANCH  52  76
ATOM     76  C   UNL A   1      46.758  31.151  28.892  1.00  0.00     0.023 A 
ATOM     77  C   UNL A   1      46.356  31.886  27.754  1.00  0.00     0.031 A 
ATOM     78  C   UNL A   1      47.761  31.738  29.696  1.00  0.00     0.131 A 
ATOM     79  C   UNL A   1      46.931  33.150  27.475  1.00  0.00     0.055 A 
ATOM     80  C   UNL A   1      48.325  32.985  29.415  1.00  0.00     0.041 A 
ATOM     81  F   UNL A   1      48.166  31.160  30.838  1.00  0.00    -0.206 F 
ATOM     82  C   UNL A   1      47.900  33.705  28.310  1.00  0.00     0.022 A 
BRANCH  79  83
ATOM     83  S   UNL A   1      46.323  34.158  26.081  1.00  0.00     0.124 S 
ATOM     84  O   UNL A   1      47.560  34.486  25.380  1.00  0.00    -0.237 OA
ATOM     85  O   UNL A   1      45.415  33.244  25.398  1.00  0.00    -0.237 OA
ATOM     86  O   UNL A   1      45.669  35.289  26.741  1.00  0.00    -0.744 OA
ENDBRANCH  79  83
ENDBRANCH  52  76
BRANCH  64  87
ATOM     87  C   UNL A   1      45.040  26.092  32.338  1.00  0.00     0.023 A 
ATOM     88  C   UNL A   1      43.873  26.781  32.745  1.00  0.00     0.031 A 
ATOM     89  C   UNL A   1      45.866  25.561  33.345  1.00  0.00     0.131 A 
ATOM     90  C   UNL A   1      43.574  26.912  34.121  1.00  0.00     0.055 A 
ATOM     91  C   UNL A   1      45.557  25.675  34.699  1.00  0.00     0.041 A 
ATOM     92  F   UNL A   1      46.975  24.875  33.021  1.00  0.00    -0.206 F 
ATOM     93  C   UNL A   1      44.409  26.352  35.093  1.00  0.00     0.022 A 
BRANCH  90  94
ATOM     94  S   UNL A   1      42.075  27.796  34.678  1.00  0.00     0.124 S 
ATOM     95  O   UNL A   1      42.593  29.081  35.133  1.00  0.00    -0.237 OA
ATOM     96  O   UNL A   1      41.251  27.828  33.473  1.00  0.00    -0.237 OA
ATOM     97  O   UNL A   1      41.551  26.942  35.746  1.00  0.00    -0.744 OA
ENDBRANCH  90  94
ENDBRANCH  64  87
ENDBRANCH  38  39
ENDBRANCH  30  33
ENDBRANCH  28  29
ENDBRANCH  27  28
ENDBRANCH   1  27
TORSDOF 17
ENDMDL
MODEL 2
REMARK VINA RESULT:     -12.6      4.159     10.292
REMARK SMILES Cc1cc(C)c2c(CCCC(=O)NCCCNC(=O)c3ccc(-c4c5nc(c(-c6cc(S(=O)(=O)[O-])ccc6F)c6ccc([nH]6)c(-c6cc(S(=O)(=O)[O-])ccc6F)c6nc(c(-c7cc(S(=O)(=O)[O-])ccc7F)c7ccc4[nH]7)C=C6)C=C5)cc3)c(-c3ccccn3)[nH]c2c1
REMARK SMILES IDX 14 1 13 2 11 3 12 4 10 6 9 7 8 8 7 9 1 10 2 11 3 12 92 13
REMARK SMILES IDX 4 14 91 15 5 16 6 17 90 18 83 19 84 21 85 22 89 23 86 24
REMARK SMILES IDX 88 25 87 26 15 27 16 28 17 29 18 30 19 32 20 33 21 34 82 35
REMARK SMILES IDX 22 36 81 37 23 38 24 39 25 40 75 41 26 42 80 43 74 44 76 45
REMARK SMILES IDX 27 46 79 47 73 48 72 49 28 51 60 52 40 53 59 54 41 55 44 56
REMARK SMILES IDX 58 57 77 58 42 59 43 60 57 62 78 63 45 64 29 65 30 66 38 67
REMARK SMILES IDX 31 68 37 69 39 70 36 71 32 72 33 73 34 74 35 75 61 76 62 77
REMARK SMILES IDX 70 78 63 79 69 80 71 81 68 82 64 83 65 84 66 85 67 86 46 87
REMARK SMILES IDX 47 88 55 89 48 90 54 91 56 92 53 93 49 94 50 95 51 96 52 97
REMARK H PARENT 13 5 90 20 17 31 76 50 44 61
REMARK Flexibility Score: inf
ROOT
ATOM      1  C   UNL A   1      35.986  23.026  26.022  1.00  0.00     0.117 C 
ENDROOT
BRANCH   1   2
ATOM      2  N   UNL A   1      35.129  22.527  24.967  1.00  0.00    -0.356 N 
ATOM      3  C   UNL A   1      33.890  22.917  24.565  1.00  0.00     0.220 C 
ATOM      4  O   UNL A   1      33.470  22.429  23.510  1.00  0.00    -0.275 OA
ATOM      5  H   UNL A   1      35.507  21.778  24.454  1.00  0.00     0.163 HD
BRANCH   3   6
ATOM      6  C   UNL A   1      33.073  23.994  25.256  1.00  0.00     0.100 C 
BRANCH   6   7
ATOM      7  C   UNL A   1      33.472  25.452  25.291  1.00  0.00     0.015 C 
BRANCH   7   8
ATOM      8  C   UNL A   1      32.610  26.494  25.975  1.00  0.00     0.039 C 
BRANCH   8   9
ATOM      9  C   UNL A   1      32.245  27.877  25.457  1.00  0.00    -0.013 A 
ATOM     10  C   UNL A   1      27.904  29.469  22.020  1.00  0.00     0.044 C 
ATOM     11  C   UNL A   1      28.950  29.001  22.989  1.00  0.00    -0.049 A 
ATOM     12  C   UNL A   1      28.984  27.662  23.374  1.00  0.00     0.007 A 
ATOM     13  C   UNL A   1      29.922  29.882  23.466  1.00  0.00     0.030 A 
ATOM     14  C   UNL A   1      29.981  27.148  24.231  1.00  0.00    -0.041 A 
ATOM     15  C   UNL A   1      30.933  29.369  24.287  1.00  0.00     0.047 A 
ATOM     16  C   UNL A   1      29.840  25.703  24.647  1.00  0.00     0.045 C 
ATOM     17  C   UNL A   1      31.025  28.030  24.652  1.00  0.00     0.006 A 
ATOM     18  N   UNL A   1      31.969  30.024  24.895  1.00  0.00    -0.353 N 
ATOM     19  C   UNL A   1      32.718  29.184  25.688  1.00  0.00     0.068 A 
ATOM     20  H   UNL A   1      32.157  30.983  24.778  1.00  0.00     0.167 HD
BRANCH  19  21
ATOM     21  C   UNL A   1      33.643  29.815  26.640  1.00  0.00     0.087 A 
ATOM     22  C   UNL A   1      34.890  29.237  26.892  1.00  0.00     0.030 A 
ATOM     23  N   UNL A   1      33.263  30.991  27.176  1.00  0.00    -0.255 NA
ATOM     24  C   UNL A   1      35.857  29.979  27.566  1.00  0.00     0.004 A 
ATOM     25  C   UNL A   1      34.228  31.689  27.836  1.00  0.00     0.112 A 
ATOM     26  C   UNL A   1      35.532  31.250  28.015  1.00  0.00     0.020 A 
ENDBRANCH  19  21
ENDBRANCH   8   9
ENDBRANCH   7   8
ENDBRANCH   6   7
ENDBRANCH   3   6
ENDBRANCH   1   2
BRANCH   1  27
ATOM     27  C   UNL A   1      37.236  23.751  25.527  1.00  0.00     0.042 C 
BRANCH  27  28
ATOM     28  C   UNL A   1      38.140  24.191  26.654  1.00  0.00     0.118 C 
BRANCH  28  29
ATOM     29  N   UNL A   1      39.555  24.238  26.270  1.00  0.00    -0.352 N 
ATOM     30  C   UNL A   1      40.408  25.334  26.383  1.00  0.00     0.251 C 
ATOM     31  H   UNL A   1      39.940  23.414  25.894  1.00  0.00     0.163 HD
ATOM     32  O   UNL A   1      41.417  25.428  25.723  1.00  0.00    -0.269 OA
BRANCH  30  33
ATOM     33  C   UNL A   1      40.011  26.372  27.356  1.00  0.00     0.039 A 
ATOM     34  C   UNL A   1      39.714  26.066  28.685  1.00  0.00     0.014 A 
ATOM     35  C   UNL A   1      40.143  27.687  26.926  1.00  0.00     0.014 A 
ATOM     36  C   UNL A   1      39.665  27.111  29.608  1.00  0.00     0.010 A 
ATOM     37  C   UNL A   1      40.305  28.669  27.864  1.00  0.00     0.010 A 
ATOM     38  C   UNL A   1      40.006  28.410  29.198  1.00  0.00    -0.014 A 
BRANCH  38  39
ATOM     39  C   UNL A   1      40.196  29.497  30.160  1.00  0.00     0.031 A 
ATOM     40  C   UNL A   1      38.980  30.319  30.422  1.00  0.00     0.074 A 
ATOM     41  C   UNL A   1      41.307  29.601  30.926  1.00  0.00     0.049 A 
ATOM     42  N   UNL A   1      38.789  31.559  30.117  1.00  0.00    -0.248 NA
ATOM     43  C   UNL A   1      37.777  29.654  30.957  1.00  0.00     0.031 C 
ATOM     44  C   UNL A   1      42.467  28.699  30.977  1.00  0.00     0.029 A 
ATOM     45  N   UNL A   1      41.591  30.483  31.922  1.00  0.00    -0.354 N 
ATOM     46  C   UNL A   1      37.547  31.898  30.643  1.00  0.00     0.074 A 
ATOM     47  C   UNL A   1      36.892  30.655  30.956  1.00  0.00     0.031 C 
ATOM     48  C   UNL A   1      43.183  28.928  32.099  1.00  0.00     0.029 A 
ATOM     49  C   UNL A   1      42.657  30.114  32.744  1.00  0.00     0.049 A 
ATOM     50  H   UNL A   1      41.084  31.316  32.053  1.00  0.00     0.167 HD
ATOM     51  C   UNL A   1      37.257  33.177  31.013  1.00  0.00     0.034 A 
ATOM     52  C   UNL A   1      43.087  30.741  33.872  1.00  0.00     0.034 A 
ATOM     53  C   UNL A   1      38.204  34.113  30.453  1.00  0.00     0.049 A 
ATOM     54  C   UNL A   1      42.608  32.139  33.764  1.00  0.00     0.074 A 
ATOM     55  C   UNL A   1      38.591  34.437  29.166  1.00  0.00     0.029 A 
ATOM     56  N   UNL A   1      39.223  34.553  31.266  1.00  0.00    -0.354 N 
ATOM     57  N   UNL A   1      42.995  32.959  32.824  1.00  0.00    -0.248 NA
ATOM     58  C   UNL A   1      41.341  32.467  34.395  1.00  0.00     0.031 C 
ATOM     59  C   UNL A   1      40.011  34.572  29.236  1.00  0.00     0.029 A 
ATOM     60  C   UNL A   1      40.400  34.419  30.568  1.00  0.00     0.049 A 
ATOM     61  H   UNL A   1      39.127  34.902  32.182  1.00  0.00     0.167 HD
ATOM     62  C   UNL A   1      41.842  33.627  32.442  1.00  0.00     0.074 A 
ATOM     63  C   UNL A   1      40.877  33.352  33.507  1.00  0.00     0.031 C 
ATOM     64  C   UNL A   1      41.684  34.102  31.171  1.00  0.00     0.034 A 
BRANCH  51  65
ATOM     65  C   UNL A   1      36.332  33.539  32.147  1.00  0.00     0.023 A 
ATOM     66  C   UNL A   1      35.213  34.351  31.884  1.00  0.00     0.031 A 
ATOM     67  C   UNL A   1      36.639  33.332  33.513  1.00  0.00     0.131 A 
ATOM     68  C   UNL A   1      34.478  34.926  32.939  1.00  0.00     0.055 A 
ATOM     69  C   UNL A   1      35.870  33.853  34.556  1.00  0.00     0.041 A 
ATOM     70  F   UNL A   1      37.752  32.700  33.908  1.00  0.00    -0.206 F 
ATOM     71  C   UNL A   1      34.792  34.672  34.272  1.00  0.00     0.022 A 
BRANCH  68  72
ATOM     72  S   UNL A   1      33.170  36.118  32.546  1.00  0.00     0.124 S 
ATOM     73  O   UNL A   1      33.292  37.068  33.647  1.00  0.00    -0.237 OA
ATOM     74  O   UNL A   1      33.581  36.599  31.232  1.00  0.00    -0.237 OA
ATOM     75  O   UNL A   1      31.956  35.305  32.556  1.00  0.00    -0.744 OA
ENDBRANCH  68  72
ENDBRANCH  51  65
BRANCH  52  76
ATOM     76  C   UNL A   1      43.579  30.137  35.146  1.00  0.00     0.023 A 
ATOM     77  C   UNL A   1      43.076  28.910  35.634  1.00  0.00     0.031 A 
ATOM     78  C   UNL A   1      44.756  30.622  35.760  1.00  0.00     0.131 A 
ATOM     79  C   UNL A   1      43.750  28.216  36.668  1.00  0.00     0.055 A 
ATOM     80  C   UNL A   1      45.417  29.933  36.781  1.00  0.00     0.041 A 
ATOM     81  F   UNL A   1      45.358  31.740  35.328  1.00  0.00    -0.206 F 
ATOM     82  C   UNL A   1      44.925  28.717  37.229  1.00  0.00     0.022 A 
BRANCH  79  83
ATOM     83  S   UNL A   1      43.176  26.572  37.210  1.00  0.00     0.124 S 
ATOM     84  O   UNL A   1      41.726  26.734  37.193  1.00  0.00    -0.237 OA
ATOM     85  O   UNL A   1      43.741  25.687  36.197  1.00  0.00    -0.237 OA
ATOM     86  O   UNL A   1      43.765  26.430  38.542  1.00  0.00    -0.744 OA
ENDBRANCH  79  83
ENDBRANCH  52  76
BRANCH  64  87
ATOM     87  C   UNL A   1      42.897  34.142  30.255  1.00  0.00     0.023 A 
ATOM     88  C   UNL A   1      43.275  33.126  29.345  1.00  0.00     0.031 A 
ATOM     89  C   UNL A   1      43.617  35.348  30.218  1.00  0.00     0.131 A 
ATOM     90  C   UNL A   1      44.340  33.348  28.442  1.00  0.00     0.055 A 
ATOM     91  C   UNL A   1      44.654  35.570  29.313  1.00  0.00     0.041 A 
ATOM     92  F   UNL A   1      43.290  36.359  31.041  1.00  0.00    -0.206 F 
ATOM     93  C   UNL A   1      45.020  34.570  28.421  1.00  0.00     0.022 A 
BRANCH  90  94
ATOM     94  S   UNL A   1      44.852  32.056  27.255  1.00  0.00     0.124 S 
ATOM     95  O   UNL A   1      46.306  32.162  27.250  1.00  0.00    -0.237 OA
ATOM     96  O   UNL A   1      44.300  30.839  27.843  1.00  0.00    -0.237 OA
ATOM     97  O   UNL A   1      44.211  32.467  26.004  1.00  0.00    -0.744 OA
ENDBRANCH  90  94
ENDBRANCH  64  87
ENDBRANCH  38  39
ENDBRANCH  30  33
ENDBRANCH  28  29
ENDBRANCH  27  28
ENDBRANCH   1  27
TORSDOF 17
ENDMDL
MODEL 3
REMARK VINA RESULT:     -12.5      4.023      5.707
REMARK SMILES Cc1cc(C)c2c(CCCC(=O)NCCCNC(=O)c3ccc(-c4c5nc(c(-c6cc(S(=O)(=O)[O-])ccc6F)c6ccc([nH]6)c(-c6cc(S(=O)(=O)[O-])ccc6F)c6nc(c(-c7cc(S(=O)(=O)[O-])ccc7F)c7ccc4[nH]7)C=C6)C=C5)cc3)c(-c3ccccn3)[nH]c2c1
REMARK SMILES IDX 14 1 13 2 11 3 12 4 10 6 9 7 8 8 7 9 1 10 2 11 3 12 92 13
REMARK SMILES IDX 4 14 91 15 5 16 6 17 90 18 83 19 84 21 85 22 89 23 86 24
REMARK SMILES IDX 88 25 87 26 15 27 16 28 17 29 18 30 19 32 20 33 21 34 82 35
REMARK SMILES IDX 22 36 81 37 23 38 24 39 25 40 75 41 26 42 80 43 74 44 76 45
REMARK SMILES IDX 27 46 79 47 73 48 72 49 28 51 60 52 40 53 59 54 41 55 44 56
REMARK SMILES IDX 58 57 77 58 42 59 43 60 57 62 78 63 45 64 29 65 30 66 38 67
REMARK SMILES IDX 31 68 37 69 39 70 36 71 32 72 33 73 34 74 35 75 61 76 62 77
REMARK SMILES IDX 70 78 63 79 69 80 71 81 68 82 64 83 65 84 66 85 67 86 46 87
REMARK SMILES IDX 47 88 55 89 48 90 54 91 56 92 53 93 49 94 50 95 51 96 52 97
REMARK H PARENT 13 5 90 20 17 31 76 50 44 61
REMARK Flexibility Score: inf
ROOT
ATOM      1  C   UNL A   1      32.605  29.514  26.094  1.00  0.00     0.117 C 
ENDROOT
BRANCH   1   2
ATOM      2  N   UNL A   1      31.956  28.259  26.408  1.00  0.00    -0.356 N 
ATOM      3  C   UNL A   1      32.354  26.975  26.209  1.00  0.00     0.220 C 
ATOM      4  O   UNL A   1      31.676  26.093  26.747  1.00  0.00    -0.275 OA
ATOM      5  H   UNL A   1      31.077  28.351  26.840  1.00  0.00     0.163 HD
BRANCH   3   6
ATOM      6  C   UNL A   1      33.632  26.585  25.489  1.00  0.00     0.100 C 
BRANCH   6   7
ATOM      7  C   UNL A   1      34.345  25.269  25.706  1.00  0.00     0.015 C 
BRANCH   7   8
ATOM      8  C   UNL A   1      34.535  24.274  24.579  1.00  0.00     0.039 C 
BRANCH   8   9
ATOM      9  C   UNL A   1      33.465  23.442  23.889  1.00  0.00    -0.013 A 
ATOM     10  C   UNL A   1      32.927  17.715  23.563  1.00  0.00     0.044 C 
ATOM     11  C   UNL A   1      33.072  19.193  23.771  1.00  0.00    -0.049 A 
ATOM     12  C   UNL A   1      34.116  19.680  24.557  1.00  0.00     0.007 A 
ATOM     13  C   UNL A   1      32.205  20.089  23.142  1.00  0.00     0.030 A 
ATOM     14  C   UNL A   1      34.345  21.061  24.737  1.00  0.00    -0.041 A 
ATOM     15  C   UNL A   1      32.450  21.460  23.291  1.00  0.00     0.047 A 
ATOM     16  C   UNL A   1      35.449  21.448  25.693  1.00  0.00     0.045 C 
ATOM     17  C   UNL A   1      33.510  21.979  24.026  1.00  0.00     0.006 A 
ATOM     18  N   UNL A   1      31.740  22.522  22.803  1.00  0.00    -0.353 N 
ATOM     19  C   UNL A   1      32.256  23.727  23.225  1.00  0.00     0.068 A 
ATOM     20  H   UNL A   1      30.952  22.435  22.219  1.00  0.00     0.167 HD
BRANCH  19  21
ATOM     21  C   UNL A   1      31.407  24.914  23.048  1.00  0.00     0.087 A 
ATOM     22  C   UNL A   1      30.199  25.021  23.744  1.00  0.00     0.030 A 
ATOM     23  N   UNL A   1      31.887  25.900  22.265  1.00  0.00    -0.255 NA
ATOM     24  C   UNL A   1      29.551  26.253  23.789  1.00  0.00     0.004 A 
ATOM     25  C   UNL A   1      31.227  27.089  22.325  1.00  0.00     0.112 A 
ATOM     26  C   UNL A   1      30.097  27.322  23.097  1.00  0.00     0.020 A 
ENDBRANCH  19  21
ENDBRANCH   8   9
ENDBRANCH   7   8
ENDBRANCH   6   7
ENDBRANCH   3   6
ENDBRANCH   1   2
BRANCH   1  27
ATOM     27  C   UNL A   1      32.032  30.721  26.834  1.00  0.00     0.042 C 
BRANCH  27  28
ATOM     28  C   UNL A   1      33.102  31.672  27.318  1.00  0.00     0.118 C 
BRANCH  28  29
ATOM     29  N   UNL A   1      32.645  33.063  27.390  1.00  0.00    -0.352 N 
ATOM     30  C   UNL A   1      33.073  34.030  28.296  1.00  0.00     0.251 C 
ATOM     31  H   UNL A   1      31.967  33.342  26.732  1.00  0.00     0.163 HD
ATOM     32  O   UNL A   1      32.408  35.011  28.545  1.00  0.00    -0.269 OA
BRANCH  30  33
ATOM     33  C   UNL A   1      34.383  33.792  28.935  1.00  0.00     0.039 A 
ATOM     34  C   UNL A   1      34.520  32.982  30.063  1.00  0.00     0.014 A 
ATOM     35  C   UNL A   1      35.490  34.254  28.234  1.00  0.00     0.014 A 
ATOM     36  C   UNL A   1      35.799  32.547  30.411  1.00  0.00     0.010 A 
ATOM     37  C   UNL A   1      36.700  33.655  28.452  1.00  0.00     0.010 A 
ATOM     38  C   UNL A   1      36.884  32.852  29.574  1.00  0.00    -0.014 A 
BRANCH  38  39
ATOM     39  C   UNL A   1      38.198  32.236  29.760  1.00  0.00     0.031 A 
ATOM     40  C   UNL A   1      38.293  30.818  29.307  1.00  0.00     0.074 A 
ATOM     41  C   UNL A   1      39.297  32.955  30.088  1.00  0.00     0.049 A 
ATOM     42  N   UNL A   1      38.472  29.770  30.039  1.00  0.00    -0.248 NA
ATOM     43  C   UNL A   1      38.014  30.506  27.892  1.00  0.00     0.031 C 
ATOM     44  C   UNL A   1      39.409  34.408  30.289  1.00  0.00     0.029 A 
ATOM     45  N   UNL A   1      40.592  32.553  30.201  1.00  0.00    -0.354 N 
ATOM     46  C   UNL A   1      38.580  28.699  29.158  1.00  0.00     0.074 A 
ATOM     47  C   UNL A   1      38.088  29.173  27.890  1.00  0.00     0.031 C 
ATOM     48  C   UNL A   1      40.706  34.782  30.243  1.00  0.00     0.029 A 
ATOM     49  C   UNL A   1      41.528  33.589  30.210  1.00  0.00     0.049 A 
ATOM     50  H   UNL A   1      40.849  31.606  30.270  1.00  0.00     0.167 HD
ATOM     51  C   UNL A   1      39.299  27.586  29.477  1.00  0.00     0.034 A 
ATOM     52  C   UNL A   1      42.883  33.479  30.201  1.00  0.00     0.034 A 
ATOM     53  C   UNL A   1      39.571  27.525  30.893  1.00  0.00     0.049 A 
ATOM     54  C   UNL A   1      43.182  32.128  30.731  1.00  0.00     0.074 A 
ATOM     55  C   UNL A   1      38.779  27.493  32.025  1.00  0.00     0.029 A 
ATOM     56  N   UNL A   1      40.811  27.939  31.324  1.00  0.00    -0.354 N 
ATOM     57  N   UNL A   1      42.879  31.751  31.944  1.00  0.00    -0.248 NA
ATOM     58  C   UNL A   1      43.363  31.053  29.770  1.00  0.00     0.031 C 
ATOM     59  C   UNL A   1      39.426  28.368  32.949  1.00  0.00     0.029 A 
ATOM     60  C   UNL A   1      40.619  28.808  32.372  1.00  0.00     0.049 A 
ATOM     61  H   UNL A   1      41.679  27.662  30.949  1.00  0.00     0.167 HD
ATOM     62  C   UNL A   1      42.399  30.458  31.802  1.00  0.00     0.074 A 
ATOM     63  C   UNL A   1      42.810  30.049  30.458  1.00  0.00     0.031 C 
ATOM     64  C   UNL A   1      41.476  29.944  32.668  1.00  0.00     0.034 A 
BRANCH  51  65
ATOM     65  C   UNL A   1      40.042  26.744  28.470  1.00  0.00     0.023 A 
ATOM     66  C   UNL A   1      41.160  27.292  27.814  1.00  0.00     0.031 A 
ATOM     67  C   UNL A   1      39.552  25.525  27.945  1.00  0.00     0.131 A 
ATOM     68  C   UNL A   1      41.718  26.652  26.690  1.00  0.00     0.055 A 
ATOM     69  C   UNL A   1      40.148  24.862  26.871  1.00  0.00     0.041 A 
ATOM     70  F   UNL A   1      38.416  24.964  28.381  1.00  0.00    -0.206 F 
ATOM     71  C   UNL A   1      41.228  25.434  26.223  1.00  0.00     0.022 A 
BRANCH  68  72
ATOM     72  S   UNL A   1      43.029  27.495  25.763  1.00  0.00     0.124 S 
ATOM     73  O   UNL A   1      43.917  26.388  25.428  1.00  0.00    -0.237 OA
ATOM     74  O   UNL A   1      42.286  28.085  24.655  1.00  0.00    -0.237 OA
ATOM     75  O   UNL A   1      43.565  28.453  26.729  1.00  0.00    -0.744 OA
ENDBRANCH  68  72
ENDBRANCH  51  65
BRANCH  52  76
ATOM     76  C   UNL A   1      43.882  34.315  29.472  1.00  0.00     0.023 A 
ATOM     77  C   UNL A   1      44.423  33.918  28.228  1.00  0.00     0.031 A 
ATOM     78  C   UNL A   1      44.111  35.656  29.857  1.00  0.00     0.131 A 
ATOM     79  C   UNL A   1      45.131  34.844  27.423  1.00  0.00     0.055 A 
ATOM     80  C   UNL A   1      44.812  36.565  29.058  1.00  0.00     0.041 A 
ATOM     81  F   UNL A   1      43.583  36.157  30.984  1.00  0.00    -0.206 F 
ATOM     82  C   UNL A   1      45.311  36.166  27.829  1.00  0.00     0.022 A 
BRANCH  79  83
ATOM     83  S   UNL A   1      45.717  34.371  25.762  1.00  0.00     0.124 S 
ATOM     84  O   UNL A   1      46.214  33.018  25.987  1.00  0.00    -0.237 OA
ATOM     85  O   UNL A   1      44.510  34.491  24.951  1.00  0.00    -0.237 OA
ATOM     86  O   UNL A   1      46.749  35.367  25.471  1.00  0.00    -0.744 OA
ENDBRANCH  79  83
ENDBRANCH  52  76
BRANCH  64  87
ATOM     87  C   UNL A   1      41.187  30.701  33.954  1.00  0.00     0.023 A 
ATOM     88  C   UNL A   1      40.097  31.580  34.166  1.00  0.00     0.031 A 
ATOM     89  C   UNL A   1      41.995  30.389  35.061  1.00  0.00     0.131 A 
ATOM     90  C   UNL A   1      39.856  32.106  35.455  1.00  0.00     0.055 A 
ATOM     91  C   UNL A   1      41.741  30.895  36.335  1.00  0.00     0.041 A 
ATOM     92  F   UNL A   1      43.030  29.541  34.928  1.00  0.00    -0.206 F 
ATOM     93  C   UNL A   1      40.671  31.756  36.537  1.00  0.00     0.022 A 
BRANCH  90  94
ATOM     94  S   UNL A   1      38.459  33.243  35.761  1.00  0.00     0.124 S 
ATOM     95  O   UNL A   1      38.709  33.727  37.113  1.00  0.00    -0.237 OA
ATOM     96  O   UNL A   1      38.601  34.226  34.691  1.00  0.00    -0.237 OA
ATOM     97  O   UNL A   1      37.281  32.380  35.635  1.00  0.00    -0.744 OA
ENDBRANCH  90  94
ENDBRANCH  64  87
ENDBRANCH  38  39
ENDBRANCH  30  33
ENDBRANCH  28  29
ENDBRANCH  27  28
ENDBRANCH   1  27
TORSDOF 17
ENDMDL
