MODEL 1
REMARK VINA RESULT:     -12.3      0.000      0.000
REMARK SMILES COc1cc(C(=O)N[C@H](C(=O)NCCCNC(=O)c2ccc(-c3c4nc(c(-c5cc(S(=O)(=O)[O-])ccc5F)c5ccc([nH]5)c(-c5cc(S(=O)(=O)[O-])ccc5F)c5nc(c(-c6cc(S(=O)(=O)[O-])ccc6F)c6ccc3[nH]6)C=C5)C=C4)cc2)C2=C(C)N=N[C@H]2C)ccc1C
REMARK SMILES IDX 14 1 13 2 12 3 10 4 11 5 9 7 8 8 6 9 7 10 5 12 3 13 4 14
REMARK SMILES IDX 91 15 90 16 92 17 89 18 2 19 1 20 82 21 83 22 87 23 84 24
REMARK SMILES IDX 85 25 86 26 88 27 15 28 16 29 17 30 18 32 19 33 20 34 81 35
REMARK SMILES IDX 21 36 80 37 22 38 23 39 24 40 74 41 25 42 79 43 73 44 75 45
REMARK SMILES IDX 26 46 78 47 72 48 71 49 27 51 59 52 39 53 58 54 40 55 43 56
REMARK SMILES IDX 57 57 76 58 41 59 42 60 56 62 77 63 44 64 28 65 29 66 37 67
REMARK SMILES IDX 30 68 36 69 38 70 35 71 31 72 32 73 33 74 34 75 60 76 61 77
REMARK SMILES IDX 69 78 62 79 68 80 70 81 67 82 63 83 64 84 65 85 66 86 45 87
REMARK SMILES IDX 46 88 54 89 47 90 53 91 55 92 52 93 48 94 49 95 50 96 51 97
REMARK H PARENT 12 6 8 11 16 31 75 50 43 61
REMARK Flexibility Score: inf
ROOT
ATOM      1  C   UNL A   1      36.576  22.908  26.105  1.00  0.00     0.042 C 
ENDROOT
BRANCH   1   2
ATOM      2  C   UNL A   1      35.918  24.132  25.476  1.00  0.00     0.117 C 
BRANCH   2   3
ATOM      3  N   UNL A   1      35.593  23.938  24.069  1.00  0.00    -0.354 N 
ATOM      4  C   UNL A   1      34.438  23.472  23.493  1.00  0.00     0.247 C 
ATOM      5  O   UNL A   1      34.478  23.279  22.276  1.00  0.00    -0.272 OA
ATOM      6  H   UNL A   1      36.309  24.178  23.436  1.00  0.00     0.163 HD
BRANCH   4   7
ATOM      7  C   UNL A   1      33.213  23.023  24.374  1.00  0.00     0.202 C 
BRANCH   7   8
ATOM      8  N   UNL A   1      31.897  23.327  23.825  1.00  0.00    -0.337 N 
ATOM      9  C   UNL A   1      31.172  24.495  23.760  1.00  0.00     0.252 C 
ATOM     10  O   UNL A   1      30.092  24.448  23.175  1.00  0.00    -0.269 OA
ATOM     11  H   UNL A   1      31.441  22.551  23.426  1.00  0.00     0.165 HD
BRANCH   9  12
ATOM     12  C   UNL A   1      31.606  25.718  24.481  1.00  0.00     0.043 A 
ATOM     13  C   UNL A   1      33.103  27.604  24.753  1.00  0.00     0.122 A 
ATOM     14  C   UNL A   1      32.523  26.634  23.947  1.00  0.00     0.060 A 
ATOM     15  C   UNL A   1      32.717  27.682  26.092  1.00  0.00    -0.009 A 
ATOM     16  C   UNL A   1      31.693  26.865  26.588  1.00  0.00     0.008 A 
ATOM     17  C   UNL A   1      33.341  28.690  26.995  1.00  0.00     0.048 C 
ATOM     18  C   UNL A   1      31.136  25.882  25.783  1.00  0.00     0.014 A 
BRANCH  13  19
ATOM     19  O   UNL A   1      34.056  28.502  24.363  1.00  0.00    -0.496 OA
ATOM     20  C   UNL A   1      34.037  28.979  23.031  1.00  0.00     0.278 C 
ENDBRANCH  13  19
ENDBRANCH   9  12
ENDBRANCH   7   8
BRANCH   7  21
ATOM     21  C   UNL A   1      33.228  21.656  25.027  1.00  0.00     0.011 C 
ATOM     22  C   UNL A   1      33.295  21.202  26.295  1.00  0.00     0.064 C 
ATOM     23  C   UNL A   1      33.398  20.412  24.190  1.00  0.00     0.156 C 
ATOM     24  C   UNL A   1      33.277  21.877  27.630  1.00  0.00     0.069 C 
ATOM     25  N   UNL A   1      33.486  19.841  26.358  1.00  0.00    -0.160 NA
ATOM     26  N   UNL A   1      33.614  19.355  25.211  1.00  0.00    -0.181 NA
ATOM     27  C   UNL A   1      32.225  19.946  23.339  1.00  0.00     0.040 C 
ENDBRANCH   7  21
ENDBRANCH   4   7
ENDBRANCH   2   3
ENDBRANCH   1   2
BRANCH   1  28
ATOM     28  C   UNL A   1      37.853  22.486  25.391  1.00  0.00     0.118 C 
BRANCH  28  29
ATOM     29  N   UNL A   1      38.927  21.998  26.235  1.00  0.00    -0.352 N 
ATOM     30  C   UNL A   1      39.854  22.696  26.999  1.00  0.00     0.251 C 
ATOM     31  H   UNL A   1      39.013  21.017  26.274  1.00  0.00     0.163 HD
ATOM     32  O   UNL A   1      40.793  22.078  27.479  1.00  0.00    -0.269 OA
BRANCH  30  33
ATOM     33  C   UNL A   1      39.707  24.155  27.299  1.00  0.00     0.039 A 
ATOM     34  C   UNL A   1      40.399  25.080  26.490  1.00  0.00     0.014 A 
ATOM     35  C   UNL A   1      39.002  24.632  28.397  1.00  0.00     0.014 A 
ATOM     36  C   UNL A   1      40.490  26.428  26.861  1.00  0.00     0.010 A 
ATOM     37  C   UNL A   1      39.159  25.928  28.814  1.00  0.00     0.010 A 
ATOM     38  C   UNL A   1      39.915  26.821  28.063  1.00  0.00    -0.014 A 
BRANCH  38  39
ATOM     39  C   UNL A   1      40.125  28.082  28.745  1.00  0.00     0.031 A 
ATOM     40  C   UNL A   1      39.132  29.160  28.689  1.00  0.00     0.074 A 
ATOM     41  C   UNL A   1      41.024  28.055  29.750  1.00  0.00     0.049 A 
ATOM     42  N   UNL A   1      39.389  30.372  29.035  1.00  0.00    -0.248 NA
ATOM     43  C   UNL A   1      37.754  28.960  28.246  1.00  0.00     0.031 C 
ATOM     44  C   UNL A   1      41.071  28.887  30.947  1.00  0.00     0.029 A 
ATOM     45  N   UNL A   1      42.167  27.275  29.835  1.00  0.00    -0.354 N 
ATOM     46  C   UNL A   1      38.181  31.001  29.197  1.00  0.00     0.074 A 
ATOM     47  C   UNL A   1      37.203  30.128  28.589  1.00  0.00     0.031 C 
ATOM     48  C   UNL A   1      42.291  28.773  31.498  1.00  0.00     0.029 A 
ATOM     49  C   UNL A   1      43.104  27.987  30.581  1.00  0.00     0.049 A 
ATOM     50  H   UNL A   1      42.294  26.382  29.439  1.00  0.00     0.167 HD
ATOM     51  C   UNL A   1      38.089  32.100  29.995  1.00  0.00     0.034 A 
ATOM     52  C   UNL A   1      44.321  28.335  30.083  1.00  0.00     0.034 A 
ATOM     53  C   UNL A   1      39.347  32.365  30.696  1.00  0.00     0.049 A 
ATOM     54  C   UNL A   1      44.431  29.842  30.035  1.00  0.00     0.074 A 
ATOM     55  C   UNL A   1      39.749  32.170  32.008  1.00  0.00     0.029 A 
ATOM     56  N   UNL A   1      40.509  32.619  29.972  1.00  0.00    -0.354 N 
ATOM     57  N   UNL A   1      43.403  30.648  30.083  1.00  0.00    -0.248 NA
ATOM     58  C   UNL A   1      45.694  30.558  29.977  1.00  0.00     0.031 C 
ATOM     59  C   UNL A   1      41.162  32.310  32.066  1.00  0.00     0.029 A 
ATOM     60  C   UNL A   1      41.620  32.611  30.794  1.00  0.00     0.049 A 
ATOM     61  H   UNL A   1      40.536  32.783  29.002  1.00  0.00     0.167 HD
ATOM     62  C   UNL A   1      43.826  31.949  30.140  1.00  0.00     0.074 A 
ATOM     63  C   UNL A   1      45.275  31.834  30.040  1.00  0.00     0.031 C 
ATOM     64  C   UNL A   1      42.937  32.984  30.282  1.00  0.00     0.034 A 
BRANCH  51  65
ATOM     65  C   UNL A   1      36.765  32.723  30.364  1.00  0.00     0.023 A 
ATOM     66  C   UNL A   1      36.046  33.470  29.413  1.00  0.00     0.031 A 
ATOM     67  C   UNL A   1      36.160  32.599  31.630  1.00  0.00     0.131 A 
ATOM     68  C   UNL A   1      34.849  34.126  29.752  1.00  0.00     0.055 A 
ATOM     69  C   UNL A   1      34.996  33.293  31.986  1.00  0.00     0.041 A 
ATOM     70  F   UNL A   1      36.661  31.776  32.565  1.00  0.00    -0.206 F 
ATOM     71  C   UNL A   1      34.337  34.072  31.045  1.00  0.00     0.022 A 
BRANCH  68  72
ATOM     72  S   UNL A   1      33.954  35.031  28.459  1.00  0.00     0.124 S 
ATOM     73  O   UNL A   1      33.965  36.396  28.976  1.00  0.00    -0.237 OA
ATOM     74  O   UNL A   1      34.774  34.781  27.281  1.00  0.00    -0.237 OA
ATOM     75  O   UNL A   1      32.640  34.388  28.445  1.00  0.00    -0.744 OA
ENDBRANCH  68  72
ENDBRANCH  51  65
BRANCH  52  76
ATOM     76  C   UNL A   1      44.859  27.349  29.100  1.00  0.00     0.023 A 
ATOM     77  C   UNL A   1      44.757  27.685  27.730  1.00  0.00     0.031 A 
ATOM     78  C   UNL A   1      45.849  26.424  29.476  1.00  0.00     0.131 A 
ATOM     79  C   UNL A   1      45.705  27.206  26.810  1.00  0.00     0.055 A 
ATOM     80  C   UNL A   1      46.794  25.955  28.554  1.00  0.00     0.041 A 
ATOM     81  F   UNL A   1      46.039  26.120  30.768  1.00  0.00    -0.206 F 
ATOM     82  C   UNL A   1      46.747  26.373  27.225  1.00  0.00     0.022 A 
BRANCH  79  83
ATOM     83  S   UNL A   1      45.723  27.815  25.093  1.00  0.00     0.124 S 
ATOM     84  O   UNL A   1      46.474  26.764  24.415  1.00  0.00    -0.237 OA
ATOM     85  O   UNL A   1      44.307  27.901  24.751  1.00  0.00    -0.237 OA
ATOM     86  O   UNL A   1      46.409  29.098  25.224  1.00  0.00    -0.744 OA
ENDBRANCH  79  83
ENDBRANCH  52  76
BRANCH  64  87
ATOM     87  C   UNL A   1      43.215  34.461  30.059  1.00  0.00     0.023 A 
ATOM     88  C   UNL A   1      42.986  35.119  28.847  1.00  0.00     0.031 A 
ATOM     89  C   UNL A   1      43.669  35.298  31.115  1.00  0.00     0.131 A 
ATOM     90  C   UNL A   1      43.222  36.497  28.697  1.00  0.00     0.055 A 
ATOM     91  C   UNL A   1      43.860  36.676  30.980  1.00  0.00     0.041 A 
ATOM     92  F   UNL A   1      43.927  34.830  32.344  1.00  0.00    -0.206 F 
ATOM     93  C   UNL A   1      43.640  37.287  29.760  1.00  0.00     0.022 A 
BRANCH  90  94
ATOM     94  S   UNL A   1      42.980  37.216  27.055  1.00  0.00     0.124 S 
ATOM     95  O   UNL A   1      44.233  37.939  26.855  1.00  0.00    -0.237 OA
ATOM     96  O   UNL A   1      42.794  36.033  26.222  1.00  0.00    -0.237 OA
ATOM     97  O   UNL A   1      41.795  38.056  27.218  1.00  0.00    -0.744 OA
ENDBRANCH  90  94
ENDBRANCH  64  87
ENDBRANCH  38  39
ENDBRANCH  30  33
ENDBRANCH  28  29
ENDBRANCH   1  28
TORSDOF 17
ENDMDL
MODEL 2
REMARK VINA RESULT:     -12.2      4.032      9.494
REMARK SMILES COc1cc(C(=O)N[C@H](C(=O)NCCCNC(=O)c2ccc(-c3c4nc(c(-c5cc(S(=O)(=O)[O-])ccc5F)c5ccc([nH]5)c(-c5cc(S(=O)(=O)[O-])ccc5F)c5nc(c(-c6cc(S(=O)(=O)[O-])ccc6F)c6ccc3[nH]6)C=C5)C=C4)cc2)C2=C(C)N=N[C@H]2C)ccc1C
REMARK SMILES IDX 14 1 13 2 12 3 10 4 11 5 9 7 8 8 6 9 7 10 5 12 3 13 4 14
REMARK SMILES IDX 91 15 90 16 92 17 89 18 2 19 1 20 82 21 83 22 87 23 84 24
REMARK SMILES IDX 85 25 86 26 88 27 15 28 16 29 17 30 18 32 19 33 20 34 81 35
REMARK SMILES IDX 21 36 80 37 22 38 23 39 24 40 74 41 25 42 79 43 73 44 75 45
REMARK SMILES IDX 26 46 78 47 72 48 71 49 27 51 59 52 39 53 58 54 40 55 43 56
REMARK SMILES IDX 57 57 76 58 41 59 42 60 56 62 77 63 44 64 28 65 29 66 37 67
REMARK SMILES IDX 30 68 36 69 38 70 35 71 31 72 32 73 33 74 34 75 60 76 61 77
REMARK SMILES IDX 69 78 62 79 68 80 70 81 67 82 63 83 64 84 65 85 66 86 45 87
REMARK SMILES IDX 46 88 54 89 47 90 53 91 55 92 52 93 48 94 49 95 50 96 51 97
REMARK H PARENT 12 6 8 11 16 31 75 50 43 61
REMARK Flexibility Score: inf
ROOT
ATOM      1  C   UNL A   1      32.067  30.465  26.801  1.00  0.00     0.042 C 
ENDROOT
BRANCH   1   2
ATOM      2  C   UNL A   1      32.100  30.151  25.309  1.00  0.00     0.117 C 
BRANCH   2   3
ATOM      3  N   UNL A   1      33.261  29.362  24.922  1.00  0.00    -0.354 N 
ATOM      4  C   UNL A   1      33.380  28.390  23.962  1.00  0.00     0.247 C 
ATOM      5  O   UNL A   1      34.452  27.782  23.933  1.00  0.00    -0.272 OA
ATOM      6  H   UNL A   1      34.086  29.556  25.424  1.00  0.00     0.163 HD
BRANCH   4   7
ATOM      7  C   UNL A   1      32.142  27.949  23.093  1.00  0.00     0.202 C 
BRANCH   7   8
ATOM      8  N   UNL A   1      32.459  27.255  21.851  1.00  0.00    -0.337 N 
ATOM      9  C   UNL A   1      32.668  25.926  21.565  1.00  0.00     0.252 C 
ATOM     10  O   UNL A   1      32.868  25.634  20.387  1.00  0.00    -0.269 OA
ATOM     11  H   UNL A   1      32.537  27.849  21.070  1.00  0.00     0.165 HD
BRANCH   9  12
ATOM     12  C   UNL A   1      32.787  24.910  22.640  1.00  0.00     0.043 A 
ATOM     13  C   UNL A   1      34.120  23.556  24.144  1.00  0.00     0.122 A 
ATOM     14  C   UNL A   1      33.975  24.685  23.350  1.00  0.00     0.060 A 
ATOM     15  C   UNL A   1      33.043  22.677  24.264  1.00  0.00    -0.009 A 
ATOM     16  C   UNL A   1      31.808  22.978  23.675  1.00  0.00     0.008 A 
ATOM     17  C   UNL A   1      33.172  21.439  25.083  1.00  0.00     0.048 C 
ATOM     18  C   UNL A   1      31.678  24.095  22.863  1.00  0.00     0.014 A 
BRANCH  13  19
ATOM     19  O   UNL A   1      35.250  23.197  24.824  1.00  0.00    -0.496 OA
ATOM     20  C   UNL A   1      35.922  24.177  25.593  1.00  0.00     0.278 C 
ENDBRANCH  13  19
ENDBRANCH   9  12
ENDBRANCH   7   8
BRANCH   7  21
ATOM     21  C   UNL A   1      30.940  27.325  23.773  1.00  0.00     0.011 C 
ATOM     22  C   UNL A   1      30.747  26.584  24.883  1.00  0.00     0.064 C 
ATOM     23  C   UNL A   1      29.606  27.276  23.071  1.00  0.00     0.156 C 
ATOM     24  C   UNL A   1      31.648  26.144  25.994  1.00  0.00     0.069 C 
ATOM     25  N   UNL A   1      29.470  26.080  24.964  1.00  0.00    -0.160 NA
ATOM     26  N   UNL A   1      28.805  26.382  23.947  1.00  0.00    -0.181 NA
ATOM     27  C   UNL A   1      28.808  28.566  22.941  1.00  0.00     0.040 C 
ENDBRANCH   7  21
ENDBRANCH   4   7
ENDBRANCH   2   3
ENDBRANCH   1   2
BRANCH   1  28
ATOM     28  C   UNL A   1      33.429  30.323  27.468  1.00  0.00     0.118 C 
BRANCH  28  29
ATOM     29  N   UNL A   1      34.076  31.557  27.872  1.00  0.00    -0.352 N 
ATOM     30  C   UNL A   1      35.304  31.766  28.485  1.00  0.00     0.251 C 
ATOM     31  H   UNL A   1      33.563  32.377  27.683  1.00  0.00     0.163 HD
ATOM     32  O   UNL A   1      35.559  32.884  28.909  1.00  0.00    -0.269 OA
BRANCH  30  33
ATOM     33  C   UNL A   1      36.341  30.691  28.586  1.00  0.00     0.039 A 
ATOM     34  C   UNL A   1      36.437  29.961  29.789  1.00  0.00     0.014 A 
ATOM     35  C   UNL A   1      37.277  30.448  27.588  1.00  0.00     0.014 A 
ATOM     36  C   UNL A   1      37.527  29.114  30.028  1.00  0.00     0.010 A 
ATOM     37  C   UNL A   1      38.390  29.692  27.846  1.00  0.00     0.010 A 
ATOM     38  C   UNL A   1      38.528  29.041  29.067  1.00  0.00    -0.014 A 
BRANCH  38  39
ATOM     39  C   UNL A   1      39.840  28.449  29.236  1.00  0.00     0.031 A 
ATOM     40  C   UNL A   1      40.108  27.058  28.854  1.00  0.00     0.074 A 
ATOM     41  C   UNL A   1      40.862  29.322  29.335  1.00  0.00     0.049 A 
ATOM     42  N   UNL A   1      41.155  26.414  29.234  1.00  0.00    -0.248 NA
ATOM     43  C   UNL A   1      39.220  26.274  27.999  1.00  0.00     0.031 C 
ATOM     44  C   UNL A   1      42.257  29.134  28.952  1.00  0.00     0.029 A 
ATOM     45  N   UNL A   1      40.837  30.584  29.909  1.00  0.00    -0.354 N 
ATOM     46  C   UNL A   1      41.256  25.312  28.424  1.00  0.00     0.074 A 
ATOM     47  C   UNL A   1      39.981  25.203  27.754  1.00  0.00     0.031 C 
ATOM     48  C   UNL A   1      42.992  30.100  29.526  1.00  0.00     0.029 A 
ATOM     49  C   UNL A   1      42.109  30.838  30.418  1.00  0.00     0.049 A 
ATOM     50  H   UNL A   1      40.062  31.191  29.948  1.00  0.00     0.167 HD
ATOM     51  C   UNL A   1      42.464  24.708  28.246  1.00  0.00     0.034 A 
ATOM     52  C   UNL A   1      42.329  31.098  31.735  1.00  0.00     0.034 A 
ATOM     53  C   UNL A   1      43.543  25.463  28.884  1.00  0.00     0.049 A 
ATOM     54  C   UNL A   1      43.205  30.015  32.321  1.00  0.00     0.074 A 
ATOM     55  C   UNL A   1      44.539  26.285  28.379  1.00  0.00     0.029 A 
ATOM     56  N   UNL A   1      43.522  25.686  30.258  1.00  0.00    -0.354 N 
ATOM     57  N   UNL A   1      43.382  28.844  31.768  1.00  0.00    -0.248 NA
ATOM     58  C   UNL A   1      43.983  30.176  33.538  1.00  0.00     0.031 C 
ATOM     59  C   UNL A   1      45.115  27.002  29.462  1.00  0.00     0.029 A 
ATOM     60  C   UNL A   1      44.487  26.603  30.630  1.00  0.00     0.049 A 
ATOM     61  H   UNL A   1      42.901  25.248  30.883  1.00  0.00     0.167 HD
ATOM     62  C   UNL A   1      44.318  28.129  32.467  1.00  0.00     0.074 A 
ATOM     63  C   UNL A   1      44.639  29.004  33.586  1.00  0.00     0.031 C 
ATOM     64  C   UNL A   1      44.743  26.897  32.038  1.00  0.00     0.034 A 
BRANCH  51  65
ATOM     65  C   UNL A   1      42.679  23.616  27.228  1.00  0.00     0.023 A 
ATOM     66  C   UNL A   1      42.172  22.323  27.460  1.00  0.00     0.031 A 
ATOM     67  C   UNL A   1      43.361  23.796  26.008  1.00  0.00     0.131 A 
ATOM     68  C   UNL A   1      42.424  21.268  26.566  1.00  0.00     0.055 A 
ATOM     69  C   UNL A   1      43.659  22.736  25.142  1.00  0.00     0.041 A 
ATOM     70  F   UNL A   1      43.742  25.016  25.596  1.00  0.00    -0.206 F 
ATOM     71  C   UNL A   1      43.197  21.458  25.424  1.00  0.00     0.022 A 
BRANCH  68  72
ATOM     72  S   UNL A   1      41.697  19.641  26.908  1.00  0.00     0.124 S 
ATOM     73  O   UNL A   1      42.875  18.836  27.212  1.00  0.00    -0.237 OA
ATOM     74  O   UNL A   1      40.806  19.929  28.025  1.00  0.00    -0.237 OA
ATOM     75  O   UNL A   1      41.024  19.302  25.654  1.00  0.00    -0.744 OA
ENDBRANCH  68  72
ENDBRANCH  51  65
BRANCH  52  76
ATOM     76  C   UNL A   1      41.192  31.808  32.392  1.00  0.00     0.023 A 
ATOM     77  C   UNL A   1      40.520  31.121  33.432  1.00  0.00     0.031 A 
ATOM     78  C   UNL A   1      41.112  33.211  32.376  1.00  0.00     0.131 A 
ATOM     79  C   UNL A   1      39.911  31.837  34.476  1.00  0.00     0.055 A 
ATOM     80  C   UNL A   1      40.508  33.918  33.424  1.00  0.00     0.041 A 
ATOM     81  F   UNL A   1      41.785  33.918  31.457  1.00  0.00    -0.206 F 
ATOM     82  C   UNL A   1      39.937  33.233  34.496  1.00  0.00     0.022 A 
BRANCH  79  83
ATOM     83  S   UNL A   1      39.247  30.968  35.933  1.00  0.00     0.124 S 
ATOM     84  O   UNL A   1      40.001  29.720  35.901  1.00  0.00    -0.237 OA
ATOM     85  O   UNL A   1      39.563  31.869  37.037  1.00  0.00    -0.237 OA
ATOM     86  O   UNL A   1      37.827  30.857  35.610  1.00  0.00    -0.744 OA
ENDBRANCH  79  83
ENDBRANCH  52  76
BRANCH  64  87
ATOM     87  C   UNL A   1      45.525  25.872  32.842  1.00  0.00     0.023 A 
ATOM     88  C   UNL A   1      44.930  24.828  33.556  1.00  0.00     0.031 A 
ATOM     89  C   UNL A   1      46.947  25.872  32.860  1.00  0.00     0.131 A 
ATOM     90  C   UNL A   1      45.696  23.879  34.255  1.00  0.00     0.055 A 
ATOM     91  C   UNL A   1      47.710  24.903  33.516  1.00  0.00     0.041 A 
ATOM     92  F   UNL A   1      47.674  26.797  32.219  1.00  0.00    -0.206 F 
ATOM     93  C   UNL A   1      47.085  23.896  34.227  1.00  0.00     0.022 A 
BRANCH  90  94
ATOM     94  S   UNL A   1      44.810  22.631  35.220  1.00  0.00     0.124 S 
ATOM     95  O   UNL A   1      45.223  22.955  36.583  1.00  0.00    -0.237 OA
ATOM     96  O   UNL A   1      43.417  22.920  34.896  1.00  0.00    -0.237 OA
ATOM     97  O   UNL A   1      45.322  21.366  34.698  1.00  0.00    -0.744 OA
ENDBRANCH  90  94
ENDBRANCH  64  87
ENDBRANCH  38  39
ENDBRANCH  30  33
ENDBRANCH  28  29
ENDBRANCH   1  28
TORSDOF 17
ENDMDL
MODEL 3
REMARK VINA RESULT:     -12.2      1.833      2.488
REMARK SMILES COc1cc(C(=O)N[C@H](C(=O)NCCCNC(=O)c2ccc(-c3c4nc(c(-c5cc(S(=O)(=O)[O-])ccc5F)c5ccc([nH]5)c(-c5cc(S(=O)(=O)[O-])ccc5F)c5nc(c(-c6cc(S(=O)(=O)[O-])ccc6F)c6ccc3[nH]6)C=C5)C=C4)cc2)C2=C(C)N=N[C@H]2C)ccc1C
REMARK SMILES IDX 14 1 13 2 12 3 10 4 11 5 9 7 8 8 6 9 7 10 5 12 3 13 4 14
REMARK SMILES IDX 91 15 90 16 92 17 89 18 2 19 1 20 82 21 83 22 87 23 84 24
REMARK SMILES IDX 85 25 86 26 88 27 15 28 16 29 17 30 18 32 19 33 20 34 81 35
REMARK SMILES IDX 21 36 80 37 22 38 23 39 24 40 74 41 25 42 79 43 73 44 75 45
REMARK SMILES IDX 26 46 78 47 72 48 71 49 27 51 59 52 39 53 58 54 40 55 43 56
REMARK SMILES IDX 57 57 76 58 41 59 42 60 56 62 77 63 44 64 28 65 29 66 37 67
REMARK SMILES IDX 30 68 36 69 38 70 35 71 31 72 32 73 33 74 34 75 60 76 61 77
REMARK SMILES IDX 69 78 62 79 68 80 70 81 67 82 63 83 64 84 65 85 66 86 45 87
REMARK SMILES IDX 46 88 54 89 47 90 53 91 55 92 52 93 48 94 49 95 50 96 51 97
REMARK H PARENT 12 6 8 11 16 31 75 50 43 61
REMARK Flexibility Score: inf
ROOT
ATOM      1  C   UNL A   1      36.740  23.344  26.127  1.00  0.00     0.042 C 
ENDROOT
BRANCH   1   2
ATOM      2  C   UNL A   1      35.843  24.335  25.393  1.00  0.00     0.117 C 
BRANCH   2   3
ATOM      3  N   UNL A   1      35.195  23.754  24.224  1.00  0.00    -0.354 N 
ATOM      4  C   UNL A   1      33.974  24.038  23.668  1.00  0.00     0.247 C 
ATOM      5  O   UNL A   1      33.609  23.297  22.752  1.00  0.00    -0.272 OA
ATOM      6  H   UNL A   1      35.712  23.053  23.764  1.00  0.00     0.163 HD
BRANCH   4   7
ATOM      7  C   UNL A   1      33.020  25.116  24.306  1.00  0.00     0.202 C 
BRANCH   7   8
ATOM      8  N   UNL A   1      32.506  26.125  23.387  1.00  0.00    -0.337 N 
ATOM      9  C   UNL A   1      32.430  27.497  23.473  1.00  0.00     0.252 C 
ATOM     10  O   UNL A   1      31.986  28.092  22.493  1.00  0.00    -0.269 OA
ATOM     11  H   UNL A   1      32.147  25.756  22.549  1.00  0.00     0.165 HD
BRANCH   9  12
ATOM     12  C   UNL A   1      32.737  28.213  24.736  1.00  0.00     0.043 A 
ATOM     13  C   UNL A   1      32.276  29.957  26.354  1.00  0.00     0.122 A 
ATOM     14  C   UNL A   1      31.847  29.112  25.340  1.00  0.00     0.060 A 
ATOM     15  C   UNL A   1      33.596  29.858  26.796  1.00  0.00    -0.009 A 
ATOM     16  C   UNL A   1      34.443  28.860  26.297  1.00  0.00     0.008 A 
ATOM     17  C   UNL A   1      34.100  30.769  27.862  1.00  0.00     0.048 C 
ATOM     18  C   UNL A   1      34.015  28.036  25.266  1.00  0.00     0.014 A 
BRANCH  13  19
ATOM     19  O   UNL A   1      31.521  30.917  26.967  1.00  0.00    -0.496 OA
ATOM     20  C   UNL A   1      31.127  32.052  26.220  1.00  0.00     0.278 C 
ENDBRANCH  13  19
ENDBRANCH   9  12
ENDBRANCH   7   8
BRANCH   7  21
ATOM     21  C   UNL A   1      31.950  24.677  25.285  1.00  0.00     0.011 C 
ATOM     22  C   UNL A   1      30.673  25.034  25.530  1.00  0.00     0.064 C 
ATOM     23  C   UNL A   1      32.298  23.769  26.438  1.00  0.00     0.156 C 
ATOM     24  C   UNL A   1      29.718  25.966  24.851  1.00  0.00     0.069 C 
ATOM     25  N   UNL A   1      30.180  24.469  26.683  1.00  0.00    -0.160 NA
ATOM     26  N   UNL A   1      31.065  23.801  27.267  1.00  0.00    -0.181 NA
ATOM     27  C   UNL A   1      32.571  22.299  26.145  1.00  0.00     0.040 C 
ENDBRANCH   7  21
ENDBRANCH   4   7
ENDBRANCH   2   3
ENDBRANCH   1   2
BRANCH   1  28
ATOM     28  C   UNL A   1      37.762  22.678  25.214  1.00  0.00     0.118 C 
BRANCH  28  29
ATOM     29  N   UNL A   1      38.978  22.209  25.850  1.00  0.00    -0.352 N 
ATOM     30  C   UNL A   1      39.973  22.917  26.511  1.00  0.00     0.251 C 
ATOM     31  H   UNL A   1      39.122  21.235  25.807  1.00  0.00     0.163 HD
ATOM     32  O   UNL A   1      41.007  22.332  26.799  1.00  0.00    -0.269 OA
BRANCH  30  33
ATOM     33  C   UNL A   1      39.797  24.343  26.931  1.00  0.00     0.039 A 
ATOM     34  C   UNL A   1      40.417  25.351  26.163  1.00  0.00     0.014 A 
ATOM     35  C   UNL A   1      39.135  24.711  28.096  1.00  0.00     0.014 A 
ATOM     36  C   UNL A   1      40.485  26.669  26.633  1.00  0.00     0.010 A 
ATOM     37  C   UNL A   1      39.273  25.975  28.605  1.00  0.00     0.010 A 
ATOM     38  C   UNL A   1      39.960  26.949  27.889  1.00  0.00    -0.014 A 
BRANCH  38  39
ATOM     39  C   UNL A   1      40.167  28.160  28.657  1.00  0.00     0.031 A 
ATOM     40  C   UNL A   1      39.139  29.206  28.732  1.00  0.00     0.074 A 
ATOM     41  C   UNL A   1      41.114  28.088  29.613  1.00  0.00     0.049 A 
ATOM     42  N   UNL A   1      39.377  30.396  29.158  1.00  0.00    -0.248 NA
ATOM     43  C   UNL A   1      37.748  28.993  28.340  1.00  0.00     0.031 C 
ATOM     44  C   UNL A   1      41.197  28.828  30.867  1.00  0.00     0.029 A 
ATOM     45  N   UNL A   1      42.284  27.343  29.582  1.00  0.00    -0.354 N 
ATOM     46  C   UNL A   1      38.160  30.969  29.425  1.00  0.00     0.074 A 
ATOM     47  C   UNL A   1      37.180  30.113  28.798  1.00  0.00     0.031 C 
ATOM     48  C   UNL A   1      42.445  28.713  31.349  1.00  0.00     0.029 A 
ATOM     49  C   UNL A   1      43.235  28.027  30.336  1.00  0.00     0.049 A 
ATOM     50  H   UNL A   1      42.417  26.487  29.113  1.00  0.00     0.167 HD
ATOM     51  C   UNL A   1      38.075  32.001  30.310  1.00  0.00     0.034 A 
ATOM     52  C   UNL A   1      44.414  28.454  29.810  1.00  0.00     0.034 A 
ATOM     53  C   UNL A   1      39.358  32.254  30.968  1.00  0.00     0.049 A 
ATOM     54  C   UNL A   1      44.476  29.963  29.873  1.00  0.00     0.074 A 
ATOM     55  C   UNL A   1      39.830  31.974  32.241  1.00  0.00     0.029 A 
ATOM     56  N   UNL A   1      40.474  32.602  30.212  1.00  0.00    -0.354 N 
ATOM     57  N   UNL A   1      43.428  30.727  30.033  1.00  0.00    -0.248 NA
ATOM     58  C   UNL A   1      45.712  30.724  29.811  1.00  0.00     0.031 C 
ATOM     59  C   UNL A   1      41.239  32.157  32.242  1.00  0.00     0.029 A 
ATOM     60  C   UNL A   1      41.624  32.570  30.977  1.00  0.00     0.049 A 
ATOM     61  H   UNL A   1      40.447  32.840  29.258  1.00  0.00     0.167 HD
ATOM     62  C   UNL A   1      43.814  32.034  30.170  1.00  0.00     0.074 A 
ATOM     63  C   UNL A   1      45.259  31.976  29.993  1.00  0.00     0.031 C 
ATOM     64  C   UNL A   1      42.902  33.024  30.434  1.00  0.00     0.034 A 
BRANCH  51  65
ATOM     65  C   UNL A   1      36.753  32.549  30.788  1.00  0.00     0.023 A 
ATOM     66  C   UNL A   1      36.002  33.405  29.962  1.00  0.00     0.031 A 
ATOM     67  C   UNL A   1      36.180  32.248  32.040  1.00  0.00     0.131 A 
ATOM     68  C   UNL A   1      34.806  33.991  30.412  1.00  0.00     0.055 A 
ATOM     69  C   UNL A   1      35.017  32.871  32.511  1.00  0.00     0.041 A 
ATOM     70  F   UNL A   1      36.714  31.316  32.845  1.00  0.00    -0.206 F 
ATOM     71  C   UNL A   1      34.326  33.758  31.697  1.00  0.00     0.022 A 
BRANCH  68  72
ATOM     72  S   UNL A   1      33.868  35.046  29.272  1.00  0.00     0.124 S 
ATOM     73  O   UNL A   1      32.716  34.208  28.956  1.00  0.00    -0.237 OA
ATOM     74  O   UNL A   1      33.603  36.225  30.088  1.00  0.00    -0.237 OA
ATOM     75  O   UNL A   1      34.799  35.260  28.165  1.00  0.00    -0.744 OA
ENDBRANCH  68  72
ENDBRANCH  51  65
BRANCH  52  76
ATOM     76  C   UNL A   1      44.932  27.564  28.729  1.00  0.00     0.023 A 
ATOM     77  C   UNL A   1      45.198  28.162  27.475  1.00  0.00     0.031 A 
ATOM     78  C   UNL A   1      45.605  26.369  29.040  1.00  0.00     0.131 A 
ATOM     79  C   UNL A   1      46.199  27.641  26.638  1.00  0.00     0.055 A 
ATOM     80  C   UNL A   1      46.606  25.858  28.203  1.00  0.00     0.041 A 
ATOM     81  F   UNL A   1      45.446  25.794  30.241  1.00  0.00    -0.206 F 
ATOM     82  C   UNL A   1      46.931  26.513  27.016  1.00  0.00     0.022 A 
BRANCH  79  83
ATOM     83  S   UNL A   1      46.709  28.533  25.134  1.00  0.00     0.124 S 
ATOM     84  O   UNL A   1      48.150  28.308  25.132  1.00  0.00    -0.237 OA
ATOM     85  O   UNL A   1      45.964  27.863  24.074  1.00  0.00    -0.237 OA
ATOM     86  O   UNL A   1      46.284  29.901  25.423  1.00  0.00    -0.744 OA
ENDBRANCH  79  83
ENDBRANCH  52  76
BRANCH  64  87
ATOM     87  C   UNL A   1      43.124  34.523  30.313  1.00  0.00     0.023 A 
ATOM     88  C   UNL A   1      43.426  35.353  31.397  1.00  0.00     0.031 A 
ATOM     89  C   UNL A   1      43.103  35.175  29.050  1.00  0.00     0.131 A 
ATOM     90  C   UNL A   1      43.661  36.729  31.231  1.00  0.00     0.055 A 
ATOM     91  C   UNL A   1      43.381  36.534  28.879  1.00  0.00     0.041 A 
ATOM     92  F   UNL A   1      42.839  34.525  27.908  1.00  0.00    -0.206 F 
ATOM     93  C   UNL A   1      43.659  37.326  29.977  1.00  0.00     0.022 A 
BRANCH  90  94
ATOM     94  S   UNL A   1      43.950  37.716  32.720  1.00  0.00     0.124 S 
ATOM     95  O   UNL A   1      43.642  39.065  32.251  1.00  0.00    -0.237 OA
ATOM     96  O   UNL A   1      42.995  37.142  33.662  1.00  0.00    -0.237 OA
ATOM     97  O   UNL A   1      45.356  37.469  33.028  1.00  0.00    -0.744 OA
ENDBRANCH  90  94
ENDBRANCH  64  87
ENDBRANCH  38  39
ENDBRANCH  30  33
ENDBRANCH  28  29
ENDBRANCH   1  28
TORSDOF 17
ENDMDL
