MODEL 1
REMARK VINA RESULT:     -12.5      0.000      0.000
REMARK SMILES COCc1cc(-n2cnc(C(=O)NCCCNC(=O)c3ccc(-c4c5nc(c(-c6cc(S(=O)(=O)[O-])ccc6F)c6ccc([nH]6)c(-c6cc(S(=O)(=O)[O-])ccc6F)c6nc(c(-c7cc(S(=O)(=O)[O-])ccc7F)c7ccc4[nH]7)C=C6)C=C5)cc3)c2)nc(-c2cccnc2)n1
REMARK SMILES IDX 15 1 14 2 13 3 11 4 12 5 10 7 7 8 8 9 83 10 9 11 6 12 4 13
REMARK SMILES IDX 5 14 92 15 85 16 84 17 3 18 2 19 1 20 86 21 87 22 91 23
REMARK SMILES IDX 88 24 90 25 89 26 16 27 17 28 18 29 19 31 20 32 21 33 82 34
REMARK SMILES IDX 22 35 81 36 23 37 24 38 25 39 75 40 26 41 80 42 74 43 76 44
REMARK SMILES IDX 27 45 79 46 73 47 72 48 28 50 60 51 40 52 59 53 41 54 44 55
REMARK SMILES IDX 58 56 77 57 42 58 43 59 57 61 78 62 45 63 29 64 30 65 38 66
REMARK SMILES IDX 31 67 37 68 39 69 36 70 32 71 33 72 34 73 35 74 61 75 62 76
REMARK SMILES IDX 70 77 63 78 69 79 71 80 68 81 64 82 65 83 66 84 67 85 46 86
REMARK SMILES IDX 47 87 55 88 48 89 54 90 56 91 53 92 49 93 50 94 51 95 52 96
REMARK H PARENT 13 6 17 30 76 49 44 60
REMARK Flexibility Score: inf
ROOT
ATOM      1  C   UNL A   1      37.211  20.294  24.827  1.00  0.00     0.042 C 
ENDROOT
BRANCH   1   2
ATOM      2  C   UNL A   1      36.049  21.207  25.242  1.00  0.00     0.118 C 
BRANCH   2   3
ATOM      3  N   UNL A   1      34.785  20.501  25.369  1.00  0.00    -0.351 N 
ATOM      4  C   UNL A   1      33.486  20.842  25.055  1.00  0.00     0.271 C 
ATOM      5  O   UNL A   1      32.636  19.964  25.200  1.00  0.00    -0.267 OA
ATOM      6  H   UNL A   1      34.873  19.599  25.755  1.00  0.00     0.163 HD
BRANCH   4   7
ATOM      7  C   UNL A   1      33.126  22.191  24.587  1.00  0.00     0.146 A 
ATOM      8  N   UNL A   1      32.483  24.298  24.402  1.00  0.00    -0.290 N 
ATOM      9  C   UNL A   1      32.584  23.743  23.160  1.00  0.00     0.206 A 
ATOM     10  C   UNL A   1      32.821  23.324  25.307  1.00  0.00     0.128 A 
ATOM     11  N   UNL A   1      32.989  22.493  23.230  1.00  0.00    -0.231 NA
BRANCH   8  12
ATOM     12  C   UNL A   1      32.006  25.562  24.791  1.00  0.00     0.142 A 
ATOM     13  C   UNL A   1      32.279  27.465  26.100  1.00  0.00     0.072 A 
ATOM     14  C   UNL A   1      32.469  26.104  25.971  1.00  0.00     0.074 A 
ATOM     15  N   UNL A   1      31.605  28.192  25.176  1.00  0.00    -0.230 NA
ATOM     16  C   UNL A   1      31.090  27.542  24.124  1.00  0.00     0.163 A 
ATOM     17  N   UNL A   1      31.310  26.252  23.860  1.00  0.00    -0.210 NA
BRANCH  13  18
ATOM     18  C   UNL A   1      32.874  28.231  27.258  1.00  0.00     0.216 C 
BRANCH  18  19
ATOM     19  O   UNL A   1      33.843  29.200  26.849  1.00  0.00    -0.378 OA
ATOM     20  C   UNL A   1      33.388  30.541  27.006  1.00  0.00     0.195 C 
ENDBRANCH  18  19
ENDBRANCH  13  18
BRANCH  16  21
ATOM     21  C   UNL A   1      30.156  28.274  23.280  1.00  0.00     0.038 A 
ATOM     22  C   UNL A   1      28.767  28.129  23.411  1.00  0.00     0.015 A 
ATOM     23  C   UNL A   1      30.596  29.207  22.346  1.00  0.00     0.123 A 
ATOM     24  C   UNL A   1      27.903  28.908  22.643  1.00  0.00     0.021 A 
ATOM     25  N   UNL A   1      29.782  29.972  21.573  1.00  0.00    -0.264 NA
ATOM     26  C   UNL A   1      28.454  29.806  21.746  1.00  0.00     0.111 A 
ENDBRANCH  16  21
ENDBRANCH   8  12
ENDBRANCH   4   7
ENDBRANCH   2   3
ENDBRANCH   1   2
BRANCH   1  27
ATOM     27  C   UNL A   1      38.514  20.726  25.483  1.00  0.00     0.118 C 
BRANCH  27  28
ATOM     28  N   UNL A   1      39.456  19.607  25.653  1.00  0.00    -0.352 N 
ATOM     29  C   UNL A   1      40.821  19.637  25.916  1.00  0.00     0.251 C 
ATOM     30  H   UNL A   1      39.062  18.708  25.571  1.00  0.00     0.163 HD
ATOM     31  O   UNL A   1      41.517  18.664  25.689  1.00  0.00    -0.269 OA
BRANCH  29  32
ATOM     32  C   UNL A   1      41.394  20.877  26.475  1.00  0.00     0.039 A 
ATOM     33  C   UNL A   1      41.967  21.876  25.684  1.00  0.00     0.014 A 
ATOM     34  C   UNL A   1      41.282  21.040  27.846  1.00  0.00     0.014 A 
ATOM     35  C   UNL A   1      42.346  23.071  26.300  1.00  0.00     0.010 A 
ATOM     36  C   UNL A   1      41.387  22.287  28.383  1.00  0.00     0.010 A 
ATOM     37  C   UNL A   1      42.030  23.272  27.654  1.00  0.00    -0.014 A 
BRANCH  37  38
ATOM     38  C   UNL A   1      42.244  24.536  28.345  1.00  0.00     0.031 A 
ATOM     39  C   UNL A   1      41.105  25.476  28.213  1.00  0.00     0.074 A 
ATOM     40  C   UNL A   1      43.258  24.722  29.225  1.00  0.00     0.049 A 
ATOM     41  N   UNL A   1      41.056  26.543  27.492  1.00  0.00    -0.248 NA
ATOM     42  C   UNL A   1      39.798  25.082  28.769  1.00  0.00     0.031 C 
ATOM     43  C   UNL A   1      44.277  23.759  29.669  1.00  0.00     0.029 A 
ATOM     44  N   UNL A   1      43.534  25.801  30.003  1.00  0.00    -0.354 N 
ATOM     45  C   UNL A   1      39.811  27.108  27.737  1.00  0.00     0.074 A 
ATOM     46  C   UNL A   1      39.013  26.056  28.303  1.00  0.00     0.031 C 
ATOM     47  C   UNL A   1      44.889  24.215  30.787  1.00  0.00     0.029 A 
ATOM     48  C   UNL A   1      44.444  25.573  31.039  1.00  0.00     0.049 A 
ATOM     49  H   UNL A   1      43.122  26.682  29.849  1.00  0.00     0.167 HD
ATOM     50  C   UNL A   1      39.648  28.460  27.715  1.00  0.00     0.034 A 
ATOM     51  C   UNL A   1      44.806  26.436  32.031  1.00  0.00     0.034 A 
ATOM     52  C   UNL A   1      40.796  29.098  27.100  1.00  0.00     0.049 A 
ATOM     53  C   UNL A   1      44.478  27.795  31.526  1.00  0.00     0.074 A 
ATOM     54  C   UNL A   1      41.402  29.003  25.862  1.00  0.00     0.029 A 
ATOM     55  N   UNL A   1      41.746  29.647  27.935  1.00  0.00    -0.354 N 
ATOM     56  N   UNL A   1      45.068  28.325  30.487  1.00  0.00    -0.248 NA
ATOM     57  C   UNL A   1      43.154  28.326  31.820  1.00  0.00     0.031 C 
ATOM     58  C   UNL A   1      42.802  29.005  26.142  1.00  0.00     0.029 A 
ATOM     59  C   UNL A   1      42.980  29.215  27.512  1.00  0.00     0.049 A 
ATOM     60  H   UNL A   1      41.571  30.244  28.700  1.00  0.00     0.167 HD
ATOM     61  C   UNL A   1      44.045  28.903  29.749  1.00  0.00     0.074 A 
ATOM     62  C   UNL A   1      42.903  28.950  30.663  1.00  0.00     0.031 C 
ATOM     63  C   UNL A   1      44.123  29.012  28.388  1.00  0.00     0.034 A 
BRANCH  50  64
ATOM     64  C   UNL A   1      38.678  29.237  28.579  1.00  0.00     0.023 A 
ATOM     65  C   UNL A   1      38.922  29.238  29.966  1.00  0.00     0.031 A 
ATOM     66  C   UNL A   1      37.410  29.719  28.182  1.00  0.00     0.131 A 
ATOM     67  C   UNL A   1      37.911  29.583  30.880  1.00  0.00     0.055 A 
ATOM     68  C   UNL A   1      36.430  30.124  29.093  1.00  0.00     0.041 A 
ATOM     69  F   UNL A   1      37.005  29.744  26.908  1.00  0.00    -0.206 F 
ATOM     70  C   UNL A   1      36.664  30.024  30.452  1.00  0.00     0.022 A 
BRANCH  67  71
ATOM     71  S   UNL A   1      38.201  29.265  32.638  1.00  0.00     0.124 S 
ATOM     72  O   UNL A   1      37.391  30.306  33.261  1.00  0.00    -0.237 OA
ATOM     73  O   UNL A   1      37.712  27.897  32.778  1.00  0.00    -0.237 OA
ATOM     74  O   UNL A   1      39.646  29.429  32.777  1.00  0.00    -0.744 OA
ENDBRANCH  67  71
ENDBRANCH  50  64
BRANCH  51  75
ATOM     75  C   UNL A   1      45.038  26.115  33.475  1.00  0.00     0.023 A 
ATOM     76  C   UNL A   1      44.062  26.264  34.490  1.00  0.00     0.031 A 
ATOM     77  C   UNL A   1      46.207  25.404  33.832  1.00  0.00     0.131 A 
ATOM     78  C   UNL A   1      44.282  25.719  35.784  1.00  0.00     0.055 A 
ATOM     79  C   UNL A   1      46.415  24.866  35.105  1.00  0.00     0.041 A 
ATOM     80  F   UNL A   1      47.157  25.135  32.923  1.00  0.00    -0.206 F 
ATOM     81  C   UNL A   1      45.449  25.014  36.085  1.00  0.00     0.022 A 
BRANCH  78  82
ATOM     82  S   UNL A   1      43.019  25.858  37.099  1.00  0.00     0.124 S 
ATOM     83  O   UNL A   1      42.651  27.268  37.034  1.00  0.00    -0.237 OA
ATOM     84  O   UNL A   1      42.007  24.902  36.666  1.00  0.00    -0.237 OA
ATOM     85  O   UNL A   1      43.740  25.473  38.314  1.00  0.00    -0.744 OA
ENDBRANCH  78  82
ENDBRANCH  51  75
BRANCH  63  86
ATOM     86  C   UNL A   1      45.456  28.732  27.712  1.00  0.00     0.023 A 
ATOM     87  C   UNL A   1      45.855  27.492  27.156  1.00  0.00     0.031 A 
ATOM     88  C   UNL A   1      46.304  29.836  27.510  1.00  0.00     0.131 A 
ATOM     89  C   UNL A   1      47.065  27.399  26.433  1.00  0.00     0.055 A 
ATOM     90  C   UNL A   1      47.483  29.745  26.775  1.00  0.00     0.041 A 
ATOM     91  F   UNL A   1      45.970  31.045  27.993  1.00  0.00    -0.206 F 
ATOM     92  C   UNL A   1      47.871  28.526  26.236  1.00  0.00     0.022 A 
BRANCH  89  93
ATOM     93  S   UNL A   1      47.631  25.808  25.741  1.00  0.00     0.124 S 
ATOM     94  O   UNL A   1      47.150  24.826  26.706  1.00  0.00    -0.237 OA
ATOM     95  O   UNL A   1      46.988  25.782  24.429  1.00  0.00    -0.237 OA
ATOM     96  O   UNL A   1      49.088  25.954  25.697  1.00  0.00    -0.744 OA
ENDBRANCH  89  93
ENDBRANCH  63  86
ENDBRANCH  37  38
ENDBRANCH  29  32
ENDBRANCH  27  28
ENDBRANCH   1  27
TORSDOF 17
ENDMDL
MODEL 2
REMARK VINA RESULT:     -12.5      4.088      9.803
REMARK SMILES COCc1cc(-n2cnc(C(=O)NCCCNC(=O)c3ccc(-c4c5nc(c(-c6cc(S(=O)(=O)[O-])ccc6F)c6ccc([nH]6)c(-c6cc(S(=O)(=O)[O-])ccc6F)c6nc(c(-c7cc(S(=O)(=O)[O-])ccc7F)c7ccc4[nH]7)C=C6)C=C5)cc3)c2)nc(-c2cccnc2)n1
REMARK SMILES IDX 15 1 14 2 13 3 11 4 12 5 10 7 7 8 8 9 83 10 9 11 6 12 4 13
REMARK SMILES IDX 5 14 92 15 85 16 84 17 3 18 2 19 1 20 86 21 87 22 91 23
REMARK SMILES IDX 88 24 90 25 89 26 16 27 17 28 18 29 19 31 20 32 21 33 82 34
REMARK SMILES IDX 22 35 81 36 23 37 24 38 25 39 75 40 26 41 80 42 74 43 76 44
REMARK SMILES IDX 27 45 79 46 73 47 72 48 28 50 60 51 40 52 59 53 41 54 44 55
REMARK SMILES IDX 58 56 77 57 42 58 43 59 57 61 78 62 45 63 29 64 30 65 38 66
REMARK SMILES IDX 31 67 37 68 39 69 36 70 32 71 33 72 34 73 35 74 61 75 62 76
REMARK SMILES IDX 70 77 63 78 69 79 71 80 68 81 64 82 65 83 66 84 67 85 46 86
REMARK SMILES IDX 47 87 55 88 48 89 54 90 56 91 53 92 49 93 50 94 51 95 52 96
REMARK H PARENT 13 6 17 30 76 49 44 60
REMARK Flexibility Score: inf
ROOT
ATOM      1  C   UNL A   1      31.482  31.060  26.401  1.00  0.00     0.042 C 
ENDROOT
BRANCH   1   2
ATOM      2  C   UNL A   1      32.003  29.905  25.534  1.00  0.00     0.118 C 
BRANCH   2   3
ATOM      3  N   UNL A   1      31.236  29.716  24.313  1.00  0.00    -0.351 N 
ATOM      4  C   UNL A   1      30.771  28.592  23.664  1.00  0.00     0.271 C 
ATOM      5  O   UNL A   1      30.056  28.781  22.681  1.00  0.00    -0.267 OA
ATOM      6  H   UNL A   1      31.002  30.559  23.860  1.00  0.00     0.163 HD
BRANCH   4   7
ATOM      7  C   UNL A   1      31.122  27.233  24.110  1.00  0.00     0.146 A 
ATOM      8  N   UNL A   1      32.071  25.268  24.461  1.00  0.00    -0.290 N 
ATOM      9  C   UNL A   1      30.810  25.264  24.981  1.00  0.00     0.206 A 
ATOM     10  C   UNL A   1      32.273  26.507  23.908  1.00  0.00     0.128 A 
ATOM     11  N   UNL A   1      30.222  26.428  24.813  1.00  0.00    -0.231 NA
BRANCH   8  12
ATOM     12  C   UNL A   1      33.004  24.224  24.343  1.00  0.00     0.142 A 
ATOM     13  C   UNL A   1      35.189  23.477  24.627  1.00  0.00     0.072 A 
ATOM     14  C   UNL A   1      34.346  24.537  24.356  1.00  0.00     0.074 A 
ATOM     15  N   UNL A   1      34.732  22.210  24.774  1.00  0.00    -0.230 NA
ATOM     16  C   UNL A   1      33.419  21.997  24.620  1.00  0.00     0.163 A 
ATOM     17  N   UNL A   1      32.517  22.968  24.463  1.00  0.00    -0.210 NA
BRANCH  13  18
ATOM     18  C   UNL A   1      36.670  23.690  24.836  1.00  0.00     0.216 C 
BRANCH  18  19
ATOM     19  O   UNL A   1      37.169  23.032  26.003  1.00  0.00    -0.378 OA
ATOM     20  C   UNL A   1      38.136  22.028  25.705  1.00  0.00     0.195 C 
ENDBRANCH  18  19
ENDBRANCH  13  18
BRANCH  16  21
ATOM     21  C   UNL A   1      32.975  20.613  24.522  1.00  0.00     0.038 A 
ATOM     22  C   UNL A   1      32.615  20.035  23.296  1.00  0.00     0.015 A 
ATOM     23  C   UNL A   1      32.950  19.776  25.633  1.00  0.00     0.123 A 
ATOM     24  C   UNL A   1      32.275  18.685  23.228  1.00  0.00     0.021 A 
ATOM     25  N   UNL A   1      32.611  18.462  25.604  1.00  0.00    -0.264 NA
ATOM     26  C   UNL A   1      32.286  17.948  24.399  1.00  0.00     0.111 A 
ENDBRANCH  16  21
ENDBRANCH   8  12
ENDBRANCH   4   7
ENDBRANCH   2   3
ENDBRANCH   1   2
BRANCH   1  27
ATOM     27  C   UNL A   1      32.616  31.740  27.155  1.00  0.00     0.118 C 
BRANCH  27  28
ATOM     28  N   UNL A   1      32.359  33.171  27.384  1.00  0.00    -0.352 N 
ATOM     29  C   UNL A   1      32.977  34.045  28.273  1.00  0.00     0.251 C 
ATOM     30  H   UNL A   1      31.650  33.566  26.828  1.00  0.00     0.163 HD
ATOM     31  O   UNL A   1      32.436  35.088  28.591  1.00  0.00    -0.269 OA
BRANCH  29  32
ATOM     32  C   UNL A   1      34.298  33.669  28.812  1.00  0.00     0.039 A 
ATOM     33  C   UNL A   1      34.466  33.027  30.041  1.00  0.00     0.014 A 
ATOM     34  C   UNL A   1      35.389  33.932  27.998  1.00  0.00     0.014 A 
ATOM     35  C   UNL A   1      35.745  32.586  30.387  1.00  0.00     0.010 A 
ATOM     36  C   UNL A   1      36.557  33.262  28.206  1.00  0.00     0.010 A 
ATOM     37  C   UNL A   1      36.783  32.693  29.447  1.00  0.00    -0.014 A 
BRANCH  37  38
ATOM     38  C   UNL A   1      38.110  32.127  29.653  1.00  0.00     0.031 A 
ATOM     39  C   UNL A   1      38.220  30.718  29.205  1.00  0.00     0.074 A 
ATOM     40  C   UNL A   1      39.184  32.888  29.972  1.00  0.00     0.049 A 
ATOM     41  N   UNL A   1      38.290  29.668  29.950  1.00  0.00    -0.248 NA
ATOM     42  C   UNL A   1      38.016  30.412  27.778  1.00  0.00     0.031 C 
ATOM     43  C   UNL A   1      39.259  34.347  30.144  1.00  0.00     0.029 A 
ATOM     44  N   UNL A   1      40.486  32.524  30.110  1.00  0.00    -0.354 N 
ATOM     45  C   UNL A   1      38.434  28.596  29.080  1.00  0.00     0.074 A 
ATOM     46  C   UNL A   1      38.002  29.077  27.797  1.00  0.00     0.031 C 
ATOM     47  C   UNL A   1      40.550  34.751  30.123  1.00  0.00     0.029 A 
ATOM     48  C   UNL A   1      41.403  33.577  30.120  1.00  0.00     0.049 A 
ATOM     49  H   UNL A   1      40.764  31.583  30.198  1.00  0.00     0.167 HD
ATOM     50  C   UNL A   1      39.163  27.503  29.442  1.00  0.00     0.034 A 
ATOM     51  C   UNL A   1      42.764  33.493  30.125  1.00  0.00     0.034 A 
ATOM     52  C   UNL A   1      39.418  27.515  30.869  1.00  0.00     0.049 A 
ATOM     53  C   UNL A   1      43.085  32.136  30.641  1.00  0.00     0.074 A 
ATOM     54  C   UNL A   1      38.614  27.533  31.992  1.00  0.00     0.029 A 
ATOM     55  N   UNL A   1      40.654  27.958  31.292  1.00  0.00    -0.354 N 
ATOM     56  N   UNL A   1      42.791  31.754  31.856  1.00  0.00    -0.248 NA
ATOM     57  C   UNL A   1      43.220  31.058  29.673  1.00  0.00     0.031 C 
ATOM     58  C   UNL A   1      39.245  28.458  32.877  1.00  0.00     0.029 A 
ATOM     59  C   UNL A   1      40.452  28.868  32.303  1.00  0.00     0.049 A 
ATOM     60  H   UNL A   1      41.527  27.673  30.935  1.00  0.00     0.167 HD
ATOM     61  C   UNL A   1      42.270  30.476  31.715  1.00  0.00     0.074 A 
ATOM     62  C   UNL A   1      42.643  30.066  30.360  1.00  0.00     0.031 C 
ATOM     63  C   UNL A   1      41.333  29.989  32.586  1.00  0.00     0.034 A 
BRANCH  50  64
ATOM     64  C   UNL A   1      39.977  26.646  28.497  1.00  0.00     0.023 A 
ATOM     65  C   UNL A   1      41.084  27.257  27.877  1.00  0.00     0.031 A 
ATOM     66  C   UNL A   1      39.588  25.398  27.959  1.00  0.00     0.131 A 
ATOM     67  C   UNL A   1      41.666  26.705  26.724  1.00  0.00     0.055 A 
ATOM     68  C   UNL A   1      40.213  24.819  26.850  1.00  0.00     0.041 A 
ATOM     69  F   UNL A   1      38.533  24.708  28.403  1.00  0.00    -0.206 F 
ATOM     70  C   UNL A   1      41.235  25.489  26.203  1.00  0.00     0.022 A 
BRANCH  67  71
ATOM     71  S   UNL A   1      42.872  27.699  25.812  1.00  0.00     0.124 S 
ATOM     72  O   UNL A   1      43.481  28.478  26.884  1.00  0.00    -0.237 OA
ATOM     73  O   UNL A   1      43.710  26.671  25.205  1.00  0.00    -0.237 OA
ATOM     74  O   UNL A   1      42.044  28.461  24.879  1.00  0.00    -0.744 OA
ENDBRANCH  67  71
ENDBRANCH  50  64
BRANCH  51  75
ATOM     75  C   UNL A   1      43.731  34.347  29.366  1.00  0.00     0.023 A 
ATOM     76  C   UNL A   1      44.312  33.982  28.127  1.00  0.00     0.031 A 
ATOM     77  C   UNL A   1      43.909  35.692  29.767  1.00  0.00     0.131 A 
ATOM     78  C   UNL A   1      45.029  34.939  27.359  1.00  0.00     0.055 A 
ATOM     79  C   UNL A   1      44.611  36.629  29.004  1.00  0.00     0.041 A 
ATOM     80  F   UNL A   1      43.330  36.162  30.883  1.00  0.00    -0.206 F 
ATOM     81  C   UNL A   1      45.168  36.260  27.793  1.00  0.00     0.022 A 
BRANCH  78  82
ATOM     82  S   UNL A   1      45.751  34.506  25.736  1.00  0.00     0.124 S 
ATOM     83  O   UNL A   1      44.583  34.500  24.863  1.00  0.00    -0.237 OA
ATOM     84  O   UNL A   1      46.715  35.580  25.524  1.00  0.00    -0.237 OA
ATOM     85  O   UNL A   1      46.348  33.189  25.964  1.00  0.00    -0.744 OA
ENDBRANCH  78  82
ENDBRANCH  51  75
BRANCH  63  86
ATOM     86  C   UNL A   1      41.060  30.763  33.866  1.00  0.00     0.023 A 
ATOM     87  C   UNL A   1      39.983  31.657  34.076  1.00  0.00     0.031 A 
ATOM     88  C   UNL A   1      41.875  30.458  34.971  1.00  0.00     0.131 A 
ATOM     89  C   UNL A   1      39.762  32.207  35.358  1.00  0.00     0.055 A 
ATOM     90  C   UNL A   1      41.638  30.983  36.239  1.00  0.00     0.041 A 
ATOM     91  F   UNL A   1      42.900  29.598  34.842  1.00  0.00    -0.206 F 
ATOM     92  C   UNL A   1      40.583  31.863  36.438  1.00  0.00     0.022 A 
BRANCH  89  93
ATOM     93  S   UNL A   1      38.409  33.397  35.654  1.00  0.00     0.124 S 
ATOM     94  O   UNL A   1      38.812  34.072  36.882  1.00  0.00    -0.237 OA
ATOM     95  O   UNL A   1      38.429  34.212  34.441  1.00  0.00    -0.237 OA
ATOM     96  O   UNL A   1      37.227  32.543  35.789  1.00  0.00    -0.744 OA
ENDBRANCH  89  93
ENDBRANCH  63  86
ENDBRANCH  37  38
ENDBRANCH  29  32
ENDBRANCH  27  28
ENDBRANCH   1  27
TORSDOF 17
ENDMDL
MODEL 3
REMARK VINA RESULT:     -12.2      4.160      5.427
REMARK SMILES COCc1cc(-n2cnc(C(=O)NCCCNC(=O)c3ccc(-c4c5nc(c(-c6cc(S(=O)(=O)[O-])ccc6F)c6ccc([nH]6)c(-c6cc(S(=O)(=O)[O-])ccc6F)c6nc(c(-c7cc(S(=O)(=O)[O-])ccc7F)c7ccc4[nH]7)C=C6)C=C5)cc3)c2)nc(-c2cccnc2)n1
REMARK SMILES IDX 15 1 14 2 13 3 11 4 12 5 10 7 7 8 8 9 83 10 9 11 6 12 4 13
REMARK SMILES IDX 5 14 92 15 85 16 84 17 3 18 2 19 1 20 86 21 87 22 91 23
REMARK SMILES IDX 88 24 90 25 89 26 16 27 17 28 18 29 19 31 20 32 21 33 82 34
REMARK SMILES IDX 22 35 81 36 23 37 24 38 25 39 75 40 26 41 80 42 74 43 76 44
REMARK SMILES IDX 27 45 79 46 73 47 72 48 28 50 60 51 40 52 59 53 41 54 44 55
REMARK SMILES IDX 58 56 77 57 42 58 43 59 57 61 78 62 45 63 29 64 30 65 38 66
REMARK SMILES IDX 31 67 37 68 39 69 36 70 32 71 33 72 34 73 35 74 61 75 62 76
REMARK SMILES IDX 70 77 63 78 69 79 71 80 68 81 64 82 65 83 66 84 67 85 46 86
REMARK SMILES IDX 47 87 55 88 48 89 54 90 56 91 53 92 49 93 50 94 51 95 52 96
REMARK H PARENT 13 6 17 30 76 49 44 60
REMARK Flexibility Score: inf
ROOT
ATOM      1  C   UNL A   1      37.442  23.299  25.744  1.00  0.00     0.042 C 
ENDROOT
BRANCH   1   2
ATOM      2  C   UNL A   1      36.042  23.830  25.406  1.00  0.00     0.118 C 
BRANCH   2   3
ATOM      3  N   UNL A   1      35.020  22.796  25.421  1.00  0.00    -0.351 N 
ATOM      4  C   UNL A   1      33.697  22.782  25.033  1.00  0.00     0.271 C 
ATOM      5  O   UNL A   1      33.119  21.696  25.087  1.00  0.00    -0.267 OA
ATOM      6  H   UNL A   1      35.335  21.935  25.779  1.00  0.00     0.163 HD
BRANCH   4   7
ATOM      7  C   UNL A   1      33.001  24.001  24.590  1.00  0.00     0.146 A 
ATOM      8  N   UNL A   1      32.056  25.993  24.426  1.00  0.00    -0.290 N 
ATOM      9  C   UNL A   1      31.734  25.245  23.331  1.00  0.00     0.206 A 
ATOM     10  C   UNL A   1      32.852  25.213  25.226  1.00  0.00     0.128 A 
ATOM     11  N   UNL A   1      32.301  24.059  23.383  1.00  0.00    -0.231 NA
BRANCH   8  12
ATOM     12  C   UNL A   1      31.603  27.265  24.817  1.00  0.00     0.142 A 
ATOM     13  C   UNL A   1      31.926  29.173  26.107  1.00  0.00     0.072 A 
ATOM     14  C   UNL A   1      32.096  27.809  25.983  1.00  0.00     0.074 A 
ATOM     15  N   UNL A   1      31.242  29.902  25.192  1.00  0.00    -0.230 NA
ATOM     16  C   UNL A   1      30.697  29.253  24.156  1.00  0.00     0.163 A 
ATOM     17  N   UNL A   1      30.896  27.958  23.896  1.00  0.00    -0.210 NA
BRANCH  13  18
ATOM     18  C   UNL A   1      32.554  29.939  27.248  1.00  0.00     0.216 C 
BRANCH  18  19
ATOM     19  O   UNL A   1      33.673  30.729  26.841  1.00  0.00    -0.378 OA
ATOM     20  C   UNL A   1      34.849  30.459  27.600  1.00  0.00     0.195 C 
ENDBRANCH  18  19
ENDBRANCH  13  18
BRANCH  16  21
ATOM     21  C   UNL A   1      29.755  29.991  23.326  1.00  0.00     0.038 A 
ATOM     22  C   UNL A   1      29.100  31.141  23.791  1.00  0.00     0.015 A 
ATOM     23  C   UNL A   1      29.509  29.628  22.005  1.00  0.00     0.123 A 
ATOM     24  C   UNL A   1      28.269  31.869  22.940  1.00  0.00     0.021 A 
ATOM     25  N   UNL A   1      28.696  30.307  21.155  1.00  0.00    -0.264 NA
ATOM     26  C   UNL A   1      28.100  31.415  21.644  1.00  0.00     0.111 A 
ENDBRANCH  16  21
ENDBRANCH   8  12
ENDBRANCH   4   7
ENDBRANCH   2   3
ENDBRANCH   1   2
BRANCH   1  27
ATOM     27  C   UNL A   1      38.244  24.322  26.535  1.00  0.00     0.118 C 
BRANCH  27  28
ATOM     28  N   UNL A   1      39.597  24.519  25.988  1.00  0.00    -0.352 N 
ATOM     29  C   UNL A   1      40.441  25.618  26.103  1.00  0.00     0.251 C 
ATOM     30  H   UNL A   1      39.955  23.765  25.467  1.00  0.00     0.163 HD
ATOM     31  O   UNL A   1      41.365  25.773  25.325  1.00  0.00    -0.269 OA
BRANCH  29  32
ATOM     32  C   UNL A   1      40.184  26.582  27.190  1.00  0.00     0.039 A 
ATOM     33  C   UNL A   1      39.830  26.194  28.485  1.00  0.00     0.014 A 
ATOM     34  C   UNL A   1      40.373  27.920  26.881  1.00  0.00     0.014 A 
ATOM     35  C   UNL A   1      39.754  27.179  29.473  1.00  0.00     0.010 A 
ATOM     36  C   UNL A   1      40.572  28.817  27.886  1.00  0.00     0.010 A 
ATOM     37  C   UNL A   1      40.149  28.491  29.162  1.00  0.00    -0.014 A 
BRANCH  37  38
ATOM     38  C   UNL A   1      40.251  29.551  30.156  1.00  0.00     0.031 A 
ATOM     39  C   UNL A   1      38.971  30.264  30.383  1.00  0.00     0.074 A 
ATOM     40  C   UNL A   1      41.328  29.687  30.967  1.00  0.00     0.049 A 
ATOM     41  N   UNL A   1      38.663  31.453  29.992  1.00  0.00    -0.248 NA
ATOM     42  C   UNL A   1      37.825  29.505  30.913  1.00  0.00     0.031 C 
ATOM     43  C   UNL A   1      42.534  28.849  31.043  1.00  0.00     0.029 A 
ATOM     44  N   UNL A   1      41.530  30.560  31.989  1.00  0.00    -0.354 N 
ATOM     45  C   UNL A   1      37.388  31.695  30.485  1.00  0.00     0.074 A 
ATOM     46  C   UNL A   1      36.843  30.403  30.801  1.00  0.00     0.031 C 
ATOM     47  C   UNL A   1      43.206  29.105  32.189  1.00  0.00     0.029 A 
ATOM     48  C   UNL A   1      42.590  30.245  32.842  1.00  0.00     0.049 A 
ATOM     49  H   UNL A   1      40.969  31.360  32.118  1.00  0.00     0.167 HD
ATOM     50  C   UNL A   1      37.014  32.953  30.852  1.00  0.00     0.034 A 
ATOM     51  C   UNL A   1      42.937  30.874  34.002  1.00  0.00     0.034 A 
ATOM     52  C   UNL A   1      37.959  33.929  30.345  1.00  0.00     0.049 A 
ATOM     53  C   UNL A   1      42.339  32.233  33.921  1.00  0.00     0.074 A 
ATOM     54  C   UNL A   1      38.408  34.271  29.084  1.00  0.00     0.029 A 
ATOM     55  N   UNL A   1      38.911  34.410  31.219  1.00  0.00    -0.354 N 
ATOM     56  N   UNL A   1      42.700  33.113  33.025  1.00  0.00    -0.248 NA
ATOM     57  C   UNL A   1      40.997  32.415  34.457  1.00  0.00     0.031 C 
ATOM     58  C   UNL A   1      39.815  34.460  29.238  1.00  0.00     0.029 A 
ATOM     59  C   UNL A   1      40.132  34.339  30.594  1.00  0.00     0.049 A 
ATOM     60  H   UNL A   1      38.745  34.746  32.131  1.00  0.00     0.167 HD
ATOM     61  C   UNL A   1      41.513  33.662  32.562  1.00  0.00     0.074 A 
ATOM     62  C   UNL A   1      40.504  33.259  33.544  1.00  0.00     0.031 C 
ATOM     63  C   UNL A   1      41.397  34.131  31.282  1.00  0.00     0.034 A 
BRANCH  50  64
ATOM     64  C   UNL A   1      36.054  33.286  31.973  1.00  0.00     0.023 A 
ATOM     65  C   UNL A   1      34.955  34.104  31.648  1.00  0.00     0.031 A 
ATOM     66  C   UNL A   1      36.291  33.103  33.355  1.00  0.00     0.131 A 
ATOM     67  C   UNL A   1      34.234  34.781  32.646  1.00  0.00     0.055 A 
ATOM     68  C   UNL A   1      35.529  33.727  34.347  1.00  0.00     0.041 A 
ATOM     69  F   UNL A   1      37.318  32.392  33.832  1.00  0.00    -0.206 F 
ATOM     70  C   UNL A   1      34.515  34.600  33.996  1.00  0.00     0.022 A 
BRANCH  67  71
ATOM     71  S   UNL A   1      33.044  36.045  32.135  1.00  0.00     0.124 S 
ATOM     72  O   UNL A   1      33.457  37.183  32.948  1.00  0.00    -0.237 OA
ATOM     73  O   UNL A   1      33.310  36.144  30.704  1.00  0.00    -0.237 OA
ATOM     74  O   UNL A   1      31.754  35.458  32.491  1.00  0.00    -0.744 OA
ENDBRANCH  67  71
ENDBRANCH  50  64
BRANCH  51  75
ATOM     75  C   UNL A   1      43.401  30.240  35.276  1.00  0.00     0.023 A 
ATOM     76  C   UNL A   1      43.067  28.925  35.677  1.00  0.00     0.031 A 
ATOM     77  C   UNL A   1      44.416  30.882  36.022  1.00  0.00     0.131 A 
ATOM     78  C   UNL A   1      43.734  28.316  36.776  1.00  0.00     0.055 A 
ATOM     79  C   UNL A   1      45.072  30.277  37.098  1.00  0.00     0.041 A 
ATOM     80  F   UNL A   1      44.866  32.098  35.674  1.00  0.00    -0.206 F 
ATOM     81  C   UNL A   1      44.739  28.987  37.475  1.00  0.00     0.022 A 
BRANCH  78  82
ATOM     82  S   UNL A   1      43.352  26.602  37.287  1.00  0.00     0.124 S 
ATOM     83  O   UNL A   1      41.895  26.606  37.340  1.00  0.00    -0.237 OA
ATOM     84  O   UNL A   1      43.961  25.814  36.222  1.00  0.00    -0.237 OA
ATOM     85  O   UNL A   1      44.009  26.475  38.589  1.00  0.00    -0.744 OA
ENDBRANCH  78  82
ENDBRANCH  51  75
BRANCH  63  86
ATOM     86  C   UNL A   1      42.658  34.287  30.449  1.00  0.00     0.023 A 
ATOM     87  C   UNL A   1      43.077  33.416  29.413  1.00  0.00     0.031 A 
ATOM     88  C   UNL A   1      43.397  35.468  30.640  1.00  0.00     0.131 A 
ATOM     89  C   UNL A   1      44.198  33.749  28.621  1.00  0.00     0.055 A 
ATOM     90  C   UNL A   1      44.487  35.803  29.840  1.00  0.00     0.041 A 
ATOM     91  F   UNL A   1      43.038  36.347  31.592  1.00  0.00    -0.206 F 
ATOM     92  C   UNL A   1      44.895  34.944  28.830  1.00  0.00     0.022 A 
BRANCH  89  93
ATOM     93  S   UNL A   1      44.790  32.628  27.307  1.00  0.00     0.124 S 
ATOM     94  O   UNL A   1      46.241  32.685  27.439  1.00  0.00    -0.237 OA
ATOM     95  O   UNL A   1      44.165  31.357  27.664  1.00  0.00    -0.237 OA
ATOM     96  O   UNL A   1      44.268  33.235  26.080  1.00  0.00    -0.744 OA
ENDBRANCH  89  93
ENDBRANCH  63  86
ENDBRANCH  37  38
ENDBRANCH  29  32
ENDBRANCH  27  28
ENDBRANCH   1  27
TORSDOF 17
ENDMDL
