MODEL 1
REMARK VINA RESULT:     -14.0      0.000      0.000
REMARK SMILES Cc1ccc(-c2cc(Cl)cc3c2O[C@H](C(F)(F)F)C(C(=O)NCCCNC(=O)c2ccc(-c4c5nc(c(-c6cc(S(=O)(=O)[O-])ccc6F)c6ccc([nH]6)c(-c6cc(S(=O)(=O)[O-])ccc6F)c6nc(c(-c7cc(S(=O)(=O)[O-])ccc7F)c7ccc4[nH]7)C=C6)C=C5)cc2)=C3)cc1F
REMARK SMILES IDX 25 1 24 2 23 3 22 4 20 5 21 6 19 8 6 9 7 10 12 11 8 12 11 13
REMARK SMILES IDX 13 14 9 15 10 16 92 17 14 18 5 19 1 20 2 21 3 22 94 23 4 24
REMARK SMILES IDX 93 25 95 26 15 27 16 28 17 29 18 30 26 31 27 32 28 34 29 35
REMARK SMILES IDX 30 36 91 37 31 38 90 39 32 40 33 41 34 42 84 43 35 44 89 45
REMARK SMILES IDX 83 46 85 47 36 48 88 49 82 50 81 51 37 53 69 54 49 55 68 56
REMARK SMILES IDX 50 57 53 58 67 59 86 60 51 61 52 62 66 64 87 65 54 66 38 67
REMARK SMILES IDX 39 68 47 69 40 70 46 71 48 72 45 73 41 74 42 75 43 76 44 77
REMARK SMILES IDX 70 78 71 79 79 80 72 81 78 82 80 83 77 84 73 85 74 86 75 87
REMARK SMILES IDX 76 88 55 89 56 90 64 91 57 92 63 93 65 94 62 95 58 96 59 97
REMARK SMILES IDX 60 98 61 99
REMARK H PARENT 22 7 26 33 85 52 53 63
REMARK Flexibility Score: inf
ROOT
ATOM      1  C   UNL A   1      33.150  30.397  26.844  1.00  0.00     0.118 C 
ENDROOT
BRANCH   1   2
ATOM      2  C   UNL A   1      32.393  29.147  27.298  1.00  0.00     0.042 C 
BRANCH   2   3
ATOM      3  C   UNL A   1      32.934  27.804  26.841  1.00  0.00     0.118 C 
BRANCH   3   4
ATOM      4  N   UNL A   1      32.823  27.679  25.404  1.00  0.00    -0.352 N 
ATOM      5  C   UNL A   1      33.183  26.767  24.478  1.00  0.00     0.251 C 
ATOM      6  O   UNL A   1      33.059  27.146  23.307  1.00  0.00    -0.270 OA
ATOM      7  H   UNL A   1      32.370  28.455  25.000  1.00  0.00     0.163 HD
BRANCH   5   8
ATOM      8  C   UNL A   1      33.648  25.371  24.754  1.00  0.00     0.067 C 
ATOM      9  C   UNL A   1      35.374  21.555  25.322  1.00  0.00     0.026 A 
ATOM     10  C   UNL A   1      36.760  21.478  25.534  1.00  0.00     0.033 A 
ATOM     11  C   UNL A   1      34.788  22.833  25.211  1.00  0.00     0.135 A 
ATOM     12  C   UNL A   1      37.529  22.638  25.632  1.00  0.00     0.042 A 
ATOM     13  C   UNL A   1      35.561  23.992  25.307  1.00  0.00     0.019 A 
ATOM     14  O   UNL A   1      33.428  22.900  25.068  1.00  0.00    -0.475 OA
ATOM     15  Cl  UNL A   1      39.228  22.519  25.886  1.00  0.00    -0.084 Cl
ATOM     16  C   UNL A   1      36.937  23.893  25.521  1.00  0.00     0.032 A 
ATOM     17  C   UNL A   1      34.925  25.295  25.174  1.00  0.00     0.025 C 
ATOM     18  C   UNL A   1      32.861  24.112  24.490  1.00  0.00     0.314 C 
BRANCH   9  19
ATOM     19  C   UNL A   1      34.573  20.324  25.211  1.00  0.00    -0.012 A 
ATOM     20  C   UNL A   1      32.165  16.762  24.714  1.00  0.00     0.047 C 
ATOM     21  C   UNL A   1      32.996  17.991  24.921  1.00  0.00    -0.015 A 
ATOM     22  C   UNL A   1      32.501  19.097  25.618  1.00  0.00     0.007 A 
ATOM     23  C   UNL A   1      34.284  18.061  24.388  1.00  0.00     0.126 A 
ATOM     24  C   UNL A   1      33.284  20.248  25.764  1.00  0.00     0.009 A 
ATOM     25  C   UNL A   1      35.067  19.203  24.527  1.00  0.00     0.048 A 
ATOM     26  F   UNL A   1      34.787  17.009  23.725  1.00  0.00    -0.207 F 
ENDBRANCH   9  19
BRANCH  18  27
ATOM     27  C   UNL A   1      32.624  23.853  22.993  1.00  0.00     0.429 C 
ATOM     28  F   UNL A   1      33.674  24.277  22.248  1.00  0.00    -0.167 F 
ATOM     29  F   UNL A   1      32.451  22.545  22.700  1.00  0.00    -0.167 F 
ATOM     30  F   UNL A   1      31.526  24.504  22.534  1.00  0.00    -0.167 F 
ENDBRANCH  18  27
ENDBRANCH   5   8
ENDBRANCH   3   4
ENDBRANCH   2   3
ENDBRANCH   1   2
BRANCH   1  31
ATOM     31  N   UNL A   1      33.750  31.232  27.876  1.00  0.00    -0.352 N 
ATOM     32  C   UNL A   1      34.981  31.328  28.472  1.00  0.00     0.251 C 
ATOM     33  H   UNL A   1      33.114  31.892  28.235  1.00  0.00     0.163 HD
ATOM     34  O   UNL A   1      35.194  32.371  29.099  1.00  0.00    -0.269 OA
BRANCH  32  35
ATOM     35  C   UNL A   1      35.971  30.228  28.569  1.00  0.00     0.039 A 
ATOM     36  C   UNL A   1      36.333  29.546  29.727  1.00  0.00     0.014 A 
ATOM     37  C   UNL A   1      36.687  29.975  27.388  1.00  0.00     0.014 A 
ATOM     38  C   UNL A   1      37.548  28.856  29.785  1.00  0.00     0.010 A 
ATOM     39  C   UNL A   1      37.868  29.260  27.432  1.00  0.00     0.010 A 
ATOM     40  C   UNL A   1      38.356  28.808  28.658  1.00  0.00    -0.014 A 
BRANCH  40  41
ATOM     41  C   UNL A   1      39.728  28.328  28.664  1.00  0.00     0.031 A 
ATOM     42  C   UNL A   1      40.027  26.882  28.549  1.00  0.00     0.074 A 
ATOM     43  C   UNL A   1      40.732  29.243  28.708  1.00  0.00     0.049 A 
ATOM     44  N   UNL A   1      41.153  26.364  28.902  1.00  0.00    -0.248 NA
ATOM     45  C   UNL A   1      39.075  25.884  28.058  1.00  0.00     0.031 C 
ATOM     46  C   UNL A   1      42.118  29.034  28.318  1.00  0.00     0.029 A 
ATOM     47  N   UNL A   1      40.740  30.555  29.201  1.00  0.00    -0.354 N 
ATOM     48  C   UNL A   1      41.200  25.082  28.399  1.00  0.00     0.074 A 
ATOM     49  C   UNL A   1      39.842  24.784  28.008  1.00  0.00     0.031 C 
ATOM     50  C   UNL A   1      42.868  30.040  28.797  1.00  0.00     0.029 A 
ATOM     51  C   UNL A   1      42.033  30.811  29.698  1.00  0.00     0.049 A 
ATOM     52  H   UNL A   1      39.981  31.182  29.199  1.00  0.00     0.167 HD
ATOM     53  C   UNL A   1      42.420  24.503  28.211  1.00  0.00     0.034 A 
ATOM     54  C   UNL A   1      42.373  31.155  30.985  1.00  0.00     0.034 A 
ATOM     55  C   UNL A   1      43.488  25.390  28.679  1.00  0.00     0.049 A 
ATOM     56  C   UNL A   1      43.374  30.204  31.624  1.00  0.00     0.074 A 
ATOM     57  C   UNL A   1      44.318  26.288  28.030  1.00  0.00     0.029 A 
ATOM     58  N   UNL A   1      43.602  25.668  30.029  1.00  0.00    -0.354 N 
ATOM     59  N   UNL A   1      43.872  29.164  31.025  1.00  0.00    -0.248 NA
ATOM     60  C   UNL A   1      43.740  30.251  33.042  1.00  0.00     0.031 C 
ATOM     61  C   UNL A   1      44.969  27.080  29.011  1.00  0.00     0.029 A 
ATOM     62  C   UNL A   1      44.550  26.652  30.257  1.00  0.00     0.049 A 
ATOM     63  H   UNL A   1      43.077  25.226  30.735  1.00  0.00     0.167 HD
ATOM     64  C   UNL A   1      44.432  28.327  31.953  1.00  0.00     0.074 A 
ATOM     65  C   UNL A   1      44.353  29.066  33.200  1.00  0.00     0.031 C 
ATOM     66  C   UNL A   1      44.838  27.064  31.626  1.00  0.00     0.034 A 
BRANCH  53  67
ATOM     67  C   UNL A   1      42.701  23.271  27.364  1.00  0.00     0.023 A 
ATOM     68  C   UNL A   1      43.607  23.217  26.283  1.00  0.00     0.031 A 
ATOM     69  C   UNL A   1      42.061  22.046  27.677  1.00  0.00     0.131 A 
ATOM     70  C   UNL A   1      43.908  21.993  25.641  1.00  0.00     0.055 A 
ATOM     71  C   UNL A   1      42.340  20.843  27.022  1.00  0.00     0.041 A 
ATOM     72  F   UNL A   1      41.159  21.945  28.661  1.00  0.00    -0.206 F 
ATOM     73  C   UNL A   1      43.279  20.806  26.010  1.00  0.00     0.022 A 
BRANCH  70  74
ATOM     74  S   UNL A   1      45.176  21.876  24.344  1.00  0.00     0.124 S 
ATOM     75  O   UNL A   1      44.966  23.116  23.596  1.00  0.00    -0.237 OA
ATOM     76  O   UNL A   1      46.415  21.821  25.114  1.00  0.00    -0.237 OA
ATOM     77  O   UNL A   1      44.829  20.657  23.620  1.00  0.00    -0.744 OA
ENDBRANCH  70  74
ENDBRANCH  53  67
BRANCH  54  78
ATOM     78  C   UNL A   1      41.256  31.731  31.785  1.00  0.00     0.023 A 
ATOM     79  C   UNL A   1      40.546  30.830  32.589  1.00  0.00     0.031 A 
ATOM     80  C   UNL A   1      40.595  32.851  31.259  1.00  0.00     0.131 A 
ATOM     81  C   UNL A   1      39.160  30.829  32.514  1.00  0.00     0.055 A 
ATOM     82  C   UNL A   1      39.212  32.835  31.155  1.00  0.00     0.041 A 
ATOM     83  F   UNL A   1      41.278  33.807  30.609  1.00  0.00    -0.206 F 
ATOM     84  C   UNL A   1      38.516  31.745  31.678  1.00  0.00     0.022 A 
BRANCH  81  85
ATOM     85  S   UNL A   1      38.284  29.499  33.388  1.00  0.00     0.124 S 
ATOM     86  O   UNL A   1      38.517  29.885  34.776  1.00  0.00    -0.237 OA
ATOM     87  O   UNL A   1      36.897  29.632  32.947  1.00  0.00    -0.237 OA
ATOM     88  O   UNL A   1      38.955  28.300  32.923  1.00  0.00    -0.744 OA
ENDBRANCH  81  85
ENDBRANCH  54  78
BRANCH  66  89
ATOM     89  C   UNL A   1      45.512  26.087  32.559  1.00  0.00     0.023 A 
ATOM     90  C   UNL A   1      44.725  25.239  33.374  1.00  0.00     0.031 A 
ATOM     91  C   UNL A   1      46.893  25.839  32.581  1.00  0.00     0.131 A 
ATOM     92  C   UNL A   1      45.294  24.256  34.189  1.00  0.00     0.055 A 
ATOM     93  C   UNL A   1      47.471  24.891  33.436  1.00  0.00     0.041 A 
ATOM     94  F   UNL A   1      47.727  26.444  31.721  1.00  0.00    -0.206 F 
ATOM     95  C   UNL A   1      46.672  24.098  34.250  1.00  0.00     0.022 A 
BRANCH  92  96
ATOM     96  S   UNL A   1      44.246  23.103  35.118  1.00  0.00     0.124 S 
ATOM     97  O   UNL A   1      42.907  23.565  34.756  1.00  0.00    -0.237 OA
ATOM     98  O   UNL A   1      44.637  21.817  34.547  1.00  0.00    -0.237 OA
ATOM     99  O   UNL A   1      44.631  23.318  36.506  1.00  0.00    -0.744 OA
ENDBRANCH  92  96
ENDBRANCH  66  89
ENDBRANCH  40  41
ENDBRANCH  32  35
ENDBRANCH   1  31
TORSDOF 15
ENDMDL
MODEL 2
REMARK VINA RESULT:     -13.9      3.890      9.702
REMARK SMILES Cc1ccc(-c2cc(Cl)cc3c2O[C@H](C(F)(F)F)C(C(=O)NCCCNC(=O)c2ccc(-c4c5nc(c(-c6cc(S(=O)(=O)[O-])ccc6F)c6ccc([nH]6)c(-c6cc(S(=O)(=O)[O-])ccc6F)c6nc(c(-c7cc(S(=O)(=O)[O-])ccc7F)c7ccc4[nH]7)C=C6)C=C5)cc2)=C3)cc1F
REMARK SMILES IDX 25 1 24 2 23 3 22 4 20 5 21 6 19 8 6 9 7 10 12 11 8 12 11 13
REMARK SMILES IDX 13 14 9 15 10 16 92 17 14 18 5 19 1 20 2 21 3 22 94 23 4 24
REMARK SMILES IDX 93 25 95 26 15 27 16 28 17 29 18 30 26 31 27 32 28 34 29 35
REMARK SMILES IDX 30 36 91 37 31 38 90 39 32 40 33 41 34 42 84 43 35 44 89 45
REMARK SMILES IDX 83 46 85 47 36 48 88 49 82 50 81 51 37 53 69 54 49 55 68 56
REMARK SMILES IDX 50 57 53 58 67 59 86 60 51 61 52 62 66 64 87 65 54 66 38 67
REMARK SMILES IDX 39 68 47 69 40 70 46 71 48 72 45 73 41 74 42 75 43 76 44 77
REMARK SMILES IDX 70 78 71 79 79 80 72 81 78 82 80 83 77 84 73 85 74 86 75 87
REMARK SMILES IDX 76 88 55 89 56 90 64 91 57 92 63 93 65 94 62 95 58 96 59 97
REMARK SMILES IDX 60 98 61 99
REMARK H PARENT 22 7 26 33 85 52 53 63
REMARK Flexibility Score: inf
ROOT
ATOM      1  C   UNL A   1      37.878  22.011  25.328  1.00  0.00     0.118 C 
ENDROOT
BRANCH   1   2
ATOM      2  C   UNL A   1      37.222  23.353  24.997  1.00  0.00     0.042 C 
BRANCH   2   3
ATOM      3  C   UNL A   1      35.896  23.314  24.256  1.00  0.00     0.118 C 
BRANCH   3   4
ATOM      4  N   UNL A   1      34.821  22.983  25.167  1.00  0.00    -0.352 N 
ATOM      5  C   UNL A   1      33.821  23.655  25.772  1.00  0.00     0.251 C 
ATOM      6  O   UNL A   1      33.220  23.010  26.641  1.00  0.00    -0.270 OA
ATOM      7  H   UNL A   1      34.820  22.027  25.404  1.00  0.00     0.163 HD
BRANCH   5   8
ATOM      8  C   UNL A   1      33.371  25.044  25.444  1.00  0.00     0.067 C 
ATOM      9  C   UNL A   1      32.129  29.058  24.986  1.00  0.00     0.026 A 
ATOM     10  C   UNL A   1      32.654  30.020  25.865  1.00  0.00     0.033 A 
ATOM     11  C   UNL A   1      32.603  27.734  25.090  1.00  0.00     0.135 A 
ATOM     12  C   UNL A   1      33.619  29.667  26.810  1.00  0.00     0.042 A 
ATOM     13  C   UNL A   1      33.567  27.384  26.038  1.00  0.00     0.019 A 
ATOM     14  O   UNL A   1      32.133  26.817  24.189  1.00  0.00    -0.475 OA
ATOM     15  Cl  UNL A   1      34.244  30.862  27.880  1.00  0.00    -0.084 Cl
ATOM     16  C   UNL A   1      34.078  28.356  26.899  1.00  0.00     0.032 A 
ATOM     17  C   UNL A   1      34.024  26.005  26.125  1.00  0.00     0.025 C 
ATOM     18  C   UNL A   1      32.217  25.406  24.543  1.00  0.00     0.314 C 
BRANCH   9  19
ATOM     19  C   UNL A   1      31.105  29.440  23.999  1.00  0.00    -0.012 A 
ATOM     20  C   UNL A   1      27.982  30.425  21.169  1.00  0.00     0.047 C 
ATOM     21  C   UNL A   1      29.086  30.098  22.126  1.00  0.00    -0.015 A 
ATOM     22  C   UNL A   1      30.138  29.251  21.765  1.00  0.00     0.007 A 
ATOM     23  C   UNL A   1      29.065  30.618  23.421  1.00  0.00     0.126 A 
ATOM     24  C   UNL A   1      31.138  28.930  22.691  1.00  0.00     0.009 A 
ATOM     25  C   UNL A   1      30.054  30.301  24.348  1.00  0.00     0.048 A 
ATOM     26  F   UNL A   1      28.074  31.442  23.791  1.00  0.00    -0.207 F 
ENDBRANCH   9  19
BRANCH  18  27
ATOM     27  C   UNL A   1      30.852  24.981  25.111  1.00  0.00     0.429 C 
ATOM     28  F   UNL A   1      30.531  23.721  24.729  1.00  0.00    -0.167 F 
ATOM     29  F   UNL A   1      30.812  24.994  26.462  1.00  0.00    -0.167 F 
ATOM     30  F   UNL A   1      29.851  25.791  24.684  1.00  0.00    -0.167 F 
ENDBRANCH  18  27
ENDBRANCH   5   8
ENDBRANCH   3   4
ENDBRANCH   2   3
ENDBRANCH   1   2
BRANCH   1  31
ATOM     31  N   UNL A   1      39.276  22.029  25.739  1.00  0.00    -0.352 N 
ATOM     32  C   UNL A   1      40.058  22.827  26.531  1.00  0.00     0.251 C 
ATOM     33  H   UNL A   1      39.786  21.282  25.349  1.00  0.00     0.163 HD
ATOM     34  O   UNL A   1      41.140  22.342  26.882  1.00  0.00    -0.269 OA
BRANCH  32  35
ATOM     35  C   UNL A   1      39.789  24.253  26.838  1.00  0.00     0.039 A 
ATOM     36  C   UNL A   1      40.385  25.353  26.226  1.00  0.00     0.014 A 
ATOM     37  C   UNL A   1      38.955  24.470  27.946  1.00  0.00     0.014 A 
ATOM     38  C   UNL A   1      40.389  26.596  26.867  1.00  0.00     0.010 A 
ATOM     39  C   UNL A   1      38.924  25.707  28.561  1.00  0.00     0.010 A 
ATOM     40  C   UNL A   1      39.741  26.734  28.086  1.00  0.00    -0.014 A 
BRANCH  40  41
ATOM     41  C   UNL A   1      39.874  27.897  28.948  1.00  0.00     0.031 A 
ATOM     42  C   UNL A   1      39.027  29.095  28.741  1.00  0.00     0.074 A 
ATOM     43  C   UNL A   1      40.743  27.833  29.990  1.00  0.00     0.049 A 
ATOM     44  N   UNL A   1      39.324  30.258  29.209  1.00  0.00    -0.248 NA
ATOM     45  C   UNL A   1      37.787  29.099  27.962  1.00  0.00     0.031 C 
ATOM     46  C   UNL A   1      40.741  28.672  31.179  1.00  0.00     0.029 A 
ATOM     47  N   UNL A   1      41.887  27.042  30.167  1.00  0.00    -0.354 N 
ATOM     48  C   UNL A   1      38.207  31.056  29.089  1.00  0.00     0.074 A 
ATOM     49  C   UNL A   1      37.333  30.341  28.188  1.00  0.00     0.031 C 
ATOM     50  C   UNL A   1      41.915  28.539  31.816  1.00  0.00     0.029 A 
ATOM     51  C   UNL A   1      42.797  27.785  30.945  1.00  0.00     0.049 A 
ATOM     52  H   UNL A   1      42.027  26.135  29.814  1.00  0.00     0.167 HD
ATOM     53  C   UNL A   1      38.090  32.137  29.911  1.00  0.00     0.034 A 
ATOM     54  C   UNL A   1      44.068  28.169  30.590  1.00  0.00     0.034 A 
ATOM     55  C   UNL A   1      39.282  32.275  30.753  1.00  0.00     0.049 A 
ATOM     56  C   UNL A   1      44.290  29.673  30.655  1.00  0.00     0.074 A 
ATOM     57  C   UNL A   1      39.568  31.886  32.050  1.00  0.00     0.029 A 
ATOM     58  N   UNL A   1      40.495  32.594  30.171  1.00  0.00    -0.354 N 
ATOM     59  N   UNL A   1      43.377  30.527  31.010  1.00  0.00    -0.248 NA
ATOM     60  C   UNL A   1      45.494  30.334  30.144  1.00  0.00     0.031 C 
ATOM     61  C   UNL A   1      40.965  32.020  32.256  1.00  0.00     0.029 A 
ATOM     62  C   UNL A   1      41.527  32.509  31.091  1.00  0.00     0.049 A 
ATOM     63  H   UNL A   1      40.610  32.847  29.226  1.00  0.00     0.167 HD
ATOM     64  C   UNL A   1      43.752  31.785  30.619  1.00  0.00     0.074 A 
ATOM     65  C   UNL A   1      45.100  31.617  30.108  1.00  0.00     0.031 C 
ATOM     66  C   UNL A   1      42.885  32.839  30.675  1.00  0.00     0.034 A 
BRANCH  53  67
ATOM     67  C   UNL A   1      36.813  32.919  30.178  1.00  0.00     0.023 A 
ATOM     68  C   UNL A   1      36.236  33.125  31.450  1.00  0.00     0.031 A 
ATOM     69  C   UNL A   1      36.141  33.549  29.102  1.00  0.00     0.131 A 
ATOM     70  C   UNL A   1      35.125  33.982  31.619  1.00  0.00     0.055 A 
ATOM     71  C   UNL A   1      35.025  34.375  29.269  1.00  0.00     0.041 A 
ATOM     72  F   UNL A   1      36.555  33.427  27.834  1.00  0.00    -0.206 F 
ATOM     73  C   UNL A   1      34.520  34.611  30.532  1.00  0.00     0.022 A 
BRANCH  70  74
ATOM     74  S   UNL A   1      34.456  34.374  33.263  1.00  0.00     0.124 S 
ATOM     75  O   UNL A   1      33.035  34.577  32.977  1.00  0.00    -0.237 OA
ATOM     76  O   UNL A   1      34.766  33.170  34.028  1.00  0.00    -0.237 OA
ATOM     77  O   UNL A   1      35.179  35.578  33.661  1.00  0.00    -0.744 OA
ENDBRANCH  70  74
ENDBRANCH  53  67
BRANCH  54  78
ATOM     78  C   UNL A   1      44.676  27.358  29.498  1.00  0.00     0.023 A 
ATOM     79  C   UNL A   1      44.594  27.901  28.209  1.00  0.00     0.031 A 
ATOM     80  C   UNL A   1      44.685  25.964  29.657  1.00  0.00     0.131 A 
ATOM     81  C   UNL A   1      44.121  27.097  27.182  1.00  0.00     0.055 A 
ATOM     82  C   UNL A   1      44.182  25.164  28.643  1.00  0.00     0.041 A 
ATOM     83  F   UNL A   1      44.910  25.413  30.860  1.00  0.00    -0.206 F 
ATOM     84  C   UNL A   1      43.781  25.768  27.450  1.00  0.00     0.022 A 
BRANCH  81  85
ATOM     85  S   UNL A   1      43.807  27.896  25.580  1.00  0.00     0.124 S 
ATOM     86  O   UNL A   1      43.264  29.178  26.018  1.00  0.00    -0.237 OA
ATOM     87  O   UNL A   1      45.126  27.977  24.956  1.00  0.00    -0.237 OA
ATOM     88  O   UNL A   1      42.884  26.984  24.932  1.00  0.00    -0.744 OA
ENDBRANCH  81  85
ENDBRANCH  54  78
BRANCH  66  89
ATOM     89  C   UNL A   1      43.215  34.269  30.318  1.00  0.00     0.023 A 
ATOM     90  C   UNL A   1      43.226  34.668  28.960  1.00  0.00     0.031 A 
ATOM     91  C   UNL A   1      43.373  35.301  31.255  1.00  0.00     0.131 A 
ATOM     92  C   UNL A   1      43.438  35.996  28.579  1.00  0.00     0.055 A 
ATOM     93  C   UNL A   1      43.637  36.625  30.876  1.00  0.00     0.041 A 
ATOM     94  F   UNL A   1      43.197  35.088  32.568  1.00  0.00    -0.206 F 
ATOM     95  C   UNL A   1      43.676  36.977  29.533  1.00  0.00     0.022 A 
BRANCH  92  96
ATOM     96  S   UNL A   1      43.314  36.491  26.838  1.00  0.00     0.124 S 
ATOM     97  O   UNL A   1      44.709  36.789  26.517  1.00  0.00    -0.237 OA
ATOM     98  O   UNL A   1      42.777  35.280  26.220  1.00  0.00    -0.237 OA
ATOM     99  O   UNL A   1      42.415  37.636  26.861  1.00  0.00    -0.744 OA
ENDBRANCH  92  96
ENDBRANCH  66  89
ENDBRANCH  40  41
ENDBRANCH  32  35
ENDBRANCH   1  31
TORSDOF 15
ENDMDL
MODEL 3
REMARK VINA RESULT:     -13.7      1.938      2.736
REMARK SMILES Cc1ccc(-c2cc(Cl)cc3c2O[C@H](C(F)(F)F)C(C(=O)NCCCNC(=O)c2ccc(-c4c5nc(c(-c6cc(S(=O)(=O)[O-])ccc6F)c6ccc([nH]6)c(-c6cc(S(=O)(=O)[O-])ccc6F)c6nc(c(-c7cc(S(=O)(=O)[O-])ccc7F)c7ccc4[nH]7)C=C6)C=C5)cc2)=C3)cc1F
REMARK SMILES IDX 25 1 24 2 23 3 22 4 20 5 21 6 19 8 6 9 7 10 12 11 8 12 11 13
REMARK SMILES IDX 13 14 9 15 10 16 92 17 14 18 5 19 1 20 2 21 3 22 94 23 4 24
REMARK SMILES IDX 93 25 95 26 15 27 16 28 17 29 18 30 26 31 27 32 28 34 29 35
REMARK SMILES IDX 30 36 91 37 31 38 90 39 32 40 33 41 34 42 84 43 35 44 89 45
REMARK SMILES IDX 83 46 85 47 36 48 88 49 82 50 81 51 37 53 69 54 49 55 68 56
REMARK SMILES IDX 50 57 53 58 67 59 86 60 51 61 52 62 66 64 87 65 54 66 38 67
REMARK SMILES IDX 39 68 47 69 40 70 46 71 48 72 45 73 41 74 42 75 43 76 44 77
REMARK SMILES IDX 70 78 71 79 79 80 72 81 78 82 80 83 77 84 73 85 74 86 75 87
REMARK SMILES IDX 76 88 55 89 56 90 64 91 57 92 63 93 65 94 62 95 58 96 59 97
REMARK SMILES IDX 60 98 61 99
REMARK H PARENT 22 7 26 33 85 52 53 63
REMARK Flexibility Score: inf
ROOT
ATOM      1  C   UNL A   1      33.109  30.447  27.632  1.00  0.00     0.118 C 
ENDROOT
BRANCH   1   2
ATOM      2  C   UNL A   1      32.474  30.696  26.262  1.00  0.00     0.042 C 
BRANCH   2   3
ATOM      3  C   UNL A   1      31.170  29.978  25.960  1.00  0.00     0.118 C 
BRANCH   3   4
ATOM      4  N   UNL A   1      31.061  29.712  24.542  1.00  0.00    -0.352 N 
ATOM      5  C   UNL A   1      31.362  28.685  23.721  1.00  0.00     0.251 C 
ATOM      6  O   UNL A   1      31.273  28.947  22.515  1.00  0.00    -0.270 OA
ATOM      7  H   UNL A   1      30.667  30.471  24.053  1.00  0.00     0.163 HD
BRANCH   5   8
ATOM      8  C   UNL A   1      31.724  27.297  24.148  1.00  0.00     0.067 C 
ATOM      9  C   UNL A   1      32.477  23.455  25.741  1.00  0.00     0.026 A 
ATOM     10  C   UNL A   1      31.462  22.835  26.489  1.00  0.00     0.033 A 
ATOM     11  C   UNL A   1      32.197  24.702  25.145  1.00  0.00     0.135 A 
ATOM     12  C   UNL A   1      30.214  23.443  26.632  1.00  0.00     0.042 A 
ATOM     13  C   UNL A   1      30.948  25.308  25.292  1.00  0.00     0.019 A 
ATOM     14  O   UNL A   1      33.170  25.269  24.366  1.00  0.00    -0.475 OA
ATOM     15  Cl  UNL A   1      28.988  22.667  27.558  1.00  0.00    -0.084 Cl
ATOM     16  C   UNL A   1      29.952  24.674  26.037  1.00  0.00     0.032 A 
ATOM     17  C   UNL A   1      30.697  26.602  24.674  1.00  0.00     0.025 C 
ATOM     18  C   UNL A   1      33.112  26.707  24.139  1.00  0.00     0.314 C 
BRANCH   9  19
ATOM     19  C   UNL A   1      33.794  22.809  25.605  1.00  0.00    -0.012 A 
ATOM     20  C   UNL A   1      37.695  21.019  25.050  1.00  0.00     0.047 C 
ATOM     21  C   UNL A   1      36.335  21.610  25.260  1.00  0.00    -0.015 A 
ATOM     22  C   UNL A   1      35.184  20.981  24.774  1.00  0.00     0.007 A 
ATOM     23  C   UNL A   1      36.198  22.828  25.926  1.00  0.00     0.126 A 
ATOM     24  C   UNL A   1      33.928  21.574  24.949  1.00  0.00     0.009 A 
ATOM     25  C   UNL A   1      34.953  23.424  26.102  1.00  0.00     0.048 A 
ATOM     26  F   UNL A   1      37.285  23.447  26.412  1.00  0.00    -0.207 F 
ENDBRANCH   9  19
BRANCH  18  27
ATOM     27  C   UNL A   1      34.059  27.381  25.146  1.00  0.00     0.429 C 
ATOM     28  F   UNL A   1      33.440  27.602  26.331  1.00  0.00    -0.167 F 
ATOM     29  F   UNL A   1      35.158  26.642  25.420  1.00  0.00    -0.167 F 
ATOM     30  F   UNL A   1      34.500  28.583  24.700  1.00  0.00    -0.167 F 
ENDBRANCH  18  27
ENDBRANCH   5   8
ENDBRANCH   3   4
ENDBRANCH   2   3
ENDBRANCH   1   2
BRANCH   1  31
ATOM     31  N   UNL A   1      34.027  31.457  28.142  1.00  0.00    -0.352 N 
ATOM     32  C   UNL A   1      35.385  31.568  28.290  1.00  0.00     0.251 C 
ATOM     33  H   UNL A   1      33.554  32.260  28.459  1.00  0.00     0.163 HD
ATOM     34  O   UNL A   1      35.813  32.711  28.484  1.00  0.00    -0.269 OA
BRANCH  32  35
ATOM     35  C   UNL A   1      36.327  30.429  28.411  1.00  0.00     0.039 A 
ATOM     36  C   UNL A   1      36.643  29.743  29.581  1.00  0.00     0.014 A 
ATOM     37  C   UNL A   1      37.049  30.135  27.244  1.00  0.00     0.014 A 
ATOM     38  C   UNL A   1      37.826  29.004  29.664  1.00  0.00     0.010 A 
ATOM     39  C   UNL A   1      38.199  29.372  27.312  1.00  0.00     0.010 A 
ATOM     40  C   UNL A   1      38.648  28.911  28.550  1.00  0.00    -0.014 A 
BRANCH  40  41
ATOM     41  C   UNL A   1      40.000  28.375  28.581  1.00  0.00     0.031 A 
ATOM     42  C   UNL A   1      40.239  26.916  28.481  1.00  0.00     0.074 A 
ATOM     43  C   UNL A   1      41.040  29.247  28.634  1.00  0.00     0.049 A 
ATOM     44  N   UNL A   1      41.337  26.355  28.856  1.00  0.00    -0.248 NA
ATOM     45  C   UNL A   1      39.254  25.955  27.982  1.00  0.00     0.031 C 
ATOM     46  C   UNL A   1      42.422  28.978  28.268  1.00  0.00     0.029 A 
ATOM     47  N   UNL A   1      41.094  30.562  29.118  1.00  0.00    -0.354 N 
ATOM     48  C   UNL A   1      41.338  25.068  28.363  1.00  0.00     0.074 A 
ATOM     49  C   UNL A   1      39.974  24.823  27.953  1.00  0.00     0.031 C 
ATOM     50  C   UNL A   1      43.206  29.955  28.752  1.00  0.00     0.029 A 
ATOM     51  C   UNL A   1      42.390  30.767  29.634  1.00  0.00     0.049 A 
ATOM     52  H   UNL A   1      40.363  31.219  29.100  1.00  0.00     0.167 HD
ATOM     53  C   UNL A   1      42.536  24.437  28.199  1.00  0.00     0.034 A 
ATOM     54  C   UNL A   1      42.723  31.106  30.923  1.00  0.00     0.034 A 
ATOM     55  C   UNL A   1      43.632  25.282  28.678  1.00  0.00     0.049 A 
ATOM     56  C   UNL A   1      43.674  30.120  31.585  1.00  0.00     0.074 A 
ATOM     57  C   UNL A   1      44.509  26.140  28.035  1.00  0.00     0.029 A 
ATOM     58  N   UNL A   1      43.736  25.566  30.027  1.00  0.00    -0.354 N 
ATOM     59  N   UNL A   1      44.137  29.055  31.002  1.00  0.00    -0.248 NA
ATOM     60  C   UNL A   1      44.019  30.163  33.009  1.00  0.00     0.031 C 
ATOM     61  C   UNL A   1      45.177  26.912  29.020  1.00  0.00     0.029 A 
ATOM     62  C   UNL A   1      44.721  26.511  30.263  1.00  0.00     0.049 A 
ATOM     63  H   UNL A   1      43.183  25.152  30.728  1.00  0.00     0.167 HD
ATOM     64  C   UNL A   1      44.647  28.203  31.945  1.00  0.00     0.074 A 
ATOM     65  C   UNL A   1      44.579  28.954  33.185  1.00  0.00     0.031 C 
ATOM     66  C   UNL A   1      45.004  26.922  31.633  1.00  0.00     0.034 A 
BRANCH  53  67
ATOM     67  C   UNL A   1      42.778  23.188  27.365  1.00  0.00     0.023 A 
ATOM     68  C   UNL A   1      43.672  23.097  26.277  1.00  0.00     0.031 A 
ATOM     69  C   UNL A   1      42.111  21.983  27.700  1.00  0.00     0.131 A 
ATOM     70  C   UNL A   1      43.936  21.859  25.648  1.00  0.00     0.055 A 
ATOM     71  C   UNL A   1      42.353  20.765  27.058  1.00  0.00     0.041 A 
ATOM     72  F   UNL A   1      41.215  21.917  28.694  1.00  0.00    -0.206 F 
ATOM     73  C   UNL A   1      43.282  20.692  26.038  1.00  0.00     0.022 A 
BRANCH  70  74
ATOM     74  S   UNL A   1      45.188  21.694  24.341  1.00  0.00     0.124 S 
ATOM     75  O   UNL A   1      44.765  20.469  23.662  1.00  0.00    -0.237 OA
ATOM     76  O   UNL A   1      45.010  22.921  23.571  1.00  0.00    -0.237 OA
ATOM     77  O   UNL A   1      46.448  21.585  25.071  1.00  0.00    -0.744 OA
ENDBRANCH  70  74
ENDBRANCH  53  67
BRANCH  54  78
ATOM     78  C   UNL A   1      41.619  31.735  31.702  1.00  0.00     0.023 A 
ATOM     79  C   UNL A   1      40.883  30.878  32.530  1.00  0.00     0.031 A 
ATOM     80  C   UNL A   1      40.989  32.855  31.139  1.00  0.00     0.131 A 
ATOM     81  C   UNL A   1      39.498  30.910  32.449  1.00  0.00     0.055 A 
ATOM     82  C   UNL A   1      39.607  32.872  31.030  1.00  0.00     0.041 A 
ATOM     83  F   UNL A   1      41.698  33.773  30.464  1.00  0.00    -0.206 F 
ATOM     84  C   UNL A   1      38.881  31.816  31.584  1.00  0.00     0.022 A 
BRANCH  81  85
ATOM     85  S   UNL A   1      38.585  29.629  33.360  1.00  0.00     0.124 S 
ATOM     86  O   UNL A   1      38.921  29.982  34.735  1.00  0.00    -0.237 OA
ATOM     87  O   UNL A   1      37.187  29.860  32.998  1.00  0.00    -0.237 OA
ATOM     88  O   UNL A   1      39.148  28.395  32.846  1.00  0.00    -0.744 OA
ENDBRANCH  81  85
ENDBRANCH  54  78
BRANCH  66  89
ATOM     89  C   UNL A   1      45.623  25.925  32.584  1.00  0.00     0.023 A 
ATOM     90  C   UNL A   1      44.788  25.126  33.402  1.00  0.00     0.031 A 
ATOM     91  C   UNL A   1      46.989  25.611  32.622  1.00  0.00     0.131 A 
ATOM     92  C   UNL A   1      45.302  24.127  34.234  1.00  0.00     0.055 A 
ATOM     93  C   UNL A   1      47.513  24.646  33.494  1.00  0.00     0.041 A 
ATOM     94  F   UNL A   1      47.859  26.164  31.763  1.00  0.00    -0.206 F 
ATOM     95  C   UNL A   1      46.670  23.902  34.309  1.00  0.00     0.022 A 
BRANCH  92  96
ATOM     96  S   UNL A   1      44.191  23.036  35.166  1.00  0.00     0.124 S 
ATOM     97  O   UNL A   1      44.274  21.799  34.391  1.00  0.00    -0.237 OA
ATOM     98  O   UNL A   1      44.839  22.998  36.474  1.00  0.00    -0.237 OA
ATOM     99  O   UNL A   1      42.906  23.721  35.121  1.00  0.00    -0.744 OA
ENDBRANCH  92  96
ENDBRANCH  66  89
ENDBRANCH  40  41
ENDBRANCH  32  35
ENDBRANCH   1  31
TORSDOF 15
ENDMDL
