MODEL 1
REMARK VINA RESULT:      -9.6      0.000      0.000
REMARK SMILES C[C@H](Oc1ccc(/C=C2\SC(=S)N(N)C2=O)cc1)C(=O)NCCCNC(=O)c1ccc(-c2c3nc(c(-c4cc(S(=O)(=O)[O-])ccc4F)c4ccc([nH]4)c(-c4cc(S(=O)(=O)[O-])ccc4F)c4nc(c(-c5cc(S(=O)(=O)[O-])ccc5F)c5ccc2[nH]5)C=C4)C=C3)cc1
REMARK SMILES IDX 22 1 21 2 19 3 20 4 2 6 1 7 3 8 4 9 5 10 18 11 6 12 17 13
REMARK SMILES IDX 7 14 8 15 9 16 10 17 15 18 11 19 13 20 16 21 12 22 14 23
REMARK SMILES IDX 23 26 24 27 25 28 26 29 27 31 28 32 29 33 90 34 30 35 89 36
REMARK SMILES IDX 31 37 32 38 33 39 83 40 34 41 88 42 82 43 84 44 35 45 87 46
REMARK SMILES IDX 81 47 80 48 36 50 68 51 48 52 67 53 49 54 52 55 66 56 85 57
REMARK SMILES IDX 50 58 51 59 65 61 86 62 53 63 37 64 38 65 46 66 39 67 45 68
REMARK SMILES IDX 47 69 44 70 40 71 41 72 42 73 43 74 69 75 70 76 78 77 71 78
REMARK SMILES IDX 77 79 79 80 76 81 72 82 73 83 74 84 75 85 54 86 55 87 63 88
REMARK SMILES IDX 56 89 62 90 64 91 61 92 57 93 58 94 59 95 60 96
REMARK H PARENT 21 5 14 24 14 25 25 30 84 49 52 60
REMARK Flexibility Score: inf
ROOT
ATOM      1  C   UNL A   1      34.609  34.533  30.582  1.00  0.00     0.118 C 
ENDROOT
BRANCH   1   2
ATOM      2  N   UNL A   1      34.294  35.325  31.760  1.00  0.00    -0.353 N 
ATOM      3  C   UNL A   1      34.928  35.343  32.974  1.00  0.00     0.260 C 
ATOM      4  O   UNL A   1      34.495  36.087  33.858  1.00  0.00    -0.271 OA
ATOM      5  H   UNL A   1      33.520  35.928  31.674  1.00  0.00     0.163 HD
BRANCH   3   6
ATOM      6  C   UNL A   1      36.207  34.516  33.171  1.00  0.00     0.258 C 
ATOM      7  C   UNL A   1      36.230  34.080  34.647  1.00  0.00     0.064 C 
BRANCH   6   8
ATOM      8  O   UNL A   1      37.268  35.330  32.649  1.00  0.00    -0.481 OA
BRANCH   8   9
ATOM      9  C   UNL A   1      38.320  34.798  31.973  1.00  0.00     0.120 A 
ATOM     10  C   UNL A   1      38.321  34.435  30.637  1.00  0.00     0.047 A 
ATOM     11  C   UNL A   1      39.471  34.572  32.733  1.00  0.00     0.047 A 
ATOM     12  C   UNL A   1      39.374  33.680  30.118  1.00  0.00     0.012 A 
ATOM     13  C   UNL A   1      40.535  33.825  32.210  1.00  0.00     0.012 A 
ATOM     14  C   UNL A   1      40.452  33.291  30.920  1.00  0.00    -0.024 A 
BRANCH  14  15
ATOM     15  C   UNL A   1      41.499  32.374  30.427  1.00  0.00     0.029 C 
ATOM     16  C   UNL A   1      42.583  32.692  29.698  1.00  0.00     0.082 C 
ATOM     17  S   UNL A   1      43.048  34.244  29.094  1.00  0.00    -0.053 SA
ATOM     18  C   UNL A   1      43.578  31.664  29.269  1.00  0.00     0.280 C 
ATOM     19  C   UNL A   1      44.482  33.637  28.289  1.00  0.00     0.162 C 
ATOM     20  N   UNL A   1      44.559  32.270  28.484  1.00  0.00    -0.226 N 
ATOM     21  O   UNL A   1      43.558  30.491  29.611  1.00  0.00    -0.267 OA
ATOM     22  S   UNL A   1      45.562  34.616  27.476  1.00  0.00    -0.050 S 
BRANCH  20  23
ATOM     23  N   UNL A   1      45.596  31.476  27.918  1.00  0.00    -0.239 NA
ATOM     24  H   UNL A   1      45.292  31.116  27.013  1.00  0.00     0.144 HD
ATOM     25  H   UNL A   1      45.807  30.698  28.542  1.00  0.00     0.144 HD
ENDBRANCH  20  23
ENDBRANCH  14  15
ENDBRANCH   8   9
ENDBRANCH   6   8
ENDBRANCH   3   6
ENDBRANCH   1   2
BRANCH   1  26
ATOM     26  C   UNL A   1      33.489  34.559  29.558  1.00  0.00     0.042 C 
BRANCH  26  27
ATOM     27  C   UNL A   1      33.958  34.206  28.157  1.00  0.00     0.118 C 
BRANCH  27  28
ATOM     28  N   UNL A   1      33.160  33.146  27.553  1.00  0.00    -0.352 N 
ATOM     29  C   UNL A   1      33.480  31.830  27.326  1.00  0.00     0.251 C 
ATOM     30  H   UNL A   1      32.257  33.413  27.264  1.00  0.00     0.163 HD
ATOM     31  O   UNL A   1      32.750  31.142  26.617  1.00  0.00    -0.269 OA
BRANCH  29  32
ATOM     32  C   UNL A   1      34.713  31.264  27.910  1.00  0.00     0.039 A 
ATOM     33  C   UNL A   1      35.854  32.065  27.995  1.00  0.00     0.014 A 
ATOM     34  C   UNL A   1      34.737  29.953  28.393  1.00  0.00     0.014 A 
ATOM     35  C   UNL A   1      36.993  31.572  28.635  1.00  0.00     0.010 A 
ATOM     36  C   UNL A   1      35.834  29.503  29.118  1.00  0.00     0.010 A 
ATOM     37  C   UNL A   1      36.978  30.305  29.241  1.00  0.00    -0.014 A 
BRANCH  37  38
ATOM     38  C   UNL A   1      38.147  29.796  30.002  1.00  0.00     0.031 A 
ATOM     39  C   UNL A   1      38.389  30.266  31.411  1.00  0.00     0.074 A 
ATOM     40  C   UNL A   1      39.021  28.962  29.405  1.00  0.00     0.049 A 
ATOM     41  N   UNL A   1      39.389  30.002  32.211  1.00  0.00    -0.248 NA
ATOM     42  C   UNL A   1      37.388  31.181  31.983  1.00  0.00     0.031 C 
ATOM     43  C   UNL A   1      38.913  28.469  28.029  1.00  0.00     0.029 A 
ATOM     44  N   UNL A   1      40.175  28.385  29.871  1.00  0.00    -0.354 N 
ATOM     45  C   UNL A   1      39.144  30.724  33.375  1.00  0.00     0.074 A 
ATOM     46  C   UNL A   1      37.939  31.492  33.146  1.00  0.00     0.031 C 
ATOM     47  C   UNL A   1      39.939  27.639  27.776  1.00  0.00     0.029 A 
ATOM     48  C   UNL A   1      40.808  27.584  28.947  1.00  0.00     0.049 A 
ATOM     49  H   UNL A   1      40.520  28.530  30.781  1.00  0.00     0.167 HD
ATOM     50  C   UNL A   1      39.846  30.725  34.535  1.00  0.00     0.034 A 
ATOM     51  C   UNL A   1      41.966  26.898  29.027  1.00  0.00     0.034 A 
ATOM     52  C   UNL A   1      41.041  29.946  34.746  1.00  0.00     0.049 A 
ATOM     53  C   UNL A   1      42.751  26.949  30.314  1.00  0.00     0.074 A 
ATOM     54  C   UNL A   1      41.801  29.833  35.897  1.00  0.00     0.029 A 
ATOM     55  N   UNL A   1      41.659  29.157  33.784  1.00  0.00    -0.354 N 
ATOM     56  N   UNL A   1      42.478  27.597  31.424  1.00  0.00    -0.248 NA
ATOM     57  C   UNL A   1      43.994  26.169  30.363  1.00  0.00     0.031 C 
ATOM     58  C   UNL A   1      42.920  29.044  35.608  1.00  0.00     0.029 A 
ATOM     59  C   UNL A   1      42.811  28.585  34.305  1.00  0.00     0.049 A 
ATOM     60  H   UNL A   1      41.328  29.022  32.867  1.00  0.00     0.167 HD
ATOM     61  C   UNL A   1      43.500  27.272  32.313  1.00  0.00     0.074 A 
ATOM     62  C   UNL A   1      44.383  26.360  31.614  1.00  0.00     0.031 C 
ATOM     63  C   UNL A   1      43.688  27.685  33.593  1.00  0.00     0.034 A 
BRANCH  50  64
ATOM     64  C   UNL A   1      39.348  31.618  35.649  1.00  0.00     0.023 A 
ATOM     65  C   UNL A   1      39.902  32.888  35.884  1.00  0.00     0.031 A 
ATOM     66  C   UNL A   1      38.320  31.183  36.503  1.00  0.00     0.131 A 
ATOM     67  C   UNL A   1      39.483  33.643  36.989  1.00  0.00     0.055 A 
ATOM     68  C   UNL A   1      37.844  31.978  37.547  1.00  0.00     0.041 A 
ATOM     69  F   UNL A   1      37.766  29.970  36.345  1.00  0.00    -0.206 F 
ATOM     70  C   UNL A   1      38.437  33.211  37.805  1.00  0.00     0.022 A 
BRANCH  67  71
ATOM     71  S   UNL A   1      40.428  35.127  37.432  1.00  0.00     0.124 S 
ATOM     72  O   UNL A   1      40.388  35.076  38.892  1.00  0.00    -0.237 OA
ATOM     73  O   UNL A   1      41.725  34.870  36.819  1.00  0.00    -0.237 OA
ATOM     74  O   UNL A   1      39.657  36.215  36.834  1.00  0.00    -0.744 OA
ENDBRANCH  67  71
ENDBRANCH  50  64
BRANCH  51  75
ATOM     75  C   UNL A   1      42.466  26.117  27.858  1.00  0.00     0.023 A 
ATOM     76  C   UNL A   1      42.018  24.808  27.618  1.00  0.00     0.031 A 
ATOM     77  C   UNL A   1      43.436  26.649  26.990  1.00  0.00     0.131 A 
ATOM     78  C   UNL A   1      42.577  24.058  26.571  1.00  0.00     0.055 A 
ATOM     79  C   UNL A   1      43.943  25.921  25.913  1.00  0.00     0.041 A 
ATOM     80  F   UNL A   1      43.899  27.897  27.172  1.00  0.00    -0.206 F 
ATOM     81  C   UNL A   1      43.524  24.610  25.708  1.00  0.00     0.022 A 
BRANCH  78  82
ATOM     82  S   UNL A   1      42.120  22.309  26.418  1.00  0.00     0.124 S 
ATOM     83  O   UNL A   1      42.577  21.770  27.695  1.00  0.00    -0.237 OA
ATOM     84  O   UNL A   1      40.676  22.388  26.234  1.00  0.00    -0.237 OA
ATOM     85  O   UNL A   1      42.873  21.863  25.247  1.00  0.00    -0.744 OA
ENDBRANCH  78  82
ENDBRANCH  51  75
BRANCH  63  86
ATOM     86  C   UNL A   1      44.871  27.110  34.336  1.00  0.00     0.023 A 
ATOM     87  C   UNL A   1      44.791  25.892  35.034  1.00  0.00     0.031 A 
ATOM     88  C   UNL A   1      46.098  27.798  34.348  1.00  0.00     0.131 A 
ATOM     89  C   UNL A   1      45.897  25.430  35.763  1.00  0.00     0.055 A 
ATOM     90  C   UNL A   1      47.216  27.297  35.016  1.00  0.00     0.041 A 
ATOM     91  F   UNL A   1      46.233  28.967  33.702  1.00  0.00    -0.206 F 
ATOM     92  C   UNL A   1      47.115  26.114  35.742  1.00  0.00     0.022 A 
BRANCH  89  93
ATOM     93  S   UNL A   1      45.694  23.975  36.826  1.00  0.00     0.124 S 
ATOM     94  O   UNL A   1      44.861  23.108  35.998  1.00  0.00    -0.237 OA
ATOM     95  O   UNL A   1      47.071  23.537  37.022  1.00  0.00    -0.237 OA
ATOM     96  O   UNL A   1      45.038  24.510  38.019  1.00  0.00    -0.744 OA
ENDBRANCH  89  93
ENDBRANCH  63  86
ENDBRANCH  37  38
ENDBRANCH  29  32
ENDBRANCH  27  28
ENDBRANCH  26  27
ENDBRANCH   1  26
TORSDOF 17
ENDMDL
MODEL 2
REMARK VINA RESULT:      -9.5      5.670     11.312
REMARK SMILES C[C@H](Oc1ccc(/C=C2\SC(=S)N(N)C2=O)cc1)C(=O)NCCCNC(=O)c1ccc(-c2c3nc(c(-c4cc(S(=O)(=O)[O-])ccc4F)c4ccc([nH]4)c(-c4cc(S(=O)(=O)[O-])ccc4F)c4nc(c(-c5cc(S(=O)(=O)[O-])ccc5F)c5ccc2[nH]5)C=C4)C=C3)cc1
REMARK SMILES IDX 22 1 21 2 19 3 20 4 2 6 1 7 3 8 4 9 5 10 18 11 6 12 17 13
REMARK SMILES IDX 7 14 8 15 9 16 10 17 15 18 11 19 13 20 16 21 12 22 14 23
REMARK SMILES IDX 23 26 24 27 25 28 26 29 27 31 28 32 29 33 90 34 30 35 89 36
REMARK SMILES IDX 31 37 32 38 33 39 83 40 34 41 88 42 82 43 84 44 35 45 87 46
REMARK SMILES IDX 81 47 80 48 36 50 68 51 48 52 67 53 49 54 52 55 66 56 85 57
REMARK SMILES IDX 50 58 51 59 65 61 86 62 53 63 37 64 38 65 46 66 39 67 45 68
REMARK SMILES IDX 47 69 44 70 40 71 41 72 42 73 43 74 69 75 70 76 78 77 71 78
REMARK SMILES IDX 77 79 79 80 76 81 72 82 73 83 74 84 75 85 54 86 55 87 63 88
REMARK SMILES IDX 56 89 62 90 64 91 61 92 57 93 58 94 59 95 60 96
REMARK H PARENT 21 5 14 24 14 25 25 30 84 49 52 60
REMARK Flexibility Score: inf
ROOT
ATOM      1  C   UNL A   1      36.937  20.038  24.648  1.00  0.00     0.118 C 
ENDROOT
BRANCH   1   2
ATOM      2  N   UNL A   1      35.644  19.458  24.979  1.00  0.00    -0.353 N 
ATOM      3  C   UNL A   1      34.413  20.059  24.984  1.00  0.00     0.260 C 
ATOM      4  O   UNL A   1      33.429  19.389  25.308  1.00  0.00    -0.271 OA
ATOM      5  H   UNL A   1      35.656  18.507  25.234  1.00  0.00     0.163 HD
BRANCH   3   6
ATOM      6  C   UNL A   1      34.277  21.509  24.499  1.00  0.00     0.258 C 
ATOM      7  C   UNL A   1      34.243  22.397  25.757  1.00  0.00     0.064 C 
BRANCH   6   8
ATOM      8  O   UNL A   1      33.161  21.504  23.597  1.00  0.00    -0.481 OA
BRANCH   8   9
ATOM      9  C   UNL A   1      32.614  22.652  23.120  1.00  0.00     0.120 A 
ATOM     10  C   UNL A   1      33.267  23.599  22.348  1.00  0.00     0.047 A 
ATOM     11  C   UNL A   1      31.287  22.888  23.493  1.00  0.00     0.047 A 
ATOM     12  C   UNL A   1      32.678  24.844  22.123  1.00  0.00     0.012 A 
ATOM     13  C   UNL A   1      30.690  24.133  23.256  1.00  0.00     0.012 A 
ATOM     14  C   UNL A   1      31.420  25.159  22.647  1.00  0.00    -0.024 A 
BRANCH  14  15
ATOM     15  C   UNL A   1      30.848  26.515  22.541  1.00  0.00     0.029 C 
ATOM     16  C   UNL A   1      31.018  27.539  23.395  1.00  0.00     0.082 C 
ATOM     17  S   UNL A   1      31.916  27.562  24.873  1.00  0.00    -0.053 SA
ATOM     18  C   UNL A   1      30.388  28.874  23.167  1.00  0.00     0.280 C 
ATOM     19  C   UNL A   1      31.512  29.229  25.235  1.00  0.00     0.162 C 
ATOM     20  N   UNL A   1      30.692  29.717  24.235  1.00  0.00    -0.226 N 
ATOM     21  O   UNL A   1      29.759  29.184  22.166  1.00  0.00    -0.267 OA
ATOM     22  S   UNL A   1      32.098  30.047  26.567  1.00  0.00    -0.050 S 
BRANCH  20  23
ATOM     23  N   UNL A   1      30.158  31.036  24.263  1.00  0.00    -0.239 NA
ATOM     24  H   UNL A   1      30.079  31.391  23.311  1.00  0.00     0.144 HD
ATOM     25  H   UNL A   1      30.777  31.642  24.803  1.00  0.00     0.144 HD
ENDBRANCH  20  23
ENDBRANCH  14  15
ENDBRANCH   8   9
ENDBRANCH   6   8
ENDBRANCH   3   6
ENDBRANCH   1   2
BRANCH   1  26
ATOM     26  C   UNL A   1      38.090  19.208  25.181  1.00  0.00     0.042 C 
BRANCH  26  27
ATOM     27  C   UNL A   1      39.211  20.053  25.760  1.00  0.00     0.118 C 
BRANCH  27  28
ATOM     28  N   UNL A   1      40.398  19.267  26.072  1.00  0.00    -0.352 N 
ATOM     29  C   UNL A   1      41.663  19.684  26.406  1.00  0.00     0.251 C 
ATOM     30  H   UNL A   1      40.274  18.290  26.039  1.00  0.00     0.163 HD
ATOM     31  O   UNL A   1      42.583  18.871  26.432  1.00  0.00    -0.269 OA
BRANCH  29  32
ATOM     32  C   UNL A   1      41.910  21.110  26.701  1.00  0.00     0.039 A 
ATOM     33  C   UNL A   1      42.162  21.499  28.018  1.00  0.00     0.014 A 
ATOM     34  C   UNL A   1      41.913  22.060  25.675  1.00  0.00     0.014 A 
ATOM     35  C   UNL A   1      42.493  22.827  28.291  1.00  0.00     0.010 A 
ATOM     36  C   UNL A   1      42.342  23.355  25.935  1.00  0.00     0.010 A 
ATOM     37  C   UNL A   1      42.630  23.756  27.247  1.00  0.00    -0.014 A 
BRANCH  37  38
ATOM     38  C   UNL A   1      43.067  25.152  27.505  1.00  0.00     0.031 A 
ATOM     39  C   UNL A   1      42.119  26.130  28.146  1.00  0.00     0.074 A 
ATOM     40  C   UNL A   1      44.291  25.553  27.108  1.00  0.00     0.049 A 
ATOM     41  N   UNL A   1      42.282  27.406  28.382  1.00  0.00    -0.248 NA
ATOM     42  C   UNL A   1      40.801  25.609  28.541  1.00  0.00     0.031 C 
ATOM     43  C   UNL A   1      45.283  24.705  26.440  1.00  0.00     0.029 A 
ATOM     44  N   UNL A   1      44.910  26.774  27.199  1.00  0.00    -0.354 N 
ATOM     45  C   UNL A   1      41.087  27.842  28.945  1.00  0.00     0.074 A 
ATOM     46  C   UNL A   1      40.185  26.709  28.945  1.00  0.00     0.031 C 
ATOM     47  C   UNL A   1      46.396  25.423  26.215  1.00  0.00     0.029 A 
ATOM     48  C   UNL A   1      46.180  26.793  26.667  1.00  0.00     0.049 A 
ATOM     49  H   UNL A   1      44.488  27.563  27.609  1.00  0.00     0.167 HD
ATOM     50  C   UNL A   1      40.779  29.067  29.438  1.00  0.00     0.034 A 
ATOM     51  C   UNL A   1      47.063  27.804  26.540  1.00  0.00     0.034 A 
ATOM     52  C   UNL A   1      41.694  30.181  29.435  1.00  0.00     0.049 A 
ATOM     53  C   UNL A   1      46.682  29.169  27.058  1.00  0.00     0.074 A 
ATOM     54  C   UNL A   1      41.506  31.450  29.955  1.00  0.00     0.029 A 
ATOM     55  N   UNL A   1      42.966  30.168  28.876  1.00  0.00    -0.354 N 
ATOM     56  N   UNL A   1      45.565  29.552  27.635  1.00  0.00    -0.248 NA
ATOM     57  C   UNL A   1      47.683  30.233  26.919  1.00  0.00     0.031 C 
ATOM     58  C   UNL A   1      42.627  32.225  29.638  1.00  0.00     0.029 A 
ATOM     59  C   UNL A   1      43.557  31.416  29.005  1.00  0.00     0.049 A 
ATOM     60  H   UNL A   1      43.387  29.386  28.451  1.00  0.00     0.167 HD
ATOM     61  C   UNL A   1      45.747  30.895  27.956  1.00  0.00     0.074 A 
ATOM     62  C   UNL A   1      47.083  31.247  27.524  1.00  0.00     0.031 C 
ATOM     63  C   UNL A   1      44.888  31.757  28.560  1.00  0.00     0.034 A 
BRANCH  50  64
ATOM     64  C   UNL A   1      39.388  29.264  29.995  1.00  0.00     0.023 A 
ATOM     65  C   UNL A   1      38.403  29.980  29.290  1.00  0.00     0.031 A 
ATOM     66  C   UNL A   1      39.047  28.750  31.257  1.00  0.00     0.131 A 
ATOM     67  C   UNL A   1      37.157  30.228  29.884  1.00  0.00     0.055 A 
ATOM     68  C   UNL A   1      37.774  28.923  31.805  1.00  0.00     0.041 A 
ATOM     69  F   UNL A   1      39.950  28.078  31.989  1.00  0.00    -0.206 F 
ATOM     70  C   UNL A   1      36.824  29.679  31.124  1.00  0.00     0.022 A 
BRANCH  67  71
ATOM     71  S   UNL A   1      36.034  31.403  29.080  1.00  0.00     0.124 S 
ATOM     72  O   UNL A   1      36.976  32.344  28.476  1.00  0.00    -0.237 OA
ATOM     73  O   UNL A   1      35.298  30.554  28.153  1.00  0.00    -0.237 OA
ATOM     74  O   UNL A   1      35.252  31.944  30.189  1.00  0.00    -0.744 OA
ENDBRANCH  67  71
ENDBRANCH  50  64
BRANCH  51  75
ATOM     75  C   UNL A   1      48.385  27.578  25.885  1.00  0.00     0.023 A 
ATOM     76  C   UNL A   1      48.543  27.742  24.499  1.00  0.00     0.031 A 
ATOM     77  C   UNL A   1      49.499  27.148  26.627  1.00  0.00     0.131 A 
ATOM     78  C   UNL A   1      49.769  27.426  23.893  1.00  0.00     0.055 A 
ATOM     79  C   UNL A   1      50.733  26.895  26.027  1.00  0.00     0.041 A 
ATOM     80  F   UNL A   1      49.404  26.976  27.956  1.00  0.00    -0.206 F 
ATOM     81  C   UNL A   1      50.869  27.020  24.649  1.00  0.00     0.022 A 
BRANCH  78  82
ATOM     82  S   UNL A   1      49.873  27.458  22.082  1.00  0.00     0.124 S 
ATOM     83  O   UNL A   1      49.956  28.890  21.815  1.00  0.00    -0.237 OA
ATOM     84  O   UNL A   1      51.087  26.688  21.835  1.00  0.00    -0.237 OA
ATOM     85  O   UNL A   1      48.632  26.814  21.658  1.00  0.00    -0.744 OA
ENDBRANCH  78  82
ENDBRANCH  51  75
BRANCH  63  86
ATOM     86  C   UNL A   1      45.394  33.154  28.834  1.00  0.00     0.023 A 
ATOM     87  C   UNL A   1      45.338  34.169  27.862  1.00  0.00     0.031 A 
ATOM     88  C   UNL A   1      45.945  33.471  30.088  1.00  0.00     0.131 A 
ATOM     89  C   UNL A   1      45.879  35.433  28.140  1.00  0.00     0.055 A 
ATOM     90  C   UNL A   1      46.417  34.751  30.383  1.00  0.00     0.041 A 
ATOM     91  F   UNL A   1      46.028  32.541  31.053  1.00  0.00    -0.206 F 
ATOM     92  C   UNL A   1      46.399  35.737  29.401  1.00  0.00     0.022 A 
BRANCH  89  93
ATOM     93  S   UNL A   1      45.989  36.648  26.799  1.00  0.00     0.124 S 
ATOM     94  O   UNL A   1      46.035  35.792  25.617  1.00  0.00    -0.237 OA
ATOM     95  O   UNL A   1      44.764  37.421  26.976  1.00  0.00    -0.237 OA
ATOM     96  O   UNL A   1      47.226  37.371  27.090  1.00  0.00    -0.744 OA
ENDBRANCH  89  93
ENDBRANCH  63  86
ENDBRANCH  37  38
ENDBRANCH  29  32
ENDBRANCH  27  28
ENDBRANCH  26  27
ENDBRANCH   1  26
TORSDOF 17
ENDMDL
MODEL 3
REMARK VINA RESULT:      -9.4      4.194     10.522
REMARK SMILES C[C@H](Oc1ccc(/C=C2\SC(=S)N(N)C2=O)cc1)C(=O)NCCCNC(=O)c1ccc(-c2c3nc(c(-c4cc(S(=O)(=O)[O-])ccc4F)c4ccc([nH]4)c(-c4cc(S(=O)(=O)[O-])ccc4F)c4nc(c(-c5cc(S(=O)(=O)[O-])ccc5F)c5ccc2[nH]5)C=C4)C=C3)cc1
REMARK SMILES IDX 22 1 21 2 19 3 20 4 2 6 1 7 3 8 4 9 5 10 18 11 6 12 17 13
REMARK SMILES IDX 7 14 8 15 9 16 10 17 15 18 11 19 13 20 16 21 12 22 14 23
REMARK SMILES IDX 23 26 24 27 25 28 26 29 27 31 28 32 29 33 90 34 30 35 89 36
REMARK SMILES IDX 31 37 32 38 33 39 83 40 34 41 88 42 82 43 84 44 35 45 87 46
REMARK SMILES IDX 81 47 80 48 36 50 68 51 48 52 67 53 49 54 52 55 66 56 85 57
REMARK SMILES IDX 50 58 51 59 65 61 86 62 53 63 37 64 38 65 46 66 39 67 45 68
REMARK SMILES IDX 47 69 44 70 40 71 41 72 42 73 43 74 69 75 70 76 78 77 71 78
REMARK SMILES IDX 77 79 79 80 76 81 72 82 73 83 74 84 75 85 54 86 55 87 63 88
REMARK SMILES IDX 56 89 62 90 64 91 61 92 57 93 58 94 59 95 60 96
REMARK H PARENT 21 5 14 24 14 25 25 30 84 49 52 60
REMARK Flexibility Score: inf
ROOT
ATOM      1  C   UNL A   1      31.435  29.762  25.493  1.00  0.00     0.118 C 
ENDROOT
BRANCH   1   2
ATOM      2  N   UNL A   1      32.329  29.550  24.366  1.00  0.00    -0.353 N 
ATOM      3  C   UNL A   1      32.129  28.783  23.248  1.00  0.00     0.260 C 
ATOM      4  O   UNL A   1      33.024  28.725  22.402  1.00  0.00    -0.271 OA
ATOM      5  H   UNL A   1      33.193  30.020  24.412  1.00  0.00     0.163 HD
BRANCH   3   6
ATOM      6  C   UNL A   1      30.772  28.097  23.035  1.00  0.00     0.258 C 
ATOM      7  C   UNL A   1      29.852  29.133  22.363  1.00  0.00     0.064 C 
BRANCH   6   8
ATOM      8  O   UNL A   1      30.419  27.550  24.313  1.00  0.00    -0.481 OA
BRANCH   8   9
ATOM      9  C   UNL A   1      30.486  26.217  24.571  1.00  0.00     0.120 A 
ATOM     10  C   UNL A   1      30.656  25.643  25.819  1.00  0.00     0.047 A 
ATOM     11  C   UNL A   1      30.414  25.383  23.450  1.00  0.00     0.047 A 
ATOM     12  C   UNL A   1      30.951  24.283  25.928  1.00  0.00     0.012 A 
ATOM     13  C   UNL A   1      30.696  24.015  23.561  1.00  0.00     0.012 A 
ATOM     14  C   UNL A   1      31.061  23.469  24.796  1.00  0.00    -0.024 A 
BRANCH  14  15
ATOM     15  C   UNL A   1      31.512  22.067  24.883  1.00  0.00     0.029 C 
ATOM     16  C   UNL A   1      32.780  21.618  24.889  1.00  0.00     0.082 C 
ATOM     17  S   UNL A   1      34.240  22.536  24.759  1.00  0.00    -0.053 SA
ATOM     18  C   UNL A   1      33.105  20.164  24.992  1.00  0.00     0.280 C 
ATOM     19  C   UNL A   1      35.277  21.124  24.821  1.00  0.00     0.162 C 
ATOM     20  N   UNL A   1      34.487  19.994  24.919  1.00  0.00    -0.226 N 
ATOM     21  O   UNL A   1      32.283  19.279  25.175  1.00  0.00    -0.267 OA
ATOM     22  S   UNL A   1      36.944  21.209  24.807  1.00  0.00    -0.050 S 
BRANCH  20  23
ATOM     23  N   UNL A   1      35.036  18.681  24.948  1.00  0.00    -0.239 NA
ATOM     24  H   UNL A   1      35.502  18.528  25.842  1.00  0.00     0.144 HD
ATOM     25  H   UNL A   1      35.709  18.577  24.190  1.00  0.00     0.144 HD
ENDBRANCH  20  23
ENDBRANCH  14  15
ENDBRANCH   8   9
ENDBRANCH   6   8
ENDBRANCH   3   6
ENDBRANCH   1   2
BRANCH   1  26
ATOM     26  C   UNL A   1      31.338  31.227  25.878  1.00  0.00     0.042 C 
BRANCH  26  27
ATOM     27  C   UNL A   1      32.257  31.601  27.028  1.00  0.00     0.118 C 
BRANCH  27  28
ATOM     28  N   UNL A   1      32.317  33.040  27.249  1.00  0.00    -0.352 N 
ATOM     29  C   UNL A   1      33.203  33.776  27.997  1.00  0.00     0.251 C 
ATOM     30  H   UNL A   1      31.618  33.564  26.794  1.00  0.00     0.163 HD
ATOM     31  O   UNL A   1      32.967  34.958  28.228  1.00  0.00    -0.269 OA
BRANCH  29  32
ATOM     32  C   UNL A   1      34.415  33.130  28.541  1.00  0.00     0.039 A 
ATOM     33  C   UNL A   1      35.621  33.834  28.538  1.00  0.00     0.014 A 
ATOM     34  C   UNL A   1      34.357  31.838  29.072  1.00  0.00     0.014 A 
ATOM     35  C   UNL A   1      36.748  33.270  29.138  1.00  0.00     0.010 A 
ATOM     36  C   UNL A   1      35.450  31.324  29.758  1.00  0.00     0.010 A 
ATOM     37  C   UNL A   1      36.661  32.030  29.793  1.00  0.00    -0.014 A 
BRANCH  37  38
ATOM     38  C   UNL A   1      37.824  31.452  30.514  1.00  0.00     0.031 A 
ATOM     39  C   UNL A   1      38.674  30.404  29.850  1.00  0.00     0.074 A 
ATOM     40  C   UNL A   1      38.075  31.827  31.784  1.00  0.00     0.049 A 
ATOM     41  N   UNL A   1      39.680  29.723  30.336  1.00  0.00    -0.248 NA
ATOM     42  C   UNL A   1      38.324  30.050  28.465  1.00  0.00     0.031 C 
ATOM     43  C   UNL A   1      37.295  32.805  32.547  1.00  0.00     0.029 A 
ATOM     44  N   UNL A   1      39.050  31.426  32.663  1.00  0.00    -0.354 N 
ATOM     45  C   UNL A   1      40.076  28.856  29.323  1.00  0.00     0.074 A 
ATOM     46  C   UNL A   1      39.155  29.048  28.223  1.00  0.00     0.031 C 
ATOM     47  C   UNL A   1      37.844  32.953  33.764  1.00  0.00     0.029 A 
ATOM     48  C   UNL A   1      38.975  32.041  33.892  1.00  0.00     0.049 A 
ATOM     49  H   UNL A   1      39.740  30.762  32.435  1.00  0.00     0.167 HD
ATOM     50  C   UNL A   1      41.126  27.999  29.304  1.00  0.00     0.034 A 
ATOM     51  C   UNL A   1      39.722  31.876  35.003  1.00  0.00     0.034 A 
ATOM     52  C   UNL A   1      42.038  27.828  30.408  1.00  0.00     0.049 A 
ATOM     53  C   UNL A   1      40.860  30.885  34.971  1.00  0.00     0.074 A 
ATOM     54  C   UNL A   1      43.164  27.027  30.478  1.00  0.00     0.029 A 
ATOM     55  N   UNL A   1      41.923  28.458  31.641  1.00  0.00    -0.354 N 
ATOM     56  N   UNL A   1      41.253  30.109  33.985  1.00  0.00    -0.248 NA
ATOM     57  C   UNL A   1      41.659  30.755  36.195  1.00  0.00     0.031 C 
ATOM     58  C   UNL A   1      43.681  27.109  31.775  1.00  0.00     0.029 A 
ATOM     59  C   UNL A   1      42.936  28.033  32.489  1.00  0.00     0.049 A 
ATOM     60  H   UNL A   1      41.226  29.111  31.879  1.00  0.00     0.167 HD
ATOM     61  C   UNL A   1      42.368  29.426  34.465  1.00  0.00     0.074 A 
ATOM     62  C   UNL A   1      42.591  29.893  35.818  1.00  0.00     0.031 C 
ATOM     63  C   UNL A   1      43.141  28.501  33.840  1.00  0.00     0.034 A 
BRANCH  50  64
ATOM     64  C   UNL A   1      41.323  27.167  28.057  1.00  0.00     0.023 A 
ATOM     65  C   UNL A   1      40.928  25.819  27.997  1.00  0.00     0.031 A 
ATOM     66  C   UNL A   1      41.935  27.722  26.920  1.00  0.00     0.131 A 
ATOM     67  C   UNL A   1      41.220  25.052  26.859  1.00  0.00     0.055 A 
ATOM     68  C   UNL A   1      42.140  26.977  25.757  1.00  0.00     0.041 A 
ATOM     69  F   UNL A   1      42.356  28.997  26.923  1.00  0.00    -0.206 F 
ATOM     70  C   UNL A   1      41.796  25.629  25.727  1.00  0.00     0.022 A 
BRANCH  67  71
ATOM     71  S   UNL A   1      40.972  23.257  26.939  1.00  0.00     0.124 S 
ATOM     72  O   UNL A   1      41.603  22.818  25.695  1.00  0.00    -0.237 OA
ATOM     73  O   UNL A   1      41.666  22.896  28.168  1.00  0.00    -0.237 OA
ATOM     74  O   UNL A   1      39.518  23.113  26.975  1.00  0.00    -0.744 OA
ENDBRANCH  67  71
ENDBRANCH  50  64
BRANCH  51  75
ATOM     75  C   UNL A   1      39.417  32.648  36.243  1.00  0.00     0.023 A 
ATOM     76  C   UNL A   1      38.532  32.144  37.210  1.00  0.00     0.031 A 
ATOM     77  C   UNL A   1      39.968  33.924  36.457  1.00  0.00     0.131 A 
ATOM     78  C   UNL A   1      38.184  32.933  38.317  1.00  0.00     0.055 A 
ATOM     79  C   UNL A   1      39.666  34.678  37.592  1.00  0.00     0.041 A 
ATOM     80  F   UNL A   1      40.821  34.454  35.565  1.00  0.00    -0.206 F 
ATOM     81  C   UNL A   1      38.757  34.188  38.524  1.00  0.00     0.022 A 
BRANCH  78  82
ATOM     82  S   UNL A   1      36.889  32.331  39.436  1.00  0.00     0.124 S 
ATOM     83  O   UNL A   1      37.129  30.892  39.422  1.00  0.00    -0.237 OA
ATOM     84  O   UNL A   1      37.215  33.024  40.678  1.00  0.00    -0.237 OA
ATOM     85  O   UNL A   1      35.652  32.765  38.789  1.00  0.00    -0.744 OA
ENDBRANCH  78  82
ENDBRANCH  51  75
BRANCH  63  86
ATOM     86  C   UNL A   1      44.333  27.971  34.603  1.00  0.00     0.023 A 
ATOM     87  C   UNL A   1      44.253  26.816  35.400  1.00  0.00     0.031 A 
ATOM     88  C   UNL A   1      45.569  28.640  34.533  1.00  0.00     0.131 A 
ATOM     89  C   UNL A   1      45.369  26.399  36.141  1.00  0.00     0.055 A 
ATOM     90  C   UNL A   1      46.695  28.180  35.216  1.00  0.00     0.041 A 
ATOM     91  F   UNL A   1      45.703  29.751  33.791  1.00  0.00    -0.206 F 
ATOM     92  C   UNL A   1      46.595  27.061  36.038  1.00  0.00     0.022 A 
BRANCH  89  93
ATOM     93  S   UNL A   1      45.171  25.039  37.324  1.00  0.00     0.124 S 
ATOM     94  O   UNL A   1      44.116  25.546  38.197  1.00  0.00    -0.237 OA
ATOM     95  O   UNL A   1      44.799  23.924  36.459  1.00  0.00    -0.237 OA
ATOM     96  O   UNL A   1      46.490  24.928  37.944  1.00  0.00    -0.744 OA
ENDBRANCH  89  93
ENDBRANCH  63  86
ENDBRANCH  37  38
ENDBRANCH  29  32
ENDBRANCH  27  28
ENDBRANCH  26  27
ENDBRANCH   1  26
TORSDOF 17
ENDMDL
