MODEL 1
REMARK VINA RESULT:     -11.8      0.000      0.000
REMARK SMILES CCC[C@@H](C(=O)NCCCNC(=O)c1ccc(-c2c3nc(c(-c4cc(S(=O)(=O)[O-])ccc4F)c4ccc([nH]4)c(-c4cc(S(=O)(=O)[O-])ccc4F)c4nc(c(-c5cc(S(=O)(=O)[O-])ccc5F)c5ccc2[nH]5)C=C4)C=C3)cc1)n1nc(/C=C/c2ccc(OC)cc2)ccc1=O
REMARK SMILES IDX 8 1 7 2 5 3 6 4 4 6 3 7 2 8 1 9 77 10 78 11 92 12 79 13
REMARK SMILES IDX 91 14 93 15 90 16 80 17 81 18 82 19 83 20 89 21 84 22 88 23
REMARK SMILES IDX 85 24 86 25 87 26 9 27 10 28 11 29 12 30 13 32 14 33 15 34
REMARK SMILES IDX 76 35 16 36 75 37 17 38 18 39 19 40 69 41 20 42 74 43 68 44
REMARK SMILES IDX 70 45 21 46 73 47 67 48 66 49 22 51 54 52 34 53 53 54 35 55
REMARK SMILES IDX 38 56 52 57 71 58 36 59 37 60 51 62 72 63 39 64 23 65 24 66
REMARK SMILES IDX 32 67 25 68 31 69 33 70 30 71 26 72 27 73 28 74 29 75 55 76
REMARK SMILES IDX 56 77 64 78 57 79 63 80 65 81 62 82 58 83 59 84 60 85 61 86
REMARK SMILES IDX 40 87 41 88 49 89 42 90 48 91 50 92 47 93 43 94 44 95 45 96
REMARK SMILES IDX 46 97
REMARK H PARENT 7 5 11 31 70 50 38 61
REMARK Flexibility Score: inf
ROOT
ATOM      1  C   UNL A   1      35.347  24.038  24.569  1.00  0.00     0.117 C 
ENDROOT
BRANCH   1   2
ATOM      2  N   UNL A   1      34.701  24.057  23.275  1.00  0.00    -0.354 N 
ATOM      3  C   UNL A   1      33.752  23.250  22.723  1.00  0.00     0.245 C 
ATOM      4  O   UNL A   1      33.474  23.519  21.547  1.00  0.00    -0.273 OA
ATOM      5  H   UNL A   1      35.002  24.786  22.685  1.00  0.00     0.163 HD
BRANCH   3   6
ATOM      6  C   UNL A   1      33.060  22.105  23.525  1.00  0.00     0.200 C 
BRANCH   6   7
ATOM      7  C   UNL A   1      32.107  21.189  22.726  1.00  0.00     0.037 C 
BRANCH   7   8
ATOM      8  C   UNL A   1      32.146  19.682  22.973  1.00  0.00    -0.001 C 
ATOM      9  C   UNL A   1      33.235  19.185  23.909  1.00  0.00     0.004 C 
ENDBRANCH   7   8
ENDBRANCH   6   7
BRANCH   6  10
ATOM     10  N   UNL A   1      32.283  22.809  24.582  1.00  0.00    -0.217 N 
ATOM     11  N   UNL A   1      31.636  23.971  24.190  1.00  0.00    -0.170 NA
ATOM     12  C   UNL A   1      32.382  22.401  25.902  1.00  0.00     0.267 A 
ATOM     13  C   UNL A   1      31.139  24.747  25.104  1.00  0.00     0.084 A 
ATOM     14  C   UNL A   1      31.734  23.279  26.900  1.00  0.00     0.075 A 
ATOM     15  O   UNL A   1      32.952  21.385  26.287  1.00  0.00    -0.268 OA
ATOM     16  C   UNL A   1      31.147  24.424  26.543  1.00  0.00     0.036 A 
BRANCH  13  17
ATOM     17  C   UNL A   1      30.507  26.020  24.651  1.00  0.00     0.031 C 
ATOM     18  C   UNL A   1      30.435  26.488  23.395  1.00  0.00     0.010 C 
BRANCH  18  19
ATOM     19  C   UNL A   1      29.808  27.772  23.044  1.00  0.00    -0.025 A 
ATOM     20  C   UNL A   1      28.424  27.920  23.191  1.00  0.00     0.012 A 
ATOM     21  C   UNL A   1      30.537  28.829  22.483  1.00  0.00     0.012 A 
ATOM     22  C   UNL A   1      27.790  29.101  22.793  1.00  0.00     0.047 A 
ATOM     23  C   UNL A   1      29.899  30.012  22.086  1.00  0.00     0.047 A 
ATOM     24  C   UNL A   1      28.521  30.152  22.236  1.00  0.00     0.118 A 
BRANCH  24  25
ATOM     25  O   UNL A   1      27.776  31.240  21.872  1.00  0.00    -0.497 OA
ATOM     26  C   UNL A   1      27.856  31.644  20.511  1.00  0.00     0.278 C 
ENDBRANCH  24  25
ENDBRANCH  18  19
ENDBRANCH  13  17
ENDBRANCH   6  10
ENDBRANCH   3   6
ENDBRANCH   1   2
BRANCH   1  27
ATOM     27  C   UNL A   1      36.360  22.900  24.650  1.00  0.00     0.042 C 
BRANCH  27  28
ATOM     28  C   UNL A   1      36.744  22.497  26.066  1.00  0.00     0.118 C 
BRANCH  28  29
ATOM     29  N   UNL A   1      37.831  21.539  26.096  1.00  0.00    -0.352 N 
ATOM     30  C   UNL A   1      39.178  21.724  26.303  1.00  0.00     0.251 C 
ATOM     31  H   UNL A   1      37.562  20.604  25.943  1.00  0.00     0.163 HD
ATOM     32  O   UNL A   1      39.937  20.784  26.081  1.00  0.00    -0.269 OA
BRANCH  30  33
ATOM     33  C   UNL A   1      39.725  23.028  26.757  1.00  0.00     0.039 A 
ATOM     34  C   UNL A   1      39.385  24.179  26.039  1.00  0.00     0.014 A 
ATOM     35  C   UNL A   1      40.606  23.135  27.838  1.00  0.00     0.014 A 
ATOM     36  C   UNL A   1      39.890  25.425  26.424  1.00  0.00     0.010 A 
ATOM     37  C   UNL A   1      41.029  24.390  28.282  1.00  0.00     0.010 A 
ATOM     38  C   UNL A   1      40.697  25.548  27.566  1.00  0.00    -0.014 A 
BRANCH  38  39
ATOM     39  C   UNL A   1      41.230  26.872  27.989  1.00  0.00     0.031 A 
ATOM     40  C   UNL A   1      42.664  27.241  27.696  1.00  0.00     0.074 A 
ATOM     41  C   UNL A   1      40.439  27.731  28.662  1.00  0.00     0.049 A 
ATOM     42  N   UNL A   1      43.319  28.333  28.002  1.00  0.00    -0.248 NA
ATOM     43  C   UNL A   1      43.475  26.235  26.994  1.00  0.00     0.031 C 
ATOM     44  C   UNL A   1      39.051  27.472  29.052  1.00  0.00     0.029 A 
ATOM     45  N   UNL A   1      40.683  28.996  29.138  1.00  0.00    -0.354 N 
ATOM     46  C   UNL A   1      44.619  28.137  27.544  1.00  0.00     0.074 A 
ATOM     47  C   UNL A   1      44.674  26.795  27.005  1.00  0.00     0.031 C 
ATOM     48  C   UNL A   1      38.558  28.556  29.672  1.00  0.00     0.029 A 
ATOM     49  C   UNL A   1      39.601  29.572  29.761  1.00  0.00     0.049 A 
ATOM     50  H   UNL A   1      41.553  29.448  29.041  1.00  0.00     0.167 HD
ATOM     51  C   UNL A   1      45.663  29.004  27.545  1.00  0.00     0.034 A 
ATOM     52  C   UNL A   1      39.464  30.782  30.339  1.00  0.00     0.034 A 
ATOM     53  C   UNL A   1      45.588  30.348  28.067  1.00  0.00     0.049 A 
ATOM     54  C   UNL A   1      40.635  31.732  30.325  1.00  0.00     0.074 A 
ATOM     55  C   UNL A   1      46.562  31.330  28.070  1.00  0.00     0.029 A 
ATOM     56  N   UNL A   1      44.470  30.899  28.682  1.00  0.00    -0.354 N 
ATOM     57  N   UNL A   1      41.840  31.551  29.838  1.00  0.00    -0.248 NA
ATOM     58  C   UNL A   1      40.419  33.056  30.922  1.00  0.00     0.031 C 
ATOM     59  C   UNL A   1      46.058  32.450  28.740  1.00  0.00     0.029 A 
ATOM     60  C   UNL A   1      44.741  32.197  29.091  1.00  0.00     0.049 A 
ATOM     61  H   UNL A   1      43.610  30.437  28.809  1.00  0.00     0.167 HD
ATOM     62  C   UNL A   1      42.517  32.750  30.045  1.00  0.00     0.074 A 
ATOM     63  C   UNL A   1      41.578  33.650  30.681  1.00  0.00     0.031 C 
ATOM     64  C   UNL A   1      43.798  33.079  29.737  1.00  0.00     0.034 A 
BRANCH  51  65
ATOM     65  C   UNL A   1      46.978  28.511  26.983  1.00  0.00     0.023 A 
ATOM     66  C   UNL A   1      47.181  28.367  25.598  1.00  0.00     0.031 A 
ATOM     67  C   UNL A   1      48.031  28.149  27.840  1.00  0.00     0.131 A 
ATOM     68  C   UNL A   1      48.370  27.798  25.118  1.00  0.00     0.055 A 
ATOM     69  C   UNL A   1      49.245  27.663  27.351  1.00  0.00     0.041 A 
ATOM     70  F   UNL A   1      47.892  28.245  29.172  1.00  0.00    -0.206 F 
ATOM     71  C   UNL A   1      49.414  27.469  25.983  1.00  0.00     0.022 A 
BRANCH  68  72
ATOM     72  S   UNL A   1      48.471  27.355  23.362  1.00  0.00     0.124 S 
ATOM     73  O   UNL A   1      49.810  27.826  23.016  1.00  0.00    -0.237 OA
ATOM     74  O   UNL A   1      48.289  25.908  23.390  1.00  0.00    -0.237 OA
ATOM     75  O   UNL A   1      47.377  28.111  22.755  1.00  0.00    -0.744 OA
ENDBRANCH  68  72
ENDBRANCH  51  65
BRANCH  52  76
ATOM     76  C   UNL A   1      38.173  31.174  30.975  1.00  0.00     0.023 A 
ATOM     77  C   UNL A   1      37.176  31.840  30.244  1.00  0.00     0.031 A 
ATOM     78  C   UNL A   1      37.933  30.926  32.338  1.00  0.00     0.131 A 
ATOM     79  C   UNL A   1      36.007  32.275  30.886  1.00  0.00     0.055 A 
ATOM     80  C   UNL A   1      36.746  31.314  32.962  1.00  0.00     0.041 A 
ATOM     81  F   UNL A   1      38.849  30.287  33.085  1.00  0.00    -0.206 F 
ATOM     82  C   UNL A   1      35.779  32.005  32.237  1.00  0.00     0.022 A 
BRANCH  79  83
ATOM     83  S   UNL A   1      34.819  33.274  29.948  1.00  0.00     0.124 S 
ATOM     84  O   UNL A   1      34.048  33.900  31.016  1.00  0.00    -0.237 OA
ATOM     85  O   UNL A   1      35.699  34.157  29.189  1.00  0.00    -0.237 OA
ATOM     86  O   UNL A   1      34.095  32.285  29.151  1.00  0.00    -0.744 OA
ENDBRANCH  79  83
ENDBRANCH  52  76
BRANCH  64  87
ATOM     87  C   UNL A   1      44.233  34.490  30.050  1.00  0.00     0.023 A 
ATOM     88  C   UNL A   1      44.040  35.544  29.139  1.00  0.00     0.031 A 
ATOM     89  C   UNL A   1      44.874  34.778  31.268  1.00  0.00     0.131 A 
ATOM     90  C   UNL A   1      44.542  36.820  29.432  1.00  0.00     0.055 A 
ATOM     91  C   UNL A   1      45.314  36.065  31.581  1.00  0.00     0.041 A 
ATOM     92  F   UNL A   1      45.086  33.810  32.175  1.00  0.00    -0.206 F 
ATOM     93  C   UNL A   1      45.163  37.091  30.654  1.00  0.00     0.022 A 
BRANCH  90  94
ATOM     94  S   UNL A   1      44.465  38.099  28.148  1.00  0.00     0.124 S 
ATOM     95  O   UNL A   1      45.873  38.445  27.980  1.00  0.00    -0.237 OA
ATOM     96  O   UNL A   1      43.847  37.388  27.035  1.00  0.00    -0.237 OA
ATOM     97  O   UNL A   1      43.639  39.143  28.752  1.00  0.00    -0.744 OA
ENDBRANCH  90  94
ENDBRANCH  64  87
ENDBRANCH  38  39
ENDBRANCH  30  33
ENDBRANCH  28  29
ENDBRANCH  27  28
ENDBRANCH   1  27
TORSDOF 19
ENDMDL
MODEL 2
REMARK VINA RESULT:     -11.8      1.962      4.527
REMARK SMILES CCC[C@@H](C(=O)NCCCNC(=O)c1ccc(-c2c3nc(c(-c4cc(S(=O)(=O)[O-])ccc4F)c4ccc([nH]4)c(-c4cc(S(=O)(=O)[O-])ccc4F)c4nc(c(-c5cc(S(=O)(=O)[O-])ccc5F)c5ccc2[nH]5)C=C4)C=C3)cc1)n1nc(/C=C/c2ccc(OC)cc2)ccc1=O
REMARK SMILES IDX 8 1 7 2 5 3 6 4 4 6 3 7 2 8 1 9 77 10 78 11 92 12 79 13
REMARK SMILES IDX 91 14 93 15 90 16 80 17 81 18 82 19 83 20 89 21 84 22 88 23
REMARK SMILES IDX 85 24 86 25 87 26 9 27 10 28 11 29 12 30 13 32 14 33 15 34
REMARK SMILES IDX 76 35 16 36 75 37 17 38 18 39 19 40 69 41 20 42 74 43 68 44
REMARK SMILES IDX 70 45 21 46 73 47 67 48 66 49 22 51 54 52 34 53 53 54 35 55
REMARK SMILES IDX 38 56 52 57 71 58 36 59 37 60 51 62 72 63 39 64 23 65 24 66
REMARK SMILES IDX 32 67 25 68 31 69 33 70 30 71 26 72 27 73 28 74 29 75 55 76
REMARK SMILES IDX 56 77 64 78 57 79 63 80 65 81 62 82 58 83 59 84 60 85 61 86
REMARK SMILES IDX 40 87 41 88 49 89 42 90 48 91 50 92 47 93 43 94 44 95 45 96
REMARK SMILES IDX 46 97
REMARK H PARENT 7 5 11 31 70 50 38 61
REMARK Flexibility Score: inf
ROOT
ATOM      1  C   UNL A   1      35.519  24.154  24.283  1.00  0.00     0.117 C 
ENDROOT
BRANCH   1   2
ATOM      2  N   UNL A   1      34.536  24.296  23.231  1.00  0.00    -0.354 N 
ATOM      3  C   UNL A   1      33.356  24.973  23.178  1.00  0.00     0.245 C 
ATOM      4  O   UNL A   1      32.724  24.817  22.125  1.00  0.00    -0.273 OA
ATOM      5  H   UNL A   1      34.762  23.815  22.402  1.00  0.00     0.163 HD
BRANCH   3   6
ATOM      6  C   UNL A   1      32.866  25.891  24.341  1.00  0.00     0.200 C 
BRANCH   6   7
ATOM      7  C   UNL A   1      33.967  26.558  25.196  1.00  0.00     0.037 C 
BRANCH   7   8
ATOM      8  C   UNL A   1      33.844  28.041  25.539  1.00  0.00    -0.001 C 
ATOM      9  C   UNL A   1      33.481  28.366  26.979  1.00  0.00     0.004 C 
ENDBRANCH   7   8
ENDBRANCH   6   7
BRANCH   6  10
ATOM     10  N   UNL A   1      32.057  24.992  25.208  1.00  0.00    -0.217 N 
ATOM     11  N   UNL A   1      32.387  23.646  25.167  1.00  0.00    -0.170 NA
ATOM     12  C   UNL A   1      30.933  25.480  25.854  1.00  0.00     0.267 A 
ATOM     13  C   UNL A   1      31.582  22.789  25.714  1.00  0.00     0.084 A 
ATOM     14  C   UNL A   1      30.087  24.472  26.529  1.00  0.00     0.075 A 
ATOM     15  O   UNL A   1      30.606  26.661  25.907  1.00  0.00    -0.268 OA
ATOM     16  C   UNL A   1      30.366  23.169  26.459  1.00  0.00     0.036 A 
BRANCH  13  17
ATOM     17  C   UNL A   1      31.936  21.344  25.594  1.00  0.00     0.031 C 
ATOM     18  C   UNL A   1      32.238  20.674  24.472  1.00  0.00     0.010 C 
BRANCH  18  19
ATOM     19  C   UNL A   1      32.554  19.236  24.446  1.00  0.00    -0.025 A 
ATOM     20  C   UNL A   1      32.578  18.521  25.649  1.00  0.00     0.012 A 
ATOM     21  C   UNL A   1      32.918  18.573  23.267  1.00  0.00     0.012 A 
ATOM     22  C   UNL A   1      32.950  17.173  25.666  1.00  0.00     0.047 A 
ATOM     23  C   UNL A   1      33.289  17.222  23.286  1.00  0.00     0.047 A 
ATOM     24  C   UNL A   1      33.310  16.517  24.488  1.00  0.00     0.118 A 
BRANCH  24  25
ATOM     25  O   UNL A   1      33.672  15.207  24.647  1.00  0.00    -0.497 OA
ATOM     26  C   UNL A   1      32.877  14.426  25.531  1.00  0.00     0.278 C 
ENDBRANCH  24  25
ENDBRANCH  18  19
ENDBRANCH  13  17
ENDBRANCH   6  10
ENDBRANCH   3   6
ENDBRANCH   1   2
BRANCH   1  27
ATOM     27  C   UNL A   1      35.795  22.682  24.571  1.00  0.00     0.042 C 
BRANCH  27  28
ATOM     28  C   UNL A   1      36.371  22.406  25.951  1.00  0.00     0.118 C 
BRANCH  28  29
ATOM     29  N   UNL A   1      37.413  21.399  25.927  1.00  0.00    -0.352 N 
ATOM     30  C   UNL A   1      38.773  21.518  26.096  1.00  0.00     0.251 C 
ATOM     31  H   UNL A   1      37.097  20.481  25.764  1.00  0.00     0.163 HD
ATOM     32  O   UNL A   1      39.481  20.550  25.832  1.00  0.00    -0.269 OA
BRANCH  30  33
ATOM     33  C   UNL A   1      39.393  22.787  26.561  1.00  0.00     0.039 A 
ATOM     34  C   UNL A   1      38.986  23.983  25.963  1.00  0.00     0.014 A 
ATOM     35  C   UNL A   1      40.402  22.817  27.528  1.00  0.00     0.014 A 
ATOM     36  C   UNL A   1      39.554  25.199  26.360  1.00  0.00     0.010 A 
ATOM     37  C   UNL A   1      40.896  24.036  27.995  1.00  0.00     0.010 A 
ATOM     38  C   UNL A   1      40.497  25.241  27.399  1.00  0.00    -0.014 A 
BRANCH  38  39
ATOM     39  C   UNL A   1      41.099  26.531  27.835  1.00  0.00     0.031 A 
ATOM     40  C   UNL A   1      42.538  26.846  27.505  1.00  0.00     0.074 A 
ATOM     41  C   UNL A   1      40.367  27.406  28.552  1.00  0.00     0.049 A 
ATOM     42  N   UNL A   1      43.249  27.900  27.816  1.00  0.00    -0.248 NA
ATOM     43  C   UNL A   1      43.283  25.823  26.756  1.00  0.00     0.031 C 
ATOM     44  C   UNL A   1      38.981  27.197  28.979  1.00  0.00     0.029 A 
ATOM     45  N   UNL A   1      40.679  28.648  29.047  1.00  0.00    -0.354 N 
ATOM     46  C   UNL A   1      44.525  27.661  27.313  1.00  0.00     0.074 A 
ATOM     47  C   UNL A   1      44.506  26.331  26.743  1.00  0.00     0.031 C 
ATOM     48  C   UNL A   1      38.554  28.286  29.638  1.00  0.00     0.029 A 
ATOM     49  C   UNL A   1      39.642  29.255  29.717  1.00  0.00     0.049 A 
ATOM     50  H   UNL A   1      41.565  29.064  28.934  1.00  0.00     0.167 HD
ATOM     51  C   UNL A   1      45.605  28.483  27.301  1.00  0.00     0.034 A 
ATOM     52  C   UNL A   1      39.575  30.455  30.326  1.00  0.00     0.034 A 
ATOM     53  C   UNL A   1      45.603  29.816  27.855  1.00  0.00     0.049 A 
ATOM     54  C   UNL A   1      40.785  31.355  30.297  1.00  0.00     0.074 A 
ATOM     55  C   UNL A   1      46.619  30.755  27.851  1.00  0.00     0.029 A 
ATOM     56  N   UNL A   1      44.530  30.399  28.517  1.00  0.00    -0.354 N 
ATOM     57  N   UNL A   1      41.966  31.134  29.769  1.00  0.00    -0.248 NA
ATOM     58  C   UNL A   1      40.644  32.672  30.930  1.00  0.00     0.031 C 
ATOM     59  C   UNL A   1      46.184  31.879  28.561  1.00  0.00     0.029 A 
ATOM     60  C   UNL A   1      44.869  31.674  28.947  1.00  0.00     0.049 A 
ATOM     61  H   UNL A   1      43.655  29.970  28.661  1.00  0.00     0.167 HD
ATOM     62  C   UNL A   1      42.700  32.298  29.982  1.00  0.00     0.074 A 
ATOM     63  C   UNL A   1      41.820  33.222  30.667  1.00  0.00     0.031 C 
ATOM     64  C   UNL A   1      43.984  32.579  29.641  1.00  0.00     0.034 A 
BRANCH  51  65
ATOM     65  C   UNL A   1      46.879  27.948  26.687  1.00  0.00     0.023 A 
ATOM     66  C   UNL A   1      47.156  28.094  25.316  1.00  0.00     0.031 A 
ATOM     67  C   UNL A   1      47.815  27.254  27.474  1.00  0.00     0.131 A 
ATOM     68  C   UNL A   1      48.291  27.485  24.759  1.00  0.00     0.055 A 
ATOM     69  C   UNL A   1      48.987  26.724  26.929  1.00  0.00     0.041 A 
ATOM     70  F   UNL A   1      47.600  27.065  28.785  1.00  0.00    -0.206 F 
ATOM     71  C   UNL A   1      49.222  26.823  25.561  1.00  0.00     0.022 A 
BRANCH  68  72
ATOM     72  S   UNL A   1      48.452  27.441  22.953  1.00  0.00     0.124 S 
ATOM     73  O   UNL A   1      49.747  28.090  22.758  1.00  0.00    -0.237 OA
ATOM     74  O   UNL A   1      48.403  26.013  22.665  1.00  0.00    -0.237 OA
ATOM     75  O   UNL A   1      47.302  28.213  22.488  1.00  0.00    -0.744 OA
ENDBRANCH  68  72
ENDBRANCH  51  65
BRANCH  52  76
ATOM     76  C   UNL A   1      38.322  30.887  31.011  1.00  0.00     0.023 A 
ATOM     77  C   UNL A   1      37.311  31.566  30.313  1.00  0.00     0.031 A 
ATOM     78  C   UNL A   1      38.134  30.661  32.386  1.00  0.00     0.131 A 
ATOM     79  C   UNL A   1      36.180  32.037  30.998  1.00  0.00     0.055 A 
ATOM     80  C   UNL A   1      36.985  31.086  33.054  1.00  0.00     0.041 A 
ATOM     81  F   UNL A   1      39.067  30.011  33.102  1.00  0.00    -0.206 F 
ATOM     82  C   UNL A   1      36.005  31.791  32.362  1.00  0.00     0.022 A 
BRANCH  79  83
ATOM     83  S   UNL A   1      34.977  33.053  30.097  1.00  0.00     0.124 S 
ATOM     84  O   UNL A   1      34.093  33.489  31.171  1.00  0.00    -0.237 OA
ATOM     85  O   UNL A   1      35.829  34.080  29.508  1.00  0.00    -0.237 OA
ATOM     86  O   UNL A   1      34.387  32.115  29.143  1.00  0.00    -0.744 OA
ENDBRANCH  79  83
ENDBRANCH  52  76
BRANCH  64  87
ATOM     87  C   UNL A   1      44.489  33.963  29.973  1.00  0.00     0.023 A 
ATOM     88  C   UNL A   1      44.344  35.038  29.078  1.00  0.00     0.031 A 
ATOM     89  C   UNL A   1      45.149  34.201  31.192  1.00  0.00     0.131 A 
ATOM     90  C   UNL A   1      44.908  36.284  29.387  1.00  0.00     0.055 A 
ATOM     91  C   UNL A   1      45.652  35.461  31.520  1.00  0.00     0.041 A 
ATOM     92  F   UNL A   1      45.317  33.212  32.083  1.00  0.00    -0.206 F 
ATOM     93  C   UNL A   1      45.548  36.506  30.609  1.00  0.00     0.022 A 
BRANCH  90  94
ATOM     94  S   UNL A   1      44.889  37.584  28.121  1.00  0.00     0.124 S 
ATOM     95  O   UNL A   1      45.221  38.772  28.901  1.00  0.00    -0.237 OA
ATOM     96  O   UNL A   1      45.913  37.127  27.189  1.00  0.00    -0.237 OA
ATOM     97  O   UNL A   1      43.520  37.543  27.608  1.00  0.00    -0.744 OA
ENDBRANCH  90  94
ENDBRANCH  64  87
ENDBRANCH  38  39
ENDBRANCH  30  33
ENDBRANCH  28  29
ENDBRANCH  27  28
ENDBRANCH   1  27
TORSDOF 19
ENDMDL
MODEL 3
REMARK VINA RESULT:     -11.7      1.350      1.654
REMARK SMILES CCC[C@@H](C(=O)NCCCNC(=O)c1ccc(-c2c3nc(c(-c4cc(S(=O)(=O)[O-])ccc4F)c4ccc([nH]4)c(-c4cc(S(=O)(=O)[O-])ccc4F)c4nc(c(-c5cc(S(=O)(=O)[O-])ccc5F)c5ccc2[nH]5)C=C4)C=C3)cc1)n1nc(/C=C/c2ccc(OC)cc2)ccc1=O
REMARK SMILES IDX 8 1 7 2 5 3 6 4 4 6 3 7 2 8 1 9 77 10 78 11 92 12 79 13
REMARK SMILES IDX 91 14 93 15 90 16 80 17 81 18 82 19 83 20 89 21 84 22 88 23
REMARK SMILES IDX 85 24 86 25 87 26 9 27 10 28 11 29 12 30 13 32 14 33 15 34
REMARK SMILES IDX 76 35 16 36 75 37 17 38 18 39 19 40 69 41 20 42 74 43 68 44
REMARK SMILES IDX 70 45 21 46 73 47 67 48 66 49 22 51 54 52 34 53 53 54 35 55
REMARK SMILES IDX 38 56 52 57 71 58 36 59 37 60 51 62 72 63 39 64 23 65 24 66
REMARK SMILES IDX 32 67 25 68 31 69 33 70 30 71 26 72 27 73 28 74 29 75 55 76
REMARK SMILES IDX 56 77 64 78 57 79 63 80 65 81 62 82 58 83 59 84 60 85 61 86
REMARK SMILES IDX 40 87 41 88 49 89 42 90 48 91 50 92 47 93 43 94 44 95 45 96
REMARK SMILES IDX 46 97
REMARK H PARENT 7 5 11 31 70 50 38 61
REMARK Flexibility Score: inf
ROOT
ATOM      1  C   UNL A   1      35.537  23.892  24.249  1.00  0.00     0.117 C 
ENDROOT
BRANCH   1   2
ATOM      2  N   UNL A   1      34.719  23.757  23.063  1.00  0.00    -0.354 N 
ATOM      3  C   UNL A   1      33.689  22.917  22.763  1.00  0.00     0.245 C 
ATOM      4  O   UNL A   1      33.257  23.032  21.608  1.00  0.00    -0.273 OA
ATOM      5  H   UNL A   1      34.950  24.386  22.342  1.00  0.00     0.163 HD
BRANCH   3   6
ATOM      6  C   UNL A   1      33.093  21.920  23.805  1.00  0.00     0.200 C 
BRANCH   6   7
ATOM      7  C   UNL A   1      32.229  20.773  23.237  1.00  0.00     0.037 C 
BRANCH   7   8
ATOM      8  C   UNL A   1      32.592  19.329  23.582  1.00  0.00    -0.001 C 
ATOM      9  C   UNL A   1      33.704  19.144  24.600  1.00  0.00     0.004 C 
ENDBRANCH   7   8
ENDBRANCH   6   7
BRANCH   6  10
ATOM     10  N   UNL A   1      32.252  22.768  24.691  1.00  0.00    -0.217 N 
ATOM     11  N   UNL A   1      31.513  23.760  24.065  1.00  0.00    -0.170 NA
ATOM     12  C   UNL A   1      32.373  22.665  26.067  1.00  0.00     0.267 A 
ATOM     13  C   UNL A   1      30.946  24.670  24.794  1.00  0.00     0.084 A 
ATOM     14  C   UNL A   1      31.645  23.680  26.858  1.00  0.00     0.075 A 
ATOM     15  O   UNL A   1      33.022  21.806  26.657  1.00  0.00    -0.268 OA
ATOM     16  C   UNL A   1      30.968  24.668  26.269  1.00  0.00     0.036 A 
BRANCH  13  17
ATOM     17  C   UNL A   1      30.213  25.759  24.083  1.00  0.00     0.031 C 
ATOM     18  C   UNL A   1      30.662  26.993  23.807  1.00  0.00     0.010 C 
BRANCH  18  19
ATOM     19  C   UNL A   1      29.856  28.013  23.117  1.00  0.00    -0.025 A 
ATOM     20  C   UNL A   1      30.501  28.982  22.341  1.00  0.00     0.012 A 
ATOM     21  C   UNL A   1      28.468  28.101  23.278  1.00  0.00     0.012 A 
ATOM     22  C   UNL A   1      29.770  30.009  21.736  1.00  0.00     0.047 A 
ATOM     23  C   UNL A   1      27.736  29.130  22.671  1.00  0.00     0.047 A 
ATOM     24  C   UNL A   1      28.386  30.093  21.900  1.00  0.00     0.118 A 
BRANCH  24  25
ATOM     25  O   UNL A   1      27.796  31.156  21.273  1.00  0.00    -0.497 OA
ATOM     26  C   UNL A   1      28.164  32.452  21.728  1.00  0.00     0.278 C 
ENDBRANCH  24  25
ENDBRANCH  18  19
ENDBRANCH  13  17
ENDBRANCH   6  10
ENDBRANCH   3   6
ENDBRANCH   1   2
BRANCH   1  27
ATOM     27  C   UNL A   1      36.272  22.589  24.550  1.00  0.00     0.042 C 
BRANCH  27  28
ATOM     28  C   UNL A   1      36.873  22.512  25.946  1.00  0.00     0.118 C 
BRANCH  28  29
ATOM     29  N   UNL A   1      37.944  21.539  26.036  1.00  0.00    -0.352 N 
ATOM     30  C   UNL A   1      39.282  21.708  26.304  1.00  0.00     0.251 C 
ATOM     31  H   UNL A   1      37.669  20.607  25.881  1.00  0.00     0.163 HD
ATOM     32  O   UNL A   1      40.037  20.756  26.128  1.00  0.00    -0.269 OA
BRANCH  30  33
ATOM     33  C   UNL A   1      39.826  23.010  26.770  1.00  0.00     0.039 A 
ATOM     34  C   UNL A   1      39.483  24.166  26.062  1.00  0.00     0.014 A 
ATOM     35  C   UNL A   1      40.708  23.110  27.851  1.00  0.00     0.014 A 
ATOM     36  C   UNL A   1      39.984  25.411  26.457  1.00  0.00     0.010 A 
ATOM     37  C   UNL A   1      41.127  24.361  28.306  1.00  0.00     0.010 A 
ATOM     38  C   UNL A   1      40.791  25.525  27.601  1.00  0.00    -0.014 A 
BRANCH  38  39
ATOM     39  C   UNL A   1      41.321  26.847  28.035  1.00  0.00     0.031 A 
ATOM     40  C   UNL A   1      42.761  27.213  27.766  1.00  0.00     0.074 A 
ATOM     41  C   UNL A   1      40.522  27.707  28.696  1.00  0.00     0.049 A 
ATOM     42  N   UNL A   1      43.414  28.301  28.085  1.00  0.00    -0.248 NA
ATOM     43  C   UNL A   1      43.581  26.205  27.076  1.00  0.00     0.031 C 
ATOM     44  C   UNL A   1      39.126  27.451  29.062  1.00  0.00     0.029 A 
ATOM     45  N   UNL A   1      40.762  28.970  29.178  1.00  0.00    -0.354 N 
ATOM     46  C   UNL A   1      44.721  28.103  27.649  1.00  0.00     0.074 A 
ATOM     47  C   UNL A   1      44.781  26.762  27.109  1.00  0.00     0.031 C 
ATOM     48  C   UNL A   1      38.626  28.535  29.676  1.00  0.00     0.029 A 
ATOM     49  C   UNL A   1      39.671  29.548  29.785  1.00  0.00     0.049 A 
ATOM     50  H   UNL A   1      41.634  29.419  29.097  1.00  0.00     0.167 HD
ATOM     51  C   UNL A   1      45.767  28.967  27.669  1.00  0.00     0.034 A 
ATOM     52  C   UNL A   1      39.527  30.758  30.363  1.00  0.00     0.034 A 
ATOM     53  C   UNL A   1      45.687  30.310  28.192  1.00  0.00     0.049 A 
ATOM     54  C   UNL A   1      40.701  31.704  30.370  1.00  0.00     0.074 A 
ATOM     55  C   UNL A   1      46.664  31.289  28.214  1.00  0.00     0.029 A 
ATOM     56  N   UNL A   1      44.561  30.863  28.789  1.00  0.00    -0.354 N 
ATOM     57  N   UNL A   1      41.914  31.520  29.902  1.00  0.00    -0.248 NA
ATOM     58  C   UNL A   1      40.479  33.027  30.966  1.00  0.00     0.031 C 
ATOM     59  C   UNL A   1      46.152  32.409  28.878  1.00  0.00     0.029 A 
ATOM     60  C   UNL A   1      44.829  32.159  29.205  1.00  0.00     0.049 A 
ATOM     61  H   UNL A   1      43.698  30.403  28.901  1.00  0.00     0.167 HD
ATOM     62  C   UNL A   1      42.590  32.717  30.124  1.00  0.00     0.074 A 
ATOM     63  C   UNL A   1      41.643  33.619  30.746  1.00  0.00     0.031 C 
ATOM     64  C   UNL A   1      43.877  33.043  29.837  1.00  0.00     0.034 A 
BRANCH  51  65
ATOM     65  C   UNL A   1      47.089  28.471  27.128  1.00  0.00     0.023 A 
ATOM     66  C   UNL A   1      47.289  28.253  25.752  1.00  0.00     0.031 A 
ATOM     67  C   UNL A   1      48.155  28.181  27.998  1.00  0.00     0.131 A 
ATOM     68  C   UNL A   1      48.488  27.683  25.298  1.00  0.00     0.055 A 
ATOM     69  C   UNL A   1      49.377  27.694  27.530  1.00  0.00     0.041 A 
ATOM     70  F   UNL A   1      48.020  28.350  29.323  1.00  0.00    -0.206 F 
ATOM     71  C   UNL A   1      49.544  27.426  26.175  1.00  0.00     0.022 A 
BRANCH  68  72
ATOM     72  S   UNL A   1      48.590  27.143  23.569  1.00  0.00     0.124 S 
ATOM     73  O   UNL A   1      47.902  25.855  23.623  1.00  0.00    -0.237 OA
ATOM     74  O   UNL A   1      47.893  28.211  22.863  1.00  0.00    -0.237 OA
ATOM     75  O   UNL A   1      50.028  27.062  23.320  1.00  0.00    -0.744 OA
ENDBRANCH  68  72
ENDBRANCH  51  65
BRANCH  52  76
ATOM     76  C   UNL A   1      38.227  31.152  30.978  1.00  0.00     0.023 A 
ATOM     77  C   UNL A   1      37.221  31.768  30.216  1.00  0.00     0.031 A 
ATOM     78  C   UNL A   1      37.986  30.956  32.350  1.00  0.00     0.131 A 
ATOM     79  C   UNL A   1      36.042  32.208  30.836  1.00  0.00     0.055 A 
ATOM     80  C   UNL A   1      36.790  31.349  32.953  1.00  0.00     0.041 A 
ATOM     81  F   UNL A   1      38.912  30.367  33.125  1.00  0.00    -0.206 F 
ATOM     82  C   UNL A   1      35.814  31.991  32.197  1.00  0.00     0.022 A 
BRANCH  79  83
ATOM     83  S   UNL A   1      34.839  33.145  29.853  1.00  0.00     0.124 S 
ATOM     84  O   UNL A   1      33.952  33.666  30.886  1.00  0.00    -0.237 OA
ATOM     85  O   UNL A   1      35.691  34.123  29.185  1.00  0.00    -0.237 OA
ATOM     86  O   UNL A   1      34.252  32.132  28.977  1.00  0.00    -0.744 OA
ENDBRANCH  79  83
ENDBRANCH  52  76
BRANCH  64  87
ATOM     87  C   UNL A   1      44.312  34.452  30.161  1.00  0.00     0.023 A 
ATOM     88  C   UNL A   1      44.827  34.795  31.424  1.00  0.00     0.031 A 
ATOM     89  C   UNL A   1      44.184  35.470  29.199  1.00  0.00     0.131 A 
ATOM     90  C   UNL A   1      45.133  36.133  31.712  1.00  0.00     0.055 A 
ATOM     91  C   UNL A   1      44.551  36.788  29.472  1.00  0.00     0.041 A 
ATOM     92  F   UNL A   1      43.697  35.199  27.978  1.00  0.00    -0.206 F 
ATOM     93  C   UNL A   1      45.013  37.129  30.739  1.00  0.00     0.022 A 
BRANCH  90  94
ATOM     94  S   UNL A   1      45.589  36.573  33.412  1.00  0.00     0.124 S 
ATOM     95  O   UNL A   1      45.573  35.274  34.076  1.00  0.00    -0.237 OA
ATOM     96  O   UNL A   1      46.903  37.182  33.235  1.00  0.00    -0.237 OA
ATOM     97  O   UNL A   1      44.530  37.493  33.824  1.00  0.00    -0.744 OA
ENDBRANCH  90  94
ENDBRANCH  64  87
ENDBRANCH  38  39
ENDBRANCH  30  33
ENDBRANCH  28  29
ENDBRANCH  27  28
ENDBRANCH   1  27
TORSDOF 19
ENDMDL
