MODEL 1
REMARK VINA RESULT:     -11.8      0.000      0.000
REMARK SMILES C[C@H](c1ccc(Br)s1)[NH+]1CCC(CC(=O)NCCCNC(=O)c2ccc(-c3c4nc(c(-c5cc(S(=O)(=O)[O-])ccc5F)c5ccc([nH]5)c(-c5cc(S(=O)(=O)[O-])ccc5F)c5nc(c(-c6cc(S(=O)(=O)[O-])ccc6F)c6ccc3[nH]6)C=C5)C=C4)cc2)CC1
REMARK SMILES IDX 18 1 17 2 16 3 14 4 15 5 13 7 12 8 9 9 10 10 87 11 11 13
REMARK SMILES IDX 86 14 2 15 1 16 3 17 4 18 8 19 5 20 6 21 7 22 19 23 20 24
REMARK SMILES IDX 21 25 22 27 23 28 24 29 85 30 25 31 84 32 26 33 27 34 28 35
REMARK SMILES IDX 78 36 29 37 83 38 77 39 79 40 30 41 82 42 76 43 75 44 31 46
REMARK SMILES IDX 63 47 43 48 62 49 44 50 47 51 61 52 80 53 45 54 46 55 60 57
REMARK SMILES IDX 81 58 48 59 32 60 33 61 41 62 34 63 40 64 42 65 39 66 35 67
REMARK SMILES IDX 36 68 37 69 38 70 64 71 65 72 73 73 66 74 72 75 74 76 71 77
REMARK SMILES IDX 67 78 68 79 69 80 70 81 49 82 50 83 58 84 51 85 57 86 59 87
REMARK SMILES IDX 56 88 52 89 53 90 54 91 55 92
REMARK H PARENT 16 6 9 12 20 26 79 45 47 56
REMARK Flexibility Score: inf
ROOT
ATOM      1  C   UNL A   1      31.405  31.794  26.557  1.00  0.00     0.042 C 
ENDROOT
BRANCH   1   2
ATOM      2  C   UNL A   1      31.566  30.503  25.747  1.00  0.00     0.117 C 
BRANCH   2   3
ATOM      3  N   UNL A   1      30.737  30.457  24.546  1.00  0.00    -0.356 N 
ATOM      4  C   UNL A   1      30.589  29.499  23.587  1.00  0.00     0.220 C 
ATOM      5  O   UNL A   1      29.760  29.696  22.694  1.00  0.00    -0.275 OA
ATOM      6  H   UNL A   1      30.189  31.262  24.403  1.00  0.00     0.163 HD
BRANCH   4   7
ATOM      7  C   UNL A   1      31.430  28.233  23.590  1.00  0.00     0.104 C 
BRANCH   7   8
ATOM      8  C   UNL A   1      30.627  26.981  23.997  1.00  0.00     0.009 C 
ATOM      9  N   UNL A   1      30.974  24.260  25.062  1.00  0.00    -0.328 N 
ATOM     10  C   UNL A   1      30.572  24.434  23.662  1.00  0.00     0.263 C 
ATOM     11  C   UNL A   1      30.300  25.276  25.878  1.00  0.00     0.263 C 
ATOM     12  H   UNL A   1      31.972  24.424  25.198  1.00  0.00     0.348 HD
ATOM     13  C   UNL A   1      31.059  25.781  23.160  1.00  0.00     0.066 C 
ATOM     14  C   UNL A   1      30.803  26.676  25.493  1.00  0.00     0.066 C 
BRANCH   9  15
ATOM     15  C   UNL A   1      30.794  22.851  25.478  1.00  0.00     0.222 C 
ATOM     16  C   UNL A   1      30.200  22.646  26.876  1.00  0.00     0.082 C 
BRANCH  15  17
ATOM     17  C   UNL A   1      32.069  22.041  25.295  1.00  0.00     0.063 A 
ATOM     18  C   UNL A   1      32.243  20.708  24.958  1.00  0.00     0.023 A 
ATOM     19  S   UNL A   1      33.598  22.824  25.468  1.00  0.00    -0.127 S 
ATOM     20  C   UNL A   1      33.616  20.339  24.842  1.00  0.00     0.028 A 
ATOM     21  C   UNL A   1      34.437  21.409  25.079  1.00  0.00     0.070 A 
ATOM     22  Br  UNL A   1      36.306  21.319  24.978  1.00  0.00    -0.039 Br
ENDBRANCH  15  17
ENDBRANCH   9  15
ENDBRANCH   7   8
ENDBRANCH   4   7
ENDBRANCH   2   3
ENDBRANCH   1   2
BRANCH   1  23
ATOM     23  C   UNL A   1      32.673  32.277  27.248  1.00  0.00     0.118 C 
BRANCH  23  24
ATOM     24  N   UNL A   1      32.616  33.700  27.523  1.00  0.00    -0.352 N 
ATOM     25  C   UNL A   1      33.233  34.432  28.513  1.00  0.00     0.251 C 
ATOM     26  H   UNL A   1      32.051  34.222  26.909  1.00  0.00     0.163 HD
ATOM     27  O   UNL A   1      32.814  35.562  28.752  1.00  0.00    -0.269 OA
BRANCH  25  28
ATOM     28  C   UNL A   1      34.372  33.885  29.295  1.00  0.00     0.039 A 
ATOM     29  C   UNL A   1      35.669  34.310  28.983  1.00  0.00     0.014 A 
ATOM     30  C   UNL A   1      34.196  32.897  30.270  1.00  0.00     0.014 A 
ATOM     31  C   UNL A   1      36.772  33.776  29.661  1.00  0.00     0.010 A 
ATOM     32  C   UNL A   1      35.289  32.420  30.998  1.00  0.00     0.010 A 
ATOM     33  C   UNL A   1      36.594  32.839  30.690  1.00  0.00    -0.014 A 
BRANCH  33  34
ATOM     34  C   UNL A   1      37.754  32.240  31.410  1.00  0.00     0.031 A 
ATOM     35  C   UNL A   1      38.539  31.122  30.770  1.00  0.00     0.074 A 
ATOM     36  C   UNL A   1      38.082  32.663  32.648  1.00  0.00     0.049 A 
ATOM     37  N   UNL A   1      39.506  30.392  31.268  1.00  0.00    -0.248 NA
ATOM     38  C   UNL A   1      38.165  30.761  29.394  1.00  0.00     0.031 C 
ATOM     39  C   UNL A   1      37.404  33.731  33.384  1.00  0.00     0.029 A 
ATOM     40  N   UNL A   1      39.066  32.243  33.509  1.00  0.00    -0.354 N 
ATOM     41  C   UNL A   1      39.848  29.481  30.273  1.00  0.00     0.074 A 
ATOM     42  C   UNL A   1      38.941  29.711  29.169  1.00  0.00     0.031 C 
ATOM     43  C   UNL A   1      38.004  33.895  34.574  1.00  0.00     0.029 A 
ATOM     44  C   UNL A   1      39.078  32.914  34.710  1.00  0.00     0.049 A 
ATOM     45  H   UNL A   1      39.705  31.526  33.287  1.00  0.00     0.167 HD
ATOM     46  C   UNL A   1      40.839  28.554  30.267  1.00  0.00     0.034 A 
ATOM     47  C   UNL A   1      39.853  32.750  35.802  1.00  0.00     0.034 A 
ATOM     48  C   UNL A   1      41.751  28.342  31.365  1.00  0.00     0.049 A 
ATOM     49  C   UNL A   1      40.920  31.681  35.790  1.00  0.00     0.074 A 
ATOM     50  C   UNL A   1      42.801  27.444  31.455  1.00  0.00     0.029 A 
ATOM     51  N   UNL A   1      41.725  29.040  32.565  1.00  0.00    -0.354 N 
ATOM     52  N   UNL A   1      41.232  30.834  34.836  1.00  0.00    -0.248 NA
ATOM     53  C   UNL A   1      41.744  31.552  37.001  1.00  0.00     0.031 C 
ATOM     54  C   UNL A   1      43.375  27.563  32.726  1.00  0.00     0.029 A 
ATOM     55  C   UNL A   1      42.728  28.582  33.405  1.00  0.00     0.049 A 
ATOM     56  H   UNL A   1      41.087  29.757  32.787  1.00  0.00     0.167 HD
ATOM     57  C   UNL A   1      42.314  30.102  35.319  1.00  0.00     0.074 A 
ATOM     58  C   UNL A   1      42.606  30.612  36.642  1.00  0.00     0.031 C 
ATOM     59  C   UNL A   1      43.010  29.103  34.720  1.00  0.00     0.034 A 
BRANCH  46  60
ATOM     60  C   UNL A   1      40.971  27.689  29.036  1.00  0.00     0.023 A 
ATOM     61  C   UNL A   1      41.970  27.927  28.075  1.00  0.00     0.031 A 
ATOM     62  C   UNL A   1      40.077  26.628  28.807  1.00  0.00     0.131 A 
ATOM     63  C   UNL A   1      42.003  27.168  26.897  1.00  0.00     0.055 A 
ATOM     64  C   UNL A   1      40.167  25.822  27.669  1.00  0.00     0.041 A 
ATOM     65  F   UNL A   1      39.092  26.363  29.679  1.00  0.00    -0.206 F 
ATOM     66  C   UNL A   1      41.125  26.099  26.698  1.00  0.00     0.022 A 
BRANCH  63  67
ATOM     67  S   UNL A   1      43.122  27.684  25.566  1.00  0.00     0.124 S 
ATOM     68  O   UNL A   1      43.669  26.401  25.129  1.00  0.00    -0.237 OA
ATOM     69  O   UNL A   1      42.220  28.345  24.632  1.00  0.00    -0.237 OA
ATOM     70  O   UNL A   1      44.076  28.561  26.242  1.00  0.00    -0.744 OA
ENDBRANCH  63  67
ENDBRANCH  46  60
BRANCH  47  71
ATOM     71  C   UNL A   1      39.656  33.599  37.012  1.00  0.00     0.023 A 
ATOM     72  C   UNL A   1      40.469  34.719  37.245  1.00  0.00     0.031 A 
ATOM     73  C   UNL A   1      38.700  33.265  37.988  1.00  0.00     0.131 A 
ATOM     74  C   UNL A   1      40.353  35.432  38.449  1.00  0.00     0.055 A 
ATOM     75  C   UNL A   1      38.550  34.011  39.159  1.00  0.00     0.041 A 
ATOM     76  F   UNL A   1      37.895  32.205  37.816  1.00  0.00    -0.206 F 
ATOM     77  C   UNL A   1      39.391  35.092  39.403  1.00  0.00     0.022 A 
BRANCH  74  78
ATOM     78  S   UNL A   1      41.557  36.743  38.800  1.00  0.00     0.124 S 
ATOM     79  O   UNL A   1      42.380  36.122  39.831  1.00  0.00    -0.237 OA
ATOM     80  O   UNL A   1      42.189  36.928  37.498  1.00  0.00    -0.237 OA
ATOM     81  O   UNL A   1      40.724  37.855  39.252  1.00  0.00    -0.744 OA
ENDBRANCH  74  78
ENDBRANCH  47  71
BRANCH  59  82
ATOM     82  C   UNL A   1      44.193  28.544  35.470  1.00  0.00     0.023 A 
ATOM     83  C   UNL A   1      44.051  27.523  36.427  1.00  0.00     0.031 A 
ATOM     84  C   UNL A   1      45.482  29.050  35.227  1.00  0.00     0.131 A 
ATOM     85  C   UNL A   1      45.173  27.076  37.141  1.00  0.00     0.055 A 
ATOM     86  C   UNL A   1      46.602  28.564  35.903  1.00  0.00     0.041 A 
ATOM     87  F   UNL A   1      45.673  30.026  34.324  1.00  0.00    -0.206 F 
ATOM     88  C   UNL A   1      46.449  27.580  36.875  1.00  0.00     0.022 A 
BRANCH  85  89
ATOM     89  S   UNL A   1      44.933  25.875  38.479  1.00  0.00     0.124 S 
ATOM     90  O   UNL A   1      46.300  25.653  38.938  1.00  0.00    -0.237 OA
ATOM     91  O   UNL A   1      44.062  26.601  39.398  1.00  0.00    -0.237 OA
ATOM     92  O   UNL A   1      44.311  24.734  37.810  1.00  0.00    -0.744 OA
ENDBRANCH  85  89
ENDBRANCH  59  82
ENDBRANCH  33  34
ENDBRANCH  25  28
ENDBRANCH  23  24
ENDBRANCH   1  23
TORSDOF 16
ENDMDL
MODEL 2
REMARK VINA RESULT:     -11.5      1.401      1.772
REMARK SMILES C[C@H](c1ccc(Br)s1)[NH+]1CCC(CC(=O)NCCCNC(=O)c2ccc(-c3c4nc(c(-c5cc(S(=O)(=O)[O-])ccc5F)c5ccc([nH]5)c(-c5cc(S(=O)(=O)[O-])ccc5F)c5nc(c(-c6cc(S(=O)(=O)[O-])ccc6F)c6ccc3[nH]6)C=C5)C=C4)cc2)CC1
REMARK SMILES IDX 18 1 17 2 16 3 14 4 15 5 13 7 12 8 9 9 10 10 87 11 11 13
REMARK SMILES IDX 86 14 2 15 1 16 3 17 4 18 8 19 5 20 6 21 7 22 19 23 20 24
REMARK SMILES IDX 21 25 22 27 23 28 24 29 85 30 25 31 84 32 26 33 27 34 28 35
REMARK SMILES IDX 78 36 29 37 83 38 77 39 79 40 30 41 82 42 76 43 75 44 31 46
REMARK SMILES IDX 63 47 43 48 62 49 44 50 47 51 61 52 80 53 45 54 46 55 60 57
REMARK SMILES IDX 81 58 48 59 32 60 33 61 41 62 34 63 40 64 42 65 39 66 35 67
REMARK SMILES IDX 36 68 37 69 38 70 64 71 65 72 73 73 66 74 72 75 74 76 71 77
REMARK SMILES IDX 67 78 68 79 69 80 70 81 49 82 50 83 58 84 51 85 57 86 59 87
REMARK SMILES IDX 56 88 52 89 53 90 54 91 55 92
REMARK H PARENT 16 6 9 12 20 26 79 45 47 56
REMARK Flexibility Score: inf
ROOT
ATOM      1  C   UNL A   1      31.279  32.011  26.490  1.00  0.00     0.042 C 
ENDROOT
BRANCH   1   2
ATOM      2  C   UNL A   1      31.360  30.823  25.526  1.00  0.00     0.117 C 
BRANCH   2   3
ATOM      3  N   UNL A   1      30.278  30.789  24.546  1.00  0.00    -0.356 N 
ATOM      4  C   UNL A   1      30.001  29.915  23.536  1.00  0.00     0.220 C 
ATOM      5  O   UNL A   1      28.968  30.092  22.884  1.00  0.00    -0.275 OA
ATOM      6  H   UNL A   1      29.634  31.528  24.629  1.00  0.00     0.163 HD
BRANCH   4   7
ATOM      7  C   UNL A   1      30.940  28.769  23.195  1.00  0.00     0.104 C 
BRANCH   7   8
ATOM      8  C   UNL A   1      30.395  27.396  23.637  1.00  0.00     0.009 C 
ATOM      9  N   UNL A   1      31.268  24.809  24.733  1.00  0.00    -0.328 N 
ATOM     10  C   UNL A   1      30.815  24.879  23.340  1.00  0.00     0.263 C 
ATOM     11  C   UNL A   1      30.430  25.695  25.548  1.00  0.00     0.263 C 
ATOM     12  H   UNL A   1      32.219  25.161  24.845  1.00  0.00     0.348 HD
ATOM     13  C   UNL A   1      31.029  26.284  22.808  1.00  0.00     0.066 C 
ATOM     14  C   UNL A   1      30.653  27.157  25.133  1.00  0.00     0.066 C 
BRANCH   9  15
ATOM     15  C   UNL A   1      31.364  23.399  25.173  1.00  0.00     0.222 C 
ATOM     16  C   UNL A   1      30.729  23.087  26.531  1.00  0.00     0.082 C 
BRANCH  15  17
ATOM     17  C   UNL A   1      32.794  22.881  25.100  1.00  0.00     0.063 A 
ATOM     18  C   UNL A   1      33.320  21.797  24.416  1.00  0.00     0.023 A 
ATOM     19  S   UNL A   1      34.045  23.737  25.928  1.00  0.00    -0.127 S 
ATOM     20  C   UNL A   1      34.732  21.674  24.572  1.00  0.00     0.028 A 
ATOM     21  C   UNL A   1      35.233  22.680  25.355  1.00  0.00     0.070 A 
ATOM     22  Br  UNL A   1      37.054  22.873  25.750  1.00  0.00    -0.039 Br
ENDBRANCH  15  17
ENDBRANCH   9  15
ENDBRANCH   7   8
ENDBRANCH   4   7
ENDBRANCH   2   3
ENDBRANCH   1   2
BRANCH   1  23
ATOM     23  C   UNL A   1      32.613  32.443  27.085  1.00  0.00     0.118 C 
BRANCH  23  24
ATOM     24  N   UNL A   1      32.581  33.831  27.504  1.00  0.00    -0.352 N 
ATOM     25  C   UNL A   1      33.252  34.457  28.530  1.00  0.00     0.251 C 
ATOM     26  H   UNL A   1      31.990  34.414  26.975  1.00  0.00     0.163 HD
ATOM     27  O   UNL A   1      32.855  35.559  28.902  1.00  0.00    -0.269 OA
BRANCH  25  28
ATOM     28  C   UNL A   1      34.426  33.832  29.194  1.00  0.00     0.039 A 
ATOM     29  C   UNL A   1      34.205  32.860  30.176  1.00  0.00     0.014 A 
ATOM     30  C   UNL A   1      35.735  34.247  28.930  1.00  0.00     0.014 A 
ATOM     31  C   UNL A   1      35.284  32.288  30.862  1.00  0.00     0.010 A 
ATOM     32  C   UNL A   1      36.815  33.623  29.560  1.00  0.00     0.010 A 
ATOM     33  C   UNL A   1      36.603  32.649  30.549  1.00  0.00    -0.014 A 
BRANCH  33  34
ATOM     34  C   UNL A   1      37.766  32.071  31.281  1.00  0.00     0.031 A 
ATOM     35  C   UNL A   1      38.558  30.945  30.663  1.00  0.00     0.074 A 
ATOM     36  C   UNL A   1      38.091  32.520  32.510  1.00  0.00     0.049 A 
ATOM     37  N   UNL A   1      39.529  30.231  31.176  1.00  0.00    -0.248 NA
ATOM     38  C   UNL A   1      38.187  30.556  29.294  1.00  0.00     0.031 C 
ATOM     39  C   UNL A   1      37.406  33.598  33.225  1.00  0.00     0.029 A 
ATOM     40  N   UNL A   1      39.077  32.122  33.380  1.00  0.00    -0.354 N 
ATOM     41  C   UNL A   1      39.876  29.302  30.199  1.00  0.00     0.074 A 
ATOM     42  C   UNL A   1      38.969  29.506  29.090  1.00  0.00     0.031 C 
ATOM     43  C   UNL A   1      38.005  33.789  34.413  1.00  0.00     0.029 A 
ATOM     44  C   UNL A   1      39.084  32.817  34.568  1.00  0.00     0.049 A 
ATOM     45  H   UNL A   1      39.720  31.405  33.173  1.00  0.00     0.167 HD
ATOM     46  C   UNL A   1      40.873  28.381  30.212  1.00  0.00     0.034 A 
ATOM     47  C   UNL A   1      39.859  32.678  35.664  1.00  0.00     0.034 A 
ATOM     48  C   UNL A   1      41.785  28.196  31.314  1.00  0.00     0.049 A 
ATOM     49  C   UNL A   1      40.932  31.616  35.673  1.00  0.00     0.074 A 
ATOM     50  C   UNL A   1      42.840  27.306  31.423  1.00  0.00     0.029 A 
ATOM     51  N   UNL A   1      41.754  28.917  32.501  1.00  0.00    -0.354 N 
ATOM     52  N   UNL A   1      41.250  30.752  34.736  1.00  0.00    -0.248 NA
ATOM     53  C   UNL A   1      41.756  31.515  36.886  1.00  0.00     0.031 C 
ATOM     54  C   UNL A   1      43.413  27.453  32.692  1.00  0.00     0.029 A 
ATOM     55  C   UNL A   1      42.759  28.481  33.350  1.00  0.00     0.049 A 
ATOM     56  H   UNL A   1      41.112  29.634  32.708  1.00  0.00     0.167 HD
ATOM     57  C   UNL A   1      42.335  30.036  35.233  1.00  0.00     0.074 A 
ATOM     58  C   UNL A   1      42.623  30.573  36.547  1.00  0.00     0.031 C 
ATOM     59  C   UNL A   1      43.037  29.029  34.655  1.00  0.00     0.034 A 
BRANCH  46  60
ATOM     60  C   UNL A   1      41.011  27.493  28.998  1.00  0.00     0.023 A 
ATOM     61  C   UNL A   1      42.003  27.724  28.029  1.00  0.00     0.031 A 
ATOM     62  C   UNL A   1      40.129  26.417  28.794  1.00  0.00     0.131 A 
ATOM     63  C   UNL A   1      42.041  26.941  26.865  1.00  0.00     0.055 A 
ATOM     64  C   UNL A   1      40.224  25.590  27.672  1.00  0.00     0.041 A 
ATOM     65  F   UNL A   1      39.151  26.158  29.675  1.00  0.00    -0.206 F 
ATOM     66  C   UNL A   1      41.175  25.859  26.692  1.00  0.00     0.022 A 
BRANCH  63  67
ATOM     67  S   UNL A   1      43.149  27.444  25.520  1.00  0.00     0.124 S 
ATOM     68  O   UNL A   1      44.140  28.241  26.240  1.00  0.00    -0.237 OA
ATOM     69  O   UNL A   1      43.614  26.165  24.998  1.00  0.00    -0.237 OA
ATOM     70  O   UNL A   1      42.279  28.205  24.626  1.00  0.00    -0.744 OA
ENDBRANCH  63  67
ENDBRANCH  46  60
BRANCH  47  71
ATOM     71  C   UNL A   1      39.656  33.550  36.857  1.00  0.00     0.023 A 
ATOM     72  C   UNL A   1      39.033  33.054  38.013  1.00  0.00     0.031 A 
ATOM     73  C   UNL A   1      40.017  34.909  36.835  1.00  0.00     0.131 A 
ATOM     74  C   UNL A   1      38.736  33.921  39.076  1.00  0.00     0.055 A 
ATOM     75  C   UNL A   1      39.771  35.754  37.919  1.00  0.00     0.041 A 
ATOM     76  F   UNL A   1      40.617  35.436  35.756  1.00  0.00    -0.206 F 
ATOM     77  C   UNL A   1      39.112  35.265  39.042  1.00  0.00     0.022 A 
BRANCH  74  78
ATOM     78  S   UNL A   1      37.750  33.287  40.461  1.00  0.00     0.124 S 
ATOM     79  O   UNL A   1      36.534  32.850  39.785  1.00  0.00    -0.237 OA
ATOM     80  O   UNL A   1      38.609  32.230  40.985  1.00  0.00    -0.237 OA
ATOM     81  O   UNL A   1      37.597  34.452  41.329  1.00  0.00    -0.744 OA
ENDBRANCH  74  78
ENDBRANCH  47  71
BRANCH  59  82
ATOM     82  C   UNL A   1      44.223  28.491  35.417  1.00  0.00     0.023 A 
ATOM     83  C   UNL A   1      44.083  27.506  36.409  1.00  0.00     0.031 A 
ATOM     84  C   UNL A   1      45.513  28.984  35.147  1.00  0.00     0.131 A 
ATOM     85  C   UNL A   1      45.208  27.079  37.131  1.00  0.00     0.055 A 
ATOM     86  C   UNL A   1      46.635  28.517  35.832  1.00  0.00     0.041 A 
ATOM     87  F   UNL A   1      45.702  29.926  34.209  1.00  0.00    -0.206 F 
ATOM     88  C   UNL A   1      46.484  27.567  36.840  1.00  0.00     0.022 A 
BRANCH  85  89
ATOM     89  S   UNL A   1      44.972  25.927  38.512  1.00  0.00     0.124 S 
ATOM     90  O   UNL A   1      44.286  24.813  37.866  1.00  0.00    -0.237 OA
ATOM     91  O   UNL A   1      46.343  25.669  38.942  1.00  0.00    -0.237 OA
ATOM     92  O   UNL A   1      44.159  26.688  39.461  1.00  0.00    -0.744 OA
ENDBRANCH  85  89
ENDBRANCH  59  82
ENDBRANCH  33  34
ENDBRANCH  25  28
ENDBRANCH  23  24
ENDBRANCH   1  23
TORSDOF 16
ENDMDL
MODEL 3
REMARK VINA RESULT:     -11.5      2.786      3.639
REMARK SMILES C[C@H](c1ccc(Br)s1)[NH+]1CCC(CC(=O)NCCCNC(=O)c2ccc(-c3c4nc(c(-c5cc(S(=O)(=O)[O-])ccc5F)c5ccc([nH]5)c(-c5cc(S(=O)(=O)[O-])ccc5F)c5nc(c(-c6cc(S(=O)(=O)[O-])ccc6F)c6ccc3[nH]6)C=C5)C=C4)cc2)CC1
REMARK SMILES IDX 18 1 17 2 16 3 14 4 15 5 13 7 12 8 9 9 10 10 87 11 11 13
REMARK SMILES IDX 86 14 2 15 1 16 3 17 4 18 8 19 5 20 6 21 7 22 19 23 20 24
REMARK SMILES IDX 21 25 22 27 23 28 24 29 85 30 25 31 84 32 26 33 27 34 28 35
REMARK SMILES IDX 78 36 29 37 83 38 77 39 79 40 30 41 82 42 76 43 75 44 31 46
REMARK SMILES IDX 63 47 43 48 62 49 44 50 47 51 61 52 80 53 45 54 46 55 60 57
REMARK SMILES IDX 81 58 48 59 32 60 33 61 41 62 34 63 40 64 42 65 39 66 35 67
REMARK SMILES IDX 36 68 37 69 38 70 64 71 65 72 73 73 66 74 72 75 74 76 71 77
REMARK SMILES IDX 67 78 68 79 69 80 70 81 49 82 50 83 58 84 51 85 57 86 59 87
REMARK SMILES IDX 56 88 52 89 53 90 54 91 55 92
REMARK H PARENT 16 6 9 12 20 26 79 45 47 56
REMARK Flexibility Score: inf
ROOT
ATOM      1  C   UNL A   1      32.524  27.791  24.672  1.00  0.00     0.042 C 
ENDROOT
BRANCH   1   2
ATOM      2  C   UNL A   1      32.714  26.666  25.695  1.00  0.00     0.117 C 
BRANCH   2   3
ATOM      3  N   UNL A   1      31.469  26.221  26.314  1.00  0.00    -0.356 N 
ATOM      4  C   UNL A   1      30.404  25.534  25.808  1.00  0.00     0.220 C 
ATOM      5  O   UNL A   1      29.491  25.230  26.581  1.00  0.00    -0.275 OA
ATOM      6  H   UNL A   1      31.382  26.460  27.264  1.00  0.00     0.163 HD
BRANCH   4   7
ATOM      7  C   UNL A   1      30.319  25.169  24.335  1.00  0.00     0.104 C 
BRANCH   7   8
ATOM      8  C   UNL A   1      30.828  23.744  24.040  1.00  0.00     0.009 C 
ATOM      9  N   UNL A   1      33.142  21.981  24.480  1.00  0.00    -0.328 N 
ATOM     10  C   UNL A   1      32.879  22.493  23.131  1.00  0.00     0.263 C 
ATOM     11  C   UNL A   1      31.862  21.670  25.126  1.00  0.00     0.263 C 
ATOM     12  H   UNL A   1      33.582  22.682  25.077  1.00  0.00     0.348 HD
ATOM     13  C   UNL A   1      32.116  23.801  23.226  1.00  0.00     0.066 C 
ATOM     14  C   UNL A   1      31.057  22.961  25.343  1.00  0.00     0.066 C 
BRANCH   9  15
ATOM     15  C   UNL A   1      34.141  20.890  24.432  1.00  0.00     0.222 C 
ATOM     16  C   UNL A   1      33.736  19.592  25.137  1.00  0.00     0.082 C 
BRANCH  15  17
ATOM     17  C   UNL A   1      35.514  21.361  24.890  1.00  0.00     0.063 A 
ATOM     18  C   UNL A   1      36.753  20.750  24.781  1.00  0.00     0.023 A 
ATOM     19  S   UNL A   1      35.670  22.912  25.633  1.00  0.00    -0.127 S 
ATOM     20  C   UNL A   1      37.814  21.549  25.302  1.00  0.00     0.028 A 
ATOM     21  C   UNL A   1      37.346  22.747  25.772  1.00  0.00     0.070 A 
ATOM     22  Br  UNL A   1      38.451  24.076  26.494  1.00  0.00    -0.039 Br
ENDBRANCH  15  17
ENDBRANCH   9  15
ENDBRANCH   7   8
ENDBRANCH   4   7
ENDBRANCH   2   3
ENDBRANCH   1   2
BRANCH   1  23
ATOM     23  C   UNL A   1      33.482  28.965  24.828  1.00  0.00     0.118 C 
BRANCH  23  24
ATOM     24  N   UNL A   1      32.799  30.143  25.329  1.00  0.00    -0.352 N 
ATOM     25  C   UNL A   1      32.938  30.797  26.532  1.00  0.00     0.251 C 
ATOM     26  H   UNL A   1      32.134  30.533  24.715  1.00  0.00     0.163 HD
ATOM     27  O   UNL A   1      32.057  31.582  26.876  1.00  0.00    -0.269 OA
BRANCH  25  28
ATOM     28  C   UNL A   1      34.111  30.569  27.415  1.00  0.00     0.039 A 
ATOM     29  C   UNL A   1      35.011  31.620  27.624  1.00  0.00     0.014 A 
ATOM     30  C   UNL A   1      34.389  29.315  27.969  1.00  0.00     0.014 A 
ATOM     31  C   UNL A   1      36.157  31.427  28.406  1.00  0.00     0.010 A 
ATOM     32  C   UNL A   1      35.492  29.143  28.810  1.00  0.00     0.010 A 
ATOM     33  C   UNL A   1      36.401  30.191  29.024  1.00  0.00    -0.014 A 
BRANCH  33  34
ATOM     34  C   UNL A   1      37.626  29.955  29.841  1.00  0.00     0.031 A 
ATOM     35  C   UNL A   1      38.740  29.098  29.294  1.00  0.00     0.074 A 
ATOM     36  C   UNL A   1      37.727  30.471  31.083  1.00  0.00     0.049 A 
ATOM     37  N   UNL A   1      39.833  28.679  29.882  1.00  0.00    -0.248 NA
ATOM     38  C   UNL A   1      38.587  28.628  27.909  1.00  0.00     0.031 C 
ATOM     39  C   UNL A   1      36.723  31.312  31.735  1.00  0.00     0.029 A 
ATOM     40  N   UNL A   1      38.723  30.358  32.023  1.00  0.00    -0.354 N 
ATOM     41  C   UNL A   1      40.491  27.889  28.943  1.00  0.00     0.074 A 
ATOM     42  C   UNL A   1      39.642  27.838  27.773  1.00  0.00     0.031 C 
ATOM     43  C   UNL A   1      37.161  31.655  32.957  1.00  0.00     0.029 A 
ATOM     44  C   UNL A   1      38.454  31.021  33.199  1.00  0.00     0.049 A 
ATOM     45  H   UNL A   1      39.552  29.849  31.871  1.00  0.00     0.167 HD
ATOM     46  C   UNL A   1      41.701  27.281  29.036  1.00  0.00     0.034 A 
ATOM     47  C   UNL A   1      39.160  31.097  34.347  1.00  0.00     0.034 A 
ATOM     48  C   UNL A   1      42.551  27.351  30.201  1.00  0.00     0.049 A 
ATOM     49  C   UNL A   1      40.483  30.375  34.443  1.00  0.00     0.074 A 
ATOM     50  C   UNL A   1      43.801  26.789  30.393  1.00  0.00     0.029 A 
ATOM     51  N   UNL A   1      42.239  28.028  31.372  1.00  0.00    -0.354 N 
ATOM     52  N   UNL A   1      41.092  29.638  33.543  1.00  0.00    -0.248 NA
ATOM     53  C   UNL A   1      41.216  30.501  35.711  1.00  0.00     0.031 C 
ATOM     54  C   UNL A   1      44.222  27.082  31.696  1.00  0.00     0.029 A 
ATOM     55  C   UNL A   1      43.265  27.885  32.294  1.00  0.00     0.049 A 
ATOM     56  H   UNL A   1      41.410  28.538  31.525  1.00  0.00     0.167 HD
ATOM     57  C   UNL A   1      42.297  29.250  34.122  1.00  0.00     0.074 A 
ATOM     58  C   UNL A   1      42.333  29.839  35.444  1.00  0.00     0.031 C 
ATOM     59  C   UNL A   1      43.289  28.481  33.607  1.00  0.00     0.034 A 
BRANCH  46  60
ATOM     60  C   UNL A   1      42.164  26.473  27.848  1.00  0.00     0.023 A 
ATOM     61  C   UNL A   1      41.912  25.093  27.754  1.00  0.00     0.031 A 
ATOM     62  C   UNL A   1      42.885  27.082  26.805  1.00  0.00     0.131 A 
ATOM     63  C   UNL A   1      42.441  24.355  26.686  1.00  0.00     0.055 A 
ATOM     64  C   UNL A   1      43.340  26.356  25.701  1.00  0.00     0.041 A 
ATOM     65  F   UNL A   1      43.173  28.392  26.846  1.00  0.00    -0.206 F 
ATOM     66  C   UNL A   1      43.131  24.981  25.645  1.00  0.00     0.022 A 
BRANCH  63  67
ATOM     67  S   UNL A   1      42.333  22.546  26.747  1.00  0.00     0.124 S 
ATOM     68  O   UNL A   1      41.290  22.349  27.752  1.00  0.00    -0.237 OA
ATOM     69  O   UNL A   1      41.973  22.204  25.377  1.00  0.00    -0.237 OA
ATOM     70  O   UNL A   1      43.673  22.136  27.163  1.00  0.00    -0.744 OA
ENDBRANCH  63  67
ENDBRANCH  46  60
BRANCH  47  71
ATOM     71  C   UNL A   1      38.641  31.871  35.511  1.00  0.00     0.023 A 
ATOM     72  C   UNL A   1      38.156  31.215  36.653  1.00  0.00     0.031 A 
ATOM     73  C   UNL A   1      38.556  33.274  35.472  1.00  0.00     0.131 A 
ATOM     74  C   UNL A   1      37.556  31.954  37.685  1.00  0.00     0.055 A 
ATOM     75  C   UNL A   1      38.009  34.009  36.527  1.00  0.00     0.041 A 
ATOM     76  F   UNL A   1      39.006  33.954  34.406  1.00  0.00    -0.206 F 
ATOM     77  C   UNL A   1      37.490  33.347  37.635  1.00  0.00     0.022 A 
BRANCH  74  78
ATOM     78  S   UNL A   1      36.761  31.054  39.045  1.00  0.00     0.124 S 
ATOM     79  O   UNL A   1      35.508  31.786  39.193  1.00  0.00    -0.237 OA
ATOM     80  O   UNL A   1      36.656  29.706  38.496  1.00  0.00    -0.237 OA
ATOM     81  O   UNL A   1      37.706  31.205  40.149  1.00  0.00    -0.744 OA
ENDBRANCH  74  78
ENDBRANCH  47  71
BRANCH  59  82
ATOM     82  C   UNL A   1      44.522  28.291  34.454  1.00  0.00     0.023 A 
ATOM     83  C   UNL A   1      44.644  27.220  35.357  1.00  0.00     0.031 A 
ATOM     84  C   UNL A   1      45.587  29.204  34.360  1.00  0.00     0.131 A 
ATOM     85  C   UNL A   1      45.785  27.117  36.167  1.00  0.00     0.055 A 
ATOM     86  C   UNL A   1      46.743  29.066  35.129  1.00  0.00     0.041 A 
ATOM     87  F   UNL A   1      45.521  30.245  33.513  1.00  0.00    -0.206 F 
ATOM     88  C   UNL A   1      46.842  28.025  36.048  1.00  0.00     0.022 A 
BRANCH  85  89
ATOM     89  S   UNL A   1      45.842  25.820  37.433  1.00  0.00     0.124 S 
ATOM     90  O   UNL A   1      47.175  25.261  37.236  1.00  0.00    -0.237 OA
ATOM     91  O   UNL A   1      45.644  26.578  38.665  1.00  0.00    -0.237 OA
ATOM     92  O   UNL A   1      44.738  24.934  37.069  1.00  0.00    -0.744 OA
ENDBRANCH  85  89
ENDBRANCH  59  82
ENDBRANCH  33  34
ENDBRANCH  25  28
ENDBRANCH  23  24
ENDBRANCH   1  23
TORSDOF 16
ENDMDL
