MODEL 1
REMARK VINA RESULT:     -13.0      0.000      0.000
REMARK SMILES C[C@@H](C(=O)NCCCNC(=O)c1ccc(-c2c3nc(c(-c4cc(S(=O)(=O)[O-])ccc4F)c4ccc([nH]4)c(-c4cc(S(=O)(=O)[O-])ccc4F)c4nc(c(-c5cc(S(=O)(=O)[O-])ccc5F)c5ccc2[nH]5)C=C4)C=C3)cc1)N1C(=O)/C(=C/c2nc3ccccc3[nH]2)SC1=S
REMARK SMILES IDX 7 1 6 2 5 3 3 4 4 5 2 7 1 8 75 9 76 10 90 11 77 12 78 13
REMARK SMILES IDX 89 14 91 15 79 16 80 17 81 18 88 19 82 20 87 21 83 23 86 24
REMARK SMILES IDX 84 25 85 26 8 27 9 28 10 29 11 31 12 32 13 33 74 34 14 35
REMARK SMILES IDX 73 36 15 37 16 38 17 39 67 40 18 41 72 42 66 43 68 44 19 45
REMARK SMILES IDX 71 46 65 47 64 48 20 50 52 51 32 52 51 53 33 54 36 55 50 56
REMARK SMILES IDX 69 57 34 58 35 59 49 61 70 62 37 63 21 64 22 65 30 66 23 67
REMARK SMILES IDX 29 68 31 69 28 70 24 71 25 72 26 73 27 74 53 75 54 76 62 77
REMARK SMILES IDX 55 78 61 79 63 80 60 81 56 82 57 83 58 84 59 85 38 86 39 87
REMARK SMILES IDX 47 88 40 89 46 90 48 91 45 92 41 93 42 94 43 95 44 96
REMARK H PARENT 5 6 88 22 9 30 68 49 36 60
REMARK Flexibility Score: inf
ROOT
ATOM      1  C   UNL A   1      31.508  30.156  25.306  1.00  0.00     0.042 C 
ENDROOT
BRANCH   1   2
ATOM      2  C   UNL A   1      32.637  29.454  24.562  1.00  0.00     0.117 C 
BRANCH   2   3
ATOM      3  N   UNL A   1      33.366  28.521  25.402  1.00  0.00    -0.354 N 
ATOM      4  C   UNL A   1      33.099  27.212  25.687  1.00  0.00     0.242 C 
ATOM      5  O   UNL A   1      33.966  26.576  26.293  1.00  0.00    -0.273 OA
ATOM      6  H   UNL A   1      34.174  28.888  25.831  1.00  0.00     0.163 HD
BRANCH   4   7
ATOM      7  C   UNL A   1      31.777  26.574  25.209  1.00  0.00     0.178 C 
ATOM      8  C   UNL A   1      30.608  26.699  26.180  1.00  0.00     0.042 C 
BRANCH   7   9
ATOM      9  N   UNL A   1      32.003  25.177  24.802  1.00  0.00    -0.281 N 
ATOM     10  C   UNL A   1      32.019  24.166  25.756  1.00  0.00     0.267 C 
ATOM     11  C   UNL A   1      32.185  24.788  23.491  1.00  0.00     0.149 C 
ATOM     12  O   UNL A   1      31.758  24.271  26.949  1.00  0.00    -0.268 OA
ATOM     13  C   UNL A   1      32.348  22.863  25.121  1.00  0.00     0.084 C 
ATOM     14  S   UNL A   1      32.382  23.057  23.409  1.00  0.00    -0.054 SA
ATOM     15  S   UNL A   1      32.184  25.722  22.106  1.00  0.00    -0.052 S 
ATOM     16  C   UNL A   1      32.552  21.738  25.828  1.00  0.00     0.068 C 
BRANCH  16  17
ATOM     17  C   UNL A   1      32.906  20.531  25.177  1.00  0.00     0.132 A 
ATOM     18  N   UNL A   1      32.128  19.636  24.608  1.00  0.00    -0.229 NA
ATOM     19  N   UNL A   1      34.215  20.102  25.166  1.00  0.00    -0.338 N 
ATOM     20  C   UNL A   1      32.898  18.528  24.427  1.00  0.00     0.089 A 
ATOM     21  C   UNL A   1      34.223  18.787  24.756  1.00  0.00     0.066 A 
ATOM     22  H   UNL A   1      35.004  20.640  25.408  1.00  0.00     0.168 HD
ATOM     23  C   UNL A   1      32.513  17.247  24.018  1.00  0.00     0.030 A 
ATOM     24  C   UNL A   1      35.222  17.816  24.675  1.00  0.00     0.028 A 
ATOM     25  C   UNL A   1      33.485  16.248  23.959  1.00  0.00     0.002 A 
ATOM     26  C   UNL A   1      34.817  16.532  24.276  1.00  0.00     0.002 A 
ENDBRANCH  16  17
ENDBRANCH   7   9
ENDBRANCH   4   7
ENDBRANCH   2   3
ENDBRANCH   1   2
BRANCH   1  27
ATOM     27  C   UNL A   1      31.871  30.619  26.714  1.00  0.00     0.118 C 
BRANCH  27  28
ATOM     28  N   UNL A   1      31.961  32.065  26.820  1.00  0.00    -0.352 N 
ATOM     29  C   UNL A   1      32.864  32.862  27.478  1.00  0.00     0.251 C 
ATOM     30  H   UNL A   1      31.255  32.556  26.339  1.00  0.00     0.163 HD
ATOM     31  O   UNL A   1      32.611  34.059  27.590  1.00  0.00    -0.269 OA
BRANCH  29  32
ATOM     32  C   UNL A   1      34.106  32.306  28.066  1.00  0.00     0.039 A 
ATOM     33  C   UNL A   1      35.079  33.202  28.518  1.00  0.00     0.014 A 
ATOM     34  C   UNL A   1      34.352  30.931  28.133  1.00  0.00     0.014 A 
ATOM     35  C   UNL A   1      36.263  32.721  29.081  1.00  0.00     0.010 A 
ATOM     36  C   UNL A   1      35.496  30.452  28.772  1.00  0.00     0.010 A 
ATOM     37  C   UNL A   1      36.468  31.341  29.250  1.00  0.00    -0.014 A 
BRANCH  37  38
ATOM     38  C   UNL A   1      37.687  30.844  29.945  1.00  0.00     0.031 A 
ATOM     39  C   UNL A   1      37.997  31.259  31.359  1.00  0.00     0.074 A 
ATOM     40  C   UNL A   1      38.525  30.020  29.286  1.00  0.00     0.049 A 
ATOM     41  N   UNL A   1      38.994  30.895  32.127  1.00  0.00    -0.248 NA
ATOM     42  C   UNL A   1      37.082  32.225  31.984  1.00  0.00     0.031 C 
ATOM     43  C   UNL A   1      38.360  29.588  27.895  1.00  0.00     0.029 A 
ATOM     44  N   UNL A   1      39.673  29.386  29.692  1.00  0.00    -0.354 N 
ATOM     45  C   UNL A   1      38.825  31.582  33.324  1.00  0.00     0.074 A 
ATOM     46  C   UNL A   1      37.670  32.438  33.152  1.00  0.00     0.031 C 
ATOM     47  C   UNL A   1      39.338  28.726  27.581  1.00  0.00     0.029 A 
ATOM     48  C   UNL A   1      40.230  28.579  28.727  1.00  0.00     0.049 A 
ATOM     49  H   UNL A   1      40.061  29.497  30.590  1.00  0.00     0.167 HD
ATOM     50  C   UNL A   1      39.549  31.487  34.468  1.00  0.00     0.034 A 
ATOM     51  C   UNL A   1      41.336  27.809  28.755  1.00  0.00     0.034 A 
ATOM     52  C   UNL A   1      40.703  30.631  34.621  1.00  0.00     0.049 A 
ATOM     53  C   UNL A   1      42.139  27.743  30.028  1.00  0.00     0.074 A 
ATOM     54  C   UNL A   1      41.482  30.426  35.746  1.00  0.00     0.029 A 
ATOM     55  N   UNL A   1      41.254  29.847  33.614  1.00  0.00    -0.354 N 
ATOM     56  N   UNL A   1      41.926  28.352  31.173  1.00  0.00    -0.248 NA
ATOM     57  C   UNL A   1      43.320  26.872  30.017  1.00  0.00     0.031 C 
ATOM     58  C   UNL A   1      42.547  29.586  35.400  1.00  0.00     0.029 A 
ATOM     59  C   UNL A   1      42.384  29.189  34.082  1.00  0.00     0.049 A 
ATOM     60  H   UNL A   1      40.897  29.770  32.700  1.00  0.00     0.167 HD
ATOM     61  C   UNL A   1      42.939  27.917  32.025  1.00  0.00     0.074 A 
ATOM     62  C   UNL A   1      43.735  26.970  31.271  1.00  0.00     0.031 C 
ATOM     63  C   UNL A   1      43.191  28.269  33.313  1.00  0.00     0.034 A 
BRANCH  50  64
ATOM     64  C   UNL A   1      39.125  32.351  35.636  1.00  0.00     0.023 A 
ATOM     65  C   UNL A   1      39.533  33.693  35.749  1.00  0.00     0.031 A 
ATOM     66  C   UNL A   1      38.314  31.826  36.658  1.00  0.00     0.131 A 
ATOM     67  C   UNL A   1      39.193  34.437  36.888  1.00  0.00     0.055 A 
ATOM     68  C   UNL A   1      37.907  32.599  37.748  1.00  0.00     0.041 A 
ATOM     69  F   UNL A   1      37.909  30.547  36.621  1.00  0.00    -0.206 F 
ATOM     70  C   UNL A   1      38.359  33.909  37.876  1.00  0.00     0.022 A 
BRANCH  67  71
ATOM     71  S   UNL A   1      39.980  36.053  37.133  1.00  0.00     0.124 S 
ATOM     72  O   UNL A   1      39.196  36.599  38.238  1.00  0.00    -0.237 OA
ATOM     73  O   UNL A   1      41.357  35.692  37.444  1.00  0.00    -0.237 OA
ATOM     74  O   UNL A   1      39.784  36.727  35.850  1.00  0.00    -0.744 OA
ENDBRANCH  67  71
ENDBRANCH  50  64
BRANCH  51  75
ATOM     75  C   UNL A   1      41.759  27.047  27.543  1.00  0.00     0.023 A 
ATOM     76  C   UNL A   1      41.568  25.659  27.452  1.00  0.00     0.031 A 
ATOM     77  C   UNL A   1      42.403  27.694  26.473  1.00  0.00     0.131 A 
ATOM     78  C   UNL A   1      42.062  24.956  26.342  1.00  0.00     0.055 A 
ATOM     79  C   UNL A   1      42.836  27.000  25.342  1.00  0.00     0.041 A 
ATOM     80  F   UNL A   1      42.609  29.020  26.505  1.00  0.00    -0.206 F 
ATOM     81  C   UNL A   1      42.680  25.619  25.280  1.00  0.00     0.022 A 
BRANCH  78  82
ATOM     82  S   UNL A   1      41.973  23.144  26.350  1.00  0.00     0.124 S 
ATOM     83  O   UNL A   1      42.746  22.814  27.542  1.00  0.00    -0.237 OA
ATOM     84  O   UNL A   1      40.535  22.912  26.433  1.00  0.00    -0.237 OA
ATOM     85  O   UNL A   1      42.591  22.768  25.080  1.00  0.00    -0.744 OA
ENDBRANCH  78  82
ENDBRANCH  51  75
BRANCH  63  86
ATOM     86  C   UNL A   1      44.367  27.598  33.984  1.00  0.00     0.023 A 
ATOM     87  C   UNL A   1      44.213  26.418  34.733  1.00  0.00     0.031 A 
ATOM     88  C   UNL A   1      45.649  28.171  33.915  1.00  0.00     0.131 A 
ATOM     89  C   UNL A   1      45.298  25.900  35.456  1.00  0.00     0.055 A 
ATOM     90  C   UNL A   1      46.744  27.605  34.571  1.00  0.00     0.041 A 
ATOM     91  F   UNL A   1      45.859  29.300  33.219  1.00  0.00    -0.206 F 
ATOM     92  C   UNL A   1      46.568  26.476  35.364  1.00  0.00     0.022 A 
BRANCH  89  93
ATOM     93  S   UNL A   1      44.994  24.553  36.631  1.00  0.00     0.124 S 
ATOM     94  O   UNL A   1      43.820  25.037  37.349  1.00  0.00    -0.237 OA
ATOM     95  O   UNL A   1      44.775  23.412  35.747  1.00  0.00    -0.237 OA
ATOM     96  O   UNL A   1      46.224  24.499  37.419  1.00  0.00    -0.744 OA
ENDBRANCH  89  93
ENDBRANCH  63  86
ENDBRANCH  37  38
ENDBRANCH  29  32
ENDBRANCH  27  28
ENDBRANCH   1  27
TORSDOF 15
ENDMDL
MODEL 2
REMARK VINA RESULT:     -12.9      1.724      2.095
REMARK SMILES C[C@@H](C(=O)NCCCNC(=O)c1ccc(-c2c3nc(c(-c4cc(S(=O)(=O)[O-])ccc4F)c4ccc([nH]4)c(-c4cc(S(=O)(=O)[O-])ccc4F)c4nc(c(-c5cc(S(=O)(=O)[O-])ccc5F)c5ccc2[nH]5)C=C4)C=C3)cc1)N1C(=O)/C(=C/c2nc3ccccc3[nH]2)SC1=S
REMARK SMILES IDX 7 1 6 2 5 3 3 4 4 5 2 7 1 8 75 9 76 10 90 11 77 12 78 13
REMARK SMILES IDX 89 14 91 15 79 16 80 17 81 18 88 19 82 20 87 21 83 23 86 24
REMARK SMILES IDX 84 25 85 26 8 27 9 28 10 29 11 31 12 32 13 33 74 34 14 35
REMARK SMILES IDX 73 36 15 37 16 38 17 39 67 40 18 41 72 42 66 43 68 44 19 45
REMARK SMILES IDX 71 46 65 47 64 48 20 50 52 51 32 52 51 53 33 54 36 55 50 56
REMARK SMILES IDX 69 57 34 58 35 59 49 61 70 62 37 63 21 64 22 65 30 66 23 67
REMARK SMILES IDX 29 68 31 69 28 70 24 71 25 72 26 73 27 74 53 75 54 76 62 77
REMARK SMILES IDX 55 78 61 79 63 80 60 81 56 82 57 83 58 84 59 85 38 86 39 87
REMARK SMILES IDX 47 88 40 89 46 90 48 91 45 92 41 93 42 94 43 95 44 96
REMARK H PARENT 5 6 88 22 9 30 68 49 36 60
REMARK Flexibility Score: inf
ROOT
ATOM      1  C   UNL A   1      31.919  29.174  27.244  1.00  0.00     0.042 C 
ENDROOT
BRANCH   1   2
ATOM      2  C   UNL A   1      31.669  27.754  26.750  1.00  0.00     0.117 C 
BRANCH   2   3
ATOM      3  N   UNL A   1      31.024  27.720  25.450  1.00  0.00    -0.354 N 
ATOM      4  C   UNL A   1      31.457  27.171  24.276  1.00  0.00     0.242 C 
ATOM      5  O   UNL A   1      30.650  27.118  23.345  1.00  0.00    -0.273 OA
ATOM      6  H   UNL A   1      30.142  28.157  25.409  1.00  0.00     0.163 HD
BRANCH   4   7
ATOM      7  C   UNL A   1      32.889  26.604  24.173  1.00  0.00     0.178 C 
ATOM      8  C   UNL A   1      33.775  27.267  23.124  1.00  0.00     0.042 C 
BRANCH   7   9
ATOM      9  N   UNL A   1      32.848  25.141  24.010  1.00  0.00    -0.281 N 
ATOM     10  C   UNL A   1      32.852  24.314  25.127  1.00  0.00     0.267 C 
ATOM     11  C   UNL A   1      32.784  24.516  22.782  1.00  0.00     0.149 C 
ATOM     12  O   UNL A   1      32.781  24.658  26.302  1.00  0.00    -0.268 OA
ATOM     13  C   UNL A   1      32.894  22.888  24.713  1.00  0.00     0.084 C 
ATOM     14  S   UNL A   1      32.713  22.787  23.002  1.00  0.00    -0.054 SA
ATOM     15  S   UNL A   1      32.722  25.194  21.257  1.00  0.00    -0.052 S 
ATOM     16  C   UNL A   1      33.030  21.877  25.589  1.00  0.00     0.068 C 
BRANCH  16  17
ATOM     17  C   UNL A   1      33.109  20.538  25.138  1.00  0.00     0.132 A 
ATOM     18  N   UNL A   1      32.170  19.616  25.107  1.00  0.00    -0.229 NA
ATOM     19  N   UNL A   1      34.315  20.003  24.744  1.00  0.00    -0.338 N 
ATOM     20  C   UNL A   1      32.811  18.432  24.906  1.00  0.00     0.089 A 
ATOM     21  C   UNL A   1      34.163  18.636  24.662  1.00  0.00     0.066 A 
ATOM     22  H   UNL A   1      35.140  20.508  24.555  1.00  0.00     0.168 HD
ATOM     23  C   UNL A   1      32.295  17.133  24.961  1.00  0.00     0.030 A 
ATOM     24  C   UNL A   1      35.054  17.586  24.438  1.00  0.00     0.028 A 
ATOM     25  C   UNL A   1      33.170  16.062  24.773  1.00  0.00     0.002 A 
ATOM     26  C   UNL A   1      34.524  16.288  24.509  1.00  0.00     0.002 A 
ENDBRANCH  16  17
ENDBRANCH   7   9
ENDBRANCH   4   7
ENDBRANCH   2   3
ENDBRANCH   1   2
BRANCH   1  27
ATOM     27  C   UNL A   1      32.947  29.955  26.431  1.00  0.00     0.118 C 
BRANCH  27  28
ATOM     28  N   UNL A   1      32.957  31.370  26.756  1.00  0.00    -0.352 N 
ATOM     29  C   UNL A   1      33.784  32.097  27.575  1.00  0.00     0.251 C 
ATOM     30  H   UNL A   1      32.251  31.896  26.314  1.00  0.00     0.163 HD
ATOM     31  O   UNL A   1      33.465  33.251  27.849  1.00  0.00    -0.269 OA
BRANCH  29  32
ATOM     32  C   UNL A   1      35.023  31.513  28.142  1.00  0.00     0.039 A 
ATOM     33  C   UNL A   1      36.183  32.293  28.132  1.00  0.00     0.014 A 
ATOM     34  C   UNL A   1      35.077  30.205  28.632  1.00  0.00     0.014 A 
ATOM     35  C   UNL A   1      37.372  31.783  28.658  1.00  0.00     0.010 A 
ATOM     36  C   UNL A   1      36.242  29.728  29.235  1.00  0.00     0.010 A 
ATOM     37  C   UNL A   1      37.405  30.510  29.252  1.00  0.00    -0.014 A 
BRANCH  37  38
ATOM     38  C   UNL A   1      38.651  30.019  29.902  1.00  0.00     0.031 A 
ATOM     39  C   UNL A   1      39.041  30.482  31.281  1.00  0.00     0.074 A 
ATOM     40  C   UNL A   1      39.441  29.155  29.234  1.00  0.00     0.049 A 
ATOM     41  N   UNL A   1      40.070  30.130  32.010  1.00  0.00    -0.248 NA
ATOM     42  C   UNL A   1      38.174  31.487  31.914  1.00  0.00     0.031 C 
ATOM     43  C   UNL A   1      39.197  28.674  27.871  1.00  0.00     0.029 A 
ATOM     44  N   UNL A   1      40.598  28.517  29.605  1.00  0.00    -0.354 N 
ATOM     45  C   UNL A   1      39.974  30.866  33.187  1.00  0.00     0.074 A 
ATOM     46  C   UNL A   1      38.826  31.735  33.041  1.00  0.00     0.031 C 
ATOM     47  C   UNL A   1      40.144  27.783  27.541  1.00  0.00     0.029 A 
ATOM     48  C   UNL A   1      41.092  27.665  28.644  1.00  0.00     0.049 A 
ATOM     49  H   UNL A   1      41.034  28.656  30.477  1.00  0.00     0.167 HD
ATOM     50  C   UNL A   1      40.755  30.802  34.295  1.00  0.00     0.034 A 
ATOM     51  C   UNL A   1      42.185  26.877  28.646  1.00  0.00     0.034 A 
ATOM     52  C   UNL A   1      41.902  29.933  34.422  1.00  0.00     0.049 A 
ATOM     53  C   UNL A   1      43.052  26.846  29.878  1.00  0.00     0.074 A 
ATOM     54  C   UNL A   1      42.735  29.757  35.513  1.00  0.00     0.029 A 
ATOM     55  N   UNL A   1      42.388  29.101  33.419  1.00  0.00    -0.354 N 
ATOM     56  N   UNL A   1      42.909  27.501  31.008  1.00  0.00    -0.248 NA
ATOM     57  C   UNL A   1      44.218  25.955  29.840  1.00  0.00     0.031 C 
ATOM     58  C   UNL A   1      43.767  28.886  35.146  1.00  0.00     0.029 A 
ATOM     59  C   UNL A   1      43.530  28.442  33.855  1.00  0.00     0.049 A 
ATOM     60  H   UNL A   1      41.982  28.995  32.529  1.00  0.00     0.167 HD
ATOM     61  C   UNL A   1      43.958  27.082  31.824  1.00  0.00     0.074 A 
ATOM     62  C   UNL A   1      44.698  26.093  31.066  1.00  0.00     0.031 C 
ATOM     63  C   UNL A   1      44.281  27.479  33.082  1.00  0.00     0.034 A 
BRANCH  50  64
ATOM     64  C   UNL A   1      40.406  31.718  35.449  1.00  0.00     0.023 A 
ATOM     65  C   UNL A   1      39.415  31.379  36.387  1.00  0.00     0.031 A 
ATOM     66  C   UNL A   1      41.061  32.952  35.606  1.00  0.00     0.131 A 
ATOM     67  C   UNL A   1      39.056  32.291  37.391  1.00  0.00     0.055 A 
ATOM     68  C   UNL A   1      40.760  33.819  36.659  1.00  0.00     0.041 A 
ATOM     69  F   UNL A   1      42.001  33.344  34.731  1.00  0.00    -0.206 F 
ATOM     70  C   UNL A   1      39.742  33.497  37.551  1.00  0.00     0.022 A 
BRANCH  67  71
ATOM     71  S   UNL A   1      37.583  31.944  38.391  1.00  0.00     0.124 S 
ATOM     72  O   UNL A   1      36.684  33.016  37.974  1.00  0.00    -0.237 OA
ATOM     73  O   UNL A   1      37.219  30.599  37.961  1.00  0.00    -0.237 OA
ATOM     74  O   UNL A   1      38.070  32.050  39.766  1.00  0.00    -0.744 OA
ENDBRANCH  67  71
ENDBRANCH  50  64
BRANCH  51  75
ATOM     75  C   UNL A   1      42.533  26.062  27.445  1.00  0.00     0.023 A 
ATOM     76  C   UNL A   1      42.280  24.682  27.404  1.00  0.00     0.031 A 
ATOM     77  C   UNL A   1      43.167  26.648  26.335  1.00  0.00     0.131 A 
ATOM     78  C   UNL A   1      42.704  23.925  26.300  1.00  0.00     0.055 A 
ATOM     79  C   UNL A   1      43.531  25.902  25.212  1.00  0.00     0.041 A 
ATOM     80  F   UNL A   1      43.432  27.964  26.320  1.00  0.00    -0.206 F 
ATOM     81  C   UNL A   1      43.313  24.529  25.197  1.00  0.00     0.022 A 
BRANCH  78  82
ATOM     82  S   UNL A   1      42.537  22.120  26.366  1.00  0.00     0.124 S 
ATOM     83  O   UNL A   1      43.788  21.684  25.757  1.00  0.00    -0.237 OA
ATOM     84  O   UNL A   1      42.404  21.882  27.800  1.00  0.00    -0.237 OA
ATOM     85  O   UNL A   1      41.333  21.861  25.579  1.00  0.00    -0.744 OA
ENDBRANCH  78  82
ENDBRANCH  51  75
BRANCH  63  86
ATOM     86  C   UNL A   1      45.481  26.814  33.717  1.00  0.00     0.023 A 
ATOM     87  C   UNL A   1      45.358  25.619  34.449  1.00  0.00     0.031 A 
ATOM     88  C   UNL A   1      46.753  27.406  33.633  1.00  0.00     0.131 A 
ATOM     89  C   UNL A   1      46.465  25.104  35.140  1.00  0.00     0.055 A 
ATOM     90  C   UNL A   1      47.869  26.844  34.257  1.00  0.00     0.041 A 
ATOM     91  F   UNL A   1      46.933  28.549  32.952  1.00  0.00    -0.206 F 
ATOM     92  C   UNL A   1      47.724  25.699  35.033  1.00  0.00     0.022 A 
BRANCH  89  93
ATOM     93  S   UNL A   1      46.203  23.733  36.298  1.00  0.00     0.124 S 
ATOM     94  O   UNL A   1      47.515  23.093  36.310  1.00  0.00    -0.237 OA
ATOM     95  O   UNL A   1      45.822  24.428  37.523  1.00  0.00    -0.237 OA
ATOM     96  O   UNL A   1      45.139  22.952  35.671  1.00  0.00    -0.744 OA
ENDBRANCH  89  93
ENDBRANCH  63  86
ENDBRANCH  37  38
ENDBRANCH  29  32
ENDBRANCH  27  28
ENDBRANCH   1  27
TORSDOF 15
ENDMDL
MODEL 3
REMARK VINA RESULT:     -12.8      4.740      8.546
REMARK SMILES C[C@@H](C(=O)NCCCNC(=O)c1ccc(-c2c3nc(c(-c4cc(S(=O)(=O)[O-])ccc4F)c4ccc([nH]4)c(-c4cc(S(=O)(=O)[O-])ccc4F)c4nc(c(-c5cc(S(=O)(=O)[O-])ccc5F)c5ccc2[nH]5)C=C4)C=C3)cc1)N1C(=O)/C(=C/c2nc3ccccc3[nH]2)SC1=S
REMARK SMILES IDX 7 1 6 2 5 3 3 4 4 5 2 7 1 8 75 9 76 10 90 11 77 12 78 13
REMARK SMILES IDX 89 14 91 15 79 16 80 17 81 18 88 19 82 20 87 21 83 23 86 24
REMARK SMILES IDX 84 25 85 26 8 27 9 28 10 29 11 31 12 32 13 33 74 34 14 35
REMARK SMILES IDX 73 36 15 37 16 38 17 39 67 40 18 41 72 42 66 43 68 44 19 45
REMARK SMILES IDX 71 46 65 47 64 48 20 50 52 51 32 52 51 53 33 54 36 55 50 56
REMARK SMILES IDX 69 57 34 58 35 59 49 61 70 62 37 63 21 64 22 65 30 66 23 67
REMARK SMILES IDX 29 68 31 69 28 70 24 71 25 72 26 73 27 74 53 75 54 76 62 77
REMARK SMILES IDX 55 78 61 79 63 80 60 81 56 82 57 83 58 84 59 85 38 86 39 87
REMARK SMILES IDX 47 88 40 89 46 90 48 91 45 92 41 93 42 94 43 95 44 96
REMARK H PARENT 5 6 88 22 9 30 68 49 36 60
REMARK Flexibility Score: inf
ROOT
ATOM      1  C   UNL A   1      35.950  20.587  25.074  1.00  0.00     0.042 C 
ENDROOT
BRANCH   1   2
ATOM      2  C   UNL A   1      35.160  21.382  26.106  1.00  0.00     0.117 C 
BRANCH   2   3
ATOM      3  N   UNL A   1      35.418  22.808  26.032  1.00  0.00    -0.354 N 
ATOM      4  C   UNL A   1      34.840  23.759  25.238  1.00  0.00     0.242 C 
ATOM      5  O   UNL A   1      35.108  24.938  25.481  1.00  0.00    -0.273 OA
ATOM      6  H   UNL A   1      36.115  23.140  26.643  1.00  0.00     0.163 HD
BRANCH   4   7
ATOM      7  C   UNL A   1      33.854  23.339  24.127  1.00  0.00     0.178 C 
ATOM      8  C   UNL A   1      34.500  22.967  22.796  1.00  0.00     0.042 C 
BRANCH   7   9
ATOM      9  N   UNL A   1      32.807  24.360  23.960  1.00  0.00    -0.281 N 
ATOM     10  C   UNL A   1      33.025  25.455  23.132  1.00  0.00     0.267 C 
ATOM     11  C   UNL A   1      31.574  24.291  24.576  1.00  0.00     0.149 C 
ATOM     12  O   UNL A   1      33.990  25.647  22.400  1.00  0.00    -0.268 OA
ATOM     13  C   UNL A   1      31.867  26.385  23.191  1.00  0.00     0.084 C 
ATOM     14  S   UNL A   1      30.599  25.658  24.104  1.00  0.00    -0.054 SA
ATOM     15  S   UNL A   1      30.970  23.110  25.590  1.00  0.00    -0.052 S 
ATOM     16  C   UNL A   1      31.864  27.584  22.584  1.00  0.00     0.068 C 
BRANCH  16  17
ATOM     17  C   UNL A   1      30.752  28.452  22.708  1.00  0.00     0.132 A 
ATOM     18  N   UNL A   1      29.705  28.577  21.921  1.00  0.00    -0.229 NA
ATOM     19  N   UNL A   1      30.713  29.398  23.708  1.00  0.00    -0.338 N 
ATOM     20  C   UNL A   1      29.102  29.744  22.279  1.00  0.00     0.089 A 
ATOM     21  C   UNL A   1      29.702  30.285  23.408  1.00  0.00     0.066 A 
ATOM     22  H   UNL A   1      31.303  29.434  24.496  1.00  0.00     0.168 HD
ATOM     23  C   UNL A   1      28.053  30.421  21.647  1.00  0.00     0.030 A 
ATOM     24  C   UNL A   1      29.286  31.490  23.977  1.00  0.00     0.028 A 
ATOM     25  C   UNL A   1      27.638  31.644  22.176  1.00  0.00     0.002 A 
ATOM     26  C   UNL A   1      28.241  32.163  23.325  1.00  0.00     0.002 A 
ENDBRANCH  16  17
ENDBRANCH   7   9
ENDBRANCH   4   7
ENDBRANCH   2   3
ENDBRANCH   1   2
BRANCH   1  27
ATOM     27  C   UNL A   1      37.384  21.064  24.871  1.00  0.00     0.118 C 
BRANCH  27  28
ATOM     28  N   UNL A   1      38.364  20.111  25.361  1.00  0.00    -0.352 N 
ATOM     29  C   UNL A   1      39.610  20.303  25.903  1.00  0.00     0.251 C 
ATOM     30  H   UNL A   1      38.089  19.168  25.292  1.00  0.00     0.163 HD
ATOM     31  O   UNL A   1      40.338  19.325  26.055  1.00  0.00    -0.269 OA
BRANCH  29  32
ATOM     32  C   UNL A   1      40.092  21.654  26.281  1.00  0.00     0.039 A 
ATOM     33  C   UNL A   1      41.399  21.776  26.760  1.00  0.00     0.014 A 
ATOM     34  C   UNL A   1      39.271  22.784  26.223  1.00  0.00     0.014 A 
ATOM     35  C   UNL A   1      41.895  23.030  27.126  1.00  0.00     0.010 A 
ATOM     36  C   UNL A   1      39.794  24.047  26.506  1.00  0.00     0.010 A 
ATOM     37  C   UNL A   1      41.110  24.185  26.965  1.00  0.00    -0.014 A 
BRANCH  37  38
ATOM     38  C   UNL A   1      41.684  25.527  27.259  1.00  0.00     0.031 A 
ATOM     39  C   UNL A   1      40.925  26.530  28.086  1.00  0.00     0.074 A 
ATOM     40  C   UNL A   1      42.898  25.842  26.765  1.00  0.00     0.049 A 
ATOM     41  N   UNL A   1      41.288  27.729  28.469  1.00  0.00    -0.248 NA
ATOM     42  C   UNL A   1      39.574  26.148  28.522  1.00  0.00     0.031 C 
ATOM     43  C   UNL A   1      43.708  24.973  25.907  1.00  0.00     0.029 A 
ATOM     44  N   UNL A   1      43.670  26.966  26.917  1.00  0.00    -0.354 N 
ATOM     45  C   UNL A   1      40.216  28.242  29.191  1.00  0.00     0.074 A 
ATOM     46  C   UNL A   1      39.163  27.250  29.131  1.00  0.00     0.031 C 
ATOM     47  C   UNL A   1      44.879  25.574  25.650  1.00  0.00     0.029 A 
ATOM     48  C   UNL A   1      44.888  26.890  26.280  1.00  0.00     0.049 A 
ATOM     49  H   UNL A   1      43.382  27.753  27.434  1.00  0.00     0.167 HD
ATOM     50  C   UNL A   1      40.128  29.418  29.864  1.00  0.00     0.034 A 
ATOM     51  C   UNL A   1      45.899  27.778  26.206  1.00  0.00     0.034 A 
ATOM     52  C   UNL A   1      41.187  30.399  29.909  1.00  0.00     0.049 A 
ATOM     53  C   UNL A   1      45.765  29.088  26.939  1.00  0.00     0.074 A 
ATOM     54  C   UNL A   1      41.221  31.601  30.594  1.00  0.00     0.029 A 
ATOM     55  N   UNL A   1      42.397  30.300  29.231  1.00  0.00    -0.354 N 
ATOM     56  N   UNL A   1      44.767  29.529  27.671  1.00  0.00    -0.248 NA
ATOM     57  C   UNL A   1      46.902  30.012  26.848  1.00  0.00     0.031 C 
ATOM     58  C   UNL A   1      42.409  32.264  30.267  1.00  0.00     0.029 A 
ATOM     59  C   UNL A   1      43.164  31.437  29.451  1.00  0.00     0.049 A 
ATOM     60  H   UNL A   1      42.670  29.536  28.674  1.00  0.00     0.167 HD
ATOM     61  C   UNL A   1      45.169  30.775  28.146  1.00  0.00     0.074 A 
ATOM     62  C   UNL A   1      46.511  30.994  27.645  1.00  0.00     0.031 C 
ATOM     63  C   UNL A   1      44.491  31.660  28.923  1.00  0.00     0.034 A 
BRANCH  50  64
ATOM     64  C   UNL A   1      38.831  29.714  30.585  1.00  0.00     0.023 A 
ATOM     65  C   UNL A   1      37.832  30.519  30.008  1.00  0.00     0.031 A 
ATOM     66  C   UNL A   1      38.592  29.196  31.870  1.00  0.00     0.131 A 
ATOM     67  C   UNL A   1      36.681  30.844  30.741  1.00  0.00     0.055 A 
ATOM     68  C   UNL A   1      37.405  29.453  32.561  1.00  0.00     0.041 A 
ATOM     69  F   UNL A   1      39.514  28.439  32.485  1.00  0.00    -0.206 F 
ATOM     70  C   UNL A   1      36.447  30.293  32.003  1.00  0.00     0.022 A 
BRANCH  67  71
ATOM     71  S   UNL A   1      35.566  32.114  30.083  1.00  0.00     0.124 S 
ATOM     72  O   UNL A   1      35.077  31.475  28.864  1.00  0.00    -0.237 OA
ATOM     73  O   UNL A   1      34.593  32.269  31.158  1.00  0.00    -0.237 OA
ATOM     74  O   UNL A   1      36.444  33.262  29.864  1.00  0.00    -0.744 OA
ENDBRANCH  67  71
ENDBRANCH  50  64
BRANCH  51  75
ATOM     75  C   UNL A   1      47.120  27.471  25.405  1.00  0.00     0.023 A 
ATOM     76  C   UNL A   1      47.218  27.844  24.055  1.00  0.00     0.031 A 
ATOM     77  C   UNL A   1      48.193  26.758  25.970  1.00  0.00     0.131 A 
ATOM     78  C   UNL A   1      48.338  27.458  23.301  1.00  0.00     0.055 A 
ATOM     79  C   UNL A   1      49.333  26.431  25.233  1.00  0.00     0.041 A 
ATOM     80  F   UNL A   1      48.154  26.379  27.257  1.00  0.00    -0.206 F 
ATOM     81  C   UNL A   1      49.403  26.769  23.886  1.00  0.00     0.022 A 
BRANCH  78  82
ATOM     82  S   UNL A   1      48.341  27.785  21.517  1.00  0.00     0.124 S 
ATOM     83  O   UNL A   1      49.430  28.746  21.393  1.00  0.00    -0.237 OA
ATOM     84  O   UNL A   1      48.591  26.457  20.967  1.00  0.00    -0.237 OA
ATOM     85  O   UNL A   1      47.004  28.318  21.267  1.00  0.00    -0.744 OA
ENDBRANCH  78  82
ENDBRANCH  51  75
BRANCH  63  86
ATOM     86  C   UNL A   1      45.215  32.935  29.292  1.00  0.00     0.023 A 
ATOM     87  C   UNL A   1      45.917  33.057  30.505  1.00  0.00     0.031 A 
ATOM     88  C   UNL A   1      45.161  34.056  28.446  1.00  0.00     0.131 A 
ATOM     89  C   UNL A   1      46.459  34.296  30.878  1.00  0.00     0.055 A 
ATOM     90  C   UNL A   1      45.773  35.264  28.787  1.00  0.00     0.041 A 
ATOM     91  F   UNL A   1      44.503  34.003  27.278  1.00  0.00    -0.206 F 
ATOM     92  C   UNL A   1      46.408  35.396  30.018  1.00  0.00     0.022 A 
BRANCH  89  93
ATOM     93  S   UNL A   1      47.102  34.489  32.563  1.00  0.00     0.124 S 
ATOM     94  O   UNL A   1      45.875  34.537  33.351  1.00  0.00    -0.237 OA
ATOM     95  O   UNL A   1      47.917  33.289  32.725  1.00  0.00    -0.237 OA
ATOM     96  O   UNL A   1      47.850  35.743  32.504  1.00  0.00    -0.744 OA
ENDBRANCH  89  93
ENDBRANCH  63  86
ENDBRANCH  37  38
ENDBRANCH  29  32
ENDBRANCH  27  28
ENDBRANCH   1  27
TORSDOF 15
ENDMDL
