MODEL 1
REMARK VINA RESULT:     -12.0      0.000      0.000
REMARK SMILES CC1(C)CCC[C@H]1NC(=O)N[C@@H]1COC[C@@]1(C)C(=O)NCCCNC(=O)c1ccc(-c2c3nc(c(-c4cc(S(=O)(=O)[O-])ccc4F)c4ccc([nH]4)c(-c4cc(S(=O)(=O)[O-])ccc4F)c4nc(c(-c5cc(S(=O)(=O)[O-])ccc5F)c5ccc2[nH]5)C=C4)C=C3)cc1
REMARK SMILES IDX 22 1 21 2 20 3 18 4 19 5 16 7 12 8 13 9 14 10 15 11 17 12
REMARK SMILES IDX 11 13 8 14 9 15 10 17 7 19 1 20 2 21 3 22 4 23 5 24 6 25
REMARK SMILES IDX 23 26 24 27 25 28 26 30 27 31 28 32 89 33 29 34 88 35 30 36
REMARK SMILES IDX 31 37 32 38 82 39 33 40 87 41 81 42 83 43 34 44 86 45 80 46
REMARK SMILES IDX 79 47 35 49 67 50 47 51 66 52 48 53 51 54 65 55 84 56 49 57
REMARK SMILES IDX 50 58 64 60 85 61 52 62 36 63 37 64 45 65 38 66 44 67 46 68
REMARK SMILES IDX 43 69 39 70 40 71 41 72 42 73 68 74 69 75 77 76 70 77 76 78
REMARK SMILES IDX 78 79 75 80 71 81 72 82 73 83 74 84 53 85 54 86 62 87 55 88
REMARK SMILES IDX 61 89 63 90 60 91 56 92 57 93 58 94 59 95
REMARK H PARENT 20 6 8 16 11 18 24 29 83 48 51 59
REMARK Flexibility Score: inf
ROOT
ATOM      1  C   UNL A   1      32.362  28.578  27.246  1.00  0.00     0.042 C 
ENDROOT
BRANCH   1   2
ATOM      2  C   UNL A   1      31.461  27.827  26.264  1.00  0.00     0.117 C 
BRANCH   2   3
ATOM      3  N   UNL A   1      31.525  28.225  24.867  1.00  0.00    -0.355 N 
ATOM      4  C   UNL A   1      31.667  27.497  23.718  1.00  0.00     0.230 C 
ATOM      5  O   UNL A   1      31.350  28.067  22.670  1.00  0.00    -0.274 OA
ATOM      6  H   UNL A   1      31.453  29.197  24.720  1.00  0.00     0.163 HD
BRANCH   4   7
ATOM      7  C   UNL A   1      32.286  26.092  23.707  1.00  0.00     0.092 C 
ATOM      8  C   UNL A   1      31.363  24.952  24.181  1.00  0.00     0.127 C 
ATOM      9  C   UNL A   1      31.451  23.845  23.133  1.00  0.00     0.186 C 
ATOM     10  O   UNL A   1      32.469  24.226  22.210  1.00  0.00    -0.378 OA
ATOM     11  C   UNL A   1      32.526  25.661  22.241  1.00  0.00     0.179 C 
ATOM     12  C   UNL A   1      33.635  26.209  24.383  1.00  0.00     0.026 C 
BRANCH   8  13
ATOM     13  N   UNL A   1      31.420  24.454  25.561  1.00  0.00    -0.332 N 
ATOM     14  N   UNL A   1      33.254  23.025  26.096  1.00  0.00    -0.335 N 
ATOM     15  C   UNL A   1      32.150  23.706  26.380  1.00  0.00     0.315 C 
ATOM     16  H   UNL A   1      33.733  22.762  26.913  1.00  0.00     0.165 HD
ATOM     17  O   UNL A   1      31.759  23.666  27.551  1.00  0.00    -0.249 OA
ATOM     18  H   UNL A   1      30.638  24.793  26.055  1.00  0.00     0.165 HD
BRANCH  14  19
ATOM     19  C   UNL A   1      33.952  22.558  24.898  1.00  0.00     0.089 C 
ATOM     20  C   UNL A   1      36.056  23.827  25.887  1.00  0.00     0.013 C 
ATOM     21  C   UNL A   1      35.514  22.705  24.985  1.00  0.00    -0.015 C 
ATOM     22  C   UNL A   1      36.131  22.869  23.574  1.00  0.00     0.013 C 
ATOM     23  C   UNL A   1      35.947  21.350  25.570  1.00  0.00     0.008 C 
ATOM     24  C   UNL A   1      35.062  20.346  24.858  1.00  0.00     0.003 C 
ATOM     25  C   UNL A   1      33.705  21.036  24.747  1.00  0.00     0.025 C 
ENDBRANCH  14  19
ENDBRANCH   8  13
ENDBRANCH   4   7
ENDBRANCH   2   3
ENDBRANCH   1   2
BRANCH   1  26
ATOM     26  C   UNL A   1      33.614  29.220  26.660  1.00  0.00     0.118 C 
BRANCH  26  27
ATOM     27  N   UNL A   1      33.673  30.645  26.920  1.00  0.00    -0.352 N 
ATOM     28  C   UNL A   1      34.434  31.385  27.789  1.00  0.00     0.251 C 
ATOM     29  H   UNL A   1      33.052  31.179  26.375  1.00  0.00     0.163 HD
ATOM     30  O   UNL A   1      34.068  32.537  28.019  1.00  0.00    -0.269 OA
BRANCH  28  31
ATOM     31  C   UNL A   1      35.664  30.863  28.443  1.00  0.00     0.039 A 
ATOM     32  C   UNL A   1      36.895  31.378  28.017  1.00  0.00     0.014 A 
ATOM     33  C   UNL A   1      35.655  29.805  29.357  1.00  0.00     0.014 A 
ATOM     34  C   UNL A   1      38.094  30.848  28.503  1.00  0.00     0.010 A 
ATOM     35  C   UNL A   1      36.853  29.326  29.903  1.00  0.00     0.010 A 
ATOM     36  C   UNL A   1      38.088  29.824  29.462  1.00  0.00    -0.014 A 
BRANCH  36  37
ATOM     37  C   UNL A   1      39.372  29.270  29.975  1.00  0.00     0.031 A 
ATOM     38  C   UNL A   1      40.043  29.860  31.188  1.00  0.00     0.074 A 
ATOM     39  C   UNL A   1      39.946  28.233  29.332  1.00  0.00     0.049 A 
ATOM     40  N   UNL A   1      41.139  29.480  31.798  1.00  0.00    -0.248 NA
ATOM     41  C   UNL A   1      39.417  31.052  31.772  1.00  0.00     0.031 C 
ATOM     42  C   UNL A   1      39.433  27.616  28.108  1.00  0.00     0.029 A 
ATOM     43  N   UNL A   1      41.081  27.516  29.616  1.00  0.00    -0.354 N 
ATOM     44  C   UNL A   1      41.338  30.391  32.832  1.00  0.00     0.074 A 
ATOM     45  C   UNL A   1      40.284  31.379  32.718  1.00  0.00     0.031 C 
ATOM     46  C   UNL A   1      40.237  26.601  27.759  1.00  0.00     0.029 A 
ATOM     47  C   UNL A   1      41.336  26.510  28.714  1.00  0.00     0.049 A 
ATOM     48  H   UNL A   1      41.659  27.705  30.390  1.00  0.00     0.167 HD
ATOM     49  C   UNL A   1      42.292  30.393  33.800  1.00  0.00     0.034 A 
ATOM     50  C   UNL A   1      42.341  25.614  28.658  1.00  0.00     0.034 A 
ATOM     51  C   UNL A   1      43.338  29.398  33.895  1.00  0.00     0.049 A 
ATOM     52  C   UNL A   1      43.375  25.611  29.750  1.00  0.00     0.074 A 
ATOM     53  C   UNL A   1      44.313  29.256  34.869  1.00  0.00     0.029 A 
ATOM     54  N   UNL A   1      43.557  28.380  32.973  1.00  0.00    -0.354 N 
ATOM     55  N   UNL A   1      43.500  26.426  30.773  1.00  0.00    -0.248 NA
ATOM     56  C   UNL A   1      44.388  24.551  29.694  1.00  0.00     0.031 C 
ATOM     57  C   UNL A   1      45.160  28.205  34.497  1.00  0.00     0.029 A 
ATOM     58  C   UNL A   1      44.671  27.633  33.333  1.00  0.00     0.049 A 
ATOM     59  H   UNL A   1      43.000  28.213  32.178  1.00  0.00     0.167 HD
ATOM     60  C   UNL A   1      44.604  25.971  31.487  1.00  0.00     0.074 A 
ATOM     61  C   UNL A   1      45.082  24.789  30.796  1.00  0.00     0.031 C 
ATOM     62  C   UNL A   1      45.171  26.484  32.611  1.00  0.00     0.034 A 
BRANCH  49  63
ATOM     63  C   UNL A   1      42.263  31.530  34.800  1.00  0.00     0.023 A 
ATOM     64  C   UNL A   1      41.347  31.554  35.869  1.00  0.00     0.031 A 
ATOM     65  C   UNL A   1      43.121  32.635  34.655  1.00  0.00     0.131 A 
ATOM     66  C   UNL A   1      41.238  32.696  36.679  1.00  0.00     0.055 A 
ATOM     67  C   UNL A   1      43.072  33.729  35.524  1.00  0.00     0.041 A 
ATOM     68  F   UNL A   1      44.008  32.685  33.649  1.00  0.00    -0.206 F 
ATOM     69  C   UNL A   1      42.112  33.774  36.530  1.00  0.00     0.022 A 
BRANCH  66  70
ATOM     70  S   UNL A   1      39.817  32.827  37.802  1.00  0.00     0.124 S 
ATOM     71  O   UNL A   1      39.351  34.185  37.531  1.00  0.00    -0.237 OA
ATOM     72  O   UNL A   1      38.953  31.748  37.344  1.00  0.00    -0.237 OA
ATOM     73  O   UNL A   1      40.409  32.636  39.127  1.00  0.00    -0.744 OA
ENDBRANCH  66  70
ENDBRANCH  49  63
BRANCH  50  74
ATOM     74  C   UNL A   1      42.411  24.654  27.522  1.00  0.00     0.023 A 
ATOM     75  C   UNL A   1      41.677  23.457  27.525  1.00  0.00     0.031 A 
ATOM     76  C   UNL A   1      43.213  24.935  26.400  1.00  0.00     0.131 A 
ATOM     77  C   UNL A   1      41.779  22.574  26.439  1.00  0.00     0.055 A 
ATOM     78  C   UNL A   1      43.277  24.074  25.304  1.00  0.00     0.041 A 
ATOM     79  F   UNL A   1      43.924  26.073  26.344  1.00  0.00    -0.206 F 
ATOM     80  C   UNL A   1      42.562  22.881  25.324  1.00  0.00     0.022 A 
BRANCH  77  81
ATOM     81  S   UNL A   1      40.897  20.990  26.518  1.00  0.00     0.124 S 
ATOM     82  O   UNL A   1      39.636  21.317  25.862  1.00  0.00    -0.237 OA
ATOM     83  O   UNL A   1      41.793  20.105  25.781  1.00  0.00    -0.237 OA
ATOM     84  O   UNL A   1      40.805  20.724  27.952  1.00  0.00    -0.744 OA
ENDBRANCH  77  81
ENDBRANCH  50  74
BRANCH  62  85
ATOM     85  C   UNL A   1      46.378  25.752  33.152  1.00  0.00     0.023 A 
ATOM     86  C   UNL A   1      47.669  25.985  32.642  1.00  0.00     0.031 A 
ATOM     87  C   UNL A   1      46.232  24.769  34.147  1.00  0.00     0.131 A 
ATOM     88  C   UNL A   1      48.745  25.192  33.067  1.00  0.00     0.055 A 
ATOM     89  C   UNL A   1      47.321  24.032  34.619  1.00  0.00     0.041 A 
ATOM     90  F   UNL A   1      45.026  24.498  34.669  1.00  0.00    -0.206 F 
ATOM     91  C   UNL A   1      48.582  24.227  34.064  1.00  0.00     0.022 A 
BRANCH  88  92
ATOM     92  S   UNL A   1      50.332  25.341  32.198  1.00  0.00     0.124 S 
ATOM     93  O   UNL A   1      51.201  25.874  33.243  1.00  0.00    -0.237 OA
ATOM     94  O   UNL A   1      50.593  23.965  31.790  1.00  0.00    -0.237 OA
ATOM     95  O   UNL A   1      50.038  26.268  31.106  1.00  0.00    -0.744 OA
ENDBRANCH  88  92
ENDBRANCH  62  85
ENDBRANCH  36  37
ENDBRANCH  28  31
ENDBRANCH  26  27
ENDBRANCH   1  26
TORSDOF 15
ENDMDL
MODEL 2
REMARK VINA RESULT:     -12.0      2.406      2.986
REMARK SMILES CC1(C)CCC[C@H]1NC(=O)N[C@@H]1COC[C@@]1(C)C(=O)NCCCNC(=O)c1ccc(-c2c3nc(c(-c4cc(S(=O)(=O)[O-])ccc4F)c4ccc([nH]4)c(-c4cc(S(=O)(=O)[O-])ccc4F)c4nc(c(-c5cc(S(=O)(=O)[O-])ccc5F)c5ccc2[nH]5)C=C4)C=C3)cc1
REMARK SMILES IDX 22 1 21 2 20 3 18 4 19 5 16 7 12 8 13 9 14 10 15 11 17 12
REMARK SMILES IDX 11 13 8 14 9 15 10 17 7 19 1 20 2 21 3 22 4 23 5 24 6 25
REMARK SMILES IDX 23 26 24 27 25 28 26 30 27 31 28 32 89 33 29 34 88 35 30 36
REMARK SMILES IDX 31 37 32 38 82 39 33 40 87 41 81 42 83 43 34 44 86 45 80 46
REMARK SMILES IDX 79 47 35 49 67 50 47 51 66 52 48 53 51 54 65 55 84 56 49 57
REMARK SMILES IDX 50 58 64 60 85 61 52 62 36 63 37 64 45 65 38 66 44 67 46 68
REMARK SMILES IDX 43 69 39 70 40 71 41 72 42 73 68 74 69 75 77 76 70 77 76 78
REMARK SMILES IDX 78 79 75 80 71 81 72 82 73 83 74 84 53 85 54 86 62 87 55 88
REMARK SMILES IDX 61 89 63 90 60 91 56 92 57 93 58 94 59 95
REMARK H PARENT 20 6 8 16 11 18 24 29 83 48 51 59
REMARK Flexibility Score: inf
ROOT
ATOM      1  C   UNL A   1      31.791  28.407  26.542  1.00  0.00     0.042 C 
ENDROOT
BRANCH   1   2
ATOM      2  C   UNL A   1      31.056  27.369  25.690  1.00  0.00     0.117 C 
BRANCH   2   3
ATOM      3  N   UNL A   1      31.017  27.596  24.254  1.00  0.00    -0.355 N 
ATOM      4  C   UNL A   1      31.327  26.788  23.196  1.00  0.00     0.230 C 
ATOM      5  O   UNL A   1      30.877  27.132  22.098  1.00  0.00    -0.274 OA
ATOM      6  H   UNL A   1      30.711  28.497  23.996  1.00  0.00     0.163 HD
BRANCH   4   7
ATOM      7  C   UNL A   1      32.267  25.582  23.330  1.00  0.00     0.092 C 
ATOM      8  C   UNL A   1      31.618  24.283  23.843  1.00  0.00     0.127 C 
ATOM      9  C   UNL A   1      32.047  23.166  22.894  1.00  0.00     0.186 C 
ATOM     10  O   UNL A   1      33.005  23.728  21.999  1.00  0.00    -0.378 OA
ATOM     11  C   UNL A   1      32.709  25.131  21.918  1.00  0.00     0.179 C 
ATOM     12  C   UNL A   1      33.496  26.073  24.065  1.00  0.00     0.026 C 
BRANCH   8  13
ATOM     13  N   UNL A   1      31.695  23.903  25.259  1.00  0.00    -0.332 N 
ATOM     14  N   UNL A   1      33.704  22.822  25.958  1.00  0.00    -0.335 N 
ATOM     15  C   UNL A   1      32.498  23.342  26.155  1.00  0.00     0.315 C 
ATOM     16  H   UNL A   1      34.185  22.698  26.807  1.00  0.00     0.165 HD
ATOM     17  O   UNL A   1      32.071  23.329  27.315  1.00  0.00    -0.249 OA
ATOM     18  H   UNL A   1      30.852  24.153  25.703  1.00  0.00     0.165 HD
BRANCH  14  19
ATOM     19  C   UNL A   1      34.512  22.381  24.821  1.00  0.00     0.089 C 
ATOM     20  C   UNL A   1      36.337  24.071  25.735  1.00  0.00     0.013 C 
ATOM     21  C   UNL A   1      36.023  22.800  24.926  1.00  0.00    -0.015 C 
ATOM     22  C   UNL A   1      36.653  22.947  23.519  1.00  0.00     0.013 C 
ATOM     23  C   UNL A   1      36.657  21.593  25.638  1.00  0.00     0.008 C 
ATOM     24  C   UNL A   1      35.980  20.396  25.001  1.00  0.00     0.003 C 
ATOM     25  C   UNL A   1      34.531  20.832  24.802  1.00  0.00     0.025 C 
ENDBRANCH  14  19
ENDBRANCH   8  13
ENDBRANCH   4   7
ENDBRANCH   2   3
ENDBRANCH   1   2
BRANCH   1  26
ATOM     26  C   UNL A   1      32.775  29.310  25.808  1.00  0.00     0.118 C 
BRANCH  26  27
ATOM     27  N   UNL A   1      32.586  30.709  26.136  1.00  0.00    -0.352 N 
ATOM     28  C   UNL A   1      33.197  31.522  27.057  1.00  0.00     0.251 C 
ATOM     29  H   UNL A   1      31.892  31.157  25.602  1.00  0.00     0.163 HD
ATOM     30  O   UNL A   1      32.637  32.582  27.331  1.00  0.00    -0.269 OA
BRANCH  28  31
ATOM     31  C   UNL A   1      34.488  31.183  27.713  1.00  0.00     0.039 A 
ATOM     32  C   UNL A   1      34.654  29.874  28.185  1.00  0.00     0.014 A 
ATOM     33  C   UNL A   1      35.477  32.132  27.993  1.00  0.00     0.014 A 
ATOM     34  C   UNL A   1      35.792  29.522  28.916  1.00  0.00     0.010 A 
ATOM     35  C   UNL A   1      36.652  31.759  28.656  1.00  0.00     0.010 A 
ATOM     36  C   UNL A   1      36.812  30.456  29.150  1.00  0.00    -0.014 A 
BRANCH  36  37
ATOM     37  C   UNL A   1      38.022  30.067  29.927  1.00  0.00     0.031 A 
ATOM     38  C   UNL A   1      38.241  30.576  31.329  1.00  0.00     0.074 A 
ATOM     39  C   UNL A   1      38.939  29.259  29.360  1.00  0.00     0.049 A 
ATOM     40  N   UNL A   1      39.212  30.309  32.167  1.00  0.00    -0.248 NA
ATOM     41  C   UNL A   1      37.255  31.536  31.842  1.00  0.00     0.031 C 
ATOM     42  C   UNL A   1      38.878  28.753  27.987  1.00  0.00     0.029 A 
ATOM     43  N   UNL A   1      40.097  28.720  29.862  1.00  0.00    -0.354 N 
ATOM     44  C   UNL A   1      38.959  31.074  33.303  1.00  0.00     0.074 A 
ATOM     45  C   UNL A   1      37.780  31.864  33.012  1.00  0.00     0.031 C 
ATOM     46  C   UNL A   1      39.938  27.962  27.764  1.00  0.00     0.029 A 
ATOM     47  C   UNL A   1      40.768  27.924  28.964  1.00  0.00     0.049 A 
ATOM     48  H   UNL A   1      40.418  28.889  30.777  1.00  0.00     0.167 HD
ATOM     49  C   UNL A   1      39.629  31.098  34.485  1.00  0.00     0.034 A 
ATOM     50  C   UNL A   1      41.922  27.240  29.087  1.00  0.00     0.034 A 
ATOM     51  C   UNL A   1      40.807  30.301  34.755  1.00  0.00     0.049 A 
ATOM     52  C   UNL A   1      42.639  27.255  30.409  1.00  0.00     0.074 A 
ATOM     53  C   UNL A   1      41.525  30.189  35.934  1.00  0.00     0.029 A 
ATOM     54  N   UNL A   1      41.451  29.490  33.826  1.00  0.00    -0.354 N 
ATOM     55  N   UNL A   1      42.339  27.914  31.505  1.00  0.00    -0.248 NA
ATOM     56  C   UNL A   1      43.835  26.412  30.518  1.00  0.00     0.031 C 
ATOM     57  C   UNL A   1      42.639  29.374  35.696  1.00  0.00     0.029 A 
ATOM     58  C   UNL A   1      42.577  28.908  34.393  1.00  0.00     0.049 A 
ATOM     59  H   UNL A   1      41.150  29.350  32.899  1.00  0.00     0.167 HD
ATOM     60  C   UNL A   1      43.308  27.560  32.438  1.00  0.00     0.074 A 
ATOM     61  C   UNL A   1      44.177  26.600  31.783  1.00  0.00     0.031 C 
ATOM     62  C   UNL A   1      43.467  27.988  33.718  1.00  0.00     0.034 A 
BRANCH  49  63
ATOM     63  C   UNL A   1      39.121  32.047  35.551  1.00  0.00     0.023 A 
ATOM     64  C   UNL A   1      39.510  33.400  35.586  1.00  0.00     0.031 A 
ATOM     65  C   UNL A   1      38.282  31.585  36.581  1.00  0.00     0.131 A 
ATOM     66  C   UNL A   1      39.151  34.208  36.676  1.00  0.00     0.055 A 
ATOM     67  C   UNL A   1      37.850  32.421  37.614  1.00  0.00     0.041 A 
ATOM     68  F   UNL A   1      37.885  30.303  36.617  1.00  0.00    -0.206 F 
ATOM     69  C   UNL A   1      38.302  33.735  37.679  1.00  0.00     0.022 A 
BRANCH  66  70
ATOM     70  S   UNL A   1      39.964  35.821  36.861  1.00  0.00     0.124 S 
ATOM     71  O   UNL A   1      41.348  35.428  37.113  1.00  0.00    -0.237 OA
ATOM     72  O   UNL A   1      39.701  36.455  35.576  1.00  0.00    -0.237 OA
ATOM     73  O   UNL A   1      39.278  36.420  38.007  1.00  0.00    -0.744 OA
ENDBRANCH  66  70
ENDBRANCH  49  63
BRANCH  50  74
ATOM     74  C   UNL A   1      42.465  26.491  27.920  1.00  0.00     0.023 A 
ATOM     75  C   UNL A   1      42.110  25.155  27.674  1.00  0.00     0.031 A 
ATOM     76  C   UNL A   1      43.344  27.118  27.018  1.00  0.00     0.131 A 
ATOM     77  C   UNL A   1      42.652  24.481  26.569  1.00  0.00     0.055 A 
ATOM     78  C   UNL A   1      43.846  26.457  25.896  1.00  0.00     0.041 A 
ATOM     79  F   UNL A   1      43.704  28.398  27.202  1.00  0.00    -0.206 F 
ATOM     80  C   UNL A   1      43.505  25.127  25.671  1.00  0.00     0.022 A 
BRANCH  77  81
ATOM     81  S   UNL A   1      42.253  22.727  26.336  1.00  0.00     0.124 S 
ATOM     82  O   UNL A   1      42.761  22.480  24.991  1.00  0.00    -0.237 OA
ATOM     83  O   UNL A   1      42.992  22.099  27.426  1.00  0.00    -0.237 OA
ATOM     84  O   UNL A   1      40.798  22.688  26.471  1.00  0.00    -0.744 OA
ENDBRANCH  77  81
ENDBRANCH  50  74
BRANCH  62  85
ATOM     85  C   UNL A   1      44.634  27.409  34.484  1.00  0.00     0.023 A 
ATOM     86  C   UNL A   1      44.509  26.216  35.222  1.00  0.00     0.031 A 
ATOM     87  C   UNL A   1      45.868  28.082  34.527  1.00  0.00     0.131 A 
ATOM     88  C   UNL A   1      45.567  25.779  36.032  1.00  0.00     0.055 A 
ATOM     89  C   UNL A   1      46.942  27.602  35.280  1.00  0.00     0.041 A 
ATOM     90  F   UNL A   1      46.046  29.226  33.849  1.00  0.00    -0.206 F 
ATOM     91  C   UNL A   1      46.789  26.456  36.054  1.00  0.00     0.022 A 
BRANCH  88  92
ATOM     92  S   UNL A   1      45.277  24.393  37.168  1.00  0.00     0.124 S 
ATOM     93  O   UNL A   1      44.111  24.853  37.916  1.00  0.00    -0.237 OA
ATOM     94  O   UNL A   1      45.049  23.281  36.250  1.00  0.00    -0.237 OA
ATOM     95  O   UNL A   1      46.517  24.317  37.939  1.00  0.00    -0.744 OA
ENDBRANCH  88  92
ENDBRANCH  62  85
ENDBRANCH  36  37
ENDBRANCH  28  31
ENDBRANCH  26  27
ENDBRANCH   1  26
TORSDOF 15
ENDMDL
MODEL 3
REMARK VINA RESULT:     -12.0      3.972      9.557
REMARK SMILES CC1(C)CCC[C@H]1NC(=O)N[C@@H]1COC[C@@]1(C)C(=O)NCCCNC(=O)c1ccc(-c2c3nc(c(-c4cc(S(=O)(=O)[O-])ccc4F)c4ccc([nH]4)c(-c4cc(S(=O)(=O)[O-])ccc4F)c4nc(c(-c5cc(S(=O)(=O)[O-])ccc5F)c5ccc2[nH]5)C=C4)C=C3)cc1
REMARK SMILES IDX 22 1 21 2 20 3 18 4 19 5 16 7 12 8 13 9 14 10 15 11 17 12
REMARK SMILES IDX 11 13 8 14 9 15 10 17 7 19 1 20 2 21 3 22 4 23 5 24 6 25
REMARK SMILES IDX 23 26 24 27 25 28 26 30 27 31 28 32 89 33 29 34 88 35 30 36
REMARK SMILES IDX 31 37 32 38 82 39 33 40 87 41 81 42 83 43 34 44 86 45 80 46
REMARK SMILES IDX 79 47 35 49 67 50 47 51 66 52 48 53 51 54 65 55 84 56 49 57
REMARK SMILES IDX 50 58 64 60 85 61 52 62 36 63 37 64 45 65 38 66 44 67 46 68
REMARK SMILES IDX 43 69 39 70 40 71 41 72 42 73 68 74 69 75 77 76 70 77 76 78
REMARK SMILES IDX 78 79 75 80 71 81 72 82 73 83 74 84 53 85 54 86 62 87 55 88
REMARK SMILES IDX 61 89 63 90 60 91 56 92 57 93 58 94 59 95
REMARK H PARENT 20 6 8 16 11 18 24 29 83 48 51 59
REMARK Flexibility Score: inf
ROOT
ATOM      1  C   UNL A   1      36.625  22.701  23.556  1.00  0.00     0.042 C 
ENDROOT
BRANCH   1   2
ATOM      2  C   UNL A   1      35.109  22.677  23.352  1.00  0.00     0.117 C 
BRANCH   2   3
ATOM      3  N   UNL A   1      34.321  21.924  24.316  1.00  0.00    -0.355 N 
ATOM      4  C   UNL A   1      33.109  22.175  24.896  1.00  0.00     0.230 C 
ATOM      5  O   UNL A   1      32.540  21.207  25.409  1.00  0.00    -0.274 OA
ATOM      6  H   UNL A   1      34.737  21.078  24.604  1.00  0.00     0.163 HD
BRANCH   4   7
ATOM      7  C   UNL A   1      32.528  23.593  25.006  1.00  0.00     0.092 C 
ATOM      8  C   UNL A   1      31.940  24.176  23.707  1.00  0.00     0.127 C 
ATOM      9  C   UNL A   1      30.559  24.728  24.053  1.00  0.00     0.186 C 
ATOM     10  O   UNL A   1      30.417  24.634  25.469  1.00  0.00    -0.378 OA
ATOM     11  C   UNL A   1      31.258  23.548  25.888  1.00  0.00     0.179 C 
ATOM     12  C   UNL A   1      33.564  24.428  25.727  1.00  0.00     0.026 C 
BRANCH   8  13
ATOM     13  N   UNL A   1      32.728  25.073  22.853  1.00  0.00    -0.332 N 
ATOM     14  N   UNL A   1      32.893  27.343  23.569  1.00  0.00    -0.335 N 
ATOM     15  C   UNL A   1      33.155  26.327  22.755  1.00  0.00     0.315 C 
ATOM     16  H   UNL A   1      33.516  28.090  23.422  1.00  0.00     0.165 HD
ATOM     17  O   UNL A   1      33.906  26.558  21.801  1.00  0.00    -0.249 OA
ATOM     18  H   UNL A   1      33.056  24.566  22.075  1.00  0.00     0.165 HD
BRANCH  14  19
ATOM     19  C   UNL A   1      31.930  27.655  24.624  1.00  0.00     0.089 C 
ATOM     20  C   UNL A   1      34.052  27.946  26.183  1.00  0.00     0.013 C 
ATOM     21  C   UNL A   1      32.584  28.304  25.898  1.00  0.00    -0.015 C 
ATOM     22  C   UNL A   1      31.748  27.992  27.165  1.00  0.00     0.013 C 
ATOM     23  C   UNL A   1      32.493  29.809  25.592  1.00  0.00     0.008 C 
ATOM     24  C   UNL A   1      31.124  29.971  24.962  1.00  0.00     0.003 C 
ATOM     25  C   UNL A   1      30.948  28.729  24.093  1.00  0.00     0.025 C 
ENDBRANCH  14  19
ENDBRANCH   8  13
ENDBRANCH   4   7
ENDBRANCH   2   3
ENDBRANCH   1   2
BRANCH   1  26
ATOM     26  C   UNL A   1      37.123  23.313  24.860  1.00  0.00     0.118 C 
BRANCH  26  27
ATOM     27  N   UNL A   1      38.032  22.432  25.567  1.00  0.00    -0.352 N 
ATOM     28  C   UNL A   1      39.147  22.687  26.324  1.00  0.00     0.251 C 
ATOM     29  H   UNL A   1      37.810  21.477  25.487  1.00  0.00     0.163 HD
ATOM     30  O   UNL A   1      39.900  21.742  26.555  1.00  0.00    -0.269 OA
BRANCH  28  31
ATOM     31  C   UNL A   1      39.468  24.030  26.875  1.00  0.00     0.039 A 
ATOM     32  C   UNL A   1      40.093  24.951  26.023  1.00  0.00     0.014 A 
ATOM     33  C   UNL A   1      39.295  24.368  28.221  1.00  0.00     0.014 A 
ATOM     34  C   UNL A   1      40.528  26.187  26.509  1.00  0.00     0.010 A 
ATOM     35  C   UNL A   1      39.660  25.636  28.690  1.00  0.00     0.010 A 
ATOM     36  C   UNL A   1      40.306  26.551  27.845  1.00  0.00    -0.014 A 
BRANCH  36  37
ATOM     37  C   UNL A   1      40.773  27.872  28.350  1.00  0.00     0.031 A 
ATOM     38  C   UNL A   1      42.240  28.210  28.401  1.00  0.00     0.074 A 
ATOM     39  C   UNL A   1      39.866  28.771  28.782  1.00  0.00     0.049 A 
ATOM     40  N   UNL A   1      42.824  29.324  28.770  1.00  0.00    -0.248 NA
ATOM     41  C   UNL A   1      43.174  27.145  28.016  1.00  0.00     0.031 C 
ATOM     42  C   UNL A   1      38.421  28.541  28.848  1.00  0.00     0.029 A 
ATOM     43  N   UNL A   1      40.020  30.054  29.243  1.00  0.00    -0.354 N 
ATOM     44  C   UNL A   1      44.193  29.091  28.669  1.00  0.00     0.074 A 
ATOM     45  C   UNL A   1      44.346  27.706  28.271  1.00  0.00     0.031 C 
ATOM     46  C   UNL A   1      37.821  29.651  29.301  1.00  0.00     0.029 A 
ATOM     47  C   UNL A   1      38.834  30.662  29.583  1.00  0.00     0.049 A 
ATOM     48  H   UNL A   1      40.895  30.497  29.324  1.00  0.00     0.167 HD
ATOM     49  C   UNL A   1      45.225  29.954  28.866  1.00  0.00     0.034 A 
ATOM     50  C   UNL A   1      38.586  31.894  30.070  1.00  0.00     0.034 A 
ATOM     51  C   UNL A   1      45.050  31.333  29.266  1.00  0.00     0.049 A 
ATOM     52  C   UNL A   1      39.735  32.847  30.258  1.00  0.00     0.074 A 
ATOM     53  C   UNL A   1      46.012  32.317  29.426  1.00  0.00     0.029 A 
ATOM     54  N   UNL A   1      43.832  31.922  29.587  1.00  0.00    -0.354 N 
ATOM     55  N   UNL A   1      41.020  32.640  30.074  1.00  0.00    -0.248 NA
ATOM     56  C   UNL A   1      39.398  34.207  30.693  1.00  0.00     0.031 C 
ATOM     57  C   UNL A   1      45.387  33.472  29.912  1.00  0.00     0.029 A 
ATOM     58  C   UNL A   1      44.022  33.241  29.980  1.00  0.00     0.049 A 
ATOM     59  H   UNL A   1      42.959  31.469  29.541  1.00  0.00     0.167 HD
ATOM     60  C   UNL A   1      41.644  33.849  30.366  1.00  0.00     0.074 A 
ATOM     61  C   UNL A   1      40.588  34.786  30.700  1.00  0.00     0.031 C 
ATOM     62  C   UNL A   1      42.968  34.156  30.359  1.00  0.00     0.034 A 
BRANCH  49  63
ATOM     63  C   UNL A   1      46.627  29.409  28.689  1.00  0.00     0.023 A 
ATOM     64  C   UNL A   1      47.174  29.170  27.413  1.00  0.00     0.031 A 
ATOM     65  C   UNL A   1      47.411  29.068  29.806  1.00  0.00     0.131 A 
ATOM     66  C   UNL A   1      48.410  28.515  27.287  1.00  0.00     0.055 A 
ATOM     67  C   UNL A   1      48.682  28.503  29.673  1.00  0.00     0.041 A 
ATOM     68  F   UNL A   1      46.945  29.255  31.050  1.00  0.00    -0.206 F 
ATOM     69  C   UNL A   1      49.180  28.203  28.409  1.00  0.00     0.022 A 
BRANCH  66  70
ATOM     70  S   UNL A   1      48.904  27.910  25.648  1.00  0.00     0.124 S 
ATOM     71  O   UNL A   1      49.084  26.483  25.903  1.00  0.00    -0.237 OA
ATOM     72  O   UNL A   1      47.763  28.275  24.821  1.00  0.00    -0.237 OA
ATOM     73  O   UNL A   1      50.140  28.644  25.371  1.00  0.00    -0.744 OA
ENDBRANCH  66  70
ENDBRANCH  49  63
BRANCH  50  74
ATOM     74  C   UNL A   1      37.192  32.285  30.414  1.00  0.00     0.023 A 
ATOM     75  C   UNL A   1      36.300  32.761  29.439  1.00  0.00     0.031 A 
ATOM     76  C   UNL A   1      36.726  32.172  31.737  1.00  0.00     0.131 A 
ATOM     77  C   UNL A   1      34.996  33.129  29.807  1.00  0.00     0.055 A 
ATOM     78  C   UNL A   1      35.416  32.498  32.089  1.00  0.00     0.041 A 
ATOM     79  F   UNL A   1      37.537  31.711  32.703  1.00  0.00    -0.206 F 
ATOM     80  C   UNL A   1      34.545  32.987  31.121  1.00  0.00     0.022 A 
BRANCH  77  81
ATOM     81  S   UNL A   1      33.901  33.834  28.544  1.00  0.00     0.124 S 
ATOM     82  O   UNL A   1      34.817  34.692  27.799  1.00  0.00    -0.237 OA
ATOM     83  O   UNL A   1      33.431  32.642  27.848  1.00  0.00    -0.237 OA
ATOM     84  O   UNL A   1      32.886  34.536  29.328  1.00  0.00    -0.744 OA
ENDBRANCH  77  81
ENDBRANCH  50  74
BRANCH  62  85
ATOM     85  C   UNL A   1      43.333  35.576  30.728  1.00  0.00     0.023 A 
ATOM     86  C   UNL A   1      43.404  35.991  32.071  1.00  0.00     0.031 A 
ATOM     87  C   UNL A   1      43.557  36.541  29.730  1.00  0.00     0.131 A 
ATOM     88  C   UNL A   1      43.609  37.344  32.378  1.00  0.00     0.055 A 
ATOM     89  C   UNL A   1      43.831  37.874  30.043  1.00  0.00     0.041 A 
ATOM     90  F   UNL A   1      43.497  36.207  28.431  1.00  0.00    -0.206 F 
ATOM     91  C   UNL A   1      43.838  38.286  31.372  1.00  0.00     0.022 A 
BRANCH  88  92
ATOM     92  S   UNL A   1      43.429  37.882  34.102  1.00  0.00     0.124 S 
ATOM     93  O   UNL A   1      42.396  36.977  34.595  1.00  0.00    -0.237 OA
ATOM     94  O   UNL A   1      44.771  37.671  34.635  1.00  0.00    -0.237 OA
ATOM     95  O   UNL A   1      43.021  39.282  33.983  1.00  0.00    -0.744 OA
ENDBRANCH  88  92
ENDBRANCH  62  85
ENDBRANCH  36  37
ENDBRANCH  28  31
ENDBRANCH  26  27
ENDBRANCH   1  26
TORSDOF 15
ENDMDL
