MODEL 1
REMARK VINA RESULT:     -12.2      0.000      0.000
REMARK SMILES C[C@H]1CCC[C@]1(C(=O)NCCCNC(=O)c1ccc(-c2c3nc(c(-c4cc(S(=O)(=O)[O-])ccc4F)c4ccc([nH]4)c(-c4cc(S(=O)(=O)[O-])ccc4F)c4nc(c(-c5cc(S(=O)(=O)[O-])ccc5F)c5ccc2[nH]5)C=C4)C=C3)cc1)c1ccc2c(c1)OCO2
REMARK SMILES IDX 12 1 11 2 10 3 9 4 7 5 8 6 6 8 1 9 2 10 3 11 4 12 5 13 79 14
REMARK SMILES IDX 80 15 84 16 81 17 83 18 82 19 85 20 87 21 86 22 13 23 14 24
REMARK SMILES IDX 15 26 16 27 17 28 78 29 18 30 77 31 19 32 20 33 21 34 71 35
REMARK SMILES IDX 22 36 76 37 70 38 72 39 23 40 75 41 69 42 68 43 24 45 56 46
REMARK SMILES IDX 36 47 55 48 37 49 40 50 54 51 73 52 38 53 39 54 53 56 74 57
REMARK SMILES IDX 41 58 25 59 26 60 34 61 27 62 33 63 35 64 32 65 28 66 29 67
REMARK SMILES IDX 30 68 31 69 57 70 58 71 66 72 59 73 65 74 67 75 64 76 60 77
REMARK SMILES IDX 61 78 62 79 63 80 42 81 43 82 51 83 44 84 50 85 52 86 49 87
REMARK SMILES IDX 45 88 46 89 47 90 48 91
REMARK H PARENT 9 7 13 25 72 44 40 55
REMARK Flexibility Score: inf
ROOT
ATOM      1  C   UNL A   1      33.954  29.323  26.356  1.00  0.00     0.118 C 
ENDROOT
BRANCH   1   2
ATOM      2  C   UNL A   1      33.177  28.374  27.250  1.00  0.00     0.042 C 
BRANCH   2   3
ATOM      3  C   UNL A   1      31.744  28.155  26.794  1.00  0.00     0.117 C 
BRANCH   3   4
ATOM      4  N   UNL A   1      31.281  26.789  26.984  1.00  0.00    -0.355 N 
ATOM      5  C   UNL A   1      31.163  25.698  26.174  1.00  0.00     0.230 C 
ATOM      6  O   UNL A   1      30.974  24.650  26.805  1.00  0.00    -0.274 OA
ATOM      7  H   UNL A   1      30.988  26.612  27.907  1.00  0.00     0.163 HD
BRANCH   5   8
ATOM      8  C   UNL A   1      31.234  25.744  24.605  1.00  0.00     0.077 C 
ATOM      9  C   UNL A   1      33.851  25.792  24.916  1.00  0.00     0.009 C 
ATOM     10  C   UNL A   1      32.662  25.430  24.031  1.00  0.00     0.006 C 
ATOM     11  C   UNL A   1      32.635  23.984  23.556  1.00  0.00     0.005 C 
ATOM     12  C   UNL A   1      31.190  23.754  23.126  1.00  0.00     0.002 C 
ATOM     13  C   UNL A   1      30.312  24.631  24.026  1.00  0.00     0.022 C 
BRANCH   8  14
ATOM     14  C   UNL A   1      30.892  27.133  23.954  1.00  0.00    -0.028 A 
ATOM     15  C   UNL A   1      31.827  27.873  23.185  1.00  0.00     0.009 A 
ATOM     16  C   UNL A   1      29.536  27.546  23.894  1.00  0.00     0.055 A 
ATOM     17  C   UNL A   1      31.440  28.954  22.378  1.00  0.00     0.051 A 
ATOM     18  C   UNL A   1      29.177  28.570  23.049  1.00  0.00     0.166 A 
ATOM     19  C   UNL A   1      30.101  29.251  22.301  1.00  0.00     0.165 A 
ATOM     20  O   UNL A   1      27.900  28.952  22.778  1.00  0.00    -0.454 OA
ATOM     21  O   UNL A   1      29.518  30.153  21.466  1.00  0.00    -0.454 OA
ATOM     22  C   UNL A   1      28.131  29.785  21.626  1.00  0.00     0.468 C 
ENDBRANCH   8  14
ENDBRANCH   5   8
ENDBRANCH   3   4
ENDBRANCH   2   3
ENDBRANCH   1   2
BRANCH   1  23
ATOM     23  N   UNL A   1      33.822  30.705  26.796  1.00  0.00    -0.352 N 
ATOM     24  C   UNL A   1      34.479  31.387  27.790  1.00  0.00     0.251 C 
ATOM     25  H   UNL A   1      33.154  31.234  26.301  1.00  0.00     0.163 HD
ATOM     26  O   UNL A   1      34.006  32.443  28.198  1.00  0.00    -0.269 OA
BRANCH  24  27
ATOM     27  C   UNL A   1      35.733  30.854  28.368  1.00  0.00     0.039 A 
ATOM     28  C   UNL A   1      35.660  29.848  29.334  1.00  0.00     0.014 A 
ATOM     29  C   UNL A   1      36.977  31.367  27.992  1.00  0.00     0.014 A 
ATOM     30  C   UNL A   1      36.834  29.328  29.882  1.00  0.00     0.010 A 
ATOM     31  C   UNL A   1      38.146  30.771  28.452  1.00  0.00     0.010 A 
ATOM     32  C   UNL A   1      38.088  29.763  29.421  1.00  0.00    -0.014 A 
BRANCH  32  33
ATOM     33  C   UNL A   1      39.343  29.184  29.962  1.00  0.00     0.031 A 
ATOM     34  C   UNL A   1      39.940  29.719  31.235  1.00  0.00     0.074 A 
ATOM     35  C   UNL A   1      39.961  28.202  29.279  1.00  0.00     0.049 A 
ATOM     36  N   UNL A   1      41.017  29.333  31.871  1.00  0.00    -0.248 NA
ATOM     37  C   UNL A   1      39.259  30.866  31.854  1.00  0.00     0.031 C 
ATOM     38  C   UNL A   1      39.510  27.653  27.997  1.00  0.00     0.029 A 
ATOM     39  N   UNL A   1      41.090  27.482  29.568  1.00  0.00    -0.354 N 
ATOM     40  C   UNL A   1      41.146  30.196  32.956  1.00  0.00     0.074 A 
ATOM     41  C   UNL A   1      40.088  31.174  32.838  1.00  0.00     0.031 C 
ATOM     42  C   UNL A   1      40.319  26.644  27.641  1.00  0.00     0.029 A 
ATOM     43  C   UNL A   1      41.367  26.501  28.645  1.00  0.00     0.049 A 
ATOM     44  H   UNL A   1      41.649  27.651  30.360  1.00  0.00     0.167 HD
ATOM     45  C   UNL A   1      42.042  30.153  33.975  1.00  0.00     0.034 A 
ATOM     46  C   UNL A   1      42.350  25.581  28.620  1.00  0.00     0.034 A 
ATOM     47  C   UNL A   1      43.086  29.161  34.072  1.00  0.00     0.049 A 
ATOM     48  C   UNL A   1      43.335  25.550  29.757  1.00  0.00     0.074 A 
ATOM     49  C   UNL A   1      44.014  28.976  35.082  1.00  0.00     0.029 A 
ATOM     50  N   UNL A   1      43.350  28.190  33.111  1.00  0.00    -0.354 N 
ATOM     51  N   UNL A   1      43.403  26.324  30.817  1.00  0.00    -0.248 NA
ATOM     52  C   UNL A   1      44.368  24.510  29.699  1.00  0.00     0.031 C 
ATOM     53  C   UNL A   1      44.879  27.944  34.698  1.00  0.00     0.029 A 
ATOM     54  C   UNL A   1      44.448  27.429  33.486  1.00  0.00     0.049 A 
ATOM     55  H   UNL A   1      42.832  28.062  32.284  1.00  0.00     0.167 HD
ATOM     56  C   UNL A   1      44.478  25.851  31.562  1.00  0.00     0.074 A 
ATOM     57  C   UNL A   1      45.005  24.707  30.843  1.00  0.00     0.031 C 
ATOM     58  C   UNL A   1      44.986  26.317  32.734  1.00  0.00     0.034 A 
BRANCH  45  59
ATOM     59  C   UNL A   1      41.933  31.230  35.034  1.00  0.00     0.023 A 
ATOM     60  C   UNL A   1      40.856  31.272  35.939  1.00  0.00     0.031 A 
ATOM     61  C   UNL A   1      42.876  32.271  35.097  1.00  0.00     0.131 A 
ATOM     62  C   UNL A   1      40.688  32.378  36.786  1.00  0.00     0.055 A 
ATOM     63  C   UNL A   1      42.757  33.321  36.013  1.00  0.00     0.041 A 
ATOM     64  F   UNL A   1      43.918  32.304  34.251  1.00  0.00    -0.206 F 
ATOM     65  C   UNL A   1      41.646  33.391  36.848  1.00  0.00     0.022 A 
BRANCH  62  66
ATOM     66  S   UNL A   1      39.108  32.567  37.659  1.00  0.00     0.124 S 
ATOM     67  O   UNL A   1      39.540  32.557  39.055  1.00  0.00    -0.237 OA
ATOM     68  O   UNL A   1      38.617  33.841  37.150  1.00  0.00    -0.237 OA
ATOM     69  O   UNL A   1      38.344  31.391  37.244  1.00  0.00    -0.744 OA
ENDBRANCH  62  66
ENDBRANCH  45  59
BRANCH  46  70
ATOM     70  C   UNL A   1      42.429  24.601  27.502  1.00  0.00     0.023 A 
ATOM     71  C   UNL A   1      41.645  23.436  27.508  1.00  0.00     0.031 A 
ATOM     72  C   UNL A   1      43.291  24.811  26.411  1.00  0.00     0.131 A 
ATOM     73  C   UNL A   1      41.761  22.509  26.461  1.00  0.00     0.055 A 
ATOM     74  C   UNL A   1      43.369  23.909  25.349  1.00  0.00     0.041 A 
ATOM     75  F   UNL A   1      44.053  25.915  26.351  1.00  0.00    -0.206 F 
ATOM     76  C   UNL A   1      42.607  22.744  25.375  1.00  0.00     0.022 A 
BRANCH  73  77
ATOM     77  S   UNL A   1      40.819  20.963  26.561  1.00  0.00     0.124 S 
ATOM     78  O   UNL A   1      41.654  20.054  25.785  1.00  0.00    -0.237 OA
ATOM     79  O   UNL A   1      40.779  20.725  28.001  1.00  0.00    -0.237 OA
ATOM     80  O   UNL A   1      39.535  21.307  25.953  1.00  0.00    -0.744 OA
ENDBRANCH  73  77
ENDBRANCH  46  70
BRANCH  58  81
ATOM     81  C   UNL A   1      46.168  25.567  33.299  1.00  0.00     0.023 A 
ATOM     82  C   UNL A   1      45.997  24.468  34.160  1.00  0.00     0.031 A 
ATOM     83  C   UNL A   1      47.480  25.987  33.019  1.00  0.00     0.131 A 
ATOM     84  C   UNL A   1      47.111  23.881  34.776  1.00  0.00     0.055 A 
ATOM     85  C   UNL A   1      48.590  25.351  33.577  1.00  0.00     0.041 A 
ATOM     86  F   UNL A   1      47.706  27.032  32.207  1.00  0.00    -0.206 F 
ATOM     87  C   UNL A   1      48.409  24.304  34.477  1.00  0.00     0.022 A 
BRANCH  84  88
ATOM     88  S   UNL A   1      46.834  22.652  36.081  1.00  0.00     0.124 S 
ATOM     89  O   UNL A   1      47.872  22.996  37.047  1.00  0.00    -0.237 OA
ATOM     90  O   UNL A   1      45.463  22.937  36.490  1.00  0.00    -0.237 OA
ATOM     91  O   UNL A   1      47.024  21.375  35.394  1.00  0.00    -0.744 OA
ENDBRANCH  84  88
ENDBRANCH  58  81
ENDBRANCH  32  33
ENDBRANCH  24  27
ENDBRANCH   1  23
TORSDOF 14
ENDMDL
MODEL 2
REMARK VINA RESULT:     -12.2      2.339      4.035
REMARK SMILES C[C@H]1CCC[C@]1(C(=O)NCCCNC(=O)c1ccc(-c2c3nc(c(-c4cc(S(=O)(=O)[O-])ccc4F)c4ccc([nH]4)c(-c4cc(S(=O)(=O)[O-])ccc4F)c4nc(c(-c5cc(S(=O)(=O)[O-])ccc5F)c5ccc2[nH]5)C=C4)C=C3)cc1)c1ccc2c(c1)OCO2
REMARK SMILES IDX 12 1 11 2 10 3 9 4 7 5 8 6 6 8 1 9 2 10 3 11 4 12 5 13 79 14
REMARK SMILES IDX 80 15 84 16 81 17 83 18 82 19 85 20 87 21 86 22 13 23 14 24
REMARK SMILES IDX 15 26 16 27 17 28 78 29 18 30 77 31 19 32 20 33 21 34 71 35
REMARK SMILES IDX 22 36 76 37 70 38 72 39 23 40 75 41 69 42 68 43 24 45 56 46
REMARK SMILES IDX 36 47 55 48 37 49 40 50 54 51 73 52 38 53 39 54 53 56 74 57
REMARK SMILES IDX 41 58 25 59 26 60 34 61 27 62 33 63 35 64 32 65 28 66 29 67
REMARK SMILES IDX 30 68 31 69 57 70 58 71 66 72 59 73 65 74 67 75 64 76 60 77
REMARK SMILES IDX 61 78 62 79 63 80 42 81 43 82 51 83 44 84 50 85 52 86 49 87
REMARK SMILES IDX 45 88 46 89 47 90 48 91
REMARK H PARENT 9 7 13 25 72 44 40 55
REMARK Flexibility Score: inf
ROOT
ATOM      1  C   UNL A   1      32.795  29.127  25.936  1.00  0.00     0.118 C 
ENDROOT
BRANCH   1   2
ATOM      2  C   UNL A   1      31.765  28.310  26.694  1.00  0.00     0.042 C 
BRANCH   2   3
ATOM      3  C   UNL A   1      31.043  27.294  25.825  1.00  0.00     0.117 C 
BRANCH   3   4
ATOM      4  N   UNL A   1      30.946  25.978  26.436  1.00  0.00    -0.355 N 
ATOM      5  C   UNL A   1      31.679  24.830  26.356  1.00  0.00     0.230 C 
ATOM      6  O   UNL A   1      31.404  24.021  27.251  1.00  0.00    -0.274 OA
ATOM      7  H   UNL A   1      30.177  25.897  27.046  1.00  0.00     0.163 HD
BRANCH   5   8
ATOM      8  C   UNL A   1      32.751  24.535  25.244  1.00  0.00     0.077 C 
ATOM      9  C   UNL A   1      30.711  23.818  23.738  1.00  0.00     0.009 C 
ATOM     10  C   UNL A   1      32.136  24.358  23.810  1.00  0.00     0.006 C 
ATOM     11  C   UNL A   1      32.362  25.670  23.071  1.00  0.00     0.005 C 
ATOM     12  C   UNL A   1      33.654  26.221  23.665  1.00  0.00     0.002 C 
ATOM     13  C   UNL A   1      33.704  25.761  25.127  1.00  0.00     0.022 C 
BRANCH   8  14
ATOM     14  C   UNL A   1      33.579  23.213  25.439  1.00  0.00    -0.028 A 
ATOM     15  C   UNL A   1      33.077  21.934  25.084  1.00  0.00     0.009 A 
ATOM     16  C   UNL A   1      34.965  23.308  25.718  1.00  0.00     0.055 A 
ATOM     17  C   UNL A   1      33.909  20.807  24.989  1.00  0.00     0.051 A 
ATOM     18  C   UNL A   1      35.766  22.201  25.560  1.00  0.00     0.166 A 
ATOM     19  C   UNL A   1      35.255  20.983  25.195  1.00  0.00     0.165 A 
ATOM     20  O   UNL A   1      37.124  22.197  25.638  1.00  0.00    -0.454 OA
ATOM     21  O   UNL A   1      36.233  20.057  25.000  1.00  0.00    -0.454 OA
ATOM     22  C   UNL A   1      37.400  20.904  25.068  1.00  0.00     0.468 C 
ENDBRANCH   8  14
ENDBRANCH   5   8
ENDBRANCH   3   4
ENDBRANCH   2   3
ENDBRANCH   1   2
BRANCH   1  23
ATOM     23  N   UNL A   1      32.608  30.556  26.145  1.00  0.00    -0.352 N 
ATOM     24  C   UNL A   1      33.201  31.406  27.046  1.00  0.00     0.251 C 
ATOM     25  H   UNL A   1      31.951  30.979  25.545  1.00  0.00     0.163 HD
ATOM     26  O   UNL A   1      32.684  32.497  27.260  1.00  0.00    -0.269 OA
BRANCH  24  27
ATOM     27  C   UNL A   1      34.440  31.011  27.752  1.00  0.00     0.039 A 
ATOM     28  C   UNL A   1      35.422  31.975  27.989  1.00  0.00     0.014 A 
ATOM     29  C   UNL A   1      34.657  29.688  28.146  1.00  0.00     0.014 A 
ATOM     30  C   UNL A   1      36.593  31.620  28.662  1.00  0.00     0.010 A 
ATOM     31  C   UNL A   1      35.767  29.361  28.915  1.00  0.00     0.010 A 
ATOM     32  C   UNL A   1      36.760  30.317  29.160  1.00  0.00    -0.014 A 
BRANCH  32  33
ATOM     33  C   UNL A   1      37.978  29.939  29.918  1.00  0.00     0.031 A 
ATOM     34  C   UNL A   1      38.201  30.465  31.311  1.00  0.00     0.074 A 
ATOM     35  C   UNL A   1      38.901  29.153  29.331  1.00  0.00     0.049 A 
ATOM     36  N   UNL A   1      39.191  30.235  32.135  1.00  0.00    -0.248 NA
ATOM     37  C   UNL A   1      37.197  31.405  31.830  1.00  0.00     0.031 C 
ATOM     38  C   UNL A   1      38.823  28.643  27.959  1.00  0.00     0.029 A 
ATOM     39  N   UNL A   1      40.076  28.636  29.811  1.00  0.00    -0.354 N 
ATOM     40  C   UNL A   1      38.933  31.009  33.263  1.00  0.00     0.074 A 
ATOM     41  C   UNL A   1      37.742  31.778  32.977  1.00  0.00     0.031 C 
ATOM     42  C   UNL A   1      39.872  27.839  27.730  1.00  0.00     0.029 A 
ATOM     43  C   UNL A   1      40.716  27.809  28.919  1.00  0.00     0.049 A 
ATOM     44  H   UNL A   1      40.427  28.839  30.708  1.00  0.00     0.167 HD
ATOM     45  C   UNL A   1      39.607  31.047  34.440  1.00  0.00     0.034 A 
ATOM     46  C   UNL A   1      41.851  27.096  29.053  1.00  0.00     0.034 A 
ATOM     47  C   UNL A   1      40.792  30.265  34.702  1.00  0.00     0.049 A 
ATOM     48  C   UNL A   1      42.585  27.152  30.365  1.00  0.00     0.074 A 
ATOM     49  C   UNL A   1      41.528  30.171  35.871  1.00  0.00     0.029 A 
ATOM     50  N   UNL A   1      41.425  29.448  33.771  1.00  0.00    -0.354 N 
ATOM     51  N   UNL A   1      42.291  27.830  31.451  1.00  0.00    -0.248 NA
ATOM     52  C   UNL A   1      43.798  26.334  30.470  1.00  0.00     0.031 C 
ATOM     53  C   UNL A   1      42.640  29.357  35.624  1.00  0.00     0.029 A 
ATOM     54  C   UNL A   1      42.561  28.877  34.326  1.00  0.00     0.049 A 
ATOM     55  H   UNL A   1      41.111  29.297  32.850  1.00  0.00     0.167 HD
ATOM     56  C   UNL A   1      43.277  27.505  32.378  1.00  0.00     0.074 A 
ATOM     57  C   UNL A   1      44.151  26.548  31.728  1.00  0.00     0.031 C 
ATOM     58  C   UNL A   1      43.446  27.955  33.649  1.00  0.00     0.034 A 
BRANCH  45  59
ATOM     59  C   UNL A   1      39.083  31.989  35.504  1.00  0.00     0.023 A 
ATOM     60  C   UNL A   1      39.496  33.333  35.572  1.00  0.00     0.031 A 
ATOM     61  C   UNL A   1      38.215  31.525  36.508  1.00  0.00     0.131 A 
ATOM     62  C   UNL A   1      39.135  34.127  36.670  1.00  0.00     0.055 A 
ATOM     63  C   UNL A   1      37.778  32.351  37.547  1.00  0.00     0.041 A 
ATOM     64  F   UNL A   1      37.796  30.249  36.514  1.00  0.00    -0.206 F 
ATOM     65  C   UNL A   1      38.256  33.654  37.646  1.00  0.00     0.022 A 
BRANCH  62  66
ATOM     66  S   UNL A   1      39.983  35.716  36.905  1.00  0.00     0.124 S 
ATOM     67  O   UNL A   1      39.337  36.217  38.117  1.00  0.00    -0.237 OA
ATOM     68  O   UNL A   1      41.376  35.312  37.043  1.00  0.00    -0.237 OA
ATOM     69  O   UNL A   1      39.664  36.458  35.686  1.00  0.00    -0.744 OA
ENDBRANCH  62  66
ENDBRANCH  45  59
BRANCH  46  70
ATOM     70  C   UNL A   1      42.338  26.248  27.929  1.00  0.00     0.023 A 
ATOM     71  C   UNL A   1      41.888  24.928  27.776  1.00  0.00     0.031 A 
ATOM     72  C   UNL A   1      43.263  26.744  26.993  1.00  0.00     0.131 A 
ATOM     73  C   UNL A   1      42.387  24.136  26.730  1.00  0.00     0.055 A 
ATOM     74  C   UNL A   1      43.721  25.969  25.928  1.00  0.00     0.041 A 
ATOM     75  F   UNL A   1      43.714  28.006  27.088  1.00  0.00    -0.206 F 
ATOM     76  C   UNL A   1      43.290  24.651  25.798  1.00  0.00     0.022 A 
BRANCH  73  77
ATOM     77  S   UNL A   1      41.872  22.400  26.633  1.00  0.00     0.124 S 
ATOM     78  O   UNL A   1      42.532  21.827  27.800  1.00  0.00    -0.237 OA
ATOM     79  O   UNL A   1      40.418  22.510  26.707  1.00  0.00    -0.237 OA
ATOM     80  O   UNL A   1      42.395  21.962  25.340  1.00  0.00    -0.744 OA
ENDBRANCH  73  77
ENDBRANCH  46  70
BRANCH  58  81
ATOM     81  C   UNL A   1      44.625  27.395  34.408  1.00  0.00     0.023 A 
ATOM     82  C   UNL A   1      44.518  26.212  35.161  1.00  0.00     0.031 A 
ATOM     83  C   UNL A   1      45.853  28.078  34.424  1.00  0.00     0.131 A 
ATOM     84  C   UNL A   1      45.588  25.794  35.965  1.00  0.00     0.055 A 
ATOM     85  C   UNL A   1      46.941  27.616  35.167  1.00  0.00     0.041 A 
ATOM     86  F   UNL A   1      46.014  29.214  33.728  1.00  0.00    -0.206 F 
ATOM     87  C   UNL A   1      46.806  26.479  35.959  1.00  0.00     0.022 A 
BRANCH  84  88
ATOM     88  S   UNL A   1      45.320  24.424  37.123  1.00  0.00     0.124 S 
ATOM     89  O   UNL A   1      44.457  25.040  38.125  1.00  0.00    -0.237 OA
ATOM     90  O   UNL A   1      44.693  23.417  36.274  1.00  0.00    -0.237 OA
ATOM     91  O   UNL A   1      46.668  24.096  37.583  1.00  0.00    -0.744 OA
ENDBRANCH  84  88
ENDBRANCH  58  81
ENDBRANCH  32  33
ENDBRANCH  24  27
ENDBRANCH   1  23
TORSDOF 14
ENDMDL
MODEL 3
REMARK VINA RESULT:     -12.2      2.208      3.692
REMARK SMILES C[C@H]1CCC[C@]1(C(=O)NCCCNC(=O)c1ccc(-c2c3nc(c(-c4cc(S(=O)(=O)[O-])ccc4F)c4ccc([nH]4)c(-c4cc(S(=O)(=O)[O-])ccc4F)c4nc(c(-c5cc(S(=O)(=O)[O-])ccc5F)c5ccc2[nH]5)C=C4)C=C3)cc1)c1ccc2c(c1)OCO2
REMARK SMILES IDX 12 1 11 2 10 3 9 4 7 5 8 6 6 8 1 9 2 10 3 11 4 12 5 13 79 14
REMARK SMILES IDX 80 15 84 16 81 17 83 18 82 19 85 20 87 21 86 22 13 23 14 24
REMARK SMILES IDX 15 26 16 27 17 28 78 29 18 30 77 31 19 32 20 33 21 34 71 35
REMARK SMILES IDX 22 36 76 37 70 38 72 39 23 40 75 41 69 42 68 43 24 45 56 46
REMARK SMILES IDX 36 47 55 48 37 49 40 50 54 51 73 52 38 53 39 54 53 56 74 57
REMARK SMILES IDX 41 58 25 59 26 60 34 61 27 62 33 63 35 64 32 65 28 66 29 67
REMARK SMILES IDX 30 68 31 69 57 70 58 71 66 72 59 73 65 74 67 75 64 76 60 77
REMARK SMILES IDX 61 78 62 79 63 80 42 81 43 82 51 83 44 84 50 85 52 86 49 87
REMARK SMILES IDX 45 88 46 89 47 90 48 91
REMARK H PARENT 9 7 13 25 72 44 40 55
REMARK Flexibility Score: inf
ROOT
ATOM      1  C   UNL A   1      33.452  28.779  27.025  1.00  0.00     0.118 C 
ENDROOT
BRANCH   1   2
ATOM      2  C   UNL A   1      32.107  28.208  27.435  1.00  0.00     0.042 C 
BRANCH   2   3
ATOM      3  C   UNL A   1      31.432  27.407  26.334  1.00  0.00     0.117 C 
BRANCH   3   4
ATOM      4  N   UNL A   1      31.047  26.067  26.750  1.00  0.00    -0.355 N 
ATOM      5  C   UNL A   1      31.550  24.817  26.536  1.00  0.00     0.230 C 
ATOM      6  O   UNL A   1      31.069  23.969  27.298  1.00  0.00    -0.274 OA
ATOM      7  H   UNL A   1      30.240  26.062  27.315  1.00  0.00     0.163 HD
BRANCH   5   8
ATOM      8  C   UNL A   1      32.612  24.464  25.433  1.00  0.00     0.077 C 
ATOM      9  C   UNL A   1      30.577  24.416  23.760  1.00  0.00     0.009 C 
ATOM     10  C   UNL A   1      32.073  24.626  23.966  1.00  0.00     0.006 C 
ATOM     11  C   UNL A   1      32.612  25.952  23.446  1.00  0.00     0.005 C 
ATOM     12  C   UNL A   1      33.944  26.127  24.165  1.00  0.00     0.002 C 
ATOM     13  C   UNL A   1      33.801  25.464  25.540  1.00  0.00     0.022 C 
BRANCH   8  14
ATOM     14  C   UNL A   1      33.138  22.983  25.452  1.00  0.00    -0.028 A 
ATOM     15  C   UNL A   1      32.436  21.910  24.845  1.00  0.00     0.009 A 
ATOM     16  C   UNL A   1      34.479  22.737  25.843  1.00  0.00     0.055 A 
ATOM     17  C   UNL A   1      33.035  20.661  24.615  1.00  0.00     0.051 A 
ATOM     18  C   UNL A   1      35.059  21.524  25.552  1.00  0.00     0.166 A 
ATOM     19  C   UNL A   1      34.360  20.514  24.944  1.00  0.00     0.165 A 
ATOM     20  O   UNL A   1      36.373  21.221  25.725  1.00  0.00    -0.454 OA
ATOM     21  O   UNL A   1      35.151  19.444  24.662  1.00  0.00    -0.454 OA
ATOM     22  C   UNL A   1      36.448  20.003  24.959  1.00  0.00     0.468 C 
ENDBRANCH   8  14
ENDBRANCH   5   8
ENDBRANCH   3   4
ENDBRANCH   2   3
ENDBRANCH   1   2
BRANCH   1  23
ATOM     23  N   UNL A   1      33.457  30.234  27.077  1.00  0.00    -0.352 N 
ATOM     24  C   UNL A   1      34.289  31.095  27.751  1.00  0.00     0.251 C 
ATOM     25  H   UNL A   1      32.752  30.670  26.546  1.00  0.00     0.163 HD
ATOM     26  O   UNL A   1      33.937  32.260  27.906  1.00  0.00    -0.269 OA
BRANCH  24  27
ATOM     27  C   UNL A   1      35.586  30.625  28.287  1.00  0.00     0.039 A 
ATOM     28  C   UNL A   1      35.592  29.774  29.395  1.00  0.00     0.014 A 
ATOM     29  C   UNL A   1      36.795  31.049  27.731  1.00  0.00     0.014 A 
ATOM     30  C   UNL A   1      36.807  29.315  29.908  1.00  0.00     0.010 A 
ATOM     31  C   UNL A   1      37.996  30.502  28.168  1.00  0.00     0.010 A 
ATOM     32  C   UNL A   1      38.017  29.649  29.277  1.00  0.00    -0.014 A 
BRANCH  32  33
ATOM     33  C   UNL A   1      39.311  29.128  29.784  1.00  0.00     0.031 A 
ATOM     34  C   UNL A   1      39.951  29.736  31.003  1.00  0.00     0.074 A 
ATOM     35  C   UNL A   1      39.925  28.131  29.118  1.00  0.00     0.049 A 
ATOM     36  N   UNL A   1      41.066  29.408  31.605  1.00  0.00    -0.248 NA
ATOM     37  C   UNL A   1      39.267  30.892  31.601  1.00  0.00     0.031 C 
ATOM     38  C   UNL A   1      39.431  27.513  27.885  1.00  0.00     0.029 A 
ATOM     39  N   UNL A   1      41.086  27.455  29.386  1.00  0.00    -0.354 N 
ATOM     40  C   UNL A   1      41.219  30.323  32.643  1.00  0.00     0.074 A 
ATOM     41  C   UNL A   1      40.130  31.267  32.531  1.00  0.00     0.031 C 
ATOM     42  C   UNL A   1      40.251  26.510  27.538  1.00  0.00     0.029 A 
ATOM     43  C   UNL A   1      41.348  26.441  28.496  1.00  0.00     0.049 A 
ATOM     44  H   UNL A   1      41.675  27.675  30.143  1.00  0.00     0.167 HD
ATOM     45  C   UNL A   1      42.161  30.350  33.620  1.00  0.00     0.034 A 
ATOM     46  C   UNL A   1      42.354  25.546  28.467  1.00  0.00     0.034 A 
ATOM     47  C   UNL A   1      43.236  29.391  33.712  1.00  0.00     0.049 A 
ATOM     48  C   UNL A   1      43.390  25.592  29.557  1.00  0.00     0.074 A 
ATOM     49  C   UNL A   1      44.214  29.277  34.685  1.00  0.00     0.029 A 
ATOM     50  N   UNL A   1      43.484  28.384  32.785  1.00  0.00    -0.354 N 
ATOM     51  N   UNL A   1      43.484  26.416  30.577  1.00  0.00    -0.248 NA
ATOM     52  C   UNL A   1      44.448  24.578  29.497  1.00  0.00     0.031 C 
ATOM     53  C   UNL A   1      45.090  28.250  34.308  1.00  0.00     0.029 A 
ATOM     54  C   UNL A   1      44.618  27.670  33.142  1.00  0.00     0.049 A 
ATOM     55  H   UNL A   1      42.932  28.205  31.990  1.00  0.00     0.167 HD
ATOM     56  C   UNL A   1      44.605  26.006  31.292  1.00  0.00     0.074 A 
ATOM     57  C   UNL A   1      45.130  24.844  30.601  1.00  0.00     0.031 C 
ATOM     58  C   UNL A   1      45.152  26.538  32.417  1.00  0.00     0.034 A 
BRANCH  45  59
ATOM     59  C   UNL A   1      42.071  31.472  34.633  1.00  0.00     0.023 A 
ATOM     60  C   UNL A   1      41.127  31.451  35.678  1.00  0.00     0.031 A 
ATOM     61  C   UNL A   1      42.886  32.611  34.517  1.00  0.00     0.131 A 
ATOM     62  C   UNL A   1      40.947  32.582  36.488  1.00  0.00     0.055 A 
ATOM     63  C   UNL A   1      42.769  33.696  35.391  1.00  0.00     0.041 A 
ATOM     64  F   UNL A   1      43.794  32.706  33.532  1.00  0.00    -0.206 F 
ATOM     65  C   UNL A   1      41.780  33.696  36.369  1.00  0.00     0.022 A 
BRANCH  62  66
ATOM     66  S   UNL A   1      39.486  32.650  37.565  1.00  0.00     0.124 S 
ATOM     67  O   UNL A   1      38.955  33.977  37.255  1.00  0.00    -0.237 OA
ATOM     68  O   UNL A   1      38.696  31.520  37.096  1.00  0.00    -0.237 OA
ATOM     69  O   UNL A   1      40.044  32.510  38.909  1.00  0.00    -0.744 OA
ENDBRANCH  62  66
ENDBRANCH  45  59
BRANCH  46  70
ATOM     70  C   UNL A   1      42.410  24.517  27.392  1.00  0.00     0.023 A 
ATOM     71  C   UNL A   1      41.667  23.330  27.491  1.00  0.00     0.031 A 
ATOM     72  C   UNL A   1      43.207  24.703  26.249  1.00  0.00     0.131 A 
ATOM     73  C   UNL A   1      41.761  22.359  26.482  1.00  0.00     0.055 A 
ATOM     74  C   UNL A   1      43.262  23.756  25.226  1.00  0.00     0.041 A 
ATOM     75  F   UNL A   1      43.927  25.828  26.099  1.00  0.00    -0.206 F 
ATOM     76  C   UNL A   1      42.542  22.570  25.344  1.00  0.00     0.022 A 
BRANCH  73  77
ATOM     77  S   UNL A   1      40.879  20.790  26.701  1.00  0.00     0.124 S 
ATOM     78  O   UNL A   1      40.801  20.692  28.154  1.00  0.00    -0.237 OA
ATOM     79  O   UNL A   1      39.621  21.050  26.007  1.00  0.00    -0.237 OA
ATOM     80  O   UNL A   1      41.755  19.815  26.054  1.00  0.00    -0.744 OA
ENDBRANCH  73  77
ENDBRANCH  46  70
BRANCH  58  81
ATOM     81  C   UNL A   1      46.379  25.846  32.959  1.00  0.00     0.023 A 
ATOM     82  C   UNL A   1      47.658  26.100  32.433  1.00  0.00     0.031 A 
ATOM     83  C   UNL A   1      46.264  24.880  33.975  1.00  0.00     0.131 A 
ATOM     84  C   UNL A   1      48.756  25.342  32.863  1.00  0.00     0.055 A 
ATOM     85  C   UNL A   1      47.373  24.181  34.452  1.00  0.00     0.041 A 
ATOM     86  F   UNL A   1      45.069  24.591  34.512  1.00  0.00    -0.206 F 
ATOM     87  C   UNL A   1      48.626  24.395  33.882  1.00  0.00     0.022 A 
BRANCH  84  88
ATOM     88  S   UNL A   1      50.328  25.510  31.974  1.00  0.00     0.124 S 
ATOM     89  O   UNL A   1      50.603  24.132  31.582  1.00  0.00    -0.237 OA
ATOM     90  O   UNL A   1      49.977  26.423  30.891  1.00  0.00    -0.237 OA
ATOM     91  O   UNL A   1      51.234  26.061  32.981  1.00  0.00    -0.744 OA
ENDBRANCH  84  88
ENDBRANCH  58  81
ENDBRANCH  32  33
ENDBRANCH  24  27
ENDBRANCH   1  23
TORSDOF 14
ENDMDL
