MODEL 1
REMARK VINA RESULT:     -10.4      0.000      0.000
REMARK SMILES CC[C@@H](C)CNC(=O)N1CCO[C@@H](CC(=O)NCCCNC(=O)c2ccc(-c3c4nc(c(-c5cc(S(=O)(=O)[O-])ccc5F)c5ccc([nH]5)c(-c5cc(S(=O)(=O)[O-])ccc5F)c5nc(c(-c6cc(S(=O)(=O)[O-])ccc6F)c6ccc3[nH]6)C=C5)C=C4)cc2)C1
REMARK SMILES IDX 18 1 17 2 15 3 16 4 14 6 13 7 9 8 10 9 87 10 11 11 12 12
REMARK SMILES IDX 7 13 6 14 8 16 5 17 3 18 4 19 2 20 1 21 19 22 20 23 21 24
REMARK SMILES IDX 22 25 23 27 24 28 25 29 86 30 26 31 85 32 27 33 28 34 29 35
REMARK SMILES IDX 79 36 30 37 84 38 78 39 80 40 31 41 83 42 77 43 76 44 32 46
REMARK SMILES IDX 64 47 44 48 63 49 45 50 48 51 62 52 81 53 46 54 47 55 61 57
REMARK SMILES IDX 82 58 49 59 33 60 34 61 42 62 35 63 41 64 43 65 40 66 36 67
REMARK SMILES IDX 37 68 38 69 39 70 65 71 66 72 74 73 67 74 73 75 75 76 72 77
REMARK SMILES IDX 68 78 69 79 70 80 71 81 50 82 51 83 59 84 52 85 58 86 60 87
REMARK SMILES IDX 57 88 53 89 54 90 55 91 56 92
REMARK H PARENT 17 5 6 15 21 26 80 45 48 56
REMARK Flexibility Score: inf
ROOT
ATOM      1  C   UNL A   1      32.728  35.544  29.267  1.00  0.00     0.117 C 
ENDROOT
BRANCH   1   2
ATOM      2  N   UNL A   1      32.897  36.697  30.149  1.00  0.00    -0.356 N 
ATOM      3  C   UNL A   1      33.065  36.789  31.500  1.00  0.00     0.222 C 
ATOM      4  O   UNL A   1      33.151  37.913  31.998  1.00  0.00    -0.275 OA
ATOM      5  H   UNL A   1      32.886  37.565  29.684  1.00  0.00     0.163 HD
BRANCH   3   6
ATOM      6  C   UNL A   1      33.131  35.555  32.378  1.00  0.00     0.133 C 
BRANCH   6   7
ATOM      7  C   UNL A   1      34.316  34.643  32.038  1.00  0.00     0.147 C 
ATOM      8  N   UNL A   1      36.621  34.088  32.848  1.00  0.00    -0.320 N 
ATOM      9  C   UNL A   1      36.163  32.734  33.141  1.00  0.00     0.150 C 
ATOM     10  C   UNL A   1      35.546  35.055  32.852  1.00  0.00     0.154 C 
ATOM     11  C   UNL A   1      35.030  32.369  32.182  1.00  0.00     0.182 C 
ATOM     12  O   UNL A   1      33.925  33.282  32.338  1.00  0.00    -0.374 OA
BRANCH   8  13
ATOM     13  C   UNL A   1      37.851  34.542  33.255  1.00  0.00     0.317 C 
ATOM     14  N   UNL A   1      38.833  34.648  32.329  1.00  0.00    -0.338 N 
ATOM     15  H   UNL A   1      39.742  34.771  32.688  1.00  0.00     0.165 HD
ATOM     16  O   UNL A   1      38.064  34.937  34.400  1.00  0.00    -0.249 OA
BRANCH  14  17
ATOM     17  C   UNL A   1      38.732  34.606  30.887  1.00  0.00     0.121 C 
BRANCH  17  18
ATOM     18  C   UNL A   1      40.001  34.056  30.204  1.00  0.00     0.005 C 
ATOM     19  C   UNL A   1      41.187  34.272  31.150  1.00  0.00     0.009 C 
BRANCH  18  20
ATOM     20  C   UNL A   1      40.205  34.725  28.830  1.00  0.00     0.002 C 
ATOM     21  C   UNL A   1      41.346  35.731  28.780  1.00  0.00     0.004 C 
ENDBRANCH  18  20
ENDBRANCH  17  18
ENDBRANCH  14  17
ENDBRANCH   8  13
ENDBRANCH   6   7
ENDBRANCH   3   6
ENDBRANCH   1   2
BRANCH   1  22
ATOM     22  C   UNL A   1      33.979  35.252  28.434  1.00  0.00     0.042 C 
BRANCH  22  23
ATOM     23  C   UNL A   1      34.670  33.929  28.728  1.00  0.00     0.118 C 
BRANCH  23  24
ATOM     24  N   UNL A   1      33.966  32.807  28.137  1.00  0.00    -0.352 N 
ATOM     25  C   UNL A   1      34.404  31.533  27.848  1.00  0.00     0.251 C 
ATOM     26  H   UNL A   1      33.026  32.983  27.906  1.00  0.00     0.163 HD
ATOM     27  O   UNL A   1      33.714  30.839  27.106  1.00  0.00    -0.269 OA
BRANCH  25  28
ATOM     28  C   UNL A   1      35.680  30.991  28.392  1.00  0.00     0.039 A 
ATOM     29  C   UNL A   1      35.612  29.970  29.348  1.00  0.00     0.014 A 
ATOM     30  C   UNL A   1      36.929  31.510  28.045  1.00  0.00     0.014 A 
ATOM     31  C   UNL A   1      36.784  29.440  29.903  1.00  0.00     0.010 A 
ATOM     32  C   UNL A   1      38.102  30.928  28.540  1.00  0.00     0.010 A 
ATOM     33  C   UNL A   1      38.045  29.888  29.478  1.00  0.00    -0.014 A 
BRANCH  33  34
ATOM     34  C   UNL A   1      39.298  29.270  30.002  1.00  0.00     0.031 A 
ATOM     35  C   UNL A   1      39.982  29.832  31.222  1.00  0.00     0.074 A 
ATOM     36  C   UNL A   1      39.844  28.220  29.354  1.00  0.00     0.049 A 
ATOM     37  N   UNL A   1      41.101  29.459  31.791  1.00  0.00    -0.248 NA
ATOM     38  C   UNL A   1      39.332  30.977  31.878  1.00  0.00     0.031 C 
ATOM     39  C   UNL A   1      39.298  27.601  28.144  1.00  0.00     0.029 A 
ATOM     40  N   UNL A   1      40.980  27.489  29.612  1.00  0.00    -0.354 N 
ATOM     41  C   UNL A   1      41.298  30.327  32.860  1.00  0.00     0.074 A 
ATOM     42  C   UNL A   1      40.205  31.277  32.830  1.00  0.00     0.031 C 
ATOM     43  C   UNL A   1      40.081  26.572  27.783  1.00  0.00     0.029 A 
ATOM     44  C   UNL A   1      41.217  26.489  28.695  1.00  0.00     0.049 A 
ATOM     45  H   UNL A   1      41.569  27.664  30.382  1.00  0.00     0.167 HD
ATOM     46  C   UNL A   1      42.286  30.322  33.790  1.00  0.00     0.034 A 
ATOM     47  C   UNL A   1      42.242  25.620  28.585  1.00  0.00     0.034 A 
ATOM     48  C   UNL A   1      43.365  29.363  33.815  1.00  0.00     0.049 A 
ATOM     49  C   UNL A   1      43.350  25.663  29.607  1.00  0.00     0.074 A 
ATOM     50  C   UNL A   1      44.379  29.232  34.750  1.00  0.00     0.029 A 
ATOM     51  N   UNL A   1      43.582  28.380  32.858  1.00  0.00    -0.354 N 
ATOM     52  N   UNL A   1      43.486  26.455  30.646  1.00  0.00    -0.248 NA
ATOM     53  C   UNL A   1      44.441  24.692  29.447  1.00  0.00     0.031 C 
ATOM     54  C   UNL A   1      45.251  28.230  34.316  1.00  0.00     0.029 A 
ATOM     55  C   UNL A   1      44.739  27.672  33.156  1.00  0.00     0.049 A 
ATOM     56  H   UNL A   1      43.001  28.211  32.081  1.00  0.00     0.167 HD
ATOM     57  C   UNL A   1      44.664  26.060  31.273  1.00  0.00     0.074 A 
ATOM     58  C   UNL A   1      45.186  24.945  30.512  1.00  0.00     0.031 C 
ATOM     59  C   UNL A   1      45.262  26.572  32.379  1.00  0.00     0.034 A 
BRANCH  46  60
ATOM     60  C   UNL A   1      42.267  31.406  34.844  1.00  0.00     0.023 A 
ATOM     61  C   UNL A   1      41.270  31.463  35.835  1.00  0.00     0.031 A 
ATOM     62  C   UNL A   1      43.269  32.394  34.864  1.00  0.00     0.131 A 
ATOM     63  C   UNL A   1      41.264  32.516  36.763  1.00  0.00     0.055 A 
ATOM     64  C   UNL A   1      43.302  33.394  35.838  1.00  0.00     0.041 A 
ATOM     65  F   UNL A   1      44.237  32.403  33.934  1.00  0.00    -0.206 F 
ATOM     66  C   UNL A   1      42.287  33.466  36.788  1.00  0.00     0.022 A 
BRANCH  63  67
ATOM     67  S   UNL A   1      39.831  32.698  37.860  1.00  0.00     0.124 S 
ATOM     68  O   UNL A   1      38.974  31.603  37.412  1.00  0.00    -0.237 OA
ATOM     69  O   UNL A   1      40.425  32.546  39.183  1.00  0.00    -0.237 OA
ATOM     70  O   UNL A   1      39.331  34.037  37.552  1.00  0.00    -0.744 OA
ENDBRANCH  63  67
ENDBRANCH  46  60
BRANCH  47  71
ATOM     71  C   UNL A   1      42.297  24.652  27.447  1.00  0.00     0.023 A 
ATOM     72  C   UNL A   1      41.531  23.476  27.455  1.00  0.00     0.031 A 
ATOM     73  C   UNL A   1      43.167  24.863  26.360  1.00  0.00     0.131 A 
ATOM     74  C   UNL A   1      41.690  22.530  26.430  1.00  0.00     0.055 A 
ATOM     75  C   UNL A   1      43.272  23.950  25.310  1.00  0.00     0.041 A 
ATOM     76  F   UNL A   1      43.926  25.969  26.300  1.00  0.00    -0.206 F 
ATOM     77  C   UNL A   1      42.542  22.767  25.349  1.00  0.00     0.022 A 
BRANCH  74  78
ATOM     78  S   UNL A   1      40.846  20.931  26.584  1.00  0.00     0.124 S 
ATOM     79  O   UNL A   1      39.540  21.228  26.007  1.00  0.00    -0.237 OA
ATOM     80  O   UNL A   1      41.711  20.056  25.801  1.00  0.00    -0.237 OA
ATOM     81  O   UNL A   1      40.851  20.682  28.025  1.00  0.00    -0.744 OA
ENDBRANCH  74  78
ENDBRANCH  47  71
BRANCH  59  82
ATOM     82  C   UNL A   1      46.534  25.905  32.847  1.00  0.00     0.023 A 
ATOM     83  C   UNL A   1      46.513  24.823  33.743  1.00  0.00     0.031 A 
ATOM     84  C   UNL A   1      47.784  26.365  32.395  1.00  0.00     0.131 A 
ATOM     85  C   UNL A   1      47.719  24.273  34.205  1.00  0.00     0.055 A 
ATOM     86  C   UNL A   1      48.978  25.772  32.808  1.00  0.00     0.041 A 
ATOM     87  F   UNL A   1      47.865  27.399  31.543  1.00  0.00    -0.206 F 
ATOM     88  C   UNL A   1      48.952  24.728  33.727  1.00  0.00     0.022 A 
BRANCH  85  89
ATOM     89  S   UNL A   1      47.661  23.016  35.512  1.00  0.00     0.124 S 
ATOM     90  O   UNL A   1      48.569  21.999  34.994  1.00  0.00    -0.237 OA
ATOM     91  O   UNL A   1      48.131  23.756  36.679  1.00  0.00    -0.237 OA
ATOM     92  O   UNL A   1      46.252  22.628  35.552  1.00  0.00    -0.744 OA
ENDBRANCH  85  89
ENDBRANCH  59  82
ENDBRANCH  33  34
ENDBRANCH  25  28
ENDBRANCH  23  24
ENDBRANCH  22  23
ENDBRANCH   1  22
TORSDOF 18
ENDMDL
MODEL 2
REMARK VINA RESULT:     -10.3      4.300     10.353
REMARK SMILES CC[C@@H](C)CNC(=O)N1CCO[C@@H](CC(=O)NCCCNC(=O)c2ccc(-c3c4nc(c(-c5cc(S(=O)(=O)[O-])ccc5F)c5ccc([nH]5)c(-c5cc(S(=O)(=O)[O-])ccc5F)c5nc(c(-c6cc(S(=O)(=O)[O-])ccc6F)c6ccc3[nH]6)C=C5)C=C4)cc2)C1
REMARK SMILES IDX 18 1 17 2 15 3 16 4 14 6 13 7 9 8 10 9 87 10 11 11 12 12
REMARK SMILES IDX 7 13 6 14 8 16 5 17 3 18 4 19 2 20 1 21 19 22 20 23 21 24
REMARK SMILES IDX 22 25 23 27 24 28 25 29 86 30 26 31 85 32 27 33 28 34 29 35
REMARK SMILES IDX 79 36 30 37 84 38 78 39 80 40 31 41 83 42 77 43 76 44 32 46
REMARK SMILES IDX 64 47 44 48 63 49 45 50 48 51 62 52 81 53 46 54 47 55 61 57
REMARK SMILES IDX 82 58 49 59 33 60 34 61 42 62 35 63 41 64 43 65 40 66 36 67
REMARK SMILES IDX 37 68 38 69 39 70 65 71 66 72 74 73 67 74 73 75 75 76 72 77
REMARK SMILES IDX 68 78 69 79 70 80 71 81 50 82 51 83 59 84 52 85 58 86 60 87
REMARK SMILES IDX 57 88 53 89 54 90 55 91 56 92
REMARK H PARENT 17 5 6 15 21 26 80 45 48 56
REMARK Flexibility Score: inf
ROOT
ATOM      1  C   UNL A   1      31.391  30.741  25.888  1.00  0.00     0.117 C 
ENDROOT
BRANCH   1   2
ATOM      2  N   UNL A   1      30.692  30.709  24.605  1.00  0.00    -0.356 N 
ATOM      3  C   UNL A   1      30.255  29.670  23.835  1.00  0.00     0.222 C 
ATOM      4  O   UNL A   1      29.715  29.934  22.759  1.00  0.00    -0.275 OA
ATOM      5  H   UNL A   1      30.504  31.598  24.226  1.00  0.00     0.163 HD
BRANCH   3   6
ATOM      6  C   UNL A   1      30.437  28.230  24.269  1.00  0.00     0.133 C 
BRANCH   6   7
ATOM      7  C   UNL A   1      31.834  27.681  23.951  1.00  0.00     0.147 C 
ATOM      8  N   UNL A   1      33.037  26.362  22.194  1.00  0.00    -0.320 N 
ATOM      9  C   UNL A   1      33.859  27.534  21.914  1.00  0.00     0.150 C 
ATOM     10  C   UNL A   1      31.758  26.701  22.777  1.00  0.00     0.154 C 
ATOM     11  C   UNL A   1      33.988  28.372  23.186  1.00  0.00     0.182 C 
ATOM     12  O   UNL A   1      32.688  28.806  23.637  1.00  0.00    -0.374 OA
BRANCH   8  13
ATOM     13  C   UNL A   1      33.066  25.247  21.392  1.00  0.00     0.317 C 
ATOM     14  N   UNL A   1      33.161  24.034  21.985  1.00  0.00    -0.338 N 
ATOM     15  H   UNL A   1      33.388  23.287  21.386  1.00  0.00     0.165 HD
ATOM     16  O   UNL A   1      32.919  25.307  20.172  1.00  0.00    -0.249 OA
BRANCH  14  17
ATOM     17  C   UNL A   1      32.973  23.683  23.376  1.00  0.00     0.121 C 
BRANCH  17  18
ATOM     18  C   UNL A   1      34.299  23.478  24.135  1.00  0.00     0.005 C 
ATOM     19  C   UNL A   1      34.629  24.774  24.883  1.00  0.00     0.009 C 
BRANCH  18  20
ATOM     20  C   UNL A   1      35.416  23.051  23.160  1.00  0.00     0.002 C 
ATOM     21  C   UNL A   1      36.785  22.884  23.804  1.00  0.00     0.004 C 
ENDBRANCH  18  20
ENDBRANCH  17  18
ENDBRANCH  14  17
ENDBRANCH   8  13
ENDBRANCH   6   7
ENDBRANCH   3   6
ENDBRANCH   1   2
BRANCH   1  22
ATOM     22  C   UNL A   1      31.289  32.102  26.581  1.00  0.00     0.042 C 
BRANCH  22  23
ATOM     23  C   UNL A   1      32.569  32.603  27.234  1.00  0.00     0.118 C 
BRANCH  23  24
ATOM     24  N   UNL A   1      32.467  33.995  27.629  1.00  0.00    -0.352 N 
ATOM     25  C   UNL A   1      33.112  34.687  28.629  1.00  0.00     0.251 C 
ATOM     26  H   UNL A   1      31.835  34.531  27.097  1.00  0.00     0.163 HD
ATOM     27  O   UNL A   1      32.670  35.788  28.951  1.00  0.00    -0.269 OA
BRANCH  25  28
ATOM     28  C   UNL A   1      34.304  34.137  29.331  1.00  0.00     0.039 A 
ATOM     29  C   UNL A   1      34.097  33.267  30.409  1.00  0.00     0.014 A 
ATOM     30  C   UNL A   1      35.611  34.513  29.009  1.00  0.00     0.014 A 
ATOM     31  C   UNL A   1      35.186  32.739  31.114  1.00  0.00     0.010 A 
ATOM     32  C   UNL A   1      36.700  33.924  29.660  1.00  0.00     0.010 A 
ATOM     33  C   UNL A   1      36.502  33.032  30.724  1.00  0.00    -0.014 A 
BRANCH  33  34
ATOM     34  C   UNL A   1      37.667  32.407  31.415  1.00  0.00     0.031 A 
ATOM     35  C   UNL A   1      38.420  31.267  30.776  1.00  0.00     0.074 A 
ATOM     36  C   UNL A   1      38.026  32.841  32.641  1.00  0.00     0.049 A 
ATOM     37  N   UNL A   1      39.424  30.569  31.247  1.00  0.00    -0.248 NA
ATOM     38  C   UNL A   1      37.975  30.844  29.439  1.00  0.00     0.031 C 
ATOM     39  C   UNL A   1      37.361  33.914  33.382  1.00  0.00     0.029 A 
ATOM     40  N   UNL A   1      39.032  32.434  33.486  1.00  0.00    -0.354 N 
ATOM     41  C   UNL A   1      39.721  29.619  30.275  1.00  0.00     0.074 A 
ATOM     42  C   UNL A   1      38.759  29.800  29.209  1.00  0.00     0.031 C 
ATOM     43  C   UNL A   1      37.990  34.098  34.553  1.00  0.00     0.029 A 
ATOM     44  C   UNL A   1      39.066  33.120  34.679  1.00  0.00     0.049 A 
ATOM     45  H   UNL A   1      39.669  31.717  33.259  1.00  0.00     0.167 HD
ATOM     46  C   UNL A   1      40.715  28.694  30.265  1.00  0.00     0.034 A 
ATOM     47  C   UNL A   1      39.856  32.968  35.761  1.00  0.00     0.034 A 
ATOM     48  C   UNL A   1      41.675  28.530  31.331  1.00  0.00     0.049 A 
ATOM     49  C   UNL A   1      40.925  31.904  35.742  1.00  0.00     0.074 A 
ATOM     50  C   UNL A   1      42.756  27.667  31.390  1.00  0.00     0.029 A 
ATOM     51  N   UNL A   1      41.663  29.229  32.531  1.00  0.00    -0.354 N 
ATOM     52  N   UNL A   1      41.228  31.054  34.787  1.00  0.00    -0.248 NA
ATOM     53  C   UNL A   1      41.763  31.780  36.942  1.00  0.00     0.031 C 
ATOM     54  C   UNL A   1      43.346  27.785  32.651  1.00  0.00     0.029 A 
ATOM     55  C   UNL A   1      42.690  28.783  33.352  1.00  0.00     0.049 A 
ATOM     56  H   UNL A   1      41.020  29.937  32.765  1.00  0.00     0.167 HD
ATOM     57  C   UNL A   1      42.306  30.313  35.265  1.00  0.00     0.074 A 
ATOM     58  C   UNL A   1      42.615  30.834  36.580  1.00  0.00     0.031 C 
ATOM     59  C   UNL A   1      42.979  29.296  34.671  1.00  0.00     0.034 A 
BRANCH  46  60
ATOM     60  C   UNL A   1      40.798  27.764  29.077  1.00  0.00     0.023 A 
ATOM     61  C   UNL A   1      41.718  27.970  28.033  1.00  0.00     0.031 A 
ATOM     62  C   UNL A   1      39.949  26.644  28.991  1.00  0.00     0.131 A 
ATOM     63  C   UNL A   1      41.726  27.108  26.925  1.00  0.00     0.055 A 
ATOM     64  C   UNL A   1      40.016  25.746  27.923  1.00  0.00     0.041 A 
ATOM     65  F   UNL A   1      39.037  26.404  29.947  1.00  0.00    -0.206 F 
ATOM     66  C   UNL A   1      40.900  25.983  26.876  1.00  0.00     0.022 A 
BRANCH  63  67
ATOM     67  S   UNL A   1      42.745  27.548  25.491  1.00  0.00     0.124 S 
ATOM     68  O   UNL A   1      42.066  28.745  25.001  1.00  0.00    -0.237 OA
ATOM     69  O   UNL A   1      44.059  27.758  26.089  1.00  0.00    -0.237 OA
ATOM     70  O   UNL A   1      42.636  26.378  24.620  1.00  0.00    -0.744 OA
ENDBRANCH  63  67
ENDBRANCH  46  60
BRANCH  47  71
ATOM     71  C   UNL A   1      39.653  33.816  36.975  1.00  0.00     0.023 A 
ATOM     72  C   UNL A   1      39.038  33.302  38.127  1.00  0.00     0.031 A 
ATOM     73  C   UNL A   1      40.018  35.175  36.977  1.00  0.00     0.131 A 
ATOM     74  C   UNL A   1      38.756  34.151  39.209  1.00  0.00     0.055 A 
ATOM     75  C   UNL A   1      39.795  35.999  38.080  1.00  0.00     0.041 A 
ATOM     76  F   UNL A   1      40.608  35.723  35.901  1.00  0.00    -0.206 F 
ATOM     77  C   UNL A   1      39.145  35.492  39.200  1.00  0.00     0.022 A 
BRANCH  74  78
ATOM     78  S   UNL A   1      37.771  33.503  40.588  1.00  0.00     0.124 S 
ATOM     79  O   UNL A   1      37.581  34.698  41.403  1.00  0.00    -0.237 OA
ATOM     80  O   UNL A   1      36.587  32.996  39.904  1.00  0.00    -0.237 OA
ATOM     81  O   UNL A   1      38.637  32.479  41.173  1.00  0.00    -0.744 OA
ENDBRANCH  74  78
ENDBRANCH  47  71
BRANCH  59  82
ATOM     82  C   UNL A   1      44.140  28.701  35.433  1.00  0.00     0.023 A 
ATOM     83  C   UNL A   1      43.965  27.637  36.335  1.00  0.00     0.031 A 
ATOM     84  C   UNL A   1      45.439  29.214  35.261  1.00  0.00     0.131 A 
ATOM     85  C   UNL A   1      45.058  27.157  37.073  1.00  0.00     0.055 A 
ATOM     86  C   UNL A   1      46.534  28.689  35.950  1.00  0.00     0.041 A 
ATOM     87  F   UNL A   1      45.666  30.233  34.417  1.00  0.00    -0.206 F 
ATOM     88  C   UNL A   1      46.345  27.664  36.871  1.00  0.00     0.022 A 
BRANCH  85  89
ATOM     89  S   UNL A   1      44.760  25.926  38.371  1.00  0.00     0.124 S 
ATOM     90  O   UNL A   1      43.968  24.925  37.663  1.00  0.00    -0.237 OA
ATOM     91  O   UNL A   1      46.115  25.524  38.737  1.00  0.00    -0.237 OA
ATOM     92  O   UNL A   1      44.039  26.676  39.397  1.00  0.00    -0.744 OA
ENDBRANCH  85  89
ENDBRANCH  59  82
ENDBRANCH  33  34
ENDBRANCH  25  28
ENDBRANCH  23  24
ENDBRANCH  22  23
ENDBRANCH   1  22
TORSDOF 18
ENDMDL
MODEL 3
REMARK VINA RESULT:     -10.0      4.465     10.523
REMARK SMILES CC[C@@H](C)CNC(=O)N1CCO[C@@H](CC(=O)NCCCNC(=O)c2ccc(-c3c4nc(c(-c5cc(S(=O)(=O)[O-])ccc5F)c5ccc([nH]5)c(-c5cc(S(=O)(=O)[O-])ccc5F)c5nc(c(-c6cc(S(=O)(=O)[O-])ccc6F)c6ccc3[nH]6)C=C5)C=C4)cc2)C1
REMARK SMILES IDX 18 1 17 2 15 3 16 4 14 6 13 7 9 8 10 9 87 10 11 11 12 12
REMARK SMILES IDX 7 13 6 14 8 16 5 17 3 18 4 19 2 20 1 21 19 22 20 23 21 24
REMARK SMILES IDX 22 25 23 27 24 28 25 29 86 30 26 31 85 32 27 33 28 34 29 35
REMARK SMILES IDX 79 36 30 37 84 38 78 39 80 40 31 41 83 42 77 43 76 44 32 46
REMARK SMILES IDX 64 47 44 48 63 49 45 50 48 51 62 52 81 53 46 54 47 55 61 57
REMARK SMILES IDX 82 58 49 59 33 60 34 61 42 62 35 63 41 64 43 65 40 66 36 67
REMARK SMILES IDX 37 68 38 69 39 70 65 71 66 72 74 73 67 74 73 75 75 76 72 77
REMARK SMILES IDX 68 78 69 79 70 80 71 81 50 82 51 83 59 84 52 85 58 86 60 87
REMARK SMILES IDX 57 88 53 89 54 90 55 91 56 92
REMARK H PARENT 17 5 6 15 21 26 80 45 48 56
REMARK Flexibility Score: inf
ROOT
ATOM      1  C   UNL A   1      31.409  30.260  25.985  1.00  0.00     0.117 C 
ENDROOT
BRANCH   1   2
ATOM      2  N   UNL A   1      32.365  29.987  24.914  1.00  0.00    -0.356 N 
ATOM      3  C   UNL A   1      33.181  28.919  24.676  1.00  0.00     0.222 C 
ATOM      4  O   UNL A   1      33.926  28.966  23.695  1.00  0.00    -0.275 OA
ATOM      5  H   UNL A   1      32.435  30.705  24.243  1.00  0.00     0.163 HD
BRANCH   3   6
ATOM      6  C   UNL A   1      33.193  27.710  25.590  1.00  0.00     0.133 C 
BRANCH   6   7
ATOM      7  C   UNL A   1      32.677  26.438  24.905  1.00  0.00     0.147 C 
ATOM      8  N   UNL A   1      31.319  24.392  25.401  1.00  0.00    -0.320 N 
ATOM      9  C   UNL A   1      30.328  24.848  24.433  1.00  0.00     0.150 C 
ATOM     10  C   UNL A   1      32.105  25.475  25.949  1.00  0.00     0.154 C 
ATOM     11  C   UNL A   1      31.023  25.682  23.358  1.00  0.00     0.182 C 
ATOM     12  O   UNL A   1      31.665  26.831  23.949  1.00  0.00    -0.374 OA
BRANCH   8  13
ATOM     13  C   UNL A   1      31.083  23.327  26.235  1.00  0.00     0.317 C 
ATOM     14  N   UNL A   1      31.532  22.107  25.858  1.00  0.00    -0.338 N 
ATOM     15  H   UNL A   1      31.168  21.346  26.366  1.00  0.00     0.165 HD
ATOM     16  O   UNL A   1      30.564  23.457  27.342  1.00  0.00    -0.249 OA
BRANCH  14  17
ATOM     17  C   UNL A   1      32.473  21.766  24.814  1.00  0.00     0.121 C 
BRANCH  17  18
ATOM     18  C   UNL A   1      32.913  20.288  24.850  1.00  0.00     0.005 C 
ATOM     19  C   UNL A   1      34.443  20.245  24.924  1.00  0.00     0.009 C 
BRANCH  18  20
ATOM     20  C   UNL A   1      32.353  19.531  23.629  1.00  0.00     0.002 C 
ATOM     21  C   UNL A   1      32.718  18.053  23.581  1.00  0.00     0.004 C 
ENDBRANCH  18  20
ENDBRANCH  17  18
ENDBRANCH  14  17
ENDBRANCH   8  13
ENDBRANCH   6   7
ENDBRANCH   3   6
ENDBRANCH   1   2
BRANCH   1  22
ATOM     22  C   UNL A   1      31.389  31.735  26.395  1.00  0.00     0.042 C 
BRANCH  22  23
ATOM     23  C   UNL A   1      32.637  32.235  27.109  1.00  0.00     0.118 C 
BRANCH  23  24
ATOM     24  N   UNL A   1      32.523  33.631  27.485  1.00  0.00    -0.352 N 
ATOM     25  C   UNL A   1      33.167  34.343  28.472  1.00  0.00     0.251 C 
ATOM     26  H   UNL A   1      31.883  34.153  26.949  1.00  0.00     0.163 HD
ATOM     27  O   UNL A   1      32.716  35.444  28.781  1.00  0.00    -0.269 OA
BRANCH  25  28
ATOM     28  C   UNL A   1      34.369  33.815  29.175  1.00  0.00     0.039 A 
ATOM     29  C   UNL A   1      34.182  32.864  30.185  1.00  0.00     0.014 A 
ATOM     30  C   UNL A   1      35.660  34.285  28.920  1.00  0.00     0.014 A 
ATOM     31  C   UNL A   1      35.280  32.351  30.889  1.00  0.00     0.010 A 
ATOM     32  C   UNL A   1      36.763  33.715  29.566  1.00  0.00     0.010 A 
ATOM     33  C   UNL A   1      36.587  32.743  30.561  1.00  0.00    -0.014 A 
BRANCH  33  34
ATOM     34  C   UNL A   1      37.767  32.139  31.247  1.00  0.00     0.031 A 
ATOM     35  C   UNL A   1      38.529  31.004  30.611  1.00  0.00     0.074 A 
ATOM     36  C   UNL A   1      38.131  32.588  32.466  1.00  0.00     0.049 A 
ATOM     37  N   UNL A   1      39.545  30.322  31.078  1.00  0.00    -0.248 NA
ATOM     38  C   UNL A   1      38.077  30.564  29.282  1.00  0.00     0.031 C 
ATOM     39  C   UNL A   1      37.458  33.659  33.204  1.00  0.00     0.029 A 
ATOM     40  N   UNL A   1      39.149  32.201  33.305  1.00  0.00    -0.354 N 
ATOM     41  C   UNL A   1      39.846  29.368  30.112  1.00  0.00     0.074 A 
ATOM     42  C   UNL A   1      38.872  29.528  29.053  1.00  0.00     0.031 C 
ATOM     43  C   UNL A   1      38.096  33.860  34.368  1.00  0.00     0.029 A 
ATOM     44  C   UNL A   1      39.185  32.898  34.492  1.00  0.00     0.049 A 
ATOM     45  H   UNL A   1      39.793  31.491  33.078  1.00  0.00     0.167 HD
ATOM     46  C   UNL A   1      40.851  28.457  30.100  1.00  0.00     0.034 A 
ATOM     47  C   UNL A   1      39.987  32.765  35.568  1.00  0.00     0.034 A 
ATOM     48  C   UNL A   1      41.823  28.313  31.159  1.00  0.00     0.049 A 
ATOM     49  C   UNL A   1      41.070  31.715  35.548  1.00  0.00     0.074 A 
ATOM     50  C   UNL A   1      42.916  27.465  31.215  1.00  0.00     0.029 A 
ATOM     51  N   UNL A   1      41.813  29.023  32.353  1.00  0.00    -0.354 N 
ATOM     52  N   UNL A   1      41.375  30.861  34.597  1.00  0.00    -0.248 NA
ATOM     53  C   UNL A   1      41.920  31.613  36.741  1.00  0.00     0.031 C 
ATOM     54  C   UNL A   1      43.516  27.601  32.470  1.00  0.00     0.029 A 
ATOM     55  C   UNL A   1      42.853  28.597  33.169  1.00  0.00     0.049 A 
ATOM     56  H   UNL A   1      41.163  29.724  32.587  1.00  0.00     0.167 HD
ATOM     57  C   UNL A   1      42.466  30.138  35.072  1.00  0.00     0.074 A 
ATOM     58  C   UNL A   1      42.781  30.674  36.380  1.00  0.00     0.031 C 
ATOM     59  C   UNL A   1      43.148  29.124  34.481  1.00  0.00     0.034 A 
BRANCH  46  60
ATOM     60  C   UNL A   1      40.936  27.517  28.919  1.00  0.00     0.023 A 
ATOM     61  C   UNL A   1      41.889  27.687  27.899  1.00  0.00     0.031 A 
ATOM     62  C   UNL A   1      40.054  26.424  28.816  1.00  0.00     0.131 A 
ATOM     63  C   UNL A   1      41.899  26.820  26.796  1.00  0.00     0.055 A 
ATOM     64  C   UNL A   1      40.120  25.519  27.756  1.00  0.00     0.041 A 
ATOM     65  F   UNL A   1      39.110  26.219  29.749  1.00  0.00    -0.206 F 
ATOM     66  C   UNL A   1      41.039  25.721  26.730  1.00  0.00     0.022 A 
BRANCH  63  67
ATOM     67  S   UNL A   1      42.968  27.219  25.387  1.00  0.00     0.124 S 
ATOM     68  O   UNL A   1      44.204  27.617  26.056  1.00  0.00    -0.237 OA
ATOM     69  O   UNL A   1      43.015  25.956  24.658  1.00  0.00    -0.237 OA
ATOM     70  O   UNL A   1      42.257  28.302  24.711  1.00  0.00    -0.744 OA
ENDBRANCH  63  67
ENDBRANCH  46  60
BRANCH  47  71
ATOM     71  C   UNL A   1      39.784  33.621  36.776  1.00  0.00     0.023 A 
ATOM     72  C   UNL A   1      39.145  33.122  37.923  1.00  0.00     0.031 A 
ATOM     73  C   UNL A   1      40.174  34.974  36.778  1.00  0.00     0.131 A 
ATOM     74  C   UNL A   1      38.865  33.979  38.998  1.00  0.00     0.055 A 
ATOM     75  C   UNL A   1      39.951  35.805  37.877  1.00  0.00     0.041 A 
ATOM     76  F   UNL A   1      40.786  35.507  35.709  1.00  0.00    -0.206 F 
ATOM     77  C   UNL A   1      39.278  35.313  38.989  1.00  0.00     0.022 A 
BRANCH  74  78
ATOM     78  S   UNL A   1      37.851  33.354  40.367  1.00  0.00     0.124 S 
ATOM     79  O   UNL A   1      38.779  32.448  41.032  1.00  0.00    -0.237 OA
ATOM     80  O   UNL A   1      37.523  34.580  41.085  1.00  0.00    -0.237 OA
ATOM     81  O   UNL A   1      36.726  32.710  39.690  1.00  0.00    -0.744 OA
ENDBRANCH  74  78
ENDBRANCH  47  71
BRANCH  59  82
ATOM     82  C   UNL A   1      44.323  28.552  35.237  1.00  0.00     0.023 A 
ATOM     83  C   UNL A   1      44.197  27.405  36.040  1.00  0.00     0.031 A 
ATOM     84  C   UNL A   1      45.585  29.168  35.159  1.00  0.00     0.131 A 
ATOM     85  C   UNL A   1      45.297  26.943  36.779  1.00  0.00     0.055 A 
ATOM     86  C   UNL A   1      46.692  28.666  35.845  1.00  0.00     0.041 A 
ATOM     87  F   UNL A   1      45.764  30.269  34.412  1.00  0.00    -0.206 F 
ATOM     88  C   UNL A   1      46.549  27.555  36.672  1.00  0.00     0.022 A 
BRANCH  85  89
ATOM     89  S   UNL A   1      45.048  25.588  37.959  1.00  0.00     0.124 S 
ATOM     90  O   UNL A   1      45.257  26.258  39.238  1.00  0.00    -0.237 OA
ATOM     91  O   UNL A   1      43.678  25.173  37.673  1.00  0.00    -0.237 OA
ATOM     92  O   UNL A   1      46.077  24.618  37.589  1.00  0.00    -0.744 OA
ENDBRANCH  85  89
ENDBRANCH  59  82
ENDBRANCH  33  34
ENDBRANCH  25  28
ENDBRANCH  23  24
ENDBRANCH  22  23
ENDBRANCH   1  22
TORSDOF 18
ENDMDL
