MODEL 1
REMARK VINA RESULT:     -12.6      0.000      0.000
REMARK SMILES Cc1nn(-c2cccc(C(F)(F)F)c2)c(C)c1CC(=O)NCCCNC(=O)c1ccc(-c2c3nc(c(-c4cc(S(=O)(=O)[O-])ccc4F)c4ccc([nH]4)c(-c4cc(S(=O)(=O)[O-])ccc4F)c4nc(c(-c5cc(S(=O)(=O)[O-])ccc5F)c5ccc2[nH]5)C=C4)C=C3)cc1
REMARK SMILES IDX 23 1 22 2 21 3 19 4 20 5 18 7 17 8 1 9 2 10 3 11 4 12 15 13
REMARK SMILES IDX 16 14 5 15 6 16 14 17 7 18 9 19 8 20 10 21 11 22 12 23 13 24
REMARK SMILES IDX 24 25 25 26 26 27 27 29 28 30 29 31 90 32 30 33 89 34 31 35
REMARK SMILES IDX 32 36 33 37 83 38 34 39 88 40 82 41 84 42 35 43 87 44 81 45
REMARK SMILES IDX 80 46 36 48 68 49 48 50 67 51 49 52 52 53 66 54 85 55 50 56
REMARK SMILES IDX 51 57 65 59 86 60 53 61 37 62 38 63 46 64 39 65 45 66 47 67
REMARK SMILES IDX 44 68 40 69 41 70 42 71 43 72 69 73 70 74 78 75 71 76 77 77
REMARK SMILES IDX 79 78 76 79 72 80 73 81 74 82 75 83 54 84 55 85 63 86 56 87
REMARK SMILES IDX 62 88 64 89 61 90 57 91 58 92 59 93 60 94
REMARK H PARENT 21 6 25 28 84 47 52 58
REMARK Flexibility Score: inf
ROOT
ATOM      1  C   UNL A   1      37.293  20.197  24.820  1.00  0.00     0.042 C 
ENDROOT
BRANCH   1   2
ATOM      2  C   UNL A   1      36.217  21.285  24.828  1.00  0.00     0.117 C 
BRANCH   2   3
ATOM      3  N   UNL A   1      35.785  21.673  26.160  1.00  0.00    -0.356 N 
ATOM      4  C   UNL A   1      34.574  22.167  26.556  1.00  0.00     0.224 C 
ATOM      5  O   UNL A   1      34.369  22.346  27.758  1.00  0.00    -0.275 OA
ATOM      6  H   UNL A   1      36.455  21.566  26.873  1.00  0.00     0.163 HD
BRANCH   4   7
ATOM      7  C   UNL A   1      33.505  22.467  25.518  1.00  0.00     0.139 C 
BRANCH   7   8
ATOM      8  C   UNL A   1      32.700  23.675  25.869  1.00  0.00     0.006 A 
ATOM      9  C   UNL A   1      30.636  22.625  27.091  1.00  0.00     0.069 C 
ATOM     10  C   UNL A   1      31.473  23.743  26.583  1.00  0.00     0.064 A 
ATOM     11  N   UNL A   1      31.077  25.007  26.773  1.00  0.00    -0.173 NA
ATOM     12  N   UNL A   1      31.946  25.751  26.049  1.00  0.00    -0.238 N 
ATOM     13  C   UNL A   1      33.005  24.996  25.583  1.00  0.00     0.045 A 
ATOM     14  C   UNL A   1      34.230  25.590  24.974  1.00  0.00     0.067 C 
BRANCH  12  15
ATOM     15  C   UNL A   1      31.744  27.138  25.869  1.00  0.00     0.065 A 
ATOM     16  C   UNL A   1      32.338  28.037  26.756  1.00  0.00     0.028 A 
ATOM     17  C   UNL A   1      31.004  27.598  24.772  1.00  0.00     0.041 A 
ATOM     18  C   UNL A   1      32.272  29.404  26.486  1.00  0.00     0.003 A 
ATOM     19  C   UNL A   1      30.890  28.972  24.525  1.00  0.00     0.058 A 
ATOM     20  C   UNL A   1      31.559  29.868  25.375  1.00  0.00     0.013 A 
BRANCH  19  21
ATOM     21  C   UNL A   1      30.075  29.489  23.361  1.00  0.00     0.416 C 
ATOM     22  F   UNL A   1      30.853  29.809  22.291  1.00  0.00    -0.166 F 
ATOM     23  F   UNL A   1      29.176  28.572  22.916  1.00  0.00    -0.166 F 
ATOM     24  F   UNL A   1      29.364  30.610  23.660  1.00  0.00    -0.166 F 
ENDBRANCH  19  21
ENDBRANCH  12  15
ENDBRANCH   7   8
ENDBRANCH   4   7
ENDBRANCH   2   3
ENDBRANCH   1   2
BRANCH   1  25
ATOM     25  C   UNL A   1      38.538  20.605  25.583  1.00  0.00     0.118 C 
BRANCH  25  26
ATOM     26  N   UNL A   1      39.526  19.528  25.689  1.00  0.00    -0.352 N 
ATOM     27  C   UNL A   1      40.879  19.636  25.943  1.00  0.00     0.251 C 
ATOM     28  H   UNL A   1      39.183  18.614  25.563  1.00  0.00     0.163 HD
ATOM     29  O   UNL A   1      41.633  18.698  25.670  1.00  0.00    -0.269 OA
BRANCH  27  30
ATOM     30  C   UNL A   1      41.402  20.881  26.532  1.00  0.00     0.039 A 
ATOM     31  C   UNL A   1      41.797  21.966  25.746  1.00  0.00     0.014 A 
ATOM     32  C   UNL A   1      41.460  20.963  27.921  1.00  0.00     0.014 A 
ATOM     33  C   UNL A   1      42.172  23.150  26.381  1.00  0.00     0.010 A 
ATOM     34  C   UNL A   1      41.634  22.174  28.533  1.00  0.00     0.010 A 
ATOM     35  C   UNL A   1      42.065  23.253  27.780  1.00  0.00    -0.014 A 
BRANCH  35  36
ATOM     36  C   UNL A   1      42.264  24.520  28.476  1.00  0.00     0.031 A 
ATOM     37  C   UNL A   1      41.159  25.486  28.256  1.00  0.00     0.074 A 
ATOM     38  C   UNL A   1      43.227  24.728  29.405  1.00  0.00     0.049 A 
ATOM     39  N   UNL A   1      41.185  26.533  27.501  1.00  0.00    -0.248 NA
ATOM     40  C   UNL A   1      39.813  25.149  28.750  1.00  0.00     0.031 C 
ATOM     41  C   UNL A   1      44.203  23.772  29.941  1.00  0.00     0.029 A 
ATOM     42  N   UNL A   1      43.479  25.841  30.146  1.00  0.00    -0.354 N 
ATOM     43  C   UNL A   1      39.946  27.143  27.659  1.00  0.00     0.074 A 
ATOM     44  C   UNL A   1      39.087  26.136  28.218  1.00  0.00     0.031 C 
ATOM     45  C   UNL A   1      44.771  24.275  31.062  1.00  0.00     0.029 A 
ATOM     46  C   UNL A   1      44.334  25.649  31.233  1.00  0.00     0.049 A 
ATOM     47  H   UNL A   1      43.086  26.718  29.931  1.00  0.00     0.167 HD
ATOM     48  C   UNL A   1      39.830  28.498  27.576  1.00  0.00     0.034 A 
ATOM     49  C   UNL A   1      44.659  26.552  32.203  1.00  0.00     0.034 A 
ATOM     50  C   UNL A   1      41.020  29.074  26.977  1.00  0.00     0.049 A 
ATOM     51  C   UNL A   1      44.396  27.893  31.622  1.00  0.00     0.074 A 
ATOM     52  C   UNL A   1      41.679  28.893  25.775  1.00  0.00     0.029 A 
ATOM     53  N   UNL A   1      41.943  29.663  27.816  1.00  0.00    -0.354 N 
ATOM     54  N   UNL A   1      45.065  28.367  30.604  1.00  0.00    -0.248 NA
ATOM     55  C   UNL A   1      43.073  28.467  31.814  1.00  0.00     0.031 C 
ATOM     56  C   UNL A   1      43.065  28.886  26.119  1.00  0.00     0.029 A 
ATOM     57  C   UNL A   1      43.183  29.173  27.481  1.00  0.00     0.049 A 
ATOM     58  H   UNL A   1      41.749  30.318  28.525  1.00  0.00     0.167 HD
ATOM     59  C   UNL A   1      44.105  28.939  29.783  1.00  0.00     0.074 A 
ATOM     60  C   UNL A   1      42.909  29.049  30.621  1.00  0.00     0.031 C 
ATOM     61  C   UNL A   1      44.272  28.998  28.426  1.00  0.00     0.034 A 
BRANCH  48  62
ATOM     62  C   UNL A   1      38.859  29.337  28.383  1.00  0.00     0.023 A 
ATOM     63  C   UNL A   1      39.063  29.377  29.775  1.00  0.00     0.031 A 
ATOM     64  C   UNL A   1      37.618  29.840  27.934  1.00  0.00     0.131 A 
ATOM     65  C   UNL A   1      38.033  29.765  30.648  1.00  0.00     0.055 A 
ATOM     66  C   UNL A   1      36.619  30.289  28.803  1.00  0.00     0.041 A 
ATOM     67  F   UNL A   1      37.254  29.846  26.647  1.00  0.00    -0.206 F 
ATOM     68  C   UNL A   1      36.808  30.219  30.171  1.00  0.00     0.022 A 
BRANCH  65  69
ATOM     69  S   UNL A   1      38.264  29.481  32.420  1.00  0.00     0.124 S 
ATOM     70  O   UNL A   1      37.103  28.656  32.736  1.00  0.00    -0.237 OA
ATOM     71  O   UNL A   1      39.560  28.811  32.450  1.00  0.00    -0.237 OA
ATOM     72  O   UNL A   1      38.247  30.829  32.983  1.00  0.00    -0.744 OA
ENDBRANCH  65  69
ENDBRANCH  48  62
BRANCH  49  73
ATOM     73  C   UNL A   1      44.828  26.309  33.670  1.00  0.00     0.023 A 
ATOM     74  C   UNL A   1      43.808  26.538  34.627  1.00  0.00     0.031 A 
ATOM     75  C   UNL A   1      45.952  25.582  34.120  1.00  0.00     0.131 A 
ATOM     76  C   UNL A   1      43.940  26.046  35.953  1.00  0.00     0.055 A 
ATOM     77  C   UNL A   1      46.074  25.094  35.424  1.00  0.00     0.041 A 
ATOM     78  F   UNL A   1      46.941  25.243  33.277  1.00  0.00    -0.206 F 
ATOM     79  C   UNL A   1      45.063  25.314  36.344  1.00  0.00     0.022 A 
BRANCH  76  80
ATOM     80  S   UNL A   1      42.613  26.279  37.189  1.00  0.00     0.124 S 
ATOM     81  O   UNL A   1      42.011  27.538  36.766  1.00  0.00    -0.237 OA
ATOM     82  O   UNL A   1      41.803  25.080  37.014  1.00  0.00    -0.237 OA
ATOM     83  O   UNL A   1      43.337  26.345  38.461  1.00  0.00    -0.744 OA
ENDBRANCH  76  80
ENDBRANCH  49  73
BRANCH  61  84
ATOM     84  C   UNL A   1      45.642  28.685  27.848  1.00  0.00     0.023 A 
ATOM     85  C   UNL A   1      46.097  27.405  27.449  1.00  0.00     0.031 A 
ATOM     86  C   UNL A   1      46.483  29.781  27.584  1.00  0.00     0.131 A 
ATOM     87  C   UNL A   1      47.354  27.265  26.821  1.00  0.00     0.055 A 
ATOM     88  C   UNL A   1      47.712  29.642  26.942  1.00  0.00     0.041 A 
ATOM     89  F   UNL A   1      46.102  31.026  27.917  1.00  0.00    -0.206 F 
ATOM     90  C   UNL A   1      48.155  28.382  26.563  1.00  0.00     0.022 A 
BRANCH  87  91
ATOM     91  S   UNL A   1      47.994  25.623  26.347  1.00  0.00     0.124 S 
ATOM     92  O   UNL A   1      46.791  24.808  26.229  1.00  0.00    -0.237 OA
ATOM     93  O   UNL A   1      48.701  25.906  25.100  1.00  0.00    -0.237 OA
ATOM     94  O   UNL A   1      48.866  25.260  27.467  1.00  0.00    -0.744 OA
ENDBRANCH  87  91
ENDBRANCH  61  84
ENDBRANCH  35  36
ENDBRANCH  27  30
ENDBRANCH  25  26
ENDBRANCH   1  25
TORSDOF 16
ENDMDL
MODEL 2
REMARK VINA RESULT:     -12.5      3.894      7.954
REMARK SMILES Cc1nn(-c2cccc(C(F)(F)F)c2)c(C)c1CC(=O)NCCCNC(=O)c1ccc(-c2c3nc(c(-c4cc(S(=O)(=O)[O-])ccc4F)c4ccc([nH]4)c(-c4cc(S(=O)(=O)[O-])ccc4F)c4nc(c(-c5cc(S(=O)(=O)[O-])ccc5F)c5ccc2[nH]5)C=C4)C=C3)cc1
REMARK SMILES IDX 23 1 22 2 21 3 19 4 20 5 18 7 17 8 1 9 2 10 3 11 4 12 15 13
REMARK SMILES IDX 16 14 5 15 6 16 14 17 7 18 9 19 8 20 10 21 11 22 12 23 13 24
REMARK SMILES IDX 24 25 25 26 26 27 27 29 28 30 29 31 90 32 30 33 89 34 31 35
REMARK SMILES IDX 32 36 33 37 83 38 34 39 88 40 82 41 84 42 35 43 87 44 81 45
REMARK SMILES IDX 80 46 36 48 68 49 48 50 67 51 49 52 52 53 66 54 85 55 50 56
REMARK SMILES IDX 51 57 65 59 86 60 53 61 37 62 38 63 46 64 39 65 45 66 47 67
REMARK SMILES IDX 44 68 40 69 41 70 42 71 43 72 69 73 70 74 78 75 71 76 77 77
REMARK SMILES IDX 79 78 76 79 72 80 73 81 74 82 75 83 54 84 55 85 63 86 56 87
REMARK SMILES IDX 62 88 64 89 61 90 57 91 58 92 59 93 60 94
REMARK H PARENT 21 6 25 28 84 47 52 58
REMARK Flexibility Score: inf
ROOT
ATOM      1  C   UNL A   1      33.876  28.939  26.205  1.00  0.00     0.042 C 
ENDROOT
BRANCH   1   2
ATOM      2  C   UNL A   1      33.141  29.562  25.016  1.00  0.00     0.117 C 
BRANCH   2   3
ATOM      3  N   UNL A   1      33.799  29.341  23.739  1.00  0.00    -0.356 N 
ATOM      4  C   UNL A   1      33.555  28.370  22.809  1.00  0.00     0.224 C 
ATOM      5  O   UNL A   1      34.160  28.410  21.736  1.00  0.00    -0.275 OA
ATOM      6  H   UNL A   1      34.516  29.976  23.514  1.00  0.00     0.163 HD
BRANCH   4   7
ATOM      7  C   UNL A   1      32.539  27.280  23.104  1.00  0.00     0.139 C 
BRANCH   7   8
ATOM      8  C   UNL A   1      33.091  25.913  22.865  1.00  0.00     0.006 A 
ATOM      9  C   UNL A   1      32.468  25.496  20.357  1.00  0.00     0.069 C 
ATOM     10  C   UNL A   1      33.090  25.156  21.662  1.00  0.00     0.064 A 
ATOM     11  N   UNL A   1      33.741  23.996  21.804  1.00  0.00    -0.173 NA
ATOM     12  N   UNL A   1      34.020  23.918  23.126  1.00  0.00    -0.238 N 
ATOM     13  C   UNL A   1      33.747  25.105  23.779  1.00  0.00     0.045 A 
ATOM     14  C   UNL A   1      34.184  25.390  25.176  1.00  0.00     0.067 C 
BRANCH  12  15
ATOM     15  C   UNL A   1      34.562  22.741  23.689  1.00  0.00     0.065 A 
ATOM     16  C   UNL A   1      35.928  22.681  23.967  1.00  0.00     0.028 A 
ATOM     17  C   UNL A   1      33.718  21.672  24.017  1.00  0.00     0.041 A 
ATOM     18  C   UNL A   1      36.433  21.585  24.667  1.00  0.00     0.003 A 
ATOM     19  C   UNL A   1      34.229  20.546  24.675  1.00  0.00     0.058 A 
ATOM     20  C   UNL A   1      35.589  20.529  25.024  1.00  0.00     0.013 A 
BRANCH  19  21
ATOM     21  C   UNL A   1      33.338  19.372  25.015  1.00  0.00     0.416 C 
ATOM     22  F   UNL A   1      32.995  19.352  26.332  1.00  0.00    -0.166 F 
ATOM     23  F   UNL A   1      32.171  19.395  24.319  1.00  0.00    -0.166 F 
ATOM     24  F   UNL A   1      33.916  18.167  24.757  1.00  0.00    -0.166 F 
ENDBRANCH  19  21
ENDBRANCH  12  15
ENDBRANCH   7   8
ENDBRANCH   4   7
ENDBRANCH   2   3
ENDBRANCH   1   2
BRANCH   1  25
ATOM     25  C   UNL A   1      33.811  29.808  27.447  1.00  0.00     0.118 C 
BRANCH  25  26
ATOM     26  N   UNL A   1      34.238  31.189  27.205  1.00  0.00    -0.352 N 
ATOM     27  C   UNL A   1      35.375  31.821  27.667  1.00  0.00     0.251 C 
ATOM     28  H   UNL A   1      33.640  31.733  26.643  1.00  0.00     0.163 HD
ATOM     29  O   UNL A   1      35.434  33.054  27.671  1.00  0.00    -0.269 OA
BRANCH  27  30
ATOM     30  C   UNL A   1      36.501  31.008  28.157  1.00  0.00     0.039 A 
ATOM     31  C   UNL A   1      36.661  29.667  27.798  1.00  0.00     0.014 A 
ATOM     32  C   UNL A   1      37.441  31.632  28.973  1.00  0.00     0.014 A 
ATOM     33  C   UNL A   1      37.813  28.997  28.209  1.00  0.00     0.010 A 
ATOM     34  C   UNL A   1      38.654  31.041  29.205  1.00  0.00     0.010 A 
ATOM     35  C   UNL A   1      38.820  29.702  28.895  1.00  0.00    -0.014 A 
BRANCH  35  36
ATOM     36  C   UNL A   1      40.119  29.104  29.182  1.00  0.00     0.031 A 
ATOM     37  C   UNL A   1      40.375  28.934  30.634  1.00  0.00     0.074 A 
ATOM     38  C   UNL A   1      40.919  28.550  28.240  1.00  0.00     0.049 A 
ATOM     39  N   UNL A   1      41.160  29.647  31.370  1.00  0.00    -0.248 NA
ATOM     40  C   UNL A   1      39.514  28.020  31.403  1.00  0.00     0.031 C 
ATOM     41  C   UNL A   1      40.663  28.379  26.805  1.00  0.00     0.029 A 
ATOM     42  N   UNL A   1      42.120  27.929  28.392  1.00  0.00    -0.354 N 
ATOM     43  C   UNL A   1      41.108  29.079  32.637  1.00  0.00     0.074 A 
ATOM     44  C   UNL A   1      39.920  28.271  32.650  1.00  0.00     0.031 C 
ATOM     45  C   UNL A   1      41.557  27.510  26.279  1.00  0.00     0.029 A 
ATOM     46  C   UNL A   1      42.553  27.192  27.288  1.00  0.00     0.049 A 
ATOM     47  H   UNL A   1      42.647  27.994  29.222  1.00  0.00     0.167 HD
ATOM     48  C   UNL A   1      42.201  29.108  33.450  1.00  0.00     0.034 A 
ATOM     49  C   UNL A   1      43.646  26.381  27.206  1.00  0.00     0.034 A 
ATOM     50  C   UNL A   1      43.174  30.068  32.960  1.00  0.00     0.049 A 
ATOM     51  C   UNL A   1      44.573  26.832  28.275  1.00  0.00     0.074 A 
ATOM     52  C   UNL A   1      43.139  31.423  32.684  1.00  0.00     0.029 A 
ATOM     53  N   UNL A   1      44.267  29.583  32.273  1.00  0.00    -0.354 N 
ATOM     54  N   UNL A   1      45.136  28.011  28.275  1.00  0.00    -0.248 NA
ATOM     55  C   UNL A   1      44.455  26.203  29.583  1.00  0.00     0.031 C 
ATOM     56  C   UNL A   1      43.863  31.563  31.462  1.00  0.00     0.029 A 
ATOM     57  C   UNL A   1      44.393  30.317  31.118  1.00  0.00     0.049 A 
ATOM     58  H   UNL A   1      44.853  28.845  32.559  1.00  0.00     0.167 HD
ATOM     59  C   UNL A   1      45.023  28.460  29.583  1.00  0.00     0.074 A 
ATOM     60  C   UNL A   1      44.676  27.269  30.361  1.00  0.00     0.031 C 
ATOM     61  C   UNL A   1      44.928  29.793  29.873  1.00  0.00     0.034 A 
BRANCH  48  62
ATOM     62  C   UNL A   1      42.585  28.017  34.430  1.00  0.00     0.023 A 
ATOM     63  C   UNL A   1      43.495  27.046  33.971  1.00  0.00     0.031 A 
ATOM     64  C   UNL A   1      41.916  27.705  35.635  1.00  0.00     0.131 A 
ATOM     65  C   UNL A   1      43.610  25.801  34.611  1.00  0.00     0.055 A 
ATOM     66  C   UNL A   1      42.084  26.490  36.306  1.00  0.00     0.041 A 
ATOM     67  F   UNL A   1      40.999  28.503  36.189  1.00  0.00    -0.206 F 
ATOM     68  C   UNL A   1      42.907  25.514  35.775  1.00  0.00     0.022 A 
BRANCH  65  69
ATOM     69  S   UNL A   1      44.554  24.499  33.779  1.00  0.00     0.124 S 
ATOM     70  O   UNL A   1      43.929  24.486  32.460  1.00  0.00    -0.237 OA
ATOM     71  O   UNL A   1      45.913  25.026  33.844  1.00  0.00    -0.237 OA
ATOM     72  O   UNL A   1      44.301  23.320  34.603  1.00  0.00    -0.744 OA
ENDBRANCH  65  69
ENDBRANCH  48  62
BRANCH  49  73
ATOM     73  C   UNL A   1      43.764  25.058  26.518  1.00  0.00     0.023 A 
ATOM     74  C   UNL A   1      42.984  23.924  26.855  1.00  0.00     0.031 A 
ATOM     75  C   UNL A   1      44.495  24.975  25.312  1.00  0.00     0.131 A 
ATOM     76  C   UNL A   1      42.957  22.789  26.003  1.00  0.00     0.055 A 
ATOM     77  C   UNL A   1      44.459  23.857  24.473  1.00  0.00     0.041 A 
ATOM     78  F   UNL A   1      45.207  26.019  24.859  1.00  0.00    -0.206 F 
ATOM     79  C   UNL A   1      43.681  22.763  24.809  1.00  0.00     0.022 A 
BRANCH  76  80
ATOM     80  S   UNL A   1      41.912  21.338  26.387  1.00  0.00     0.124 S 
ATOM     81  O   UNL A   1      42.520  20.291  25.575  1.00  0.00    -0.237 OA
ATOM     82  O   UNL A   1      42.065  21.212  27.832  1.00  0.00    -0.237 OA
ATOM     83  O   UNL A   1      40.577  21.752  25.950  1.00  0.00    -0.744 OA
ENDBRANCH  76  80
ENDBRANCH  49  73
BRANCH  61  84
ATOM     84  C   UNL A   1      45.229  30.800  28.775  1.00  0.00     0.023 A 
ATOM     85  C   UNL A   1      46.513  31.285  28.429  1.00  0.00     0.031 A 
ATOM     86  C   UNL A   1      44.150  31.192  27.962  1.00  0.00     0.131 A 
ATOM     87  C   UNL A   1      46.671  32.135  27.313  1.00  0.00     0.055 A 
ATOM     88  C   UNL A   1      44.313  32.010  26.846  1.00  0.00     0.041 A 
ATOM     89  F   UNL A   1      42.907  30.750  28.222  1.00  0.00    -0.206 F 
ATOM     90  C   UNL A   1      45.575  32.490  26.520  1.00  0.00     0.022 A 
BRANCH  87  91
ATOM     91  S   UNL A   1      48.304  32.823  26.875  1.00  0.00     0.124 S 
ATOM     92  O   UNL A   1      48.009  33.729  25.771  1.00  0.00    -0.237 OA
ATOM     93  O   UNL A   1      48.729  33.452  28.123  1.00  0.00    -0.237 OA
ATOM     94  O   UNL A   1      49.083  31.641  26.498  1.00  0.00    -0.744 OA
ENDBRANCH  87  91
ENDBRANCH  61  84
ENDBRANCH  35  36
ENDBRANCH  27  30
ENDBRANCH  25  26
ENDBRANCH   1  25
TORSDOF 16
ENDMDL
MODEL 3
REMARK VINA RESULT:     -12.3      3.791      8.767
REMARK SMILES Cc1nn(-c2cccc(C(F)(F)F)c2)c(C)c1CC(=O)NCCCNC(=O)c1ccc(-c2c3nc(c(-c4cc(S(=O)(=O)[O-])ccc4F)c4ccc([nH]4)c(-c4cc(S(=O)(=O)[O-])ccc4F)c4nc(c(-c5cc(S(=O)(=O)[O-])ccc5F)c5ccc2[nH]5)C=C4)C=C3)cc1
REMARK SMILES IDX 23 1 22 2 21 3 19 4 20 5 18 7 17 8 1 9 2 10 3 11 4 12 15 13
REMARK SMILES IDX 16 14 5 15 6 16 14 17 7 18 9 19 8 20 10 21 11 22 12 23 13 24
REMARK SMILES IDX 24 25 25 26 26 27 27 29 28 30 29 31 90 32 30 33 89 34 31 35
REMARK SMILES IDX 32 36 33 37 83 38 34 39 88 40 82 41 84 42 35 43 87 44 81 45
REMARK SMILES IDX 80 46 36 48 68 49 48 50 67 51 49 52 52 53 66 54 85 55 50 56
REMARK SMILES IDX 51 57 65 59 86 60 53 61 37 62 38 63 46 64 39 65 45 66 47 67
REMARK SMILES IDX 44 68 40 69 41 70 42 71 43 72 69 73 70 74 78 75 71 76 77 77
REMARK SMILES IDX 79 78 76 79 72 80 73 81 74 82 75 83 54 84 55 85 63 86 56 87
REMARK SMILES IDX 62 88 64 89 61 90 57 91 58 92 59 93 60 94
REMARK H PARENT 21 6 25 28 84 47 52 58
REMARK Flexibility Score: inf
ROOT
ATOM      1  C   UNL A   1      34.048  29.385  26.677  1.00  0.00     0.042 C 
ENDROOT
BRANCH   1   2
ATOM      2  C   UNL A   1      33.671  28.345  25.619  1.00  0.00     0.117 C 
BRANCH   2   3
ATOM      3  N   UNL A   1      32.828  28.868  24.557  1.00  0.00    -0.356 N 
ATOM      4  C   UNL A   1      31.723  28.303  23.986  1.00  0.00     0.224 C 
ATOM      5  O   UNL A   1      31.083  28.953  23.158  1.00  0.00    -0.275 OA
ATOM      6  H   UNL A   1      33.090  29.747  24.200  1.00  0.00     0.163 HD
BRANCH   4   7
ATOM      7  C   UNL A   1      31.296  26.903  24.393  1.00  0.00     0.139 C 
BRANCH   7   8
ATOM      8  C   UNL A   1      32.239  25.858  23.895  1.00  0.00     0.006 A 
ATOM      9  C   UNL A   1      32.104  26.184  21.301  1.00  0.00     0.069 C 
ATOM     10  C   UNL A   1      32.615  25.572  22.554  1.00  0.00     0.064 A 
ATOM     11  N   UNL A   1      33.542  24.609  22.492  1.00  0.00    -0.173 NA
ATOM     12  N   UNL A   1      33.650  24.154  23.762  1.00  0.00    -0.238 N 
ATOM     13  C   UNL A   1      32.966  24.956  24.655  1.00  0.00     0.045 A 
ATOM     14  C   UNL A   1      33.111  24.843  26.135  1.00  0.00     0.067 C 
BRANCH  12  15
ATOM     15  C   UNL A   1      34.421  23.009  24.063  1.00  0.00     0.065 A 
ATOM     16  C   UNL A   1      35.788  23.148  24.305  1.00  0.00     0.028 A 
ATOM     17  C   UNL A   1      33.798  21.758  24.176  1.00  0.00     0.041 A 
ATOM     18  C   UNL A   1      36.515  22.046  24.758  1.00  0.00     0.003 A 
ATOM     19  C   UNL A   1      34.534  20.637  24.580  1.00  0.00     0.058 A 
ATOM     20  C   UNL A   1      35.892  20.803  24.901  1.00  0.00     0.013 A 
BRANCH  19  21
ATOM     21  C   UNL A   1      33.886  19.276  24.683  1.00  0.00     0.416 C 
ATOM     22  F   UNL A   1      34.803  18.269  24.701  1.00  0.00    -0.166 F 
ATOM     23  F   UNL A   1      33.151  19.141  25.819  1.00  0.00    -0.166 F 
ATOM     24  F   UNL A   1      33.045  19.002  23.648  1.00  0.00    -0.166 F 
ENDBRANCH  19  21
ENDBRANCH  12  15
ENDBRANCH   7   8
ENDBRANCH   4   7
ENDBRANCH   2   3
ENDBRANCH   1   2
BRANCH   1  25
ATOM     25  C   UNL A   1      35.377  29.082  27.341  1.00  0.00     0.118 C 
BRANCH  25  26
ATOM     26  N   UNL A   1      35.489  29.650  28.687  1.00  0.00    -0.352 N 
ATOM     27  C   UNL A   1      36.501  29.461  29.608  1.00  0.00     0.251 C 
ATOM     28  H   UNL A   1      34.753  30.238  28.970  1.00  0.00     0.163 HD
ATOM     29  O   UNL A   1      36.304  29.717  30.800  1.00  0.00    -0.269 OA
BRANCH  27  30
ATOM     30  C   UNL A   1      37.804  28.948  29.150  1.00  0.00     0.039 A 
ATOM     31  C   UNL A   1      38.454  29.468  28.028  1.00  0.00     0.014 A 
ATOM     32  C   UNL A   1      38.399  27.937  29.900  1.00  0.00     0.014 A 
ATOM     33  C   UNL A   1      39.736  29.009  27.726  1.00  0.00     0.010 A 
ATOM     34  C   UNL A   1      39.722  27.635  29.723  1.00  0.00     0.010 A 
ATOM     35  C   UNL A   1      40.374  28.106  28.596  1.00  0.00    -0.014 A 
BRANCH  35  36
ATOM     36  C   UNL A   1      41.777  27.739  28.431  1.00  0.00     0.031 A 
ATOM     37  C   UNL A   1      41.965  26.477  27.673  1.00  0.00     0.074 A 
ATOM     38  C   UNL A   1      42.811  28.560  28.731  1.00  0.00     0.049 A 
ATOM     39  N   UNL A   1      42.294  25.326  28.154  1.00  0.00    -0.248 NA
ATOM     40  C   UNL A   1      41.536  26.426  26.265  1.00  0.00     0.031 C 
ATOM     41  C   UNL A   1      42.772  29.947  29.209  1.00  0.00     0.029 A 
ATOM     42  N   UNL A   1      44.147  28.347  28.580  1.00  0.00    -0.354 N 
ATOM     43  C   UNL A   1      42.397  24.475  27.061  1.00  0.00     0.074 A 
ATOM     44  C   UNL A   1      41.689  25.128  25.995  1.00  0.00     0.031 C 
ATOM     45  C   UNL A   1      43.996  30.511  29.086  1.00  0.00     0.029 A 
ATOM     46  C   UNL A   1      44.946  29.488  28.685  1.00  0.00     0.049 A 
ATOM     47  H   UNL A   1      44.523  27.453  28.408  1.00  0.00     0.167 HD
ATOM     48  C   UNL A   1      43.297  23.452  27.067  1.00  0.00     0.034 A 
ATOM     49  C   UNL A   1      46.288  29.586  28.460  1.00  0.00     0.034 A 
ATOM     50  C   UNL A   1      43.783  23.210  28.413  1.00  0.00     0.049 A 
ATOM     51  C   UNL A   1      46.833  28.214  28.618  1.00  0.00     0.074 A 
ATOM     52  C   UNL A   1      43.177  22.902  29.618  1.00  0.00     0.029 A 
ATOM     53  N   UNL A   1      45.029  23.700  28.746  1.00  0.00    -0.354 N 
ATOM     54  N   UNL A   1      46.817  27.572  29.756  1.00  0.00    -0.248 NA
ATOM     55  C   UNL A   1      46.900  27.371  27.433  1.00  0.00     0.031 C 
ATOM     56  C   UNL A   1      43.861  23.703  30.583  1.00  0.00     0.029 A 
ATOM     57  C   UNL A   1      44.911  24.365  29.942  1.00  0.00     0.049 A 
ATOM     58  H   UNL A   1      45.855  23.591  28.221  1.00  0.00     0.167 HD
ATOM     59  C   UNL A   1      46.414  26.284  29.433  1.00  0.00     0.074 A 
ATOM     60  C   UNL A   1      46.566  26.196  27.979  1.00  0.00     0.031 C 
ATOM     61  C   UNL A   1      45.719  25.511  30.322  1.00  0.00     0.034 A 
BRANCH  48  62
ATOM     62  C   UNL A   1      44.042  22.943  25.849  1.00  0.00     0.023 A 
ATOM     63  C   UNL A   1      44.050  21.550  25.649  1.00  0.00     0.031 A 
ATOM     64  C   UNL A   1      44.961  23.677  25.066  1.00  0.00     0.131 A 
ATOM     65  C   UNL A   1      45.010  20.941  24.824  1.00  0.00     0.055 A 
ATOM     66  C   UNL A   1      45.872  23.072  24.194  1.00  0.00     0.041 A 
ATOM     67  F   UNL A   1      45.103  25.003  25.156  1.00  0.00    -0.206 F 
ATOM     68  C   UNL A   1      45.926  21.694  24.097  1.00  0.00     0.022 A 
BRANCH  65  69
ATOM     69  S   UNL A   1      45.158  19.138  24.874  1.00  0.00     0.124 S 
ATOM     70  O   UNL A   1      45.052  18.799  23.458  1.00  0.00    -0.237 OA
ATOM     71  O   UNL A   1      46.471  18.961  25.484  1.00  0.00    -0.237 OA
ATOM     72  O   UNL A   1      44.025  18.729  25.701  1.00  0.00    -0.744 OA
ENDBRANCH  65  69
ENDBRANCH  48  62
BRANCH  49  73
ATOM     73  C   UNL A   1      47.031  30.694  27.782  1.00  0.00     0.023 A 
ATOM     74  C   UNL A   1      46.399  31.755  27.086  1.00  0.00     0.031 A 
ATOM     75  C   UNL A   1      48.410  30.854  28.043  1.00  0.00     0.131 A 
ATOM     76  C   UNL A   1      47.139  32.902  26.695  1.00  0.00     0.055 A 
ATOM     77  C   UNL A   1      49.132  31.989  27.661  1.00  0.00     0.041 A 
ATOM     78  F   UNL A   1      49.090  29.946  28.761  1.00  0.00    -0.206 F 
ATOM     79  C   UNL A   1      48.497  33.023  26.995  1.00  0.00     0.022 A 
BRANCH  76  80
ATOM     80  S   UNL A   1      46.333  34.308  25.849  1.00  0.00     0.124 S 
ATOM     81  O   UNL A   1      45.875  35.125  26.967  1.00  0.00    -0.237 OA
ATOM     82  O   UNL A   1      47.417  34.857  25.043  1.00  0.00    -0.237 OA
ATOM     83  O   UNL A   1      45.262  33.675  25.077  1.00  0.00    -0.744 OA
ENDBRANCH  76  80
ENDBRANCH  49  73
BRANCH  61  84
ATOM     84  C   UNL A   1      45.633  25.966  31.769  1.00  0.00     0.023 A 
ATOM     85  C   UNL A   1      44.498  26.546  32.385  1.00  0.00     0.031 A 
ATOM     86  C   UNL A   1      46.739  25.680  32.590  1.00  0.00     0.131 A 
ATOM     87  C   UNL A   1      44.509  26.824  33.770  1.00  0.00     0.055 A 
ATOM     88  C   UNL A   1      46.737  25.933  33.961  1.00  0.00     0.041 A 
ATOM     89  F   UNL A   1      47.840  25.110  32.073  1.00  0.00    -0.206 F 
ATOM     90  C   UNL A   1      45.624  26.511  34.555  1.00  0.00     0.022 A 
BRANCH  87  91
ATOM     91  S   UNL A   1      43.085  27.623  34.583  1.00  0.00     0.124 S 
ATOM     92  O   UNL A   1      42.107  26.548  34.696  1.00  0.00    -0.237 OA
ATOM     93  O   UNL A   1      43.661  28.098  35.839  1.00  0.00    -0.237 OA
ATOM     94  O   UNL A   1      42.711  28.687  33.648  1.00  0.00    -0.744 OA
ENDBRANCH  87  91
ENDBRANCH  61  84
ENDBRANCH  35  36
ENDBRANCH  27  30
ENDBRANCH  25  26
ENDBRANCH   1  25
TORSDOF 16
ENDMDL
