MODEL 1
REMARK VINA RESULT:     -11.3      0.000      0.000
REMARK SMILES CC[NH2+][C@@]1(C(=O)NCCCNC(=O)c2ccc(-c3c4nc(c(-c5cc(S(=O)(=O)[O-])ccc5F)c5ccc([nH]5)c(-c5cc(S(=O)(=O)[O-])ccc5F)c5nc(c(-c6cc(S(=O)(=O)[O-])ccc6F)c6ccc3[nH]6)C=C5)C=C4)cc2)CC[C@@H](SCC2CCCC2)C1
REMARK SMILES IDX 9 1 8 2 7 3 5 4 6 5 4 7 77 8 87 9 78 10 79 11 3 12 2 15 1 16
REMARK SMILES IDX 80 17 81 18 82 19 83 20 86 21 84 22 85 23 10 24 11 25 12 26
REMARK SMILES IDX 13 28 14 29 15 30 76 31 16 32 75 33 17 34 18 35 19 36 69 37
REMARK SMILES IDX 20 38 74 39 68 40 70 41 21 42 73 43 67 44 66 45 22 47 54 48
REMARK SMILES IDX 34 49 53 50 35 51 38 52 52 53 71 54 36 55 37 56 51 58 72 59
REMARK SMILES IDX 39 60 23 61 24 62 32 63 25 64 31 65 33 66 30 67 26 68 27 69
REMARK SMILES IDX 28 70 29 71 55 72 56 73 64 74 57 75 63 76 65 77 62 78 58 79
REMARK SMILES IDX 59 80 60 81 61 82 40 83 41 84 49 85 42 86 48 87 50 88 47 89
REMARK SMILES IDX 43 90 44 91 45 92 46 93
REMARK H PARENT 7 6 3 13 3 14 11 27 70 46 38 57
REMARK Flexibility Score: inf
ROOT
ATOM      1  C   UNL A   1      31.489  32.124  26.608  1.00  0.00     0.042 C 
ENDROOT
BRANCH   1   2
ATOM      2  C   UNL A   1      31.638  30.643  26.359  1.00  0.00     0.118 C 
BRANCH   2   3
ATOM      3  N   UNL A   1      32.804  30.079  26.974  1.00  0.00    -0.351 N 
ATOM      4  C   UNL A   1      33.514  28.958  26.682  1.00  0.00     0.281 C 
ATOM      5  O   UNL A   1      34.467  28.749  27.444  1.00  0.00    -0.268 OA
ATOM      6  H   UNL A   1      33.150  30.593  27.739  1.00  0.00     0.163 HD
BRANCH   4   7
ATOM      7  C   UNL A   1      33.146  27.960  25.494  1.00  0.00     0.176 C 
ATOM      8  C   UNL A   1      33.555  28.388  24.068  1.00  0.00     0.080 C 
ATOM      9  C   UNL A   1      31.614  27.751  25.440  1.00  0.00     0.093 C 
ATOM     10  C   UNL A   1      32.289  28.775  23.294  1.00  0.00     0.022 C 
ATOM     11  C   UNL A   1      31.098  28.418  24.165  1.00  0.00     0.053 C 
BRANCH   7  12
ATOM     12  N   UNL A   1      33.754  26.637  25.826  1.00  0.00    -0.334 N 
ATOM     13  H   UNL A   1      34.634  26.808  26.313  1.00  0.00     0.347 HD
ATOM     14  H   UNL A   1      33.062  26.145  26.392  1.00  0.00     0.347 HD
BRANCH  12  15
ATOM     15  C   UNL A   1      34.031  25.768  24.684  1.00  0.00     0.257 C 
ATOM     16  C   UNL A   1      34.903  24.611  25.147  1.00  0.00     0.071 C 
ENDBRANCH  12  15
ENDBRANCH   7  12
BRANCH  11  17
ATOM     17  S   UNL A   1      29.788  27.561  23.206  1.00  0.00    -0.158 SA
BRANCH  17  18
ATOM     18  C   UNL A   1      28.501  28.827  22.905  1.00  0.00     0.073 C 
BRANCH  18  19
ATOM     19  C   UNL A   1      28.966  30.232  22.480  1.00  0.00    -0.001 C 
ATOM     20  C   UNL A   1      28.180  30.864  21.334  1.00  0.00     0.004 C 
ATOM     21  C   UNL A   1      28.708  31.236  23.612  1.00  0.00     0.004 C 
ATOM     22  C   UNL A   1      28.244  32.370  21.516  1.00  0.00     0.000 C 
ATOM     23  C   UNL A   1      28.689  32.604  22.946  1.00  0.00     0.000 C 
ENDBRANCH  18  19
ENDBRANCH  17  18
ENDBRANCH  11  17
ENDBRANCH   4   7
ENDBRANCH   2   3
ENDBRANCH   1   2
BRANCH   1  24
ATOM     24  C   UNL A   1      32.776  32.707  27.146  1.00  0.00     0.118 C 
BRANCH  24  25
ATOM     25  N   UNL A   1      32.571  34.004  27.791  1.00  0.00    -0.352 N 
ATOM     26  C   UNL A   1      33.237  34.580  28.852  1.00  0.00     0.251 C 
ATOM     27  H   UNL A   1      31.845  34.550  27.410  1.00  0.00     0.163 HD
ATOM     28  O   UNL A   1      32.802  35.600  29.364  1.00  0.00    -0.269 OA
BRANCH  26  29
ATOM     29  C   UNL A   1      34.453  33.923  29.373  1.00  0.00     0.039 A 
ATOM     30  C   UNL A   1      35.711  34.452  29.077  1.00  0.00     0.014 A 
ATOM     31  C   UNL A   1      34.336  32.818  30.215  1.00  0.00     0.014 A 
ATOM     32  C   UNL A   1      36.840  33.925  29.707  1.00  0.00     0.010 A 
ATOM     33  C   UNL A   1      35.427  32.410  30.957  1.00  0.00     0.010 A 
ATOM     34  C   UNL A   1      36.701  32.933  30.691  1.00  0.00    -0.014 A 
BRANCH  34  35
ATOM     35  C   UNL A   1      37.857  32.356  31.423  1.00  0.00     0.031 A 
ATOM     36  C   UNL A   1      38.633  31.234  30.779  1.00  0.00     0.074 A 
ATOM     37  C   UNL A   1      38.137  32.750  32.680  1.00  0.00     0.049 A 
ATOM     38  N   UNL A   1      39.530  30.437  31.299  1.00  0.00    -0.248 NA
ATOM     39  C   UNL A   1      38.297  30.922  29.379  1.00  0.00     0.031 C 
ATOM     40  C   UNL A   1      37.422  33.787  33.429  1.00  0.00     0.029 A 
ATOM     41  N   UNL A   1      39.094  32.312  33.559  1.00  0.00    -0.354 N 
ATOM     42  C   UNL A   1      39.819  29.504  30.308  1.00  0.00     0.074 A 
ATOM     43  C   UNL A   1      38.939  29.781  29.195  1.00  0.00     0.031 C 
ATOM     44  C   UNL A   1      37.988  33.928  34.638  1.00  0.00     0.029 A 
ATOM     45  C   UNL A   1      39.069  32.957  34.773  1.00  0.00     0.049 A 
ATOM     46  H   UNL A   1      39.740  31.601  33.342  1.00  0.00     0.167 HD
ATOM     47  C   UNL A   1      40.761  28.528  30.310  1.00  0.00     0.034 A 
ATOM     48  C   UNL A   1      39.827  32.775  35.873  1.00  0.00     0.034 A 
ATOM     49  C   UNL A   1      41.671  28.315  31.406  1.00  0.00     0.049 A 
ATOM     50  C   UNL A   1      40.895  31.710  35.843  1.00  0.00     0.074 A 
ATOM     51  C   UNL A   1      42.716  27.414  31.499  1.00  0.00     0.029 A 
ATOM     52  N   UNL A   1      41.650  29.028  32.598  1.00  0.00    -0.354 N 
ATOM     53  N   UNL A   1      41.185  30.858  34.884  1.00  0.00    -0.248 NA
ATOM     54  C   UNL A   1      41.744  31.590  37.034  1.00  0.00     0.031 C 
ATOM     55  C   UNL A   1      43.294  27.547  32.766  1.00  0.00     0.029 A 
ATOM     56  C   UNL A   1      42.655  28.577  33.438  1.00  0.00     0.049 A 
ATOM     57  H   UNL A   1      41.014  29.748  32.815  1.00  0.00     0.167 HD
ATOM     58  C   UNL A   1      42.274  30.125  35.347  1.00  0.00     0.074 A 
ATOM     59  C   UNL A   1      42.593  30.643  36.663  1.00  0.00     0.031 C 
ATOM     60  C   UNL A   1      42.953  29.116  34.744  1.00  0.00     0.034 A 
BRANCH  47  61
ATOM     61  C   UNL A   1      40.835  27.632  29.095  1.00  0.00     0.023 A 
ATOM     62  C   UNL A   1      41.796  27.830  28.088  1.00  0.00     0.031 A 
ATOM     63  C   UNL A   1      39.897  26.602  28.910  1.00  0.00     0.131 A 
ATOM     64  C   UNL A   1      41.734  27.086  26.901  1.00  0.00     0.055 A 
ATOM     65  C   UNL A   1      39.902  25.798  27.767  1.00  0.00     0.041 A 
ATOM     66  F   UNL A   1      38.940  26.374  29.825  1.00  0.00    -0.206 F 
ATOM     67  C   UNL A   1      40.811  26.050  26.745  1.00  0.00     0.022 A 
BRANCH  64  68
ATOM     68  S   UNL A   1      42.766  27.605  25.502  1.00  0.00     0.124 S 
ATOM     69  O   UNL A   1      42.021  28.757  25.000  1.00  0.00    -0.237 OA
ATOM     70  O   UNL A   1      44.042  27.901  26.142  1.00  0.00    -0.237 OA
ATOM     71  O   UNL A   1      42.763  26.439  24.621  1.00  0.00    -0.744 OA
ENDBRANCH  64  68
ENDBRANCH  47  61
BRANCH  48  72
ATOM     72  C   UNL A   1      39.618  33.615  37.087  1.00  0.00     0.023 A 
ATOM     73  C   UNL A   1      40.434  34.729  37.339  1.00  0.00     0.031 A 
ATOM     74  C   UNL A   1      38.625  33.299  38.031  1.00  0.00     0.131 A 
ATOM     75  C   UNL A   1      40.277  35.459  38.527  1.00  0.00     0.055 A 
ATOM     76  C   UNL A   1      38.439  34.058  39.188  1.00  0.00     0.041 A 
ATOM     77  F   UNL A   1      37.811  32.250  37.835  1.00  0.00    -0.206 F 
ATOM     78  C   UNL A   1      39.277  35.139  39.448  1.00  0.00     0.022 A 
BRANCH  75  79
ATOM     79  S   UNL A   1      41.457  36.789  38.891  1.00  0.00     0.124 S 
ATOM     80  O   UNL A   1      42.286  36.176  39.923  1.00  0.00    -0.237 OA
ATOM     81  O   UNL A   1      42.092  36.992  37.593  1.00  0.00    -0.237 OA
ATOM     82  O   UNL A   1      40.604  37.885  39.344  1.00  0.00    -0.744 OA
ENDBRANCH  75  79
ENDBRANCH  48  72
BRANCH  60  83
ATOM     83  C   UNL A   1      44.141  28.555  35.481  1.00  0.00     0.023 A 
ATOM     84  C   UNL A   1      44.009  27.514  36.415  1.00  0.00     0.031 A 
ATOM     85  C   UNL A   1      45.425  29.075  35.240  1.00  0.00     0.131 A 
ATOM     86  C   UNL A   1      45.137  27.059  37.112  1.00  0.00     0.055 A 
ATOM     87  C   UNL A   1      46.552  28.578  35.895  1.00  0.00     0.041 A 
ATOM     88  F   UNL A   1      45.605  30.071  34.357  1.00  0.00    -0.206 F 
ATOM     89  C   UNL A   1      46.409  27.573  36.847  1.00  0.00     0.022 A 
BRANCH  86  90
ATOM     90  S   UNL A   1      44.907  25.841  38.437  1.00  0.00     0.124 S 
ATOM     91  O   UNL A   1      44.252  24.745  37.729  1.00  0.00    -0.237 OA
ATOM     92  O   UNL A   1      46.277  25.590  38.871  1.00  0.00    -0.237 OA
ATOM     93  O   UNL A   1      44.069  26.543  39.407  1.00  0.00    -0.744 OA
ENDBRANCH  86  90
ENDBRANCH  60  83
ENDBRANCH  34  35
ENDBRANCH  26  29
ENDBRANCH  24  25
ENDBRANCH   1  24
TORSDOF 18
ENDMDL
MODEL 2
REMARK VINA RESULT:     -11.1      3.438      9.189
REMARK SMILES CC[NH2+][C@@]1(C(=O)NCCCNC(=O)c2ccc(-c3c4nc(c(-c5cc(S(=O)(=O)[O-])ccc5F)c5ccc([nH]5)c(-c5cc(S(=O)(=O)[O-])ccc5F)c5nc(c(-c6cc(S(=O)(=O)[O-])ccc6F)c6ccc3[nH]6)C=C5)C=C4)cc2)CC[C@@H](SCC2CCCC2)C1
REMARK SMILES IDX 9 1 8 2 7 3 5 4 6 5 4 7 77 8 87 9 78 10 79 11 3 12 2 15 1 16
REMARK SMILES IDX 80 17 81 18 82 19 83 20 86 21 84 22 85 23 10 24 11 25 12 26
REMARK SMILES IDX 13 28 14 29 15 30 76 31 16 32 75 33 17 34 18 35 19 36 69 37
REMARK SMILES IDX 20 38 74 39 68 40 70 41 21 42 73 43 67 44 66 45 22 47 54 48
REMARK SMILES IDX 34 49 53 50 35 51 38 52 52 53 71 54 36 55 37 56 51 58 72 59
REMARK SMILES IDX 39 60 23 61 24 62 32 63 25 64 31 65 33 66 30 67 26 68 27 69
REMARK SMILES IDX 28 70 29 71 55 72 56 73 64 74 57 75 63 76 65 77 62 78 58 79
REMARK SMILES IDX 59 80 60 81 61 82 40 83 41 84 49 85 42 86 48 87 50 88 47 89
REMARK SMILES IDX 43 90 44 91 45 92 46 93
REMARK H PARENT 7 6 3 13 3 14 11 27 70 46 38 57
REMARK Flexibility Score: inf
ROOT
ATOM      1  C   UNL A   1      32.366  28.288  26.272  1.00  0.00     0.042 C 
ENDROOT
BRANCH   1   2
ATOM      2  C   UNL A   1      31.520  27.690  25.174  1.00  0.00     0.118 C 
BRANCH   2   3
ATOM      3  N   UNL A   1      32.277  27.314  24.015  1.00  0.00    -0.351 N 
ATOM      4  C   UNL A   1      32.919  26.158  23.705  1.00  0.00     0.281 C 
ATOM      5  O   UNL A   1      33.506  26.181  22.615  1.00  0.00    -0.268 OA
ATOM      6  H   UNL A   1      32.341  28.014  23.326  1.00  0.00     0.163 HD
BRANCH   4   7
ATOM      7  C   UNL A   1      32.963  24.884  24.662  1.00  0.00     0.176 C 
ATOM      8  C   UNL A   1      33.901  24.959  25.886  1.00  0.00     0.080 C 
ATOM      9  C   UNL A   1      33.427  23.642  23.862  1.00  0.00     0.093 C 
ATOM     10  C   UNL A   1      35.099  24.033  25.641  1.00  0.00     0.022 C 
ATOM     11  C   UNL A   1      34.817  23.256  24.368  1.00  0.00     0.053 C 
BRANCH   7  12
ATOM     12  N   UNL A   1      31.563  24.617  25.105  1.00  0.00    -0.334 N 
ATOM     13  H   UNL A   1      31.096  25.515  25.232  1.00  0.00     0.347 HD
ATOM     14  H   UNL A   1      31.144  24.037  24.378  1.00  0.00     0.347 HD
BRANCH  12  15
ATOM     15  C   UNL A   1      31.430  23.860  26.349  1.00  0.00     0.257 C 
ATOM     16  C   UNL A   1      30.620  22.602  26.075  1.00  0.00     0.071 C 
ENDBRANCH  12  15
ENDBRANCH   7  12
BRANCH  11  17
ATOM     17  S   UNL A   1      35.205  21.472  24.561  1.00  0.00    -0.158 SA
BRANCH  17  18
ATOM     18  C   UNL A   1      33.783  20.762  25.469  1.00  0.00     0.073 C 
BRANCH  18  19
ATOM     19  C   UNL A   1      33.092  19.527  24.864  1.00  0.00    -0.001 C 
ATOM     20  C   UNL A   1      32.402  19.753  23.521  1.00  0.00     0.004 C 
ATOM     21  C   UNL A   1      34.139  18.469  24.489  1.00  0.00     0.004 C 
ATOM     22  C   UNL A   1      32.425  18.435  22.770  1.00  0.00     0.000 C 
ATOM     23  C   UNL A   1      33.463  17.573  23.462  1.00  0.00     0.000 C 
ENDBRANCH  18  19
ENDBRANCH  17  18
ENDBRANCH  11  17
ENDBRANCH   4   7
ENDBRANCH   2   3
ENDBRANCH   1   2
BRANCH   1  24
ATOM     24  C   UNL A   1      33.282  29.355  25.718  1.00  0.00     0.118 C 
BRANCH  24  25
ATOM     25  N   UNL A   1      33.019  30.671  26.302  1.00  0.00    -0.352 N 
ATOM     26  C   UNL A   1      33.714  31.364  27.271  1.00  0.00     0.251 C 
ATOM     27  H   UNL A   1      32.223  31.131  25.952  1.00  0.00     0.163 HD
ATOM     28  O   UNL A   1      33.236  32.376  27.758  1.00  0.00    -0.269 OA
BRANCH  26  29
ATOM     29  C   UNL A   1      35.018  30.839  27.728  1.00  0.00     0.039 A 
ATOM     30  C   UNL A   1      36.123  31.689  27.799  1.00  0.00     0.014 A 
ATOM     31  C   UNL A   1      35.121  29.515  28.151  1.00  0.00     0.014 A 
ATOM     32  C   UNL A   1      37.303  31.228  28.386  1.00  0.00     0.010 A 
ATOM     33  C   UNL A   1      36.228  29.117  28.875  1.00  0.00     0.010 A 
ATOM     34  C   UNL A   1      37.348  29.954  28.976  1.00  0.00    -0.014 A 
BRANCH  34  35
ATOM     35  C   UNL A   1      38.560  29.419  29.647  1.00  0.00     0.031 A 
ATOM     36  C   UNL A   1      38.941  29.969  30.998  1.00  0.00     0.074 A 
ATOM     37  C   UNL A   1      39.362  28.543  29.012  1.00  0.00     0.049 A 
ATOM     38  N   UNL A   1      40.049  29.822  31.674  1.00  0.00    -0.248 NA
ATOM     39  C   UNL A   1      37.965  30.869  31.639  1.00  0.00     0.031 C 
ATOM     40  C   UNL A   1      39.128  27.982  27.679  1.00  0.00     0.029 A 
ATOM     41  N   UNL A   1      40.551  27.980  29.401  1.00  0.00    -0.354 N 
ATOM     42  C   UNL A   1      39.921  30.649  32.787  1.00  0.00     0.074 A 
ATOM     43  C   UNL A   1      38.671  31.359  32.644  1.00  0.00     0.031 C 
ATOM     44  C   UNL A   1      40.121  27.129  27.379  1.00  0.00     0.029 A 
ATOM     45  C   UNL A   1      41.090  27.123  28.470  1.00  0.00     0.049 A 
ATOM     46  H   UNL A   1      40.979  28.171  30.267  1.00  0.00     0.167 HD
ATOM     47  C   UNL A   1      40.753  30.776  33.850  1.00  0.00     0.034 A 
ATOM     48  C   UNL A   1      42.241  26.423  28.493  1.00  0.00     0.034 A 
ATOM     49  C   UNL A   1      41.961  30.007  34.000  1.00  0.00     0.049 A 
ATOM     50  C   UNL A   1      43.135  26.549  29.701  1.00  0.00     0.074 A 
ATOM     51  C   UNL A   1      42.847  29.988  35.062  1.00  0.00     0.029 A 
ATOM     52  N   UNL A   1      42.446  29.107  33.059  1.00  0.00    -0.354 N 
ATOM     53  N   UNL A   1      42.985  27.306  30.765  1.00  0.00    -0.248 NA
ATOM     54  C   UNL A   1      44.345  25.718  29.719  1.00  0.00     0.031 C 
ATOM     55  C   UNL A   1      43.892  29.114  34.741  1.00  0.00     0.029 A 
ATOM     56  C   UNL A   1      43.624  28.537  33.510  1.00  0.00     0.049 A 
ATOM     57  H   UNL A   1      42.014  28.903  32.197  1.00  0.00     0.167 HD
ATOM     58  C   UNL A   1      44.066  27.015  31.593  1.00  0.00     0.074 A 
ATOM     59  C   UNL A   1      44.851  26.006  30.909  1.00  0.00     0.031 C 
ATOM     60  C   UNL A   1      44.385  27.530  32.808  1.00  0.00     0.034 A 
BRANCH  47  61
ATOM     61  C   UNL A   1      40.375  31.784  34.911  1.00  0.00     0.023 A 
ATOM     62  C   UNL A   1      39.512  31.451  35.971  1.00  0.00     0.031 A 
ATOM     63  C   UNL A   1      40.833  33.110  34.832  1.00  0.00     0.131 A 
ATOM     64  C   UNL A   1      39.053  32.450  36.843  1.00  0.00     0.055 A 
ATOM     65  C   UNL A   1      40.450  34.078  35.763  1.00  0.00     0.041 A 
ATOM     66  F   UNL A   1      41.643  33.496  33.833  1.00  0.00    -0.206 F 
ATOM     67  C   UNL A   1      39.539  33.757  36.765  1.00  0.00     0.022 A 
BRANCH  64  68
ATOM     68  S   UNL A   1      37.688  32.051  37.969  1.00  0.00     0.124 S 
ATOM     69  O   UNL A   1      37.426  30.654  37.630  1.00  0.00    -0.237 OA
ATOM     70  O   UNL A   1      38.279  32.289  39.281  1.00  0.00    -0.237 OA
ATOM     71  O   UNL A   1      36.636  32.987  37.578  1.00  0.00    -0.744 OA
ENDBRANCH  64  68
ENDBRANCH  47  61
BRANCH  48  72
ATOM     72  C   UNL A   1      42.616  25.539  27.353  1.00  0.00     0.023 A 
ATOM     73  C   UNL A   1      42.162  24.212  27.293  1.00  0.00     0.031 A 
ATOM     74  C   UNL A   1      43.460  25.993  26.324  1.00  0.00     0.131 A 
ATOM     75  C   UNL A   1      42.590  23.370  26.256  1.00  0.00     0.055 A 
ATOM     76  C   UNL A   1      43.844  25.166  25.266  1.00  0.00     0.041 A 
ATOM     77  F   UNL A   1      43.915  27.256  26.326  1.00  0.00    -0.206 F 
ATOM     78  C   UNL A   1      43.419  23.841  25.235  1.00  0.00     0.022 A 
BRANCH  75  79
ATOM     79  S   UNL A   1      42.113  21.620  26.306  1.00  0.00     0.124 S 
ATOM     80  O   UNL A   1      42.969  21.048  25.272  1.00  0.00    -0.237 OA
ATOM     81  O   UNL A   1      42.437  21.258  27.682  1.00  0.00    -0.237 OA
ATOM     82  O   UNL A   1      40.687  21.648  25.991  1.00  0.00    -0.744 OA
ENDBRANCH  75  79
ENDBRANCH  48  72
BRANCH  60  83
ATOM     83  C   UNL A   1      45.600  26.961  33.493  1.00  0.00     0.023 A 
ATOM     84  C   UNL A   1      45.511  25.868  34.371  1.00  0.00     0.031 A 
ATOM     85  C   UNL A   1      46.866  27.527  33.259  1.00  0.00     0.131 A 
ATOM     86  C   UNL A   1      46.662  25.406  35.024  1.00  0.00     0.055 A 
ATOM     87  C   UNL A   1      48.017  27.025  33.867  1.00  0.00     0.041 A 
ATOM     88  F   UNL A   1      47.004  28.573  32.429  1.00  0.00    -0.206 F 
ATOM     89  C   UNL A   1      47.917  25.966  34.765  1.00  0.00     0.022 A 
BRANCH  86  90
ATOM     90  S   UNL A   1      46.487  24.112  36.283  1.00  0.00     0.124 S 
ATOM     91  O   UNL A   1      45.284  23.418  35.838  1.00  0.00    -0.237 OA
ATOM     92  O   UNL A   1      47.737  23.372  36.146  1.00  0.00    -0.237 OA
ATOM     93  O   UNL A   1      46.347  24.863  37.529  1.00  0.00    -0.744 OA
ENDBRANCH  86  90
ENDBRANCH  60  83
ENDBRANCH  34  35
ENDBRANCH  26  29
ENDBRANCH  24  25
ENDBRANCH   1  24
TORSDOF 18
ENDMDL
MODEL 3
REMARK VINA RESULT:     -11.1      6.341     12.362
REMARK SMILES CC[NH2+][C@@]1(C(=O)NCCCNC(=O)c2ccc(-c3c4nc(c(-c5cc(S(=O)(=O)[O-])ccc5F)c5ccc([nH]5)c(-c5cc(S(=O)(=O)[O-])ccc5F)c5nc(c(-c6cc(S(=O)(=O)[O-])ccc6F)c6ccc3[nH]6)C=C5)C=C4)cc2)CC[C@@H](SCC2CCCC2)C1
REMARK SMILES IDX 9 1 8 2 7 3 5 4 6 5 4 7 77 8 87 9 78 10 79 11 3 12 2 15 1 16
REMARK SMILES IDX 80 17 81 18 82 19 83 20 86 21 84 22 85 23 10 24 11 25 12 26
REMARK SMILES IDX 13 28 14 29 15 30 76 31 16 32 75 33 17 34 18 35 19 36 69 37
REMARK SMILES IDX 20 38 74 39 68 40 70 41 21 42 73 43 67 44 66 45 22 47 54 48
REMARK SMILES IDX 34 49 53 50 35 51 38 52 52 53 71 54 36 55 37 56 51 58 72 59
REMARK SMILES IDX 39 60 23 61 24 62 32 63 25 64 31 65 33 66 30 67 26 68 27 69
REMARK SMILES IDX 28 70 29 71 55 72 56 73 64 74 57 75 63 76 65 77 62 78 58 79
REMARK SMILES IDX 59 80 60 81 61 82 40 83 41 84 49 85 42 86 48 87 50 88 47 89
REMARK SMILES IDX 43 90 44 91 45 92 46 93
REMARK H PARENT 7 6 3 13 3 14 11 27 70 46 38 57
REMARK Flexibility Score: inf
ROOT
ATOM      1  C   UNL A   1      38.362  19.584  25.001  1.00  0.00     0.042 C 
ENDROOT
BRANCH   1   2
ATOM      2  C   UNL A   1      37.259  20.615  24.997  1.00  0.00     0.118 C 
BRANCH   2   3
ATOM      3  N   UNL A   1      37.721  21.940  25.290  1.00  0.00    -0.351 N 
ATOM      4  C   UNL A   1      37.039  23.083  25.562  1.00  0.00     0.281 C 
ATOM      5  O   UNL A   1      37.761  24.073  25.747  1.00  0.00    -0.268 OA
ATOM      6  H   UNL A   1      38.701  22.038  25.297  1.00  0.00     0.163 HD
BRANCH   4   7
ATOM      7  C   UNL A   1      35.449  23.179  25.603  1.00  0.00     0.176 C 
ATOM      8  C   UNL A   1      34.742  22.581  26.838  1.00  0.00     0.080 C 
ATOM      9  C   UNL A   1      34.847  22.439  24.383  1.00  0.00     0.093 C 
ATOM     10  C   UNL A   1      34.026  21.292  26.414  1.00  0.00     0.022 C 
ATOM     11  C   UNL A   1      34.133  21.191  24.904  1.00  0.00     0.053 C 
BRANCH   7  12
ATOM     12  N   UNL A   1      35.090  24.621  25.455  1.00  0.00    -0.334 N 
ATOM     13  H   UNL A   1      34.993  25.018  26.390  1.00  0.00     0.347 HD
ATOM     14  H   UNL A   1      35.841  25.042  24.907  1.00  0.00     0.347 HD
BRANCH  12  15
ATOM     15  C   UNL A   1      33.856  24.890  24.720  1.00  0.00     0.257 C 
ATOM     16  C   UNL A   1      33.530  26.372  24.831  1.00  0.00     0.071 C 
ENDBRANCH  12  15
ENDBRANCH   7  12
BRANCH  11  17
ATOM     17  S   UNL A   1      32.529  20.727  24.139  1.00  0.00    -0.158 SA
BRANCH  17  18
ATOM     18  C   UNL A   1      32.700  18.962  23.686  1.00  0.00     0.073 C 
BRANCH  18  19
ATOM     19  C   UNL A   1      33.329  18.016  24.724  1.00  0.00    -0.001 C 
ATOM     20  C   UNL A   1      32.567  16.717  24.975  1.00  0.00     0.004 C 
ATOM     21  C   UNL A   1      34.671  17.482  24.206  1.00  0.00     0.004 C 
ATOM     22  C   UNL A   1      33.581  15.669  25.397  1.00  0.00     0.000 C 
ATOM     23  C   UNL A   1      34.940  16.213  25.000  1.00  0.00     0.000 C 
ENDBRANCH  18  19
ENDBRANCH  17  18
ENDBRANCH  11  17
ENDBRANCH   4   7
ENDBRANCH   2   3
ENDBRANCH   1   2
BRANCH   1  24
ATOM     24  C   UNL A   1      39.371  19.887  26.084  1.00  0.00     0.118 C 
BRANCH  24  25
ATOM     25  N   UNL A   1      40.571  19.057  25.972  1.00  0.00    -0.352 N 
ATOM     26  C   UNL A   1      41.902  19.414  26.018  1.00  0.00     0.251 C 
ATOM     27  H   UNL A   1      40.403  18.095  25.842  1.00  0.00     0.163 HD
ATOM     28  O   UNL A   1      42.763  18.599  25.726  1.00  0.00    -0.269 OA
BRANCH  26  29
ATOM     29  C   UNL A   1      42.257  20.800  26.388  1.00  0.00     0.039 A 
ATOM     30  C   UNL A   1      42.562  21.109  27.715  1.00  0.00     0.014 A 
ATOM     31  C   UNL A   1      42.353  21.777  25.399  1.00  0.00     0.014 A 
ATOM     32  C   UNL A   1      43.054  22.378  28.026  1.00  0.00     0.010 A 
ATOM     33  C   UNL A   1      42.993  22.969  25.681  1.00  0.00     0.010 A 
ATOM     34  C   UNL A   1      43.322  23.302  27.003  1.00  0.00    -0.014 A 
BRANCH  34  35
ATOM     35  C   UNL A   1      43.880  24.653  27.262  1.00  0.00     0.031 A 
ATOM     36  C   UNL A   1      42.965  25.718  27.813  1.00  0.00     0.074 A 
ATOM     37  C   UNL A   1      45.145  24.951  26.909  1.00  0.00     0.049 A 
ATOM     38  N   UNL A   1      43.158  27.007  27.919  1.00  0.00    -0.248 NA
ATOM     39  C   UNL A   1      41.623  25.279  28.232  1.00  0.00     0.031 C 
ATOM     40  C   UNL A   1      46.107  24.019  26.315  1.00  0.00     0.029 A 
ATOM     41  N   UNL A   1      45.837  26.133  26.985  1.00  0.00    -0.354 N 
ATOM     42  C   UNL A   1      41.947  27.530  28.364  1.00  0.00     0.074 A 
ATOM     43  C   UNL A   1      41.007  26.434  28.420  1.00  0.00     0.031 C 
ATOM     44  C   UNL A   1      47.272  24.656  26.116  1.00  0.00     0.029 A 
ATOM     45  C   UNL A   1      47.126  26.052  26.514  1.00  0.00     0.049 A 
ATOM     46  H   UNL A   1      45.446  26.962  27.344  1.00  0.00     0.167 HD
ATOM     47  C   UNL A   1      41.656  28.803  28.730  1.00  0.00     0.034 A 
ATOM     48  C   UNL A   1      48.076  27.002  26.407  1.00  0.00     0.034 A 
ATOM     49  C   UNL A   1      42.629  29.864  28.728  1.00  0.00     0.049 A 
ATOM     50  C   UNL A   1      47.745  28.404  26.855  1.00  0.00     0.074 A 
ATOM     51  C   UNL A   1      42.481  31.174  29.148  1.00  0.00     0.029 A 
ATOM     52  N   UNL A   1      43.943  29.729  28.296  1.00  0.00    -0.354 N 
ATOM     53  N   UNL A   1      46.607  28.879  27.310  1.00  0.00    -0.248 NA
ATOM     54  C   UNL A   1      48.827  29.393  26.787  1.00  0.00     0.031 C 
ATOM     55  C   UNL A   1      43.689  31.843  28.922  1.00  0.00     0.029 A 
ATOM     56  C   UNL A   1      44.611  30.935  28.426  1.00  0.00     0.049 A 
ATOM     57  H   UNL A   1      44.341  28.898  27.949  1.00  0.00     0.167 HD
ATOM     58  C   UNL A   1      46.850  30.215  27.615  1.00  0.00     0.074 A 
ATOM     59  C   UNL A   1      48.243  30.465  27.302  1.00  0.00     0.031 C 
ATOM     60  C   UNL A   1      46.003  31.154  28.109  1.00  0.00     0.034 A 
BRANCH  47  61
ATOM     61  C   UNL A   1      40.234  29.097  29.150  1.00  0.00     0.023 A 
ATOM     62  C   UNL A   1      39.853  29.116  30.504  1.00  0.00     0.031 A 
ATOM     63  C   UNL A   1      39.233  29.302  28.186  1.00  0.00     0.131 A 
ATOM     64  C   UNL A   1      38.498  29.230  30.851  1.00  0.00     0.055 A 
ATOM     65  C   UNL A   1      37.899  29.513  28.543  1.00  0.00     0.041 A 
ATOM     66  F   UNL A   1      39.527  29.275  26.876  1.00  0.00    -0.206 F 
ATOM     67  C   UNL A   1      37.521  29.458  29.881  1.00  0.00     0.022 A 
BRANCH  64  68
ATOM     68  S   UNL A   1      38.018  28.906  32.570  1.00  0.00     0.124 S 
ATOM     69  O   UNL A   1      36.653  29.427  32.597  1.00  0.00    -0.237 OA
ATOM     70  O   UNL A   1      38.149  27.457  32.668  1.00  0.00    -0.237 OA
ATOM     71  O   UNL A   1      38.986  29.675  33.348  1.00  0.00    -0.744 OA
ENDBRANCH  64  68
ENDBRANCH  47  61
BRANCH  48  72
ATOM     72  C   UNL A   1      49.425  26.670  25.866  1.00  0.00     0.023 A 
ATOM     73  C   UNL A   1      49.824  27.129  24.601  1.00  0.00     0.031 A 
ATOM     74  C   UNL A   1      50.322  25.864  26.587  1.00  0.00     0.131 A 
ATOM     75  C   UNL A   1      51.065  26.740  24.073  1.00  0.00     0.055 A 
ATOM     76  C   UNL A   1      51.577  25.519  26.079  1.00  0.00     0.041 A 
ATOM     77  F   UNL A   1      49.995  25.406  27.806  1.00  0.00    -0.206 F 
ATOM     78  C   UNL A   1      51.949  25.947  24.808  1.00  0.00     0.022 A 
BRANCH  75  79
ATOM     79  S   UNL A   1      51.472  27.218  22.370  1.00  0.00     0.124 S 
ATOM     80  O   UNL A   1      51.535  28.671  22.477  1.00  0.00    -0.237 OA
ATOM     81  O   UNL A   1      52.743  26.533  22.161  1.00  0.00    -0.237 OA
ATOM     82  O   UNL A   1      50.350  26.697  21.594  1.00  0.00    -0.744 OA
ENDBRANCH  75  79
ENDBRANCH  48  72
BRANCH  60  83
ATOM     83  C   UNL A   1      46.583  32.515  28.396  1.00  0.00     0.023 A 
ATOM     84  C   UNL A   1      46.683  33.502  27.401  1.00  0.00     0.031 A 
ATOM     85  C   UNL A   1      47.042  32.823  29.689  1.00  0.00     0.131 A 
ATOM     86  C   UNL A   1      47.276  34.735  27.703  1.00  0.00     0.055 A 
ATOM     87  C   UNL A   1      47.578  34.074  29.998  1.00  0.00     0.041 A 
ATOM     88  F   UNL A   1      46.970  31.915  30.675  1.00  0.00    -0.206 F 
ATOM     89  C   UNL A   1      47.709  35.034  28.998  1.00  0.00     0.022 A 
BRANCH  86  90
ATOM     90  S   UNL A   1      47.551  35.920  26.358  1.00  0.00     0.124 S 
ATOM     91  O   UNL A   1      47.949  35.045  25.260  1.00  0.00    -0.237 OA
ATOM     92  O   UNL A   1      46.242  36.552  26.226  1.00  0.00    -0.237 OA
ATOM     93  O   UNL A   1      48.607  36.788  26.875  1.00  0.00    -0.744 OA
ENDBRANCH  86  90
ENDBRANCH  60  83
ENDBRANCH  34  35
ENDBRANCH  26  29
ENDBRANCH  24  25
ENDBRANCH   1  24
TORSDOF 18
ENDMDL
