MODEL 1
REMARK VINA RESULT:     -11.5      0.000      0.000
REMARK SMILES Cc1ccc(C)c(OCCNC(=O)CCC(=O)NCCCNC(=O)c2ccc(-c3c4nc(c(-c5cc(S(=O)(=O)[O-])ccc5F)c5ccc([nH]5)c(-c5cc(S(=O)(=O)[O-])ccc5F)c5nc(c(-c6cc(S(=O)(=O)[O-])ccc6F)c6ccc3[nH]6)C=C5)C=C4)cc2)c1
REMARK SMILES IDX 16 1 17 2 18 3 15 5 14 6 12 7 11 8 13 10 10 11 9 12 8 13
REMARK SMILES IDX 7 14 1 15 2 16 3 17 88 18 4 19 5 20 6 21 19 22 20 23 21 24
REMARK SMILES IDX 22 25 23 26 24 28 25 29 26 30 87 31 27 32 86 33 28 34 29 35
REMARK SMILES IDX 30 36 80 37 31 38 85 39 79 40 81 41 32 42 84 43 78 44 77 45
REMARK SMILES IDX 33 47 65 48 45 49 64 50 46 51 49 52 63 53 82 54 47 55 48 56
REMARK SMILES IDX 62 58 83 59 50 60 34 61 35 62 43 63 36 64 42 65 44 66 41 67
REMARK SMILES IDX 37 68 38 69 39 70 40 71 66 72 67 73 75 74 68 75 74 76 76 77
REMARK SMILES IDX 73 78 69 79 70 80 71 81 72 82 51 83 52 84 60 85 53 86 59 87
REMARK SMILES IDX 61 88 58 89 54 90 55 91 56 92 57 93
REMARK H PARENT 18 4 11 9 22 27 81 46 49 57
REMARK Flexibility Score: inf
ROOT
ATOM      1  C   UNL A   1      33.078  35.851  29.079  1.00  0.00     0.220 C 
ATOM      2  O   UNL A   1      32.682  36.968  28.746  1.00  0.00    -0.275 OA
ATOM      3  N   UNL A   1      32.850  34.782  28.273  1.00  0.00    -0.356 N 
ATOM      4  H   UNL A   1      32.028  34.850  27.737  1.00  0.00     0.163 HD
ENDROOT
BRANCH   1   5
ATOM      5  C   UNL A   1      33.617  35.607  30.448  1.00  0.00     0.110 C 
BRANCH   5   6
ATOM      6  C   UNL A   1      32.752  36.358  31.454  1.00  0.00     0.110 C 
BRANCH   6   7
ATOM      7  C   UNL A   1      33.543  37.114  32.503  1.00  0.00     0.220 C 
ATOM      8  N   UNL A   1      34.314  36.480  33.435  1.00  0.00    -0.353 N 
ATOM      9  H   UNL A   1      34.788  37.095  34.042  1.00  0.00     0.163 HD
ATOM     10  O   UNL A   1      33.528  38.351  32.509  1.00  0.00    -0.275 OA
BRANCH   8  11
ATOM     11  C   UNL A   1      34.577  35.054  33.715  1.00  0.00     0.157 C 
BRANCH  11  12
ATOM     12  C   UNL A   1      35.930  34.379  33.197  1.00  0.00     0.250 C 
BRANCH  12  13
ATOM     13  O   UNL A   1      35.862  33.164  32.434  1.00  0.00    -0.491 OA
BRANCH  13  14
ATOM     14  C   UNL A   1      36.942  32.641  31.757  1.00  0.00     0.122 A 
ATOM     15  C   UNL A   1      39.250  34.685  29.537  1.00  0.00     0.044 C 
ATOM     16  C   UNL A   1      38.700  33.490  30.253  1.00  0.00    -0.047 A 
ATOM     17  C   UNL A   1      39.463  32.361  30.502  1.00  0.00     0.004 A 
ATOM     18  C   UNL A   1      37.425  33.560  30.814  1.00  0.00     0.050 A 
ATOM     19  C   UNL A   1      38.902  31.317  31.242  1.00  0.00     0.007 A 
ATOM     20  C   UNL A   1      37.623  31.429  31.857  1.00  0.00    -0.009 A 
ATOM     21  C   UNL A   1      37.027  30.139  32.344  1.00  0.00     0.048 C 
ENDBRANCH  13  14
ENDBRANCH  12  13
ENDBRANCH  11  12
ENDBRANCH   8  11
ENDBRANCH   6   7
ENDBRANCH   5   6
ENDBRANCH   1   5
BRANCH   3  22
ATOM     22  C   UNL A   1      33.594  33.559  28.058  1.00  0.00     0.117 C 
BRANCH  22  23
ATOM     23  C   UNL A   1      35.136  33.542  28.136  1.00  0.00     0.042 C 
BRANCH  23  24
ATOM     24  C   UNL A   1      35.967  32.263  27.997  1.00  0.00     0.118 C 
BRANCH  24  25
ATOM     25  N   UNL A   1      35.255  31.006  27.793  1.00  0.00    -0.352 N 
ATOM     26  C   UNL A   1      35.757  29.727  27.595  1.00  0.00     0.251 C 
ATOM     27  H   UNL A   1      34.273  31.076  27.796  1.00  0.00     0.163 HD
ATOM     28  O   UNL A   1      34.998  28.820  27.253  1.00  0.00    -0.269 OA
BRANCH  26  29
ATOM     29  C   UNL A   1      37.160  29.395  27.974  1.00  0.00     0.039 A 
ATOM     30  C   UNL A   1      38.176  29.653  27.036  1.00  0.00     0.014 A 
ATOM     31  C   UNL A   1      37.476  28.700  29.133  1.00  0.00     0.014 A 
ATOM     32  C   UNL A   1      39.442  29.066  27.171  1.00  0.00     0.010 A 
ATOM     33  C   UNL A   1      38.689  28.037  29.222  1.00  0.00     0.010 A 
ATOM     34  C   UNL A   1      39.675  28.200  28.233  1.00  0.00    -0.014 A 
BRANCH  34  35
ATOM     35  C   UNL A   1      41.001  27.633  28.530  1.00  0.00     0.031 A 
ATOM     36  C   UNL A   1      41.255  26.293  27.930  1.00  0.00     0.074 A 
ATOM     37  C   UNL A   1      42.039  28.413  28.913  1.00  0.00     0.049 A 
ATOM     38  N   UNL A   1      41.940  25.320  28.437  1.00  0.00    -0.248 NA
ATOM     39  C   UNL A   1      40.628  25.957  26.638  1.00  0.00     0.031 C 
ATOM     40  C   UNL A   1      41.972  29.794  29.358  1.00  0.00     0.029 A 
ATOM     41  N   UNL A   1      43.387  28.219  28.775  1.00  0.00    -0.354 N 
ATOM     42  C   UNL A   1      42.004  24.350  27.445  1.00  0.00     0.074 A 
ATOM     43  C   UNL A   1      41.050  24.715  26.441  1.00  0.00     0.031 C 
ATOM     44  C   UNL A   1      43.146  30.415  29.120  1.00  0.00     0.029 A 
ATOM     45  C   UNL A   1      44.100  29.418  28.673  1.00  0.00     0.049 A 
ATOM     46  H   UNL A   1      43.810  27.330  28.751  1.00  0.00     0.167 HD
ATOM     47  C   UNL A   1      43.002  23.434  27.388  1.00  0.00     0.034 A 
ATOM     48  C   UNL A   1      45.366  29.615  28.225  1.00  0.00     0.034 A 
ATOM     49  C   UNL A   1      43.646  23.256  28.662  1.00  0.00     0.049 A 
ATOM     50  C   UNL A   1      46.082  28.332  28.365  1.00  0.00     0.074 A 
ATOM     51  C   UNL A   1      43.193  22.946  29.930  1.00  0.00     0.029 A 
ATOM     52  N   UNL A   1      44.922  23.738  28.831  1.00  0.00    -0.354 N 
ATOM     53  N   UNL A   1      46.339  27.780  29.517  1.00  0.00    -0.248 NA
ATOM     54  C   UNL A   1      46.171  27.441  27.219  1.00  0.00     0.031 C 
ATOM     55  C   UNL A   1      44.015  23.701  30.814  1.00  0.00     0.029 A 
ATOM     56  C   UNL A   1      44.944  24.395  30.037  1.00  0.00     0.049 A 
ATOM     57  H   UNL A   1      45.675  23.632  28.207  1.00  0.00     0.167 HD
ATOM     58  C   UNL A   1      46.164  26.426  29.302  1.00  0.00     0.074 A 
ATOM     59  C   UNL A   1      46.224  26.265  27.853  1.00  0.00     0.031 C 
ATOM     60  C   UNL A   1      45.682  25.616  30.291  1.00  0.00     0.034 A 
BRANCH  47  61
ATOM     61  C   UNL A   1      43.560  22.912  26.089  1.00  0.00     0.023 A 
ATOM     62  C   UNL A   1      43.561  21.526  25.883  1.00  0.00     0.031 A 
ATOM     63  C   UNL A   1      44.306  23.680  25.161  1.00  0.00     0.131 A 
ATOM     64  C   UNL A   1      44.295  20.960  24.827  1.00  0.00     0.055 A 
ATOM     65  C   UNL A   1      44.955  23.121  24.058  1.00  0.00     0.041 A 
ATOM     66  F   UNL A   1      44.530  24.991  25.325  1.00  0.00    -0.206 F 
ATOM     67  C   UNL A   1      44.971  21.748  23.898  1.00  0.00     0.022 A 
BRANCH  64  68
ATOM     68  S   UNL A   1      44.520  19.164  24.809  1.00  0.00     0.124 S 
ATOM     69  O   UNL A   1      45.761  19.011  25.563  1.00  0.00    -0.237 OA
ATOM     70  O   UNL A   1      43.303  18.705  25.470  1.00  0.00    -0.237 OA
ATOM     71  O   UNL A   1      44.616  18.852  23.385  1.00  0.00    -0.744 OA
ENDBRANCH  64  68
ENDBRANCH  47  61
BRANCH  48  72
ATOM     72  C   UNL A   1      45.918  30.795  27.509  1.00  0.00     0.023 A 
ATOM     73  C   UNL A   1      45.114  31.676  26.759  1.00  0.00     0.031 A 
ATOM     74  C   UNL A   1      47.252  31.201  27.743  1.00  0.00     0.131 A 
ATOM     75  C   UNL A   1      45.650  32.888  26.266  1.00  0.00     0.055 A 
ATOM     76  C   UNL A   1      47.783  32.392  27.241  1.00  0.00     0.041 A 
ATOM     77  F   UNL A   1      48.058  30.489  28.545  1.00  0.00    -0.206 F 
ATOM     78  C   UNL A   1      46.980  33.245  26.502  1.00  0.00     0.022 A 
BRANCH  75  79
ATOM     79  S   UNL A   1      44.576  34.079  25.402  1.00  0.00     0.124 S 
ATOM     80  O   UNL A   1      43.417  34.148  26.283  1.00  0.00    -0.237 OA
ATOM     81  O   UNL A   1      45.417  35.269  25.339  1.00  0.00    -0.237 OA
ATOM     82  O   UNL A   1      44.330  33.438  24.109  1.00  0.00    -0.744 OA
ENDBRANCH  75  79
ENDBRANCH  48  72
BRANCH  60  83
ATOM     83  C   UNL A   1      45.644  26.155  31.709  1.00  0.00     0.023 A 
ATOM     84  C   UNL A   1      44.498  26.725  32.307  1.00  0.00     0.031 A 
ATOM     85  C   UNL A   1      46.766  25.945  32.527  1.00  0.00     0.131 A 
ATOM     86  C   UNL A   1      44.506  27.074  33.670  1.00  0.00     0.055 A 
ATOM     87  C   UNL A   1      46.768  26.274  33.882  1.00  0.00     0.041 A 
ATOM     88  F   UNL A   1      47.873  25.369  32.029  1.00  0.00    -0.206 F 
ATOM     89  C   UNL A   1      45.638  26.846  34.459  1.00  0.00     0.022 A 
BRANCH  86  90
ATOM     90  S   UNL A   1      43.036  27.829  34.433  1.00  0.00     0.124 S 
ATOM     91  O   UNL A   1      43.593  28.831  35.335  1.00  0.00    -0.237 OA
ATOM     92  O   UNL A   1      42.307  28.346  33.276  1.00  0.00    -0.237 OA
ATOM     93  O   UNL A   1      42.385  26.700  35.103  1.00  0.00    -0.744 OA
ENDBRANCH  86  90
ENDBRANCH  60  83
ENDBRANCH  34  35
ENDBRANCH  26  29
ENDBRANCH  24  25
ENDBRANCH  23  24
ENDBRANCH  22  23
ENDBRANCH   3  22
TORSDOF 19
ENDMDL
MODEL 2
REMARK VINA RESULT:     -10.3      5.000     11.272
REMARK SMILES Cc1ccc(C)c(OCCNC(=O)CCC(=O)NCCCNC(=O)c2ccc(-c3c4nc(c(-c5cc(S(=O)(=O)[O-])ccc5F)c5ccc([nH]5)c(-c5cc(S(=O)(=O)[O-])ccc5F)c5nc(c(-c6cc(S(=O)(=O)[O-])ccc6F)c6ccc3[nH]6)C=C5)C=C4)cc2)c1
REMARK SMILES IDX 16 1 17 2 18 3 15 5 14 6 12 7 11 8 13 10 10 11 9 12 8 13
REMARK SMILES IDX 7 14 1 15 2 16 3 17 88 18 4 19 5 20 6 21 19 22 20 23 21 24
REMARK SMILES IDX 22 25 23 26 24 28 25 29 26 30 87 31 27 32 86 33 28 34 29 35
REMARK SMILES IDX 30 36 80 37 31 38 85 39 79 40 81 41 32 42 84 43 78 44 77 45
REMARK SMILES IDX 33 47 65 48 45 49 64 50 46 51 49 52 63 53 82 54 47 55 48 56
REMARK SMILES IDX 62 58 83 59 50 60 34 61 35 62 43 63 36 64 42 65 44 66 41 67
REMARK SMILES IDX 37 68 38 69 39 70 40 71 66 72 67 73 75 74 68 75 74 76 76 77
REMARK SMILES IDX 73 78 69 79 70 80 71 81 72 82 51 83 52 84 60 85 53 86 59 87
REMARK SMILES IDX 61 88 58 89 54 90 55 91 56 92 57 93
REMARK H PARENT 18 4 11 9 22 27 81 46 49 57
REMARK Flexibility Score: inf
ROOT
ATOM      1  C   UNL A   1      35.576  20.676  25.046  1.00  0.00     0.220 C 
ATOM      2  O   UNL A   1      35.076  19.578  24.803  1.00  0.00    -0.275 OA
ATOM      3  N   UNL A   1      36.843  20.751  25.531  1.00  0.00    -0.356 N 
ATOM      4  H   UNL A   1      37.111  19.979  26.078  1.00  0.00     0.163 HD
ENDROOT
BRANCH   1   5
ATOM      5  C   UNL A   1      34.749  21.917  25.022  1.00  0.00     0.110 C 
BRANCH   5   6
ATOM      6  C   UNL A   1      33.577  21.702  24.072  1.00  0.00     0.110 C 
BRANCH   6   7
ATOM      7  C   UNL A   1      32.246  21.503  24.771  1.00  0.00     0.220 C 
ATOM      8  N   UNL A   1      31.430  22.548  25.102  1.00  0.00    -0.353 N 
ATOM      9  H   UNL A   1      30.589  22.273  25.534  1.00  0.00     0.163 HD
ATOM     10  O   UNL A   1      31.854  20.359  25.030  1.00  0.00    -0.275 OA
BRANCH   8  11
ATOM     11  C   UNL A   1      31.561  24.011  24.939  1.00  0.00     0.157 C 
BRANCH  11  12
ATOM     12  C   UNL A   1      31.011  24.989  26.077  1.00  0.00     0.250 C 
BRANCH  12  13
ATOM     13  O   UNL A   1      31.039  26.408  25.857  1.00  0.00    -0.491 OA
BRANCH  13  14
ATOM     14  C   UNL A   1      31.011  26.974  24.602  1.00  0.00     0.122 A 
ATOM     15  C   UNL A   1      27.907  28.493  23.024  1.00  0.00     0.044 C 
ATOM     16  C   UNL A   1      29.336  28.067  23.161  1.00  0.00    -0.047 A 
ATOM     17  C   UNL A   1      30.349  28.618  22.395  1.00  0.00     0.004 A 
ATOM     18  C   UNL A   1      29.688  27.189  24.186  1.00  0.00     0.050 A 
ATOM     19  C   UNL A   1      31.669  28.222  22.634  1.00  0.00     0.007 A 
ATOM     20  C   UNL A   1      32.017  27.373  23.722  1.00  0.00    -0.009 A 
ATOM     21  C   UNL A   1      33.400  26.790  23.667  1.00  0.00     0.048 C 
ENDBRANCH  13  14
ENDBRANCH  12  13
ENDBRANCH  11  12
ENDBRANCH   8  11
ENDBRANCH   6   7
ENDBRANCH   5   6
ENDBRANCH   1   5
BRANCH   3  22
ATOM     22  C   UNL A   1      37.871  21.761  25.391  1.00  0.00     0.117 C 
BRANCH  22  23
ATOM     23  C   UNL A   1      39.267  21.567  26.021  1.00  0.00     0.042 C 
BRANCH  23  24
ATOM     24  C   UNL A   1      40.038  22.696  26.712  1.00  0.00     0.118 C 
BRANCH  24  25
ATOM     25  N   UNL A   1      41.399  22.966  26.263  1.00  0.00    -0.352 N 
ATOM     26  C   UNL A   1      42.097  24.166  26.227  1.00  0.00     0.251 C 
ATOM     27  H   UNL A   1      41.897  22.182  25.938  1.00  0.00     0.163 HD
ATOM     28  O   UNL A   1      43.176  24.226  25.638  1.00  0.00    -0.269 OA
BRANCH  26  29
ATOM     29  C   UNL A   1      41.653  25.328  27.048  1.00  0.00     0.039 A 
ATOM     30  C   UNL A   1      40.910  26.341  26.415  1.00  0.00     0.014 A 
ATOM     31  C   UNL A   1      42.079  25.524  28.355  1.00  0.00     0.014 A 
ATOM     32  C   UNL A   1      40.756  27.598  27.013  1.00  0.00     0.010 A 
ATOM     33  C   UNL A   1      42.018  26.793  28.909  1.00  0.00     0.010 A 
ATOM     34  C   UNL A   1      41.372  27.844  28.236  1.00  0.00    -0.014 A 
BRANCH  34  35
ATOM     35  C   UNL A   1      41.169  29.086  29.000  1.00  0.00     0.031 A 
ATOM     36  C   UNL A   1      42.214  30.127  28.788  1.00  0.00     0.074 A 
ATOM     37  C   UNL A   1      39.953  29.433  29.484  1.00  0.00     0.049 A 
ATOM     38  N   UNL A   1      42.678  30.965  29.657  1.00  0.00    -0.248 NA
ATOM     39  C   UNL A   1      42.874  30.221  27.472  1.00  0.00     0.031 C 
ATOM     40  C   UNL A   1      38.784  28.578  29.595  1.00  0.00     0.029 A 
ATOM     41  N   UNL A   1      39.436  30.668  29.770  1.00  0.00    -0.354 N 
ATOM     42  C   UNL A   1      43.517  31.813  28.947  1.00  0.00     0.074 A 
ATOM     43  C   UNL A   1      43.733  31.213  27.665  1.00  0.00     0.031 C 
ATOM     44  C   UNL A   1      37.660  29.324  29.567  1.00  0.00     0.029 A 
ATOM     45  C   UNL A   1      38.046  30.722  29.621  1.00  0.00     0.049 A 
ATOM     46  H   UNL A   1      39.984  31.437  30.051  1.00  0.00     0.167 HD
ATOM     47  C   UNL A   1      43.797  33.074  29.362  1.00  0.00     0.034 A 
ATOM     48  C   UNL A   1      37.248  31.815  29.511  1.00  0.00     0.034 A 
ATOM     49  C   UNL A   1      43.569  33.241  30.772  1.00  0.00     0.049 A 
ATOM     50  C   UNL A   1      37.978  32.949  30.110  1.00  0.00     0.074 A 
ATOM     51  C   UNL A   1      44.016  32.580  31.901  1.00  0.00     0.029 A 
ATOM     52  N   UNL A   1      42.497  33.995  31.185  1.00  0.00    -0.354 N 
ATOM     53  N   UNL A   1      38.275  33.019  31.377  1.00  0.00    -0.248 NA
ATOM     54  C   UNL A   1      38.743  33.834  29.246  1.00  0.00     0.031 C 
ATOM     55  C   UNL A   1      42.912  32.590  32.800  1.00  0.00     0.029 A 
ATOM     56  C   UNL A   1      41.872  33.289  32.185  1.00  0.00     0.049 A 
ATOM     57  H   UNL A   1      42.227  34.873  30.830  1.00  0.00     0.167 HD
ATOM     58  C   UNL A   1      39.535  33.585  31.409  1.00  0.00     0.074 A 
ATOM     59  C   UNL A   1      39.700  34.209  30.101  1.00  0.00     0.031 C 
ATOM     60  C   UNL A   1      40.436  33.230  32.373  1.00  0.00     0.034 A 
BRANCH  47  61
ATOM     61  C   UNL A   1      44.011  34.220  28.408  1.00  0.00     0.023 A 
ATOM     62  C   UNL A   1      45.329  34.613  28.136  1.00  0.00     0.031 A 
ATOM     63  C   UNL A   1      42.995  35.095  27.950  1.00  0.00     0.131 A 
ATOM     64  C   UNL A   1      45.594  35.823  27.475  1.00  0.00     0.055 A 
ATOM     65  C   UNL A   1      43.260  36.248  27.209  1.00  0.00     0.041 A 
ATOM     66  F   UNL A   1      41.705  34.935  28.277  1.00  0.00    -0.206 F 
ATOM     67  C   UNL A   1      44.569  36.631  26.987  1.00  0.00     0.022 A 
BRANCH  64  68
ATOM     68  S   UNL A   1      47.301  36.425  27.443  1.00  0.00     0.124 S 
ATOM     69  O   UNL A   1      47.181  37.698  28.148  1.00  0.00    -0.237 OA
ATOM     70  O   UNL A   1      48.005  35.360  28.151  1.00  0.00    -0.237 OA
ATOM     71  O   UNL A   1      47.594  36.530  26.017  1.00  0.00    -0.744 OA
ENDBRANCH  64  68
ENDBRANCH  47  61
BRANCH  48  72
ATOM     72  C   UNL A   1      35.981  31.957  28.746  1.00  0.00     0.023 A 
ATOM     73  C   UNL A   1      35.416  30.902  28.004  1.00  0.00     0.031 A 
ATOM     74  C   UNL A   1      35.179  33.108  28.921  1.00  0.00     0.131 A 
ATOM     75  C   UNL A   1      34.116  31.027  27.462  1.00  0.00     0.055 A 
ATOM     76  C   UNL A   1      33.901  33.234  28.371  1.00  0.00     0.041 A 
ATOM     77  F   UNL A   1      35.581  34.115  29.712  1.00  0.00    -0.206 F 
ATOM     78  C   UNL A   1      33.360  32.189  27.640  1.00  0.00     0.022 A 
BRANCH  75  79
ATOM     79  S   UNL A   1      33.342  29.616  26.608  1.00  0.00     0.124 S 
ATOM     80  O   UNL A   1      34.469  28.713  26.417  1.00  0.00    -0.237 OA
ATOM     81  O   UNL A   1      32.324  29.193  27.564  1.00  0.00    -0.237 OA
ATOM     82  O   UNL A   1      32.813  30.211  25.379  1.00  0.00    -0.744 OA
ENDBRANCH  75  79
ENDBRANCH  48  72
BRANCH  60  83
ATOM     83  C   UNL A   1      39.937  32.458  33.578  1.00  0.00     0.023 A 
ATOM     84  C   UNL A   1      39.333  33.056  34.706  1.00  0.00     0.031 A 
ATOM     85  C   UNL A   1      39.940  31.054  33.512  1.00  0.00     0.131 A 
ATOM     86  C   UNL A   1      38.772  32.258  35.720  1.00  0.00     0.055 A 
ATOM     87  C   UNL A   1      39.368  30.264  34.509  1.00  0.00     0.041 A 
ATOM     88  F   UNL A   1      40.462  30.425  32.446  1.00  0.00    -0.206 F 
ATOM     89  C   UNL A   1      38.786  30.863  35.621  1.00  0.00     0.022 A 
BRANCH  86  90
ATOM     90  S   UNL A   1      38.014  33.031  37.184  1.00  0.00     0.124 S 
ATOM     91  O   UNL A   1      36.611  33.167  36.813  1.00  0.00    -0.237 OA
ATOM     92  O   UNL A   1      38.304  32.064  38.240  1.00  0.00    -0.237 OA
ATOM     93  O   UNL A   1      38.737  34.298  37.309  1.00  0.00    -0.744 OA
ENDBRANCH  86  90
ENDBRANCH  60  83
ENDBRANCH  34  35
ENDBRANCH  26  29
ENDBRANCH  24  25
ENDBRANCH  23  24
ENDBRANCH  22  23
ENDBRANCH   3  22
TORSDOF 19
ENDMDL
MODEL 3
REMARK VINA RESULT:     -10.3      4.432     11.912
REMARK SMILES Cc1ccc(C)c(OCCNC(=O)CCC(=O)NCCCNC(=O)c2ccc(-c3c4nc(c(-c5cc(S(=O)(=O)[O-])ccc5F)c5ccc([nH]5)c(-c5cc(S(=O)(=O)[O-])ccc5F)c5nc(c(-c6cc(S(=O)(=O)[O-])ccc6F)c6ccc3[nH]6)C=C5)C=C4)cc2)c1
REMARK SMILES IDX 16 1 17 2 18 3 15 5 14 6 12 7 11 8 13 10 10 11 9 12 8 13
REMARK SMILES IDX 7 14 1 15 2 16 3 17 88 18 4 19 5 20 6 21 19 22 20 23 21 24
REMARK SMILES IDX 22 25 23 26 24 28 25 29 26 30 87 31 27 32 86 33 28 34 29 35
REMARK SMILES IDX 30 36 80 37 31 38 85 39 79 40 81 41 32 42 84 43 78 44 77 45
REMARK SMILES IDX 33 47 65 48 45 49 64 50 46 51 49 52 63 53 82 54 47 55 48 56
REMARK SMILES IDX 62 58 83 59 50 60 34 61 35 62 43 63 36 64 42 65 44 66 41 67
REMARK SMILES IDX 37 68 38 69 39 70 40 71 66 72 67 73 75 74 68 75 74 76 76 77
REMARK SMILES IDX 73 78 69 79 70 80 71 81 72 82 51 83 52 84 60 85 53 86 59 87
REMARK SMILES IDX 61 88 58 89 54 90 55 91 56 92 57 93
REMARK H PARENT 18 4 11 9 22 27 81 46 49 57
REMARK Flexibility Score: inf
ROOT
ATOM      1  C   UNL A   1      49.291  20.781  39.106  1.00  0.00     0.220 C 
ATOM      2  O   UNL A   1      49.825  20.452  40.165  1.00  0.00    -0.275 OA
ATOM      3  N   UNL A   1      48.410  21.815  39.083  1.00  0.00    -0.356 N 
ATOM      4  H   UNL A   1      47.909  21.935  39.922  1.00  0.00     0.163 HD
ENDROOT
BRANCH   1   5
ATOM      5  C   UNL A   1      49.427  19.936  37.884  1.00  0.00     0.110 C 
BRANCH   5   6
ATOM      6  C   UNL A   1      50.802  20.181  37.274  1.00  0.00     0.110 C 
BRANCH   6   7
ATOM      7  C   UNL A   1      51.330  19.016  36.460  1.00  0.00     0.220 C 
ATOM      8  N   UNL A   1      51.436  19.063  35.099  1.00  0.00    -0.353 N 
ATOM      9  H   UNL A   1      51.813  18.244  34.702  1.00  0.00     0.163 HD
ATOM     10  O   UNL A   1      51.715  17.990  37.034  1.00  0.00    -0.275 OA
BRANCH   8  11
ATOM     11  C   UNL A   1      51.095  20.100  34.103  1.00  0.00     0.157 C 
BRANCH  11  12
ATOM     12  C   UNL A   1      49.584  20.262  33.609  1.00  0.00     0.250 C 
BRANCH  12  13
ATOM     13  O   UNL A   1      48.514  19.846  34.472  1.00  0.00    -0.491 OA
BRANCH  13  14
ATOM     14  C   UNL A   1      47.405  20.625  34.720  1.00  0.00     0.122 A 
ATOM     15  C   UNL A   1      47.239  24.361  34.051  1.00  0.00     0.044 C 
ATOM     16  C   UNL A   1      46.784  22.997  34.469  1.00  0.00    -0.047 A 
ATOM     17  C   UNL A   1      45.444  22.659  34.558  1.00  0.00     0.004 A 
ATOM     18  C   UNL A   1      47.730  21.987  34.642  1.00  0.00     0.050 A 
ATOM     19  C   UNL A   1      45.099  21.343  34.883  1.00  0.00     0.007 A 
ATOM     20  C   UNL A   1      46.074  20.313  34.996  1.00  0.00    -0.009 A 
ATOM     21  C   UNL A   1      45.599  19.045  35.647  1.00  0.00     0.048 C 
ENDBRANCH  13  14
ENDBRANCH  12  13
ENDBRANCH  11  12
ENDBRANCH   8  11
ENDBRANCH   6   7
ENDBRANCH   5   6
ENDBRANCH   1   5
BRANCH   3  22
ATOM     22  C   UNL A   1      48.072  22.772  38.051  1.00  0.00     0.117 C 
BRANCH  22  23
ATOM     23  C   UNL A   1      46.961  23.821  38.273  1.00  0.00     0.042 C 
BRANCH  23  24
ATOM     24  C   UNL A   1      45.471  23.514  38.090  1.00  0.00     0.118 C 
BRANCH  24  25
ATOM     25  N   UNL A   1      44.509  24.500  38.568  1.00  0.00    -0.352 N 
ATOM     26  C   UNL A   1      44.027  25.642  37.943  1.00  0.00     0.251 C 
ATOM     27  H   UNL A   1      44.145  24.329  39.467  1.00  0.00     0.163 HD
ATOM     28  O   UNL A   1      43.357  26.452  38.584  1.00  0.00    -0.269 OA
BRANCH  26  29
ATOM     29  C   UNL A   1      44.148  25.808  36.466  1.00  0.00     0.039 A 
ATOM     30  C   UNL A   1      45.244  26.537  35.970  1.00  0.00     0.014 A 
ATOM     31  C   UNL A   1      43.147  25.417  35.587  1.00  0.00     0.014 A 
ATOM     32  C   UNL A   1      45.246  27.023  34.656  1.00  0.00     0.010 A 
ATOM     33  C   UNL A   1      43.095  25.977  34.320  1.00  0.00     0.010 A 
ATOM     34  C   UNL A   1      44.134  26.798  33.851  1.00  0.00    -0.014 A 
BRANCH  34  35
ATOM     35  C   UNL A   1      44.091  27.160  32.425  1.00  0.00     0.031 A 
ATOM     36  C   UNL A   1      44.395  26.042  31.488  1.00  0.00     0.074 A 
ATOM     37  C   UNL A   1      43.416  28.249  31.987  1.00  0.00     0.049 A 
ATOM     38  N   UNL A   1      45.020  26.110  30.357  1.00  0.00    -0.248 NA
ATOM     39  C   UNL A   1      44.018  24.668  31.868  1.00  0.00     0.031 C 
ATOM     40  C   UNL A   1      42.902  29.339  32.798  1.00  0.00     0.029 A 
ATOM     41  N   UNL A   1      42.849  28.504  30.767  1.00  0.00    -0.354 N 
ATOM     42  C   UNL A   1      44.922  24.842  29.800  1.00  0.00     0.074 A 
ATOM     43  C   UNL A   1      44.456  23.965  30.832  1.00  0.00     0.031 C 
ATOM     44  C   UNL A   1      41.852  29.920  32.182  1.00  0.00     0.029 A 
ATOM     45  C   UNL A   1      41.740  29.354  30.851  1.00  0.00     0.049 A 
ATOM     46  H   UNL A   1      43.186  28.131  29.921  1.00  0.00     0.167 HD
ATOM     47  C   UNL A   1      45.001  24.627  28.463  1.00  0.00     0.034 A 
ATOM     48  C   UNL A   1      40.767  29.569  29.929  1.00  0.00     0.034 A 
ATOM     49  C   UNL A   1      45.670  25.704  27.782  1.00  0.00     0.049 A 
ATOM     50  C   UNL A   1      41.324  29.197  28.614  1.00  0.00     0.074 A 
ATOM     51  C   UNL A   1      46.898  26.321  27.936  1.00  0.00     0.029 A 
ATOM     52  N   UNL A   1      44.929  26.546  26.988  1.00  0.00    -0.354 N 
ATOM     53  N   UNL A   1      42.309  29.836  28.049  1.00  0.00    -0.248 NA
ATOM     54  C   UNL A   1      41.066  27.867  28.085  1.00  0.00     0.031 C 
ATOM     55  C   UNL A   1      46.663  27.694  27.644  1.00  0.00     0.029 A 
ATOM     56  C   UNL A   1      45.319  27.828  27.292  1.00  0.00     0.049 A 
ATOM     57  H   UNL A   1      44.248  26.281  26.328  1.00  0.00     0.167 HD
ATOM     58  C   UNL A   1      43.064  28.849  27.445  1.00  0.00     0.074 A 
ATOM     59  C   UNL A   1      42.175  27.696  27.360  1.00  0.00     0.031 C 
ATOM     60  C   UNL A   1      44.422  28.965  27.353  1.00  0.00     0.034 A 
BRANCH  47  61
ATOM     61  C   UNL A   1      44.212  23.555  27.759  1.00  0.00     0.023 A 
ATOM     62  C   UNL A   1      44.860  22.804  26.768  1.00  0.00     0.031 A 
ATOM     63  C   UNL A   1      42.806  23.400  27.836  1.00  0.00     0.131 A 
ATOM     64  C   UNL A   1      44.126  21.980  25.899  1.00  0.00     0.055 A 
ATOM     65  C   UNL A   1      42.092  22.508  27.033  1.00  0.00     0.041 A 
ATOM     66  F   UNL A   1      42.038  24.171  28.619  1.00  0.00    -0.206 F 
ATOM     67  C   UNL A   1      42.750  21.807  26.040  1.00  0.00     0.022 A 
BRANCH  64  68
ATOM     68  S   UNL A   1      44.970  21.298  24.450  1.00  0.00     0.124 S 
ATOM     69  O   UNL A   1      44.396  19.958  24.374  1.00  0.00    -0.237 OA
ATOM     70  O   UNL A   1      44.567  22.233  23.404  1.00  0.00    -0.237 OA
ATOM     71  O   UNL A   1      46.379  21.349  24.828  1.00  0.00    -0.744 OA
ENDBRANCH  64  68
ENDBRANCH  47  61
BRANCH  48  72
ATOM     72  C   UNL A   1      39.335  29.892  30.160  1.00  0.00     0.023 A 
ATOM     73  C   UNL A   1      38.753  31.109  29.754  1.00  0.00     0.031 A 
ATOM     74  C   UNL A   1      38.448  28.883  30.602  1.00  0.00     0.131 A 
ATOM     75  C   UNL A   1      37.352  31.286  29.815  1.00  0.00     0.055 A 
ATOM     76  C   UNL A   1      37.065  29.067  30.676  1.00  0.00     0.041 A 
ATOM     77  F   UNL A   1      38.894  27.652  30.894  1.00  0.00    -0.206 F 
ATOM     78  C   UNL A   1      36.508  30.272  30.278  1.00  0.00     0.022 A 
BRANCH  75  79
ATOM     79  S   UNL A   1      36.594  32.815  29.177  1.00  0.00     0.124 S 
ATOM     80  O   UNL A   1      37.754  33.565  28.713  1.00  0.00    -0.237 OA
ATOM     81  O   UNL A   1      35.692  32.310  28.148  1.00  0.00    -0.237 OA
ATOM     82  O   UNL A   1      35.924  33.378  30.351  1.00  0.00    -0.744 OA
ENDBRANCH  75  79
ENDBRANCH  48  72
BRANCH  60  83
ATOM     83  C   UNL A   1      45.052  30.316  27.633  1.00  0.00     0.023 A 
ATOM     84  C   UNL A   1      45.085  31.380  26.704  1.00  0.00     0.031 A 
ATOM     85  C   UNL A   1      45.498  30.581  28.939  1.00  0.00     0.131 A 
ATOM     86  C   UNL A   1      45.564  32.646  27.089  1.00  0.00     0.055 A 
ATOM     87  C   UNL A   1      45.956  31.840  29.325  1.00  0.00     0.041 A 
ATOM     88  F   UNL A   1      45.454  29.623  29.879  1.00  0.00    -0.206 F 
ATOM     89  C   UNL A   1      45.996  32.878  28.399  1.00  0.00     0.022 A 
BRANCH  86  90
ATOM     90  S   UNL A   1      45.627  34.009  25.885  1.00  0.00     0.124 S 
ATOM     91  O   UNL A   1      45.018  35.126  26.597  1.00  0.00    -0.237 OA
ATOM     92  O   UNL A   1      47.059  34.129  25.615  1.00  0.00    -0.237 OA
ATOM     93  O   UNL A   1      44.840  33.502  24.759  1.00  0.00    -0.744 OA
ENDBRANCH  86  90
ENDBRANCH  60  83
ENDBRANCH  34  35
ENDBRANCH  26  29
ENDBRANCH  24  25
ENDBRANCH  23  24
ENDBRANCH  22  23
ENDBRANCH   3  22
TORSDOF 19
ENDMDL
