MODEL 1
REMARK VINA RESULT:     -14.1      0.000      0.000
REMARK SMILES Cc1ccc(C(=O)NC2(CC(=O)NCCCNC(=O)c3ccc(-c4c5nc(c(-c6cc(S(=O)(=O)[O-])ccc6F)c6ccc([nH]6)c(-c6cc(S(=O)(=O)[O-])ccc6F)c6nc(c(-c7cc(S(=O)(=O)[O-])ccc7F)c7ccc4[nH]7)C=C6)C=C5)cc3)CCC2)cc1
REMARK SMILES IDX 15 1 14 2 13 3 11 4 12 5 10 7 9 8 83 9 85 10 84 11 8 12 6 13
REMARK SMILES IDX 7 14 5 16 1 17 2 18 3 19 87 20 4 21 86 22 16 23 17 24 18 25
REMARK SMILES IDX 19 27 20 28 21 29 82 30 22 31 81 32 23 33 24 34 25 35 75 36
REMARK SMILES IDX 26 37 80 38 74 39 76 40 27 41 79 42 73 43 72 44 28 46 60 47
REMARK SMILES IDX 40 48 59 49 41 50 44 51 58 52 77 53 42 54 43 55 57 57 78 58
REMARK SMILES IDX 45 59 29 60 30 61 38 62 31 63 37 64 39 65 36 66 32 67 33 68
REMARK SMILES IDX 34 69 35 70 61 71 62 72 70 73 63 74 69 75 71 76 68 77 64 78
REMARK SMILES IDX 65 79 66 80 67 81 46 82 47 83 55 84 48 85 54 86 56 87 53 88
REMARK SMILES IDX 49 89 50 90 51 91 52 92
REMARK H PARENT 13 6 8 15 17 26 76 45 44 56
REMARK Flexibility Score: inf
ROOT
ATOM      1  C   UNL A   1      38.203  20.849  25.690  1.00  0.00     0.042 C 
ENDROOT
BRANCH   1   2
ATOM      2  C   UNL A   1      37.125  20.781  24.621  1.00  0.00     0.117 C 
BRANCH   2   3
ATOM      3  N   UNL A   1      35.879  19.680  24.949  1.00  0.00    -0.356 N 
ATOM      4  C   UNL A   1      33.901  19.642  24.921  1.00  0.00     0.222 C 
ATOM      5  O   UNL A   1      33.091  18.696  24.724  1.00  0.00    -0.275 OA
ATOM      6  H   UNL A   1      36.243  18.811  25.234  1.00  0.00     0.163 HD
BRANCH   4   7
ATOM      7  C   UNL A   1      32.820  21.139  25.322  1.00  0.00     0.128 C 
BRANCH   7   8
ATOM      8  C   UNL A   1      33.197  22.286  26.473  1.00  0.00     0.049 C 
ATOM      9  C   UNL A   1      33.739  23.665  25.953  1.00  0.00     0.029 C 
ATOM     10  C   UNL A   1      34.415  22.537  27.619  1.00  0.00     0.029 C 
ATOM     11  C   UNL A   1      35.133  23.366  26.584  1.00  0.00     0.005 C 
BRANCH   8  12
ATOM     12  N   UNL A   1      32.061  22.256  27.378  1.00  0.00    -0.346 N 
ATOM     13  C   UNL A   1      31.032  23.084  27.015  1.00  0.00     0.251 C 
ATOM     14  O   UNL A   1      29.936  23.047  27.554  1.00  0.00    -0.269 OA
ATOM     15  H   UNL A   1      32.034  21.691  28.183  1.00  0.00     0.164 HD
BRANCH  13  16
ATOM     16  C   UNL A   1      31.447  24.168  26.045  1.00  0.00     0.039 A 
ATOM     17  C   UNL A   1      30.920  27.478  22.285  1.00  0.00     0.044 C 
ATOM     18  C   UNL A   1      30.638  26.680  23.537  1.00  0.00    -0.051 A 
ATOM     19  C   UNL A   1      30.306  24.935  23.225  1.00  0.00     0.004 A 
ATOM     20  C   UNL A   1      31.317  27.250  25.113  1.00  0.00     0.004 A 
ATOM     21  C   UNL A   1      30.698  23.703  24.463  1.00  0.00     0.014 A 
ATOM     22  C   UNL A   1      31.810  25.995  26.381  1.00  0.00     0.014 A 
ENDBRANCH  13  16
ENDBRANCH   8  12
ENDBRANCH   7   8
ENDBRANCH   4   7
ENDBRANCH   2   3
ENDBRANCH   1   2
BRANCH   1  23
ATOM     23  C   UNL A   1      38.681  22.259  25.759  1.00  0.00     0.118 C 
BRANCH  23  24
ATOM     24  N   UNL A   1      39.971  22.403  26.415  1.00  0.00    -0.352 N 
ATOM     25  C   UNL A   1      40.685  23.557  26.668  1.00  0.00     0.251 C 
ATOM     26  H   UNL A   1      40.391  21.566  26.718  1.00  0.00     0.163 HD
ATOM     27  O   UNL A   1      41.862  23.503  27.011  1.00  0.00    -0.269 OA
BRANCH  25  28
ATOM     28  C   UNL A   1      39.956  24.853  26.748  1.00  0.00     0.039 A 
ATOM     29  C   UNL A   1      40.659  25.928  26.186  1.00  0.00     0.014 A 
ATOM     30  C   UNL A   1      39.094  25.073  27.807  1.00  0.00     0.014 A 
ATOM     31  C   UNL A   1      40.795  27.090  26.922  1.00  0.00     0.010 A 
ATOM     32  C   UNL A   1      39.452  26.067  28.669  1.00  0.00     0.010 A 
ATOM     33  C   UNL A   1      40.323  27.057  28.224  1.00  0.00    -0.014 A 
BRANCH  33  34
ATOM     34  C   UNL A   1      40.446  28.124  29.183  1.00  0.00     0.031 A 
ATOM     35  C   UNL A   1      39.448  29.185  28.947  1.00  0.00     0.074 A 
ATOM     36  C   UNL A   1      41.253  27.885  30.241  1.00  0.00     0.049 A 
ATOM     37  N   UNL A   1      39.637  30.440  29.102  1.00  0.00    -0.248 NA
ATOM     38  C   UNL A   1      38.130  28.909  28.340  1.00  0.00     0.031 C 
ATOM     39  C   UNL A   1      41.361  28.553  31.530  1.00  0.00     0.029 A 
ATOM     40  N   UNL A   1      42.326  26.981  30.257  1.00  0.00    -0.354 N 
ATOM     41  C   UNL A   1      38.370  30.991  29.142  1.00  0.00     0.074 A 
ATOM     42  C   UNL A   1      37.521  30.091  28.421  1.00  0.00     0.031 C 
ATOM     43  C   UNL A   1      42.581  28.299  32.053  1.00  0.00     0.029 A 
ATOM     44  C   UNL A   1      43.337  27.545  31.059  1.00  0.00     0.049 A 
ATOM     45  H   UNL A   1      42.364  26.113  29.792  1.00  0.00     0.167 HD
ATOM     46  C   UNL A   1      38.113  31.956  30.064  1.00  0.00     0.034 A 
ATOM     47  C   UNL A   1      44.487  27.978  30.450  1.00  0.00     0.034 A 
ATOM     48  C   UNL A   1      39.309  32.155  30.879  1.00  0.00     0.049 A 
ATOM     49  C   UNL A   1      44.508  29.511  30.409  1.00  0.00     0.074 A 
ATOM     50  C   UNL A   1      39.679  31.700  32.134  1.00  0.00     0.029 A 
ATOM     51  N   UNL A   1      40.474  32.545  30.245  1.00  0.00    -0.354 N 
ATOM     52  N   UNL A   1      43.439  30.270  30.438  1.00  0.00    -0.248 NA
ATOM     53  C   UNL A   1      45.739  30.298  30.408  1.00  0.00     0.031 C 
ATOM     54  C   UNL A   1      41.097  31.787  32.221  1.00  0.00     0.029 A 
ATOM     55  C   UNL A   1      41.577  32.281  31.021  1.00  0.00     0.049 A 
ATOM     56  H   UNL A   1      40.509  32.959  29.352  1.00  0.00     0.167 HD
ATOM     57  C   UNL A   1      43.804  31.595  30.469  1.00  0.00     0.074 A 
ATOM     58  C   UNL A   1      45.256  31.552  30.453  1.00  0.00     0.031 C 
ATOM     59  C   UNL A   1      42.894  32.622  30.516  1.00  0.00     0.034 A 
BRANCH  46  60
ATOM     60  C   UNL A   1      36.759  32.470  30.469  1.00  0.00     0.023 A 
ATOM     61  C   UNL A   1      36.062  33.260  29.536  1.00  0.00     0.031 A 
ATOM     62  C   UNL A   1      36.078  32.209  31.673  1.00  0.00     0.131 A 
ATOM     63  C   UNL A   1      34.792  33.784  29.807  1.00  0.00     0.055 A 
ATOM     64  C   UNL A   1      34.816  32.755  31.960  1.00  0.00     0.041 A 
ATOM     65  F   UNL A   1      36.569  31.378  32.602  1.00  0.00    -0.206 F 
ATOM     66  C   UNL A   1      34.163  33.547  31.023  1.00  0.00     0.022 A 
BRANCH  63  67
ATOM     67  S   UNL A   1      33.978  34.747  28.509  1.00  0.00     0.124 S 
ATOM     68  O   UNL A   1      34.866  34.533  27.370  1.00  0.00    -0.237 OA
ATOM     69  O   UNL A   1      32.666  34.114  28.431  1.00  0.00    -0.237 OA
ATOM     70  O   UNL A   1      33.976  36.105  29.048  1.00  0.00    -0.744 OA
ENDBRANCH  63  67
ENDBRANCH  46  60
BRANCH  47  71
ATOM     71  C   UNL A   1      44.866  27.064  29.304  1.00  0.00     0.023 A 
ATOM     72  C   UNL A   1      44.694  27.508  27.960  1.00  0.00     0.031 A 
ATOM     73  C   UNL A   1      45.797  26.039  29.523  1.00  0.00     0.131 A 
ATOM     74  C   UNL A   1      45.584  27.081  26.950  1.00  0.00     0.055 A 
ATOM     75  C   UNL A   1      46.655  25.605  28.506  1.00  0.00     0.041 A 
ATOM     76  F   UNL A   1      45.993  25.543  30.753  1.00  0.00    -0.206 F 
ATOM     77  C   UNL A   1      46.600  26.174  27.236  1.00  0.00     0.022 A 
BRANCH  74  78
ATOM     78  S   UNL A   1      45.458  27.719  25.245  1.00  0.00     0.124 S 
ATOM     79  O   UNL A   1      44.022  27.698  24.996  1.00  0.00    -0.237 OA
ATOM     80  O   UNL A   1      46.060  29.042  25.350  1.00  0.00    -0.237 OA
ATOM     81  O   UNL A   1      46.239  26.769  24.457  1.00  0.00    -0.744 OA
ENDBRANCH  74  78
ENDBRANCH  47  71
BRANCH  59  82
ATOM     82  C   UNL A   1      43.160  34.073  30.143  1.00  0.00     0.023 A 
ATOM     83  C   UNL A   1      43.024  34.546  28.838  1.00  0.00     0.031 A 
ATOM     84  C   UNL A   1      43.481  35.071  31.108  1.00  0.00     0.131 A 
ATOM     85  C   UNL A   1      43.322  35.877  28.508  1.00  0.00     0.055 A 
ATOM     86  C   UNL A   1      43.649  36.422  30.797  1.00  0.00     0.041 A 
ATOM     87  F   UNL A   1      43.641  34.797  32.410  1.00  0.00    -0.206 F 
ATOM     88  C   UNL A   1      43.605  36.829  29.480  1.00  0.00     0.022 A 
BRANCH  85  89
ATOM     89  S   UNL A   1      43.451  36.283  26.754  1.00  0.00     0.124 S 
ATOM     90  O   UNL A   1      44.898  36.407  26.584  1.00  0.00    -0.237 OA
ATOM     91  O   UNL A   1      42.837  35.123  26.118  1.00  0.00    -0.237 OA
ATOM     92  O   UNL A   1      42.703  37.532  26.635  1.00  0.00    -0.744 OA
ENDBRANCH  85  89
ENDBRANCH  59  82
ENDBRANCH  33  34
ENDBRANCH  25  28
ENDBRANCH  23  24
ENDBRANCH   1  23
TORSDOF 16
ENDMDL
MODEL 2
REMARK VINA RESULT:     -13.9      1.325      2.143
REMARK SMILES Cc1ccc(C(=O)NC2(CC(=O)NCCCNC(=O)c3ccc(-c4c5nc(c(-c6cc(S(=O)(=O)[O-])ccc6F)c6ccc([nH]6)c(-c6cc(S(=O)(=O)[O-])ccc6F)c6nc(c(-c7cc(S(=O)(=O)[O-])ccc7F)c7ccc4[nH]7)C=C6)C=C5)cc3)CCC2)cc1
REMARK SMILES IDX 15 1 14 2 13 3 11 4 12 5 10 7 9 8 83 9 85 10 84 11 8 12 6 13
REMARK SMILES IDX 7 14 5 16 1 17 2 18 3 19 87 20 4 21 86 22 16 23 17 24 18 25
REMARK SMILES IDX 19 27 20 28 21 29 82 30 22 31 81 32 23 33 24 34 25 35 75 36
REMARK SMILES IDX 26 37 80 38 74 39 76 40 27 41 79 42 73 43 72 44 28 46 60 47
REMARK SMILES IDX 40 48 59 49 41 50 44 51 58 52 77 53 42 54 43 55 57 57 78 58
REMARK SMILES IDX 45 59 29 60 30 61 38 62 31 63 37 64 39 65 36 66 32 67 33 68
REMARK SMILES IDX 34 69 35 70 61 71 62 72 70 73 63 74 69 75 71 76 68 77 64 78
REMARK SMILES IDX 65 79 66 80 67 81 46 82 47 83 55 84 48 85 54 86 56 87 53 88
REMARK SMILES IDX 49 89 50 90 51 91 52 92
REMARK H PARENT 13 6 8 15 17 26 76 45 44 56
REMARK Flexibility Score: inf
ROOT
ATOM      1  C   UNL A   1      38.056  20.937  25.361  1.00  0.00     0.042 C 
ENDROOT
BRANCH   1   2
ATOM      2  C   UNL A   1      36.557  21.082  25.157  1.00  0.00     0.117 C 
BRANCH   2   3
ATOM      3  N   UNL A   1      35.683  21.417  26.570  1.00  0.00    -0.356 N 
ATOM      4  C   UNL A   1      34.096  22.468  27.107  1.00  0.00     0.222 C 
ATOM      5  O   UNL A   1      33.262  22.298  28.038  1.00  0.00    -0.275 OA
ATOM      6  H   UNL A   1      36.078  20.957  27.345  1.00  0.00     0.163 HD
BRANCH   4   7
ATOM      7  C   UNL A   1      33.594  24.097  26.291  1.00  0.00     0.128 C 
BRANCH   7   8
ATOM      8  C   UNL A   1      32.164  24.330  25.465  1.00  0.00     0.049 C 
ATOM      9  C   UNL A   1      31.140  25.346  26.088  1.00  0.00     0.029 C 
ATOM     10  C   UNL A   1      30.737  23.465  25.191  1.00  0.00     0.029 C 
ATOM     11  C   UNL A   1      30.147  24.181  26.380  1.00  0.00     0.005 C 
BRANCH   8  12
ATOM     12  N   UNL A   1      32.582  24.488  24.083  1.00  0.00    -0.346 N 
ATOM     13  C   UNL A   1      33.080  25.729  23.785  1.00  0.00     0.251 C 
ATOM     14  O   UNL A   1      33.643  25.975  22.729  1.00  0.00    -0.269 OA
ATOM     15  H   UNL A   1      32.512  23.766  23.418  1.00  0.00     0.164 HD
BRANCH  13  16
ATOM     16  C   UNL A   1      32.684  26.791  24.787  1.00  0.00     0.039 A 
ATOM     17  C   UNL A   1      33.133  31.021  27.483  1.00  0.00     0.044 C 
ATOM     18  C   UNL A   1      33.154  30.061  26.316  1.00  0.00    -0.051 A 
ATOM     19  C   UNL A   1      34.438  28.800  26.439  1.00  0.00     0.004 A 
ATOM     20  C   UNL A   1      31.629  29.776  25.387  1.00  0.00     0.004 A 
ATOM     21  C   UNL A   1      34.207  27.195  25.679  1.00  0.00     0.014 A 
ATOM     22  C   UNL A   1      31.324  28.102  24.660  1.00  0.00     0.014 A 
ENDBRANCH  13  16
ENDBRANCH   8  12
ENDBRANCH   7   8
ENDBRANCH   4   7
ENDBRANCH   2   3
ENDBRANCH   1   2
BRANCH   1  23
ATOM     23  C   UNL A   1      38.629  22.308  25.473  1.00  0.00     0.118 C 
BRANCH  23  24
ATOM     24  N   UNL A   1      39.838  22.367  26.280  1.00  0.00    -0.352 N 
ATOM     25  C   UNL A   1      40.559  23.477  26.673  1.00  0.00     0.251 C 
ATOM     26  H   UNL A   1      40.188  21.500  26.587  1.00  0.00     0.163 HD
ATOM     27  O   UNL A   1      41.684  23.357  27.147  1.00  0.00    -0.269 OA
BRANCH  25  28
ATOM     28  C   UNL A   1      39.872  24.797  26.734  1.00  0.00     0.039 A 
ATOM     29  C   UNL A   1      40.625  25.847  26.188  1.00  0.00     0.014 A 
ATOM     30  C   UNL A   1      38.993  25.049  27.772  1.00  0.00     0.014 A 
ATOM     31  C   UNL A   1      40.783  27.005  26.926  1.00  0.00     0.010 A 
ATOM     32  C   UNL A   1      39.365  26.031  28.641  1.00  0.00     0.010 A 
ATOM     33  C   UNL A   1      40.279  26.990  28.217  1.00  0.00    -0.014 A 
BRANCH  33  34
ATOM     34  C   UNL A   1      40.416  28.054  29.177  1.00  0.00     0.031 A 
ATOM     35  C   UNL A   1      39.416  29.116  28.958  1.00  0.00     0.074 A 
ATOM     36  C   UNL A   1      41.237  27.811  30.223  1.00  0.00     0.049 A 
ATOM     37  N   UNL A   1      39.608  30.371  29.115  1.00  0.00    -0.248 NA
ATOM     38  C   UNL A   1      38.089  28.842  28.369  1.00  0.00     0.031 C 
ATOM     39  C   UNL A   1      41.364  28.475  31.512  1.00  0.00     0.029 A 
ATOM     40  N   UNL A   1      42.310  26.907  30.221  1.00  0.00    -0.354 N 
ATOM     41  C   UNL A   1      38.341  30.922  29.174  1.00  0.00     0.074 A 
ATOM     42  C   UNL A   1      37.482  30.025  28.462  1.00  0.00     0.031 C 
ATOM     43  C   UNL A   1      42.591  28.219  32.018  1.00  0.00     0.029 A 
ATOM     44  C   UNL A   1      43.333  27.468  31.011  1.00  0.00     0.049 A 
ATOM     45  H   UNL A   1      42.342  26.041  29.753  1.00  0.00     0.167 HD
ATOM     46  C   UNL A   1      38.098  31.884  30.102  1.00  0.00     0.034 A 
ATOM     47  C   UNL A   1      44.475  27.903  30.388  1.00  0.00     0.034 A 
ATOM     48  C   UNL A   1      39.305  32.080  30.901  1.00  0.00     0.049 A 
ATOM     49  C   UNL A   1      44.495  29.436  30.351  1.00  0.00     0.074 A 
ATOM     50  C   UNL A   1      39.692  31.621  32.150  1.00  0.00     0.029 A 
ATOM     51  N   UNL A   1      40.461  32.471  30.252  1.00  0.00    -0.354 N 
ATOM     52  N   UNL A   1      43.428  30.194  30.397  1.00  0.00    -0.248 NA
ATOM     53  C   UNL A   1      45.727  30.222  30.335  1.00  0.00     0.031 C 
ATOM     54  C   UNL A   1      41.111  31.707  32.218  1.00  0.00     0.029 A 
ATOM     55  C   UNL A   1      41.574  32.205  31.013  1.00  0.00     0.049 A 
ATOM     56  H   UNL A   1      40.484  32.888  29.360  1.00  0.00     0.167 HD
ATOM     57  C   UNL A   1      43.793  31.519  30.428  1.00  0.00     0.074 A 
ATOM     58  C   UNL A   1      45.246  31.476  30.391  1.00  0.00     0.031 C 
ATOM     59  C   UNL A   1      42.885  32.546  30.490  1.00  0.00     0.034 A 
BRANCH  46  60
ATOM     60  C   UNL A   1      36.749  32.397  30.528  1.00  0.00     0.023 A 
ATOM     61  C   UNL A   1      36.047  33.206  29.614  1.00  0.00     0.031 A 
ATOM     62  C   UNL A   1      36.078  32.120  31.734  1.00  0.00     0.131 A 
ATOM     63  C   UNL A   1      34.783  33.730  29.905  1.00  0.00     0.055 A 
ATOM     64  C   UNL A   1      34.821  32.667  32.041  1.00  0.00     0.041 A 
ATOM     65  F   UNL A   1      36.574  31.272  32.645  1.00  0.00    -0.206 F 
ATOM     66  C   UNL A   1      34.164  33.476  31.122  1.00  0.00     0.022 A 
BRANCH  63  67
ATOM     67  S   UNL A   1      33.961  34.718  28.630  1.00  0.00     0.124 S 
ATOM     68  O   UNL A   1      32.586  34.234  28.710  1.00  0.00    -0.237 OA
ATOM     69  O   UNL A   1      34.194  36.080  29.096  1.00  0.00    -0.237 OA
ATOM     70  O   UNL A   1      34.676  34.353  27.409  1.00  0.00    -0.744 OA
ENDBRANCH  63  67
ENDBRANCH  46  60
BRANCH  47  71
ATOM     71  C   UNL A   1      44.837  26.992  29.233  1.00  0.00     0.023 A 
ATOM     72  C   UNL A   1      44.701  27.461  27.894  1.00  0.00     0.031 A 
ATOM     73  C   UNL A   1      45.727  25.930  29.451  1.00  0.00     0.131 A 
ATOM     74  C   UNL A   1      45.590  27.017  26.890  1.00  0.00     0.055 A 
ATOM     75  C   UNL A   1      46.583  25.480  28.440  1.00  0.00     0.041 A 
ATOM     76  F   UNL A   1      45.886  25.410  30.676  1.00  0.00    -0.206 F 
ATOM     77  C   UNL A   1      46.568  26.069  27.178  1.00  0.00     0.022 A 
BRANCH  74  78
ATOM     78  S   UNL A   1      45.513  27.683  25.194  1.00  0.00     0.124 S 
ATOM     79  O   UNL A   1      44.080  27.756  24.939  1.00  0.00    -0.237 OA
ATOM     80  O   UNL A   1      46.197  28.965  25.319  1.00  0.00    -0.237 OA
ATOM     81  O   UNL A   1      46.238  26.696  24.397  1.00  0.00    -0.744 OA
ENDBRANCH  74  78
ENDBRANCH  47  71
BRANCH  59  82
ATOM     82  C   UNL A   1      43.147  33.999  30.119  1.00  0.00     0.023 A 
ATOM     83  C   UNL A   1      43.030  34.467  28.810  1.00  0.00     0.031 A 
ATOM     84  C   UNL A   1      43.443  35.001  31.086  1.00  0.00     0.131 A 
ATOM     85  C   UNL A   1      43.324  35.800  28.481  1.00  0.00     0.055 A 
ATOM     86  C   UNL A   1      43.606  36.353  30.775  1.00  0.00     0.041 A 
ATOM     87  F   UNL A   1      43.582  34.732  32.392  1.00  0.00    -0.206 F 
ATOM     88  C   UNL A   1      43.582  36.757  29.456  1.00  0.00     0.022 A 
BRANCH  85  89
ATOM     89  S   UNL A   1      43.480  36.203  26.729  1.00  0.00     0.124 S 
ATOM     90  O   UNL A   1      42.783  37.485  26.656  1.00  0.00    -0.237 OA
ATOM     91  O   UNL A   1      44.927  36.260  26.550  1.00  0.00    -0.237 OA
ATOM     92  O   UNL A   1      42.810  35.091  26.060  1.00  0.00    -0.744 OA
ENDBRANCH  85  89
ENDBRANCH  59  82
ENDBRANCH  33  34
ENDBRANCH  25  28
ENDBRANCH  23  24
ENDBRANCH   1  23
TORSDOF 16
ENDMDL
MODEL 3
REMARK VINA RESULT:     -13.8      4.399      9.704
REMARK SMILES Cc1ccc(C(=O)NC2(CC(=O)NCCCNC(=O)c3ccc(-c4c5nc(c(-c6cc(S(=O)(=O)[O-])ccc6F)c6ccc([nH]6)c(-c6cc(S(=O)(=O)[O-])ccc6F)c6nc(c(-c7cc(S(=O)(=O)[O-])ccc7F)c7ccc4[nH]7)C=C6)C=C5)cc3)CCC2)cc1
REMARK SMILES IDX 15 1 14 2 13 3 11 4 12 5 10 7 9 8 83 9 85 10 84 11 8 12 6 13
REMARK SMILES IDX 7 14 5 16 1 17 2 18 3 19 87 20 4 21 86 22 16 23 17 24 18 25
REMARK SMILES IDX 19 27 20 28 21 29 82 30 22 31 81 32 23 33 24 34 25 35 75 36
REMARK SMILES IDX 26 37 80 38 74 39 76 40 27 41 79 42 73 43 72 44 28 46 60 47
REMARK SMILES IDX 40 48 59 49 41 50 44 51 58 52 77 53 42 54 43 55 57 57 78 58
REMARK SMILES IDX 45 59 29 60 30 61 38 62 31 63 37 64 39 65 36 66 32 67 33 68
REMARK SMILES IDX 34 69 35 70 61 71 62 72 70 73 63 74 69 75 71 76 68 77 64 78
REMARK SMILES IDX 65 79 66 80 67 81 46 82 47 83 55 84 48 85 54 86 56 87 53 88
REMARK SMILES IDX 49 89 50 90 51 91 52 92
REMARK H PARENT 13 6 8 15 17 26 76 45 44 56
REMARK Flexibility Score: inf
ROOT
ATOM      1  C   UNL A   1      35.335  31.730  28.442  1.00  0.00     0.042 C 
ENDROOT
BRANCH   1   2
ATOM      2  C   UNL A   1      34.984  30.355  27.897  1.00  0.00     0.117 C 
BRANCH   2   3
ATOM      3  N   UNL A   1      33.965  30.375  26.543  1.00  0.00    -0.356 N 
ATOM      4  C   UNL A   1      32.335  29.449  25.911  1.00  0.00     0.222 C 
ATOM      5  O   UNL A   1      31.406  29.831  25.148  1.00  0.00    -0.275 OA
ATOM      6  H   UNL A   1      34.272  31.037  25.881  1.00  0.00     0.163 HD
BRANCH   4   7
ATOM      7  C   UNL A   1      31.934  27.647  26.311  1.00  0.00     0.128 C 
BRANCH   7   8
ATOM      8  C   UNL A   1      30.994  26.660  25.350  1.00  0.00     0.049 C 
ATOM      9  C   UNL A   1      31.611  26.205  23.979  1.00  0.00     0.029 C 
ATOM     10  C   UNL A   1      29.620  26.823  24.377  1.00  0.00     0.029 C 
ATOM     11  C   UNL A   1      30.547  27.047  23.210  1.00  0.00     0.005 C 
BRANCH   8  12
ATOM     12  N   UNL A   1      30.480  25.663  26.272  1.00  0.00    -0.346 N 
ATOM     13  C   UNL A   1      31.302  24.581  26.444  1.00  0.00     0.251 C 
ATOM     14  O   UNL A   1      31.115  23.744  27.314  1.00  0.00    -0.269 OA
ATOM     15  H   UNL A   1      29.616  25.756  26.734  1.00  0.00     0.164 HD
BRANCH  13  16
ATOM     16  C   UNL A   1      32.319  24.418  25.335  1.00  0.00     0.039 A 
ATOM     17  C   UNL A   1      36.625  22.956  23.171  1.00  0.00     0.044 C 
ATOM     18  C   UNL A   1      35.359  22.929  23.995  1.00  0.00    -0.051 A 
ATOM     19  C   UNL A   1      35.424  23.984  25.457  1.00  0.00     0.004 A 
ATOM     20  C   UNL A   1      33.793  22.523  23.186  1.00  0.00     0.004 A 
ATOM     21  C   UNL A   1      33.925  24.708  26.118  1.00  0.00     0.014 A 
ATOM     22  C   UNL A   1      32.238  23.321  23.794  1.00  0.00     0.014 A 
ENDBRANCH  13  16
ENDBRANCH   8  12
ENDBRANCH   7   8
ENDBRANCH   4   7
ENDBRANCH   2   3
ENDBRANCH   1   2
BRANCH   1  23
ATOM     23  C   UNL A   1      35.409  31.621  29.926  1.00  0.00     0.118 C 
BRANCH  23  24
ATOM     24  N   UNL A   1      34.429  32.443  30.617  1.00  0.00    -0.352 N 
ATOM     25  C   UNL A   1      34.549  33.090  31.831  1.00  0.00     0.251 C 
ATOM     26  H   UNL A   1      33.565  32.554  30.158  1.00  0.00     0.163 HD
ATOM     27  O   UNL A   1      33.562  33.546  32.398  1.00  0.00    -0.269 OA
BRANCH  25  28
ATOM     28  C   UNL A   1      35.909  33.434  32.333  1.00  0.00     0.039 A 
ATOM     29  C   UNL A   1      36.749  33.977  31.350  1.00  0.00     0.014 A 
ATOM     30  C   UNL A   1      36.450  32.692  33.367  1.00  0.00     0.014 A 
ATOM     31  C   UNL A   1      38.017  33.450  31.196  1.00  0.00     0.010 A 
ATOM     32  C   UNL A   1      37.556  31.958  33.056  1.00  0.00     0.010 A 
ATOM     33  C   UNL A   1      38.319  32.330  31.954  1.00  0.00    -0.014 A 
BRANCH  33  34
ATOM     34  C   UNL A   1      39.544  31.578  31.879  1.00  0.00     0.031 A 
ATOM     35  C   UNL A   1      39.373  30.335  31.103  1.00  0.00     0.074 A 
ATOM     36  C   UNL A   1      40.661  32.214  32.300  1.00  0.00     0.049 A 
ATOM     37  N   UNL A   1      39.933  29.212  31.352  1.00  0.00    -0.248 NA
ATOM     38  C   UNL A   1      38.384  30.215  30.012  1.00  0.00     0.031 C 
ATOM     39  C   UNL A   1      42.069  31.922  32.074  1.00  0.00     0.029 A 
ATOM     40  N   UNL A   1      40.696  33.265  33.229  1.00  0.00    -0.354 N 
ATOM     41  C   UNL A   1      39.794  28.477  30.189  1.00  0.00     0.074 A 
ATOM     42  C   UNL A   1      38.643  29.003  29.520  1.00  0.00     0.031 C 
ATOM     43  C   UNL A   1      42.800  32.508  33.048  1.00  0.00     0.029 A 
ATOM     44  C   UNL A   1      41.867  33.107  33.997  1.00  0.00     0.049 A 
ATOM     45  H   UNL A   1      40.026  33.980  33.325  1.00  0.00     0.167 HD
ATOM     46  C   UNL A   1      40.855  27.747  29.756  1.00  0.00     0.034 A 
ATOM     47  C   UNL A   1      41.740  32.741  35.312  1.00  0.00     0.034 A 
ATOM     48  C   UNL A   1      41.979  27.972  30.661  1.00  0.00     0.049 A 
ATOM     49  C   UNL A   1      42.155  31.275  35.487  1.00  0.00     0.074 A 
ATOM     50  C   UNL A   1      43.097  28.785  30.589  1.00  0.00     0.029 A 
ATOM     51  N   UNL A   1      41.820  27.643  31.995  1.00  0.00    -0.354 N 
ATOM     52  N   UNL A   1      42.120  30.375  34.536  1.00  0.00    -0.248 NA
ATOM     53  C   UNL A   1      42.711  30.741  36.728  1.00  0.00     0.031 C 
ATOM     54  C   UNL A   1      43.580  28.972  31.914  1.00  0.00     0.029 A 
ATOM     55  C   UNL A   1      42.749  28.282  32.780  1.00  0.00     0.049 A 
ATOM     56  H   UNL A   1      41.130  27.030  32.338  1.00  0.00     0.167 HD
ATOM     57  C   UNL A   1      42.633  29.185  34.995  1.00  0.00     0.074 A 
ATOM     58  C   UNL A   1      42.990  29.474  36.374  1.00  0.00     0.031 C 
ATOM     59  C   UNL A   1      42.734  28.060  34.214  1.00  0.00     0.034 A 
BRANCH  46  60
ATOM     60  C   UNL A   1      41.018  27.124  28.396  1.00  0.00     0.023 A 
ATOM     61  C   UNL A   1      41.104  25.720  28.334  1.00  0.00     0.031 A 
ATOM     62  C   UNL A   1      41.048  27.790  27.157  1.00  0.00     0.131 A 
ATOM     63  C   UNL A   1      41.250  25.038  27.121  1.00  0.00     0.055 A 
ATOM     64  C   UNL A   1      41.223  27.111  25.940  1.00  0.00     0.041 A 
ATOM     65  F   UNL A   1      40.859  29.112  27.055  1.00  0.00    -0.206 F 
ATOM     66  C   UNL A   1      41.322  25.725  25.916  1.00  0.00     0.022 A 
BRANCH  63  67
ATOM     67  S   UNL A   1      41.302  23.229  27.168  1.00  0.00     0.124 S 
ATOM     68  O   UNL A   1      39.909  22.892  27.445  1.00  0.00    -0.237 OA
ATOM     69  O   UNL A   1      41.793  22.900  25.834  1.00  0.00    -0.237 OA
ATOM     70  O   UNL A   1      42.236  22.947  28.255  1.00  0.00    -0.744 OA
ENDBRANCH  63  67
ENDBRANCH  46  60
BRANCH  47  71
ATOM     71  C   UNL A   1      40.519  33.388  35.934  1.00  0.00     0.023 A 
ATOM     72  C   UNL A   1      39.476  32.570  36.458  1.00  0.00     0.031 A 
ATOM     73  C   UNL A   1      40.614  34.697  36.430  1.00  0.00     0.131 A 
ATOM     74  C   UNL A   1      38.729  32.999  37.578  1.00  0.00     0.055 A 
ATOM     75  C   UNL A   1      39.848  35.119  37.522  1.00  0.00     0.041 A 
ATOM     76  F   UNL A   1      41.547  35.539  35.964  1.00  0.00    -0.206 F 
ATOM     77  C   UNL A   1      38.955  34.250  38.144  1.00  0.00     0.022 A 
BRANCH  74  78
ATOM     78  S   UNL A   1      37.464  31.928  38.340  1.00  0.00     0.124 S 
ATOM     79  O   UNL A   1      37.482  30.747  37.486  1.00  0.00    -0.237 OA
ATOM     80  O   UNL A   1      37.976  31.735  39.692  1.00  0.00    -0.237 OA
ATOM     81  O   UNL A   1      36.243  32.726  38.273  1.00  0.00    -0.744 OA
ENDBRANCH  74  78
ENDBRANCH  47  71
BRANCH  59  82
ATOM     82  C   UNL A   1      42.887  26.631  34.715  1.00  0.00     0.023 A 
ATOM     83  C   UNL A   1      43.878  25.774  34.235  1.00  0.00     0.031 A 
ATOM     84  C   UNL A   1      42.091  26.093  35.766  1.00  0.00     0.131 A 
ATOM     85  C   UNL A   1      43.970  24.445  34.675  1.00  0.00     0.055 A 
ATOM     86  C   UNL A   1      42.270  24.813  36.294  1.00  0.00     0.041 A 
ATOM     87  F   UNL A   1      41.100  26.780  36.351  1.00  0.00    -0.206 F 
ATOM     88  C   UNL A   1      43.194  23.962  35.723  1.00  0.00     0.022 A 
BRANCH  85  89
ATOM     89  S   UNL A   1      45.048  23.339  33.741  1.00  0.00     0.124 S 
ATOM     90  O   UNL A   1      44.922  22.095  34.497  1.00  0.00    -0.237 OA
ATOM     91  O   UNL A   1      44.430  23.342  32.420  1.00  0.00    -0.237 OA
ATOM     92  O   UNL A   1      46.356  23.986  33.822  1.00  0.00    -0.744 OA
ENDBRANCH  85  89
ENDBRANCH  59  82
ENDBRANCH  33  34
ENDBRANCH  25  28
ENDBRANCH  23  24
ENDBRANCH   1  23
TORSDOF 16
ENDMDL
