MODEL 1
REMARK VINA RESULT:     -13.1      0.000      0.000
REMARK SMILES Cc1ccc(C)c(N2C(=O)S[C@H](CC(=O)Nc3ccc(C(=O)NCCCNC(=O)c4ccc(-c5c6nc(c(-c7cc(S(=O)(=O)[O-])ccc7F)c7ccc([nH]7)c(-c7cc(S(=O)(=O)[O-])ccc7F)c7nc(c(-c8cc(S(=O)(=O)[O-])ccc8F)c8ccc5[nH]8)C=C7)C=C6)cc4)c(O)c3)C2=O)c1
REMARK SMILES IDX 24 1 23 2 21 3 22 4 20 6 17 7 18 8 95 9 19 10 93 11 16 12
REMARK SMILES IDX 14 13 15 14 13 16 12 17 8 18 9 19 96 20 10 21 11 22 97 23
REMARK SMILES IDX 7 24 1 25 2 26 3 27 98 28 4 29 5 30 6 31 94 32 25 34 26 35
REMARK SMILES IDX 27 36 28 37 29 39 30 40 31 41 92 42 32 43 91 44 33 45 34 46
REMARK SMILES IDX 35 47 85 48 36 49 90 50 84 51 86 52 37 53 89 54 83 55 82 56
REMARK SMILES IDX 38 58 70 59 50 60 69 61 51 62 54 63 68 64 87 65 52 66 53 67
REMARK SMILES IDX 67 69 88 70 55 71 39 72 40 73 48 74 41 75 47 76 49 77 46 78
REMARK SMILES IDX 42 79 43 80 44 81 45 82 71 83 72 84 80 85 73 86 79 87 81 88
REMARK SMILES IDX 78 89 74 90 75 91 76 92 77 93 56 94 57 95 65 96 58 97 64 98
REMARK SMILES IDX 66 99 63 100 59 101 60 102 61 103 62 104
REMARK H PARENT 23 5 16 15 94 33 27 38 86 57 54 68
REMARK Flexibility Score: inf
ROOT
ATOM      1  C   UNL A   1      37.756  23.712  26.162  1.00  0.00     0.118 C 
ENDROOT
BRANCH   1   2
ATOM      2  N   UNL A   1      37.942  22.295  25.997  1.00  0.00    -0.352 N 
ATOM      3  C   UNL A   1      37.317  21.469  25.086  1.00  0.00     0.255 C 
ATOM      4  O   UNL A   1      37.745  20.324  24.961  1.00  0.00    -0.269 OA
ATOM      5  H   UNL A   1      38.589  21.867  26.602  1.00  0.00     0.163 HD
BRANCH   3   6
ATOM      6  C   UNL A   1      36.068  21.865  24.350  1.00  0.00     0.081 A 
ATOM      7  C   UNL A   1      33.567  23.000  23.778  1.00  0.00     0.044 A 
ATOM      8  C   UNL A   1      33.672  21.776  24.414  1.00  0.00     0.027 A 
ATOM      9  C   UNL A   1      34.689  23.477  23.129  1.00  0.00     0.073 A 
ATOM     10  C   UNL A   1      34.902  21.253  24.791  1.00  0.00     0.020 A 
ATOM     11  C   UNL A   1      35.912  22.824  23.340  1.00  0.00     0.130 A 
BRANCH   7  12
ATOM     12  N   UNL A   1      32.329  23.652  23.717  1.00  0.00    -0.326 N 
ATOM     13  C   UNL A   1      31.884  24.648  24.569  1.00  0.00     0.226 C 
ATOM     14  O   UNL A   1      30.677  24.840  24.717  1.00  0.00    -0.275 OA
ATOM     15  H   UNL A   1      31.715  23.375  22.999  1.00  0.00     0.169 HD
BRANCH  13  16
ATOM     16  C   UNL A   1      32.913  25.638  25.114  1.00  0.00     0.125 C 
BRANCH  16  17
ATOM     17  C   UNL A   1      33.160  26.918  24.315  1.00  0.00     0.156 C 
ATOM     18  N   UNL A   1      31.077  27.536  23.299  1.00  0.00    -0.240 N 
ATOM     19  C   UNL A   1      31.635  26.854  22.252  1.00  0.00     0.293 C 
ATOM     20  C   UNL A   1      31.899  27.771  24.390  1.00  0.00     0.248 C 
ATOM     21  O   UNL A   1      31.104  26.413  21.243  1.00  0.00    -0.261 OA
ATOM     22  S   UNL A   1      33.366  26.709  22.524  1.00  0.00    -0.050 SA
ATOM     23  O   UNL A   1      31.686  28.534  25.325  1.00  0.00    -0.273 OA
BRANCH  18  24
ATOM     24  C   UNL A   1      29.916  28.309  23.072  1.00  0.00     0.056 A 
ATOM     25  C   UNL A   1      28.948  31.826  21.918  1.00  0.00     0.044 C 
ATOM     26  C   UNL A   1      28.875  30.398  22.379  1.00  0.00    -0.049 A 
ATOM     27  C   UNL A   1      27.621  29.842  22.660  1.00  0.00     0.004 A 
ATOM     28  C   UNL A   1      30.027  29.620  22.578  1.00  0.00     0.030 A 
ATOM     29  C   UNL A   1      27.514  28.553  23.180  1.00  0.00     0.006 A 
ATOM     30  C   UNL A   1      28.654  27.774  23.401  1.00  0.00    -0.027 A 
ATOM     31  C   UNL A   1      28.455  26.411  24.007  1.00  0.00     0.046 C 
ENDBRANCH  18  24
ENDBRANCH  16  17
ENDBRANCH  13  16
ENDBRANCH   7  12
BRANCH  11  32
ATOM     32  O   UNL A   1      36.881  23.108  22.415  1.00  0.00    -0.507 OA
ATOM     33  H   UNL A   1      37.234  22.423  21.881  1.00  0.00     0.293 HD
ENDBRANCH  11  32
ENDBRANCH   3   6
ENDBRANCH   1   2
BRANCH   1  34
ATOM     34  C   UNL A   1      38.919  24.558  26.605  1.00  0.00     0.042 C 
BRANCH  34  35
ATOM     35  C   UNL A   1      39.768  23.983  27.712  1.00  0.00     0.118 C 
BRANCH  35  36
ATOM     36  N   UNL A   1      40.696  22.920  27.330  1.00  0.00    -0.352 N 
ATOM     37  C   UNL A   1      42.069  23.033  27.122  1.00  0.00     0.251 C 
ATOM     38  H   UNL A   1      40.308  22.024  27.206  1.00  0.00     0.163 HD
ATOM     39  O   UNL A   1      42.736  22.058  26.792  1.00  0.00    -0.269 OA
BRANCH  37  40
ATOM     40  C   UNL A   1      42.722  24.325  27.440  1.00  0.00     0.039 A 
ATOM     41  C   UNL A   1      43.136  24.552  28.755  1.00  0.00     0.014 A 
ATOM     42  C   UNL A   1      42.570  25.390  26.578  1.00  0.00     0.014 A 
ATOM     43  C   UNL A   1      42.974  25.825  29.308  1.00  0.00     0.010 A 
ATOM     44  C   UNL A   1      42.363  26.631  27.139  1.00  0.00     0.010 A 
ATOM     45  C   UNL A   1      42.395  26.826  28.534  1.00  0.00    -0.014 A 
BRANCH  45  46
ATOM     46  C   UNL A   1      41.981  28.139  29.073  1.00  0.00     0.031 A 
ATOM     47  C   UNL A   1      42.895  29.206  28.596  1.00  0.00     0.074 A 
ATOM     48  C   UNL A   1      40.829  28.509  29.687  1.00  0.00     0.049 A 
ATOM     49  N   UNL A   1      44.111  29.388  29.009  1.00  0.00    -0.248 NA
ATOM     50  C   UNL A   1      42.601  29.822  27.281  1.00  0.00     0.031 C 
ATOM     51  C   UNL A   1      39.609  27.751  29.956  1.00  0.00     0.029 A 
ATOM     52  N   UNL A   1      40.502  29.754  30.162  1.00  0.00    -0.354 N 
ATOM     53  C   UNL A   1      44.618  30.338  28.142  1.00  0.00     0.074 A 
ATOM     54  C   UNL A   1      43.848  30.163  26.949  1.00  0.00     0.031 C 
ATOM     55  C   UNL A   1      38.626  28.595  30.379  1.00  0.00     0.029 A 
ATOM     56  C   UNL A   1      39.166  29.942  30.535  1.00  0.00     0.049 A 
ATOM     57  H   UNL A   1      41.168  30.475  30.236  1.00  0.00     0.167 HD
ATOM     58  C   UNL A   1      45.256  31.459  28.586  1.00  0.00     0.034 A 
ATOM     59  C   UNL A   1      38.568  31.118  30.918  1.00  0.00     0.034 A 
ATOM     60  C   UNL A   1      45.411  31.393  30.032  1.00  0.00     0.049 A 
ATOM     61  C   UNL A   1      39.662  32.040  31.320  1.00  0.00     0.074 A 
ATOM     62  C   UNL A   1      46.025  30.527  30.918  1.00  0.00     0.029 A 
ATOM     63  N   UNL A   1      44.497  32.102  30.791  1.00  0.00    -0.354 N 
ATOM     64  N   UNL A   1      40.415  31.831  32.363  1.00  0.00    -0.248 NA
ATOM     65  C   UNL A   1      40.258  32.887  30.294  1.00  0.00     0.031 C 
ATOM     66  C   UNL A   1      45.134  30.431  32.031  1.00  0.00     0.029 A 
ATOM     67  C   UNL A   1      44.071  31.312  31.829  1.00  0.00     0.049 A 
ATOM     68  H   UNL A   1      44.200  33.025  30.615  1.00  0.00     0.167 HD
ATOM     69  C   UNL A   1      41.704  32.109  31.936  1.00  0.00     0.074 A 
ATOM     70  C   UNL A   1      41.536  32.856  30.689  1.00  0.00     0.031 C 
ATOM     71  C   UNL A   1      42.771  31.437  32.466  1.00  0.00     0.034 A 
BRANCH  58  72
ATOM     72  C   UNL A   1      45.276  32.788  27.840  1.00  0.00     0.023 A 
ATOM     73  C   UNL A   1      46.496  33.128  27.236  1.00  0.00     0.031 A 
ATOM     74  C   UNL A   1      44.314  33.825  27.866  1.00  0.00     0.131 A 
ATOM     75  C   UNL A   1      46.796  34.457  26.905  1.00  0.00     0.055 A 
ATOM     76  C   UNL A   1      44.606  35.145  27.513  1.00  0.00     0.041 A 
ATOM     77  F   UNL A   1      43.044  33.652  28.236  1.00  0.00    -0.206 F 
ATOM     78  C   UNL A   1      45.869  35.478  27.070  1.00  0.00     0.022 A 
BRANCH  75  79
ATOM     79  S   UNL A   1      48.494  34.834  26.427  1.00  0.00     0.124 S 
ATOM     80  O   UNL A   1      48.470  34.494  25.009  1.00  0.00    -0.237 OA
ATOM     81  O   UNL A   1      48.582  36.255  26.751  1.00  0.00    -0.237 OA
ATOM     82  O   UNL A   1      49.285  33.948  27.275  1.00  0.00    -0.744 OA
ENDBRANCH  75  79
ENDBRANCH  58  72
BRANCH  59  83
ATOM     83  C   UNL A   1      37.160  31.603  30.718  1.00  0.00     0.023 A 
ATOM     84  C   UNL A   1      36.391  32.336  31.671  1.00  0.00     0.031 A 
ATOM     85  C   UNL A   1      36.631  31.550  29.415  1.00  0.00     0.131 A 
ATOM     86  C   UNL A   1      35.164  32.958  31.294  1.00  0.00     0.055 A 
ATOM     87  C   UNL A   1      35.421  32.147  29.061  1.00  0.00     0.041 A 
ATOM     88  F   UNL A   1      37.325  31.001  28.406  1.00  0.00    -0.206 F 
ATOM     89  C   UNL A   1      34.692  32.872  29.986  1.00  0.00     0.022 A 
BRANCH  86  90
ATOM     90  S   UNL A   1      34.165  33.959  32.463  1.00  0.00     0.124 S 
ATOM     91  O   UNL A   1      33.401  34.819  31.569  1.00  0.00    -0.237 OA
ATOM     92  O   UNL A   1      33.414  32.947  33.195  1.00  0.00    -0.237 OA
ATOM     93  O   UNL A   1      35.173  34.659  33.265  1.00  0.00    -0.744 OA
ENDBRANCH  86  90
ENDBRANCH  59  83
BRANCH  71  94
ATOM     94  C   UNL A   1      42.531  30.626  33.726  1.00  0.00     0.023 A 
ATOM     95  C   UNL A   1      42.434  29.214  33.790  1.00  0.00     0.031 A 
ATOM     96  C   UNL A   1      42.486  31.335  34.937  1.00  0.00     0.131 A 
ATOM     97  C   UNL A   1      42.285  28.573  35.038  1.00  0.00     0.055 A 
ATOM     98  C   UNL A   1      42.361  30.697  36.170  1.00  0.00     0.041 A 
ATOM     99  F   UNL A   1      42.594  32.674  34.944  1.00  0.00    -0.206 F 
ATOM    100  C   UNL A   1      42.254  29.312  36.224  1.00  0.00     0.022 A 
BRANCH  97 101
ATOM    101  S   UNL A   1      42.111  26.760  35.146  1.00  0.00     0.124 S 
ATOM    102  O   UNL A   1      43.120  26.265  34.219  1.00  0.00    -0.237 OA
ATOM    103  O   UNL A   1      42.362  26.503  36.562  1.00  0.00    -0.237 OA
ATOM    104  O   UNL A   1      40.728  26.525  34.725  1.00  0.00    -0.744 OA
ENDBRANCH  97 101
ENDBRANCH  71  94
ENDBRANCH  45  46
ENDBRANCH  37  40
ENDBRANCH  35  36
ENDBRANCH  34  35
ENDBRANCH   1  34
TORSDOF 18
ENDMDL
MODEL 2
REMARK VINA RESULT:     -12.9      5.390     10.749
REMARK SMILES Cc1ccc(C)c(N2C(=O)S[C@H](CC(=O)Nc3ccc(C(=O)NCCCNC(=O)c4ccc(-c5c6nc(c(-c7cc(S(=O)(=O)[O-])ccc7F)c7ccc([nH]7)c(-c7cc(S(=O)(=O)[O-])ccc7F)c7nc(c(-c8cc(S(=O)(=O)[O-])ccc8F)c8ccc5[nH]8)C=C7)C=C6)cc4)c(O)c3)C2=O)c1
REMARK SMILES IDX 24 1 23 2 21 3 22 4 20 6 17 7 18 8 95 9 19 10 93 11 16 12
REMARK SMILES IDX 14 13 15 14 13 16 12 17 8 18 9 19 96 20 10 21 11 22 97 23
REMARK SMILES IDX 7 24 1 25 2 26 3 27 98 28 4 29 5 30 6 31 94 32 25 34 26 35
REMARK SMILES IDX 27 36 28 37 29 39 30 40 31 41 92 42 32 43 91 44 33 45 34 46
REMARK SMILES IDX 35 47 85 48 36 49 90 50 84 51 86 52 37 53 89 54 83 55 82 56
REMARK SMILES IDX 38 58 70 59 50 60 69 61 51 62 54 63 68 64 87 65 52 66 53 67
REMARK SMILES IDX 67 69 88 70 55 71 39 72 40 73 48 74 41 75 47 76 49 77 46 78
REMARK SMILES IDX 42 79 43 80 44 81 45 82 71 83 72 84 80 85 73 86 79 87 81 88
REMARK SMILES IDX 78 89 74 90 75 91 76 92 77 93 56 94 57 95 65 96 58 97 64 98
REMARK SMILES IDX 66 99 63 100 59 101 60 102 61 103 62 104
REMARK H PARENT 23 5 16 15 94 33 27 38 86 57 54 68
REMARK Flexibility Score: inf
ROOT
ATOM      1  C   UNL A   1      40.148  21.744  26.396  1.00  0.00     0.118 C 
ENDROOT
BRANCH   1   2
ATOM      2  N   UNL A   1      40.685  20.553  27.001  1.00  0.00    -0.352 N 
ATOM      3  C   UNL A   1      41.975  20.073  26.905  1.00  0.00     0.255 C 
ATOM      4  O   UNL A   1      42.300  19.150  27.648  1.00  0.00    -0.269 OA
ATOM      5  H   UNL A   1      40.061  20.023  27.546  1.00  0.00     0.163 HD
BRANCH   3   6
ATOM      6  C   UNL A   1      42.940  20.537  25.851  1.00  0.00     0.081 A 
ATOM      7  C   UNL A   1      45.064  21.871  24.595  1.00  0.00     0.044 A 
ATOM      8  C   UNL A   1      43.833  22.479  24.763  1.00  0.00     0.027 A 
ATOM      9  C   UNL A   1      45.120  20.499  24.739  1.00  0.00     0.073 A 
ATOM     10  C   UNL A   1      42.807  21.866  25.471  1.00  0.00     0.020 A 
ATOM     11  C   UNL A   1      44.003  19.836  25.265  1.00  0.00     0.130 A 
BRANCH   7  12
ATOM     12  N   UNL A   1      46.169  22.631  24.185  1.00  0.00    -0.326 N 
ATOM     13  C   UNL A   1      46.562  23.852  24.704  1.00  0.00     0.226 C 
ATOM     14  O   UNL A   1      47.238  24.623  24.023  1.00  0.00    -0.275 OA
ATOM     15  H   UNL A   1      46.718  22.260  23.457  1.00  0.00     0.169 HD
BRANCH  13  16
ATOM     16  C   UNL A   1      46.345  24.100  26.197  1.00  0.00     0.125 C 
BRANCH  16  17
ATOM     17  C   UNL A   1      46.706  25.480  26.747  1.00  0.00     0.156 C 
ATOM     18  N   UNL A   1      45.639  25.699  28.884  1.00  0.00    -0.240 N 
ATOM     19  C   UNL A   1      44.703  26.326  28.108  1.00  0.00     0.293 C 
ATOM     20  C   UNL A   1      46.833  25.367  28.261  1.00  0.00     0.248 C 
ATOM     21  O   UNL A   1      43.542  26.607  28.370  1.00  0.00    -0.261 OA
ATOM     22  S   UNL A   1      45.436  26.763  26.570  1.00  0.00    -0.050 SA
ATOM     23  O   UNL A   1      47.873  25.007  28.801  1.00  0.00    -0.273 OA
BRANCH  18  24
ATOM     24  C   UNL A   1      45.547  25.804  30.289  1.00  0.00     0.056 A 
ATOM     25  C   UNL A   1      46.847  28.016  33.128  1.00  0.00     0.044 C 
ATOM     26  C   UNL A   1      46.121  26.947  32.362  1.00  0.00    -0.049 A 
ATOM     27  C   UNL A   1      45.390  25.985  33.070  1.00  0.00     0.004 A 
ATOM     28  C   UNL A   1      46.189  26.858  30.962  1.00  0.00     0.030 A 
ATOM     29  C   UNL A   1      44.780  24.923  32.406  1.00  0.00     0.006 A 
ATOM     30  C   UNL A   1      44.856  24.811  31.013  1.00  0.00    -0.027 A 
ATOM     31  C   UNL A   1      44.209  23.611  30.378  1.00  0.00     0.046 C 
ENDBRANCH  18  24
ENDBRANCH  16  17
ENDBRANCH  13  16
ENDBRANCH   7  12
BRANCH  11  32
ATOM     32  O   UNL A   1      43.984  18.484  25.048  1.00  0.00    -0.507 OA
ATOM     33  H   UNL A   1      43.242  17.977  25.314  1.00  0.00     0.293 HD
ENDBRANCH  11  32
ENDBRANCH   3   6
ENDBRANCH   1   2
BRANCH   1  34
ATOM     34  C   UNL A   1      39.853  22.938  27.262  1.00  0.00     0.042 C 
BRANCH  34  35
ATOM     35  C   UNL A   1      39.476  24.203  26.534  1.00  0.00     0.118 C 
BRANCH  35  36
ATOM     36  N   UNL A   1      40.576  24.953  25.927  1.00  0.00    -0.352 N 
ATOM     37  C   UNL A   1      40.867  26.306  26.091  1.00  0.00     0.251 C 
ATOM     38  H   UNL A   1      41.178  24.446  25.337  1.00  0.00     0.163 HD
ATOM     39  O   UNL A   1      41.820  26.817  25.512  1.00  0.00    -0.269 OA
BRANCH  37  40
ATOM     40  C   UNL A   1      40.080  27.076  27.084  1.00  0.00     0.039 A 
ATOM     41  C   UNL A   1      39.854  28.433  26.841  1.00  0.00     0.014 A 
ATOM     42  C   UNL A   1      39.921  26.573  28.358  1.00  0.00     0.014 A 
ATOM     43  C   UNL A   1      39.902  29.331  27.910  1.00  0.00     0.010 A 
ATOM     44  C   UNL A   1      40.020  27.464  29.404  1.00  0.00     0.010 A 
ATOM     45  C   UNL A   1      40.184  28.846  29.184  1.00  0.00    -0.014 A 
BRANCH  45  46
ATOM     46  C   UNL A   1      40.469  29.716  30.345  1.00  0.00     0.031 A 
ATOM     47  C   UNL A   1      39.269  30.511  30.704  1.00  0.00     0.074 A 
ATOM     48  C   UNL A   1      41.512  29.704  31.212  1.00  0.00     0.049 A 
ATOM     49  N   UNL A   1      38.808  31.517  30.027  1.00  0.00    -0.248 NA
ATOM     50  C   UNL A   1      38.277  29.883  31.609  1.00  0.00     0.031 C 
ATOM     51  C   UNL A   1      42.652  28.794  31.317  1.00  0.00     0.029 A 
ATOM     52  N   UNL A   1      41.717  30.541  32.280  1.00  0.00    -0.354 N 
ATOM     53  C   UNL A   1      37.587  31.784  30.618  1.00  0.00     0.074 A 
ATOM     54  C   UNL A   1      37.192  30.529  31.179  1.00  0.00     0.031 C 
ATOM     55  C   UNL A   1      43.317  29.022  32.484  1.00  0.00     0.029 A 
ATOM     56  C   UNL A   1      42.738  30.176  33.165  1.00  0.00     0.049 A 
ATOM     57  H   UNL A   1      41.176  31.352  32.417  1.00  0.00     0.167 HD
ATOM     58  C   UNL A   1      37.230  33.041  31.010  1.00  0.00     0.034 A 
ATOM     59  C   UNL A   1      43.053  30.773  34.362  1.00  0.00     0.034 A 
ATOM     60  C   UNL A   1      38.249  33.993  30.588  1.00  0.00     0.049 A 
ATOM     61  C   UNL A   1      42.450  32.130  34.332  1.00  0.00     0.074 A 
ATOM     62  C   UNL A   1      38.796  34.377  29.378  1.00  0.00     0.029 A 
ATOM     63  N   UNL A   1      39.166  34.391  31.545  1.00  0.00    -0.354 N 
ATOM     64  N   UNL A   1      42.850  33.063  33.514  1.00  0.00    -0.248 NA
ATOM     65  C   UNL A   1      41.085  32.286  34.819  1.00  0.00     0.031 C 
ATOM     66  C   UNL A   1      40.192  34.550  29.632  1.00  0.00     0.029 A 
ATOM     67  C   UNL A   1      40.424  34.364  30.996  1.00  0.00     0.049 A 
ATOM     68  H   UNL A   1      38.951  34.651  32.471  1.00  0.00     0.167 HD
ATOM     69  C   UNL A   1      41.685  33.636  33.027  1.00  0.00     0.074 A 
ATOM     70  C   UNL A   1      40.634  33.192  33.944  1.00  0.00     0.031 C 
ATOM     71  C   UNL A   1      41.640  34.148  31.760  1.00  0.00     0.034 A 
BRANCH  58  72
ATOM     72  C   UNL A   1      36.284  33.344  32.165  1.00  0.00     0.023 A 
ATOM     73  C   UNL A   1      35.132  34.073  31.832  1.00  0.00     0.031 A 
ATOM     74  C   UNL A   1      36.514  33.195  33.553  1.00  0.00     0.131 A 
ATOM     75  C   UNL A   1      34.415  34.781  32.807  1.00  0.00     0.055 A 
ATOM     76  C   UNL A   1      35.785  33.883  34.526  1.00  0.00     0.041 A 
ATOM     77  F   UNL A   1      37.451  32.397  34.069  1.00  0.00    -0.206 F 
ATOM     78  C   UNL A   1      34.753  34.719  34.152  1.00  0.00     0.022 A 
BRANCH  75  79
ATOM     79  S   UNL A   1      33.146  35.930  32.237  1.00  0.00     0.124 S 
ATOM     80  O   UNL A   1      33.564  36.151  30.858  1.00  0.00    -0.237 OA
ATOM     81  O   UNL A   1      31.931  35.143  32.427  1.00  0.00    -0.237 OA
ATOM     82  O   UNL A   1      33.300  37.070  33.135  1.00  0.00    -0.744 OA
ENDBRANCH  75  79
ENDBRANCH  58  72
BRANCH  59  83
ATOM     83  C   UNL A   1      43.602  30.180  35.629  1.00  0.00     0.023 A 
ATOM     84  C   UNL A   1      43.356  28.857  36.102  1.00  0.00     0.031 A 
ATOM     85  C   UNL A   1      44.628  30.884  36.287  1.00  0.00     0.131 A 
ATOM     86  C   UNL A   1      44.117  28.315  37.180  1.00  0.00     0.055 A 
ATOM     87  C   UNL A   1      45.353  30.352  37.352  1.00  0.00     0.041 A 
ATOM     88  F   UNL A   1      45.035  32.086  35.848  1.00  0.00    -0.206 F 
ATOM     89  C   UNL A   1      45.122  29.061  37.791  1.00  0.00     0.022 A 
BRANCH  86  90
ATOM     90  S   UNL A   1      43.881  26.601  37.790  1.00  0.00     0.124 S 
ATOM     91  O   UNL A   1      44.480  26.653  39.118  1.00  0.00    -0.237 OA
ATOM     92  O   UNL A   1      42.435  26.434  37.733  1.00  0.00    -0.237 OA
ATOM     93  O   UNL A   1      44.621  25.786  36.822  1.00  0.00    -0.744 OA
ENDBRANCH  86  90
ENDBRANCH  59  83
BRANCH  71  94
ATOM     94  C   UNL A   1      42.961  34.348  31.039  1.00  0.00     0.023 A 
ATOM     95  C   UNL A   1      43.518  33.464  30.082  1.00  0.00     0.031 A 
ATOM     96  C   UNL A   1      43.641  35.551  31.284  1.00  0.00     0.131 A 
ATOM     97  C   UNL A   1      44.720  33.802  29.425  1.00  0.00     0.055 A 
ATOM     98  C   UNL A   1      44.816  35.892  30.617  1.00  0.00     0.041 A 
ATOM     99  F   UNL A   1      43.152  36.440  32.165  1.00  0.00    -0.206 F 
ATOM    100  C   UNL A   1      45.364  35.014  29.688  1.00  0.00     0.022 A 
BRANCH  97 101
ATOM    101  S   UNL A   1      45.484  32.662  28.223  1.00  0.00     0.124 S 
ATOM    102  O   UNL A   1      46.368  31.844  29.045  1.00  0.00    -0.237 OA
ATOM    103  O   UNL A   1      44.325  31.979  27.656  1.00  0.00    -0.237 OA
ATOM    104  O   UNL A   1      46.173  33.559  27.292  1.00  0.00    -0.744 OA
ENDBRANCH  97 101
ENDBRANCH  71  94
ENDBRANCH  45  46
ENDBRANCH  37  40
ENDBRANCH  35  36
ENDBRANCH  34  35
ENDBRANCH   1  34
TORSDOF 18
ENDMDL
MODEL 3
REMARK VINA RESULT:     -12.9      8.185     15.228
REMARK SMILES Cc1ccc(C)c(N2C(=O)S[C@H](CC(=O)Nc3ccc(C(=O)NCCCNC(=O)c4ccc(-c5c6nc(c(-c7cc(S(=O)(=O)[O-])ccc7F)c7ccc([nH]7)c(-c7cc(S(=O)(=O)[O-])ccc7F)c7nc(c(-c8cc(S(=O)(=O)[O-])ccc8F)c8ccc5[nH]8)C=C7)C=C6)cc4)c(O)c3)C2=O)c1
REMARK SMILES IDX 24 1 23 2 21 3 22 4 20 6 17 7 18 8 95 9 19 10 93 11 16 12
REMARK SMILES IDX 14 13 15 14 13 16 12 17 8 18 9 19 96 20 10 21 11 22 97 23
REMARK SMILES IDX 7 24 1 25 2 26 3 27 98 28 4 29 5 30 6 31 94 32 25 34 26 35
REMARK SMILES IDX 27 36 28 37 29 39 30 40 31 41 92 42 32 43 91 44 33 45 34 46
REMARK SMILES IDX 35 47 85 48 36 49 90 50 84 51 86 52 37 53 89 54 83 55 82 56
REMARK SMILES IDX 38 58 70 59 50 60 69 61 51 62 54 63 68 64 87 65 52 66 53 67
REMARK SMILES IDX 67 69 88 70 55 71 39 72 40 73 48 74 41 75 47 76 49 77 46 78
REMARK SMILES IDX 42 79 43 80 44 81 45 82 71 83 72 84 80 85 73 86 79 87 81 88
REMARK SMILES IDX 78 89 74 90 75 91 76 92 77 93 56 94 57 95 65 96 58 97 64 98
REMARK SMILES IDX 66 99 63 100 59 101 60 102 61 103 62 104
REMARK H PARENT 23 5 16 15 94 33 27 38 86 57 54 68
REMARK Flexibility Score: inf
ROOT
ATOM      1  C   UNL A   1      45.358  21.861  34.915  1.00  0.00     0.118 C 
ENDROOT
BRANCH   1   2
ATOM      2  N   UNL A   1      45.336  20.443  34.669  1.00  0.00    -0.352 N 
ATOM      3  C   UNL A   1      45.788  19.441  35.504  1.00  0.00     0.255 C 
ATOM      4  O   UNL A   1      45.508  18.281  35.211  1.00  0.00    -0.269 OA
ATOM      5  H   UNL A   1      44.954  20.156  33.809  1.00  0.00     0.163 HD
BRANCH   3   6
ATOM      6  C   UNL A   1      46.708  19.700  36.663  1.00  0.00     0.081 A 
ATOM      7  C   UNL A   1      48.357  19.278  38.893  1.00  0.00     0.044 A 
ATOM      8  C   UNL A   1      46.983  19.383  39.025  1.00  0.00     0.027 A 
ATOM      9  C   UNL A   1      48.918  19.727  37.714  1.00  0.00     0.073 A 
ATOM     10  C   UNL A   1      46.151  19.491  37.918  1.00  0.00     0.020 A 
ATOM     11  C   UNL A   1      48.067  20.042  36.646  1.00  0.00     0.130 A 
BRANCH   7  12
ATOM     12  N   UNL A   1      49.131  18.834  39.974  1.00  0.00    -0.326 N 
ATOM     13  C   UNL A   1      48.824  18.979  41.316  1.00  0.00     0.226 C 
ATOM     14  O   UNL A   1      49.721  18.965  42.159  1.00  0.00    -0.275 OA
ATOM     15  H   UNL A   1      49.975  18.376  39.758  1.00  0.00     0.169 HD
BRANCH  13  16
ATOM     16  C   UNL A   1      47.353  18.908  41.727  1.00  0.00     0.125 C 
BRANCH  16  17
ATOM     17  C   UNL A   1      46.998  18.059  42.948  1.00  0.00     0.156 C 
ATOM     18  N   UNL A   1      44.793  17.184  42.590  1.00  0.00    -0.240 N 
ATOM     19  C   UNL A   1      44.473  18.280  43.343  1.00  0.00     0.293 C 
ATOM     20  C   UNL A   1      46.143  16.889  42.475  1.00  0.00     0.248 C 
ATOM     21  O   UNL A   1      43.388  18.824  43.497  1.00  0.00    -0.261 OA
ATOM     22  S   UNL A   1      45.916  18.843  44.175  1.00  0.00    -0.050 SA
ATOM     23  O   UNL A   1      46.640  15.854  42.044  1.00  0.00    -0.273 OA
BRANCH  18  24
ATOM     24  C   UNL A   1      43.803  16.206  42.346  1.00  0.00     0.056 A 
ATOM     25  C   UNL A   1      41.967  13.406  44.198  1.00  0.00     0.044 C 
ATOM     26  C   UNL A   1      42.408  14.373  43.136  1.00  0.00    -0.049 A 
ATOM     27  C   UNL A   1      41.872  14.254  41.848  1.00  0.00     0.004 A 
ATOM     28  C   UNL A   1      43.372  15.364  43.385  1.00  0.00     0.030 A 
ATOM     29  C   UNL A   1      42.323  15.069  40.811  1.00  0.00     0.006 A 
ATOM     30  C   UNL A   1      43.297  16.047  41.040  1.00  0.00    -0.027 A 
ATOM     31  C   UNL A   1      43.761  16.854  39.858  1.00  0.00     0.046 C 
ENDBRANCH  18  24
ENDBRANCH  16  17
ENDBRANCH  13  16
ENDBRANCH   7  12
BRANCH  11  32
ATOM     32  O   UNL A   1      48.639  20.805  35.662  1.00  0.00    -0.507 OA
ATOM     33  H   UNL A   1      48.139  21.476  35.240  1.00  0.00     0.293 HD
ENDBRANCH  11  32
ENDBRANCH   3   6
ENDBRANCH   1   2
BRANCH   1  34
ATOM     34  C   UNL A   1      44.065  22.629  34.894  1.00  0.00     0.042 C 
BRANCH  34  35
ATOM     35  C   UNL A   1      44.191  24.130  34.811  1.00  0.00     0.118 C 
BRANCH  35  36
ATOM     36  N   UNL A   1      44.746  24.799  35.988  1.00  0.00    -0.352 N 
ATOM     37  C   UNL A   1      45.828  25.676  36.029  1.00  0.00     0.251 C 
ATOM     38  H   UNL A   1      44.306  24.608  36.848  1.00  0.00     0.163 HD
ATOM     39  O   UNL A   1      46.201  26.162  37.091  1.00  0.00    -0.269 OA
BRANCH  37  40
ATOM     40  C   UNL A   1      46.427  26.108  34.744  1.00  0.00     0.039 A 
ATOM     41  C   UNL A   1      45.941  27.273  34.145  1.00  0.00     0.014 A 
ATOM     42  C   UNL A   1      47.145  25.201  33.993  1.00  0.00     0.014 A 
ATOM     43  C   UNL A   1      45.796  27.313  32.756  1.00  0.00     0.010 A 
ATOM     44  C   UNL A   1      46.954  25.222  32.628  1.00  0.00     0.010 A 
ATOM     45  C   UNL A   1      46.131  26.186  32.012  1.00  0.00    -0.014 A 
BRANCH  45  46
ATOM     46  C   UNL A   1      45.823  26.035  30.574  1.00  0.00     0.031 A 
ATOM     47  C   UNL A   1      46.839  26.736  29.751  1.00  0.00     0.074 A 
ATOM     48  C   UNL A   1      44.955  25.202  29.948  1.00  0.00     0.049 A 
ATOM     49  N   UNL A   1      46.940  28.023  29.623  1.00  0.00    -0.248 NA
ATOM     50  C   UNL A   1      48.075  25.993  29.409  1.00  0.00     0.031 C 
ATOM     51  C   UNL A   1      44.094  24.148  30.483  1.00  0.00     0.029 A 
ATOM     52  N   UNL A   1      44.718  25.107  28.600  1.00  0.00    -0.354 N 
ATOM     53  C   UNL A   1      48.136  28.198  28.952  1.00  0.00     0.074 A 
ATOM     54  C   UNL A   1      48.898  27.037  29.295  1.00  0.00     0.031 C 
ATOM     55  C   UNL A   1      43.575  23.414  29.459  1.00  0.00     0.029 A 
ATOM     56  C   UNL A   1      43.957  24.009  28.182  1.00  0.00     0.049 A 
ATOM     57  H   UNL A   1      45.064  25.772  27.962  1.00  0.00     0.167 HD
ATOM     58  C   UNL A   1      48.237  28.984  27.842  1.00  0.00     0.034 A 
ATOM     59  C   UNL A   1      43.691  23.626  26.889  1.00  0.00     0.034 A 
ATOM     60  C   UNL A   1      46.969  29.662  27.605  1.00  0.00     0.049 A 
ATOM     61  C   UNL A   1      43.942  24.815  26.033  1.00  0.00     0.074 A 
ATOM     62  C   UNL A   1      46.173  30.536  28.319  1.00  0.00     0.029 A 
ATOM     63  N   UNL A   1      46.137  29.111  26.646  1.00  0.00    -0.354 N 
ATOM     64  N   UNL A   1      43.213  25.894  26.093  1.00  0.00    -0.248 NA
ATOM     65  C   UNL A   1      45.286  25.011  25.508  1.00  0.00     0.031 C 
ATOM     66  C   UNL A   1      44.830  30.118  28.065  1.00  0.00     0.029 A 
ATOM     67  C   UNL A   1      44.855  29.079  27.134  1.00  0.00     0.049 A 
ATOM     68  H   UNL A   1      46.419  28.795  25.756  1.00  0.00     0.167 HD
ATOM     69  C   UNL A   1      44.121  26.941  26.066  1.00  0.00     0.074 A 
ATOM     70  C   UNL A   1      45.373  26.343  25.598  1.00  0.00     0.031 C 
ATOM     71  C   UNL A   1      43.853  28.110  26.723  1.00  0.00     0.034 A 
BRANCH  58  72
ATOM     72  C   UNL A   1      49.245  28.762  26.721  1.00  0.00     0.023 A 
ATOM     73  C   UNL A   1      48.704  28.367  25.487  1.00  0.00     0.031 A 
ATOM     74  C   UNL A   1      50.654  28.676  26.809  1.00  0.00     0.131 A 
ATOM     75  C   UNL A   1      49.493  27.724  24.522  1.00  0.00     0.055 A 
ATOM     76  C   UNL A   1      51.444  28.057  25.836  1.00  0.00     0.041 A 
ATOM     77  F   UNL A   1      51.366  29.164  27.826  1.00  0.00    -0.206 F 
ATOM     78  C   UNL A   1      50.857  27.535  24.702  1.00  0.00     0.022 A 
BRANCH  75  79
ATOM     79  S   UNL A   1      48.646  26.982  23.113  1.00  0.00     0.124 S 
ATOM     80  O   UNL A   1      47.566  27.937  22.899  1.00  0.00    -0.237 OA
ATOM     81  O   UNL A   1      49.705  26.965  22.109  1.00  0.00    -0.237 OA
ATOM     82  O   UNL A   1      48.242  25.673  23.618  1.00  0.00    -0.744 OA
ENDBRANCH  75  79
ENDBRANCH  58  72
BRANCH  59  83
ATOM     83  C   UNL A   1      43.495  22.257  26.301  1.00  0.00     0.023 A 
ATOM     84  C   UNL A   1      44.507  21.466  25.681  1.00  0.00     0.031 A 
ATOM     85  C   UNL A   1      42.289  21.591  26.589  1.00  0.00     0.131 A 
ATOM     86  C   UNL A   1      44.276  20.091  25.380  1.00  0.00     0.055 A 
ATOM     87  C   UNL A   1      42.066  20.251  26.273  1.00  0.00     0.041 A 
ATOM     88  F   UNL A   1      41.312  22.194  27.285  1.00  0.00    -0.206 F 
ATOM     89  C   UNL A   1      43.060  19.487  25.690  1.00  0.00     0.022 A 
BRANCH  86  90
ATOM     90  S   UNL A   1      45.562  19.015  24.635  1.00  0.00     0.124 S 
ATOM     91  O   UNL A   1      46.770  19.817  24.783  1.00  0.00    -0.237 OA
ATOM     92  O   UNL A   1      45.479  17.806  25.444  1.00  0.00    -0.237 OA
ATOM     93  O   UNL A   1      45.110  18.846  23.251  1.00  0.00    -0.744 OA
ENDBRANCH  86  90
ENDBRANCH  59  83
BRANCH  71  94
ATOM     94  C   UNL A   1      42.430  28.332  27.204  1.00  0.00     0.023 A 
ATOM     95  C   UNL A   1      41.996  28.258  28.550  1.00  0.00     0.031 A 
ATOM     96  C   UNL A   1      41.490  28.724  26.239  1.00  0.00     0.131 A 
ATOM     97  C   UNL A   1      40.657  28.561  28.877  1.00  0.00     0.055 A 
ATOM     98  C   UNL A   1      40.174  29.045  26.568  1.00  0.00     0.041 A 
ATOM     99  F   UNL A   1      41.846  28.834  24.947  1.00  0.00    -0.206 F 
ATOM    100  C   UNL A   1      39.751  28.958  27.889  1.00  0.00     0.022 A 
BRANCH  97 101
ATOM    101  S   UNL A   1      40.058  28.428  30.595  1.00  0.00     0.124 S 
ATOM    102  O   UNL A   1      41.256  28.075  31.346  1.00  0.00    -0.237 OA
ATOM    103  O   UNL A   1      39.518  29.762  30.844  1.00  0.00    -0.237 OA
ATOM    104  O   UNL A   1      39.048  27.370  30.523  1.00  0.00    -0.744 OA
ENDBRANCH  97 101
ENDBRANCH  71  94
ENDBRANCH  45  46
ENDBRANCH  37  40
ENDBRANCH  35  36
ENDBRANCH  34  35
ENDBRANCH   1  34
TORSDOF 18
ENDMDL
