MODEL 1
REMARK VINA RESULT:     -11.8      0.000      0.000
REMARK SMILES Cc1nsc(N(C)C(=O)[C@H]2CCOC2)c1C(=O)NCCCNC(=O)c1ccc(-c2c3nc(c(-c4cc(S(=O)(=O)[O-])ccc4F)c4ccc([nH]4)c(-c4cc(S(=O)(=O)[O-])ccc4F)c4nc(c(-c5cc(S(=O)(=O)[O-])ccc5F)c5ccc2[nH]5)C=C4)C=C3)cc1
REMARK SMILES IDX 20 1 19 2 18 3 16 4 17 5 15 7 1 8 2 9 3 10 4 11 5 12 6 13
REMARK SMILES IDX 7 14 8 15 9 16 10 17 11 18 14 19 12 20 13 21 21 22 22 23
REMARK SMILES IDX 23 24 24 26 25 27 26 28 87 29 27 30 86 31 28 32 29 33 30 34
REMARK SMILES IDX 80 35 31 36 85 37 79 38 81 39 32 40 84 41 78 42 77 43 33 45
REMARK SMILES IDX 65 46 45 47 64 48 46 49 49 50 63 51 82 52 47 53 48 54 62 56
REMARK SMILES IDX 83 57 50 58 34 59 35 60 43 61 36 62 42 63 44 64 41 65 37 66
REMARK SMILES IDX 38 67 39 68 40 69 66 70 67 71 75 72 68 73 74 74 76 75 73 76
REMARK SMILES IDX 69 77 70 78 71 79 72 80 51 81 52 82 60 83 53 84 59 85 61 86
REMARK SMILES IDX 58 87 54 88 55 89 56 90 57 91
REMARK H PARENT 18 6 22 25 81 44 49 55
REMARK Flexibility Score: inf
ROOT
ATOM      1  C   UNL A   1      33.935  30.832  27.448  1.00  0.00     0.042 C 
ENDROOT
BRANCH   1   2
ATOM      2  C   UNL A   1      34.562  29.443  27.289  1.00  0.00     0.118 C 
BRANCH   2   3
ATOM      3  N   UNL A   1      34.500  28.955  25.923  1.00  0.00    -0.352 N 
ATOM      4  C   UNL A   1      33.326  28.761  25.225  1.00  0.00     0.256 C 
ATOM      5  O   UNL A   1      33.023  29.577  24.354  1.00  0.00    -0.269 OA
ATOM      6  H   UNL A   1      35.347  28.750  25.467  1.00  0.00     0.163 HD
BRANCH   4   7
ATOM      7  C   UNL A   1      32.502  27.570  25.465  1.00  0.00     0.097 A 
ATOM      8  C   UNL A   1      31.299  27.987  27.839  1.00  0.00     0.069 C 
ATOM      9  C   UNL A   1      31.553  27.293  26.552  1.00  0.00     0.066 A 
ATOM     10  N   UNL A   1      30.734  26.261  26.367  1.00  0.00    -0.195 NA
ATOM     11  S   UNL A   1      31.073  25.553  24.952  1.00  0.00    -0.017 S 
ATOM     12  C   UNL A   1      32.461  26.491  24.559  1.00  0.00     0.131 A 
BRANCH  12  13
ATOM     13  N   UNL A   1      33.198  26.050  23.427  1.00  0.00    -0.305 N 
ATOM     14  C   UNL A   1      33.152  26.751  22.131  1.00  0.00     0.154 C 
BRANCH  13  15
ATOM     15  C   UNL A   1      33.909  24.822  23.469  1.00  0.00     0.232 C 
ATOM     16  O   UNL A   1      34.206  24.152  22.483  1.00  0.00    -0.274 OA
BRANCH  15  17
ATOM     17  C   UNL A   1      34.364  24.433  24.878  1.00  0.00     0.107 C 
ATOM     18  C   UNL A   1      33.814  23.091  25.326  1.00  0.00     0.044 C 
ATOM     19  C   UNL A   1      35.833  24.209  25.165  1.00  0.00     0.173 C 
ATOM     20  C   UNL A   1      34.526  22.957  26.650  1.00  0.00     0.161 C 
ATOM     21  O   UNL A   1      35.846  23.481  26.425  1.00  0.00    -0.381 OA
ENDBRANCH  15  17
ENDBRANCH  13  15
ENDBRANCH  12  13
ENDBRANCH   4   7
ENDBRANCH   2   3
ENDBRANCH   1   2
BRANCH   1  22
ATOM     22  C   UNL A   1      34.966  31.913  27.700  1.00  0.00     0.118 C 
BRANCH  22  23
ATOM     23  N   UNL A   1      34.946  32.367  29.090  1.00  0.00    -0.352 N 
ATOM     24  C   UNL A   1      35.655  31.865  30.166  1.00  0.00     0.251 C 
ATOM     25  H   UNL A   1      34.353  33.127  29.284  1.00  0.00     0.163 HD
ATOM     26  O   UNL A   1      35.270  32.076  31.304  1.00  0.00    -0.269 OA
BRANCH  24  27
ATOM     27  C   UNL A   1      36.867  31.065  29.902  1.00  0.00     0.039 A 
ATOM     28  C   UNL A   1      38.131  31.655  29.910  1.00  0.00     0.014 A 
ATOM     29  C   UNL A   1      36.723  29.694  29.694  1.00  0.00     0.014 A 
ATOM     30  C   UNL A   1      39.249  30.831  29.800  1.00  0.00     0.010 A 
ATOM     31  C   UNL A   1      37.821  28.871  29.748  1.00  0.00     0.010 A 
ATOM     32  C   UNL A   1      39.090  29.431  29.759  1.00  0.00    -0.014 A 
BRANCH  32  33
ATOM     33  C   UNL A   1      40.238  28.545  29.945  1.00  0.00     0.031 A 
ATOM     34  C   UNL A   1      40.556  28.329  31.380  1.00  0.00     0.074 A 
ATOM     35  C   UNL A   1      40.840  27.830  28.966  1.00  0.00     0.049 A 
ATOM     36  N   UNL A   1      41.507  28.891  32.046  1.00  0.00    -0.248 NA
ATOM     37  C   UNL A   1      39.586  27.617  32.231  1.00  0.00     0.031 C 
ATOM     38  C   UNL A   1      40.470  27.737  27.551  1.00  0.00     0.029 A 
ATOM     39  N   UNL A   1      41.886  26.959  29.047  1.00  0.00    -0.354 N 
ATOM     40  C   UNL A   1      41.444  28.347  33.321  1.00  0.00     0.074 A 
ATOM     41  C   UNL A   1      40.118  27.807  33.443  1.00  0.00     0.031 C 
ATOM     42  C   UNL A   1      41.126  26.703  26.971  1.00  0.00     0.029 A 
ATOM     43  C   UNL A   1      42.080  26.154  27.920  1.00  0.00     0.049 A 
ATOM     44  H   UNL A   1      42.463  26.901  29.843  1.00  0.00     0.167 HD
ATOM     45  C   UNL A   1      42.591  28.112  34.018  1.00  0.00     0.034 A 
ATOM     46  C   UNL A   1      42.960  25.119  27.772  1.00  0.00     0.034 A 
ATOM     47  C   UNL A   1      43.700  28.845  33.431  1.00  0.00     0.049 A 
ATOM     48  C   UNL A   1      44.038  25.348  28.766  1.00  0.00     0.074 A 
ATOM     49  C   UNL A   1      43.912  30.174  33.107  1.00  0.00     0.029 A 
ATOM     50  N   UNL A   1      44.625  28.140  32.688  1.00  0.00    -0.354 N 
ATOM     51  N   UNL A   1      44.859  26.361  28.698  1.00  0.00    -0.248 NA
ATOM     52  C   UNL A   1      43.866  24.775  30.092  1.00  0.00     0.031 C 
ATOM     53  C   UNL A   1      44.550  30.142  31.831  1.00  0.00     0.029 A 
ATOM     54  C   UNL A   1      44.810  28.810  31.503  1.00  0.00     0.049 A 
ATOM     55  H   UNL A   1      45.072  27.305  32.958  1.00  0.00     0.167 HD
ATOM     56  C   UNL A   1      44.936  26.839  29.996  1.00  0.00     0.074 A 
ATOM     57  C   UNL A   1      44.375  25.771  30.827  1.00  0.00     0.031 C 
ATOM     58  C   UNL A   1      45.163  28.162  30.253  1.00  0.00     0.034 A 
BRANCH  45  59
ATOM     59  C   UNL A   1      42.811  26.913  34.921  1.00  0.00     0.023 A 
ATOM     60  C   UNL A   1      43.597  25.871  34.396  1.00  0.00     0.031 A 
ATOM     61  C   UNL A   1      42.077  26.596  36.087  1.00  0.00     0.131 A 
ATOM     62  C   UNL A   1      43.516  24.570  34.919  1.00  0.00     0.055 A 
ATOM     63  C   UNL A   1      42.055  25.316  36.647  1.00  0.00     0.041 A 
ATOM     64  F   UNL A   1      41.275  27.466  36.709  1.00  0.00    -0.206 F 
ATOM     65  C   UNL A   1      42.744  24.282  36.040  1.00  0.00     0.022 A 
BRANCH  62  66
ATOM     66  S   UNL A   1      44.282  23.230  33.978  1.00  0.00     0.124 S 
ATOM     67  O   UNL A   1      43.232  22.925  33.013  1.00  0.00    -0.237 OA
ATOM     68  O   UNL A   1      45.475  23.881  33.449  1.00  0.00    -0.237 OA
ATOM     69  O   UNL A   1      44.525  22.204  34.990  1.00  0.00    -0.744 OA
ENDBRANCH  62  66
ENDBRANCH  45  59
BRANCH  46  70
ATOM     70  C   UNL A   1      42.786  23.817  27.049  1.00  0.00     0.023 A 
ATOM     71  C   UNL A   1      43.812  23.205  26.283  1.00  0.00     0.031 A 
ATOM     72  C   UNL A   1      41.663  23.011  27.337  1.00  0.00     0.131 A 
ATOM     73  C   UNL A   1      43.691  21.855  25.858  1.00  0.00     0.055 A 
ATOM     74  C   UNL A   1      41.553  21.680  26.923  1.00  0.00     0.041 A 
ATOM     75  F   UNL A   1      40.665  23.461  28.113  1.00  0.00    -0.206 F 
ATOM     76  C   UNL A   1      42.572  21.091  26.194  1.00  0.00     0.022 A 
BRANCH  73  77
ATOM     77  S   UNL A   1      45.033  21.019  24.937  1.00  0.00     0.124 S 
ATOM     78  O   UNL A   1      44.714  21.351  23.554  1.00  0.00    -0.237 OA
ATOM     79  O   UNL A   1      46.233  21.632  25.493  1.00  0.00    -0.237 OA
ATOM     80  O   UNL A   1      44.856  19.606  25.282  1.00  0.00    -0.744 OA
ENDBRANCH  73  77
ENDBRANCH  46  70
BRANCH  58  81
ATOM     81  C   UNL A   1      45.652  29.057  29.127  1.00  0.00     0.023 A 
ATOM     82  C   UNL A   1      44.857  29.959  28.379  1.00  0.00     0.031 A 
ATOM     83  C   UNL A   1      47.038  29.066  28.888  1.00  0.00     0.131 A 
ATOM     84  C   UNL A   1      45.462  30.813  27.432  1.00  0.00     0.055 A 
ATOM     85  C   UNL A   1      47.634  29.929  27.971  1.00  0.00     0.041 A 
ATOM     86  F   UNL A   1      47.853  28.248  29.575  1.00  0.00    -0.206 F 
ATOM     87  C   UNL A   1      46.846  30.804  27.235  1.00  0.00     0.022 A 
BRANCH  84  88
ATOM     88  S   UNL A   1      44.460  31.945  26.409  1.00  0.00     0.124 S 
ATOM     89  O   UNL A   1      45.387  32.383  25.374  1.00  0.00    -0.237 OA
ATOM     90  O   UNL A   1      43.365  31.086  25.966  1.00  0.00    -0.237 OA
ATOM     91  O   UNL A   1      44.062  32.993  27.352  1.00  0.00    -0.744 OA
ENDBRANCH  84  88
ENDBRANCH  58  81
ENDBRANCH  32  33
ENDBRANCH  24  27
ENDBRANCH  22  23
ENDBRANCH   1  22
TORSDOF 16
ENDMDL
MODEL 2
REMARK VINA RESULT:     -11.5      2.527      7.332
REMARK SMILES Cc1nsc(N(C)C(=O)[C@H]2CCOC2)c1C(=O)NCCCNC(=O)c1ccc(-c2c3nc(c(-c4cc(S(=O)(=O)[O-])ccc4F)c4ccc([nH]4)c(-c4cc(S(=O)(=O)[O-])ccc4F)c4nc(c(-c5cc(S(=O)(=O)[O-])ccc5F)c5ccc2[nH]5)C=C4)C=C3)cc1
REMARK SMILES IDX 20 1 19 2 18 3 16 4 17 5 15 7 1 8 2 9 3 10 4 11 5 12 6 13
REMARK SMILES IDX 7 14 8 15 9 16 10 17 11 18 14 19 12 20 13 21 21 22 22 23
REMARK SMILES IDX 23 24 24 26 25 27 26 28 87 29 27 30 86 31 28 32 29 33 30 34
REMARK SMILES IDX 80 35 31 36 85 37 79 38 81 39 32 40 84 41 78 42 77 43 33 45
REMARK SMILES IDX 65 46 45 47 64 48 46 49 49 50 63 51 82 52 47 53 48 54 62 56
REMARK SMILES IDX 83 57 50 58 34 59 35 60 43 61 36 62 42 63 44 64 41 65 37 66
REMARK SMILES IDX 38 67 39 68 40 69 66 70 67 71 75 72 68 73 74 74 76 75 73 76
REMARK SMILES IDX 69 77 70 78 71 79 72 80 51 81 52 82 60 83 53 84 59 85 61 86
REMARK SMILES IDX 58 87 54 88 55 89 56 90 57 91
REMARK H PARENT 18 6 22 25 81 44 49 55
REMARK Flexibility Score: inf
ROOT
ATOM      1  C   UNL A   1      33.985  28.567  27.336  1.00  0.00     0.042 C 
ENDROOT
BRANCH   1   2
ATOM      2  C   UNL A   1      33.137  28.940  26.117  1.00  0.00     0.118 C 
BRANCH   2   3
ATOM      3  N   UNL A   1      31.779  28.433  26.205  1.00  0.00    -0.352 N 
ATOM      4  C   UNL A   1      31.369  27.228  25.673  1.00  0.00     0.256 C 
ATOM      5  O   UNL A   1      31.174  26.286  26.443  1.00  0.00    -0.269 OA
ATOM      6  H   UNL A   1      31.110  28.982  26.674  1.00  0.00     0.163 HD
BRANCH   4   7
ATOM      7  C   UNL A   1      31.100  27.098  24.237  1.00  0.00     0.097 A 
ATOM      8  C   UNL A   1      29.803  29.353  23.536  1.00  0.00     0.069 C 
ATOM      9  C   UNL A   1      30.509  28.069  23.304  1.00  0.00     0.066 A 
ATOM     10  N   UNL A   1      30.647  27.797  22.010  1.00  0.00    -0.195 NA
ATOM     11  S   UNL A   1      31.417  26.385  21.835  1.00  0.00    -0.017 S 
ATOM     12  C   UNL A   1      31.480  25.958  23.501  1.00  0.00     0.131 A 
BRANCH  12  13
ATOM     13  N   UNL A   1      31.941  24.643  23.779  1.00  0.00    -0.305 N 
ATOM     14  C   UNL A   1      31.055  23.590  24.308  1.00  0.00     0.154 C 
BRANCH  13  15
ATOM     15  C   UNL A   1      33.323  24.332  23.686  1.00  0.00     0.232 C 
ATOM     16  O   UNL A   1      34.071  24.728  22.795  1.00  0.00    -0.274 OA
BRANCH  15  17
ATOM     17  C   UNL A   1      33.840  23.509  24.869  1.00  0.00     0.107 C 
ATOM     18  C   UNL A   1      35.254  22.999  24.660  1.00  0.00     0.044 C 
ATOM     19  C   UNL A   1      34.006  24.155  26.228  1.00  0.00     0.173 C 
ATOM     20  C   UNL A   1      35.493  22.361  26.007  1.00  0.00     0.161 C 
ATOM     21  O   UNL A   1      34.869  23.239  26.959  1.00  0.00    -0.381 OA
ENDBRANCH  15  17
ENDBRANCH  13  15
ENDBRANCH  12  13
ENDBRANCH   4   7
ENDBRANCH   2   3
ENDBRANCH   1   2
BRANCH   1  22
ATOM     22  C   UNL A   1      35.294  29.329  27.393  1.00  0.00     0.118 C 
BRANCH  22  23
ATOM     23  N   UNL A   1      35.533  29.896  28.720  1.00  0.00    -0.352 N 
ATOM     24  C   UNL A   1      36.557  29.608  29.604  1.00  0.00     0.251 C 
ATOM     25  H   UNL A   1      34.882  30.569  29.022  1.00  0.00     0.163 HD
ATOM     26  O   UNL A   1      36.429  29.857  30.790  1.00  0.00    -0.269 OA
BRANCH  24  27
ATOM     27  C   UNL A   1      37.788  28.986  29.079  1.00  0.00     0.039 A 
ATOM     28  C   UNL A   1      38.425  29.498  27.948  1.00  0.00     0.014 A 
ATOM     29  C   UNL A   1      38.329  27.902  29.770  1.00  0.00     0.014 A 
ATOM     30  C   UNL A   1      39.659  28.965  27.582  1.00  0.00     0.010 A 
ATOM     31  C   UNL A   1      39.612  27.489  29.507  1.00  0.00     0.010 A 
ATOM     32  C   UNL A   1      40.269  27.985  28.390  1.00  0.00    -0.014 A 
BRANCH  32  33
ATOM     33  C   UNL A   1      41.676  27.631  28.199  1.00  0.00     0.031 A 
ATOM     34  C   UNL A   1      41.839  26.348  27.469  1.00  0.00     0.074 A 
ATOM     35  C   UNL A   1      42.727  28.442  28.462  1.00  0.00     0.049 A 
ATOM     36  N   UNL A   1      42.133  25.204  27.988  1.00  0.00    -0.248 NA
ATOM     37  C   UNL A   1      41.396  26.258  26.066  1.00  0.00     0.031 C 
ATOM     38  C   UNL A   1      42.709  29.829  28.934  1.00  0.00     0.029 A 
ATOM     39  N   UNL A   1      44.060  28.215  28.287  1.00  0.00    -0.354 N 
ATOM     40  C   UNL A   1      42.227  24.322  26.922  1.00  0.00     0.074 A 
ATOM     41  C   UNL A   1      41.510  24.945  25.843  1.00  0.00     0.031 C 
ATOM     42  C   UNL A   1      43.938  30.379  28.790  1.00  0.00     0.029 A 
ATOM     43  C   UNL A   1      44.873  29.350  28.366  1.00  0.00     0.049 A 
ATOM     44  H   UNL A   1      44.425  27.316  28.116  1.00  0.00     0.167 HD
ATOM     45  C   UNL A   1      43.156  23.325  26.943  1.00  0.00     0.034 A 
ATOM     46  C   UNL A   1      46.212  29.441  28.110  1.00  0.00     0.034 A 
ATOM     47  C   UNL A   1      43.655  23.126  28.293  1.00  0.00     0.049 A 
ATOM     48  C   UNL A   1      46.760  28.072  28.283  1.00  0.00     0.074 A 
ATOM     49  C   UNL A   1      43.053  22.886  29.516  1.00  0.00     0.029 A 
ATOM     50  N   UNL A   1      44.917  23.597  28.596  1.00  0.00    -0.354 N 
ATOM     51  N   UNL A   1      46.786  27.463  29.437  1.00  0.00    -0.248 NA
ATOM     52  C   UNL A   1      46.779  27.200  27.119  1.00  0.00     0.031 C 
ATOM     53  C   UNL A   1      43.759  23.715  30.439  1.00  0.00     0.029 A 
ATOM     54  C   UNL A   1      44.826  24.313  29.766  1.00  0.00     0.049 A 
ATOM     55  H   UNL A   1      45.734  23.449  28.069  1.00  0.00     0.167 HD
ATOM     56  C   UNL A   1      46.358  26.174  29.163  1.00  0.00     0.074 A 
ATOM     57  C   UNL A   1      46.453  26.044  27.707  1.00  0.00     0.031 C 
ATOM     58  C   UNL A   1      45.685  25.435  30.097  1.00  0.00     0.034 A 
BRANCH  45  59
ATOM     59  C   UNL A   1      43.926  22.851  25.725  1.00  0.00     0.023 A 
ATOM     60  C   UNL A   1      44.021  21.458  25.548  1.00  0.00     0.031 A 
ATOM     61  C   UNL A   1      44.804  23.627  24.934  1.00  0.00     0.131 A 
ATOM     62  C   UNL A   1      45.034  20.898  24.754  1.00  0.00     0.055 A 
ATOM     63  C   UNL A   1      45.765  23.064  24.089  1.00  0.00     0.041 A 
ATOM     64  F   UNL A   1      44.851  24.962  24.983  1.00  0.00    -0.206 F 
ATOM     65  C   UNL A   1      45.914  21.692  24.026  1.00  0.00     0.022 A 
BRANCH  62  66
ATOM     66  S   UNL A   1      45.300  19.112  24.858  1.00  0.00     0.124 S 
ATOM     67  O   UNL A   1      45.645  18.796  23.477  1.00  0.00    -0.237 OA
ATOM     68  O   UNL A   1      46.385  19.028  25.829  1.00  0.00    -0.237 OA
ATOM     69  O   UNL A   1      44.009  18.605  25.317  1.00  0.00    -0.744 OA
ENDBRANCH  62  66
ENDBRANCH  45  59
BRANCH  46  70
ATOM     70  C   UNL A   1      46.984  30.546  27.452  1.00  0.00     0.023 A 
ATOM     71  C   UNL A   1      46.390  31.756  27.007  1.00  0.00     0.031 A 
ATOM     72  C   UNL A   1      48.395  30.529  27.501  1.00  0.00     0.131 A 
ATOM     73  C   UNL A   1      47.198  32.870  26.653  1.00  0.00     0.055 A 
ATOM     74  C   UNL A   1      49.184  31.632  27.160  1.00  0.00     0.041 A 
ATOM     75  F   UNL A   1      49.061  29.463  27.973  1.00  0.00    -0.206 F 
ATOM     76  C   UNL A   1      48.589  32.812  26.748  1.00  0.00     0.022 A 
BRANCH  73  77
ATOM     77  S   UNL A   1      46.456  34.466  26.153  1.00  0.00     0.124 S 
ATOM     78  O   UNL A   1      47.603  35.366  26.186  1.00  0.00    -0.237 OA
ATOM     79  O   UNL A   1      45.905  34.165  24.837  1.00  0.00    -0.237 OA
ATOM     80  O   UNL A   1      45.452  34.717  27.189  1.00  0.00    -0.744 OA
ENDBRANCH  73  77
ENDBRANCH  46  70
BRANCH  58  81
ATOM     81  C   UNL A   1      45.684  25.901  31.542  1.00  0.00     0.023 A 
ATOM     82  C   UNL A   1      46.717  25.681  32.486  1.00  0.00     0.031 A 
ATOM     83  C   UNL A   1      44.609  26.716  31.940  1.00  0.00     0.131 A 
ATOM     84  C   UNL A   1      46.636  26.265  33.769  1.00  0.00     0.055 A 
ATOM     85  C   UNL A   1      44.545  27.311  33.198  1.00  0.00     0.041 A 
ATOM     86  F   UNL A   1      43.603  26.978  31.088  1.00  0.00    -0.206 F 
ATOM     87  C   UNL A   1      45.558  27.084  34.120  1.00  0.00     0.022 A 
BRANCH  84  88
ATOM     88  S   UNL A   1      47.921  25.955  35.028  1.00  0.00     0.124 S 
ATOM     89  O   UNL A   1      49.110  26.580  34.465  1.00  0.00    -0.237 OA
ATOM     90  O   UNL A   1      47.362  26.595  36.215  1.00  0.00    -0.237 OA
ATOM     91  O   UNL A   1      47.979  24.493  35.100  1.00  0.00    -0.744 OA
ENDBRANCH  84  88
ENDBRANCH  58  81
ENDBRANCH  32  33
ENDBRANCH  24  27
ENDBRANCH  22  23
ENDBRANCH   1  22
TORSDOF 16
ENDMDL
MODEL 3
REMARK VINA RESULT:     -11.4      4.167      9.784
REMARK SMILES Cc1nsc(N(C)C(=O)[C@H]2CCOC2)c1C(=O)NCCCNC(=O)c1ccc(-c2c3nc(c(-c4cc(S(=O)(=O)[O-])ccc4F)c4ccc([nH]4)c(-c4cc(S(=O)(=O)[O-])ccc4F)c4nc(c(-c5cc(S(=O)(=O)[O-])ccc5F)c5ccc2[nH]5)C=C4)C=C3)cc1
REMARK SMILES IDX 20 1 19 2 18 3 16 4 17 5 15 7 1 8 2 9 3 10 4 11 5 12 6 13
REMARK SMILES IDX 7 14 8 15 9 16 10 17 11 18 14 19 12 20 13 21 21 22 22 23
REMARK SMILES IDX 23 24 24 26 25 27 26 28 87 29 27 30 86 31 28 32 29 33 30 34
REMARK SMILES IDX 80 35 31 36 85 37 79 38 81 39 32 40 84 41 78 42 77 43 33 45
REMARK SMILES IDX 65 46 45 47 64 48 46 49 49 50 63 51 82 52 47 53 48 54 62 56
REMARK SMILES IDX 83 57 50 58 34 59 35 60 43 61 36 62 42 63 44 64 41 65 37 66
REMARK SMILES IDX 38 67 39 68 40 69 66 70 67 71 75 72 68 73 74 74 76 75 73 76
REMARK SMILES IDX 69 77 70 78 71 79 72 80 51 81 52 82 60 83 53 84 59 85 61 86
REMARK SMILES IDX 58 87 54 88 55 89 56 90 57 91
REMARK H PARENT 18 6 22 25 81 44 49 55
REMARK Flexibility Score: inf
ROOT
ATOM      1  C   UNL A   1      36.917  23.468  25.922  1.00  0.00     0.042 C 
ENDROOT
BRANCH   1   2
ATOM      2  C   UNL A   1      36.850  22.014  25.446  1.00  0.00     0.118 C 
BRANCH   2   3
ATOM      3  N   UNL A   1      35.985  21.844  24.292  1.00  0.00    -0.352 N 
ATOM      4  C   UNL A   1      35.267  22.867  23.707  1.00  0.00     0.256 C 
ATOM      5  O   UNL A   1      35.669  23.323  22.636  1.00  0.00    -0.269 OA
ATOM      6  H   UNL A   1      35.906  20.943  23.903  1.00  0.00     0.163 HD
BRANCH   4   7
ATOM      7  C   UNL A   1      34.017  23.342  24.311  1.00  0.00     0.097 A 
ATOM      8  C   UNL A   1      33.973  26.003  23.885  1.00  0.00     0.069 C 
ATOM      9  C   UNL A   1      33.422  24.686  24.293  1.00  0.00     0.066 A 
ATOM     10  N   UNL A   1      32.149  24.769  24.670  1.00  0.00    -0.195 NA
ATOM     11  S   UNL A   1      31.621  23.302  25.105  1.00  0.00    -0.017 S 
ATOM     12  C   UNL A   1      33.123  22.474  24.968  1.00  0.00     0.131 A 
BRANCH  12  13
ATOM     13  N   UNL A   1      33.133  21.140  25.455  1.00  0.00    -0.305 N 
ATOM     14  C   UNL A   1      33.588  20.798  26.815  1.00  0.00     0.154 C 
BRANCH  13  15
ATOM     15  C   UNL A   1      32.829  20.057  24.589  1.00  0.00     0.232 C 
ATOM     16  O   UNL A   1      32.245  20.164  23.513  1.00  0.00    -0.274 OA
BRANCH  15  17
ATOM     17  C   UNL A   1      33.381  18.716  25.079  1.00  0.00     0.107 C 
ATOM     18  C   UNL A   1      32.374  17.586  24.965  1.00  0.00     0.044 C 
ATOM     19  C   UNL A   1      34.556  18.075  24.371  1.00  0.00     0.173 C 
ATOM     20  C   UNL A   1      33.243  16.430  25.396  1.00  0.00     0.161 C 
ATOM     21  O   UNL A   1      34.535  16.691  24.819  1.00  0.00    -0.381 OA
ENDBRANCH  15  17
ENDBRANCH  13  15
ENDBRANCH  12  13
ENDBRANCH   4   7
ENDBRANCH   2   3
ENDBRANCH   1   2
BRANCH   1  22
ATOM     22  C   UNL A   1      38.337  23.991  26.004  1.00  0.00     0.118 C 
BRANCH  22  23
ATOM     23  N   UNL A   1      39.231  23.033  26.654  1.00  0.00    -0.352 N 
ATOM     24  C   UNL A   1      40.306  23.290  27.485  1.00  0.00     0.251 C 
ATOM     25  H   UNL A   1      39.042  22.083  26.478  1.00  0.00     0.163 HD
ATOM     26  O   UNL A   1      41.173  22.447  27.642  1.00  0.00    -0.269 OA
BRANCH  24  27
ATOM     27  C   UNL A   1      40.382  24.603  28.155  1.00  0.00     0.039 A 
ATOM     28  C   UNL A   1      41.610  25.227  28.373  1.00  0.00     0.014 A 
ATOM     29  C   UNL A   1      39.191  25.228  28.523  1.00  0.00     0.014 A 
ATOM     30  C   UNL A   1      41.615  26.526  28.876  1.00  0.00     0.010 A 
ATOM     31  C   UNL A   1      39.189  26.558  28.864  1.00  0.00     0.010 A 
ATOM     32  C   UNL A   1      40.397  27.205  29.083  1.00  0.00    -0.014 A 
BRANCH  32  33
ATOM     33  C   UNL A   1      40.379  28.648  29.320  1.00  0.00     0.031 A 
ATOM     34  C   UNL A   1      41.524  29.339  28.673  1.00  0.00     0.074 A 
ATOM     35  C   UNL A   1      39.358  29.334  29.883  1.00  0.00     0.049 A 
ATOM     36  N   UNL A   1      42.597  29.754  29.257  1.00  0.00    -0.248 NA
ATOM     37  C   UNL A   1      41.614  29.357  27.202  1.00  0.00     0.031 C 
ATOM     38  C   UNL A   1      38.057  28.826  30.327  1.00  0.00     0.029 A 
ATOM     39  N   UNL A   1      39.236  30.673  30.112  1.00  0.00    -0.354 N 
ATOM     40  C   UNL A   1      43.346  30.374  28.268  1.00  0.00     0.074 A 
ATOM     41  C   UNL A   1      42.838  29.863  27.024  1.00  0.00     0.031 C 
ATOM     42  C   UNL A   1      37.212  29.859  30.555  1.00  0.00     0.029 A 
ATOM     43  C   UNL A   1      37.945  31.108  30.429  1.00  0.00     0.049 A 
ATOM     44  H   UNL A   1      40.002  31.289  30.059  1.00  0.00     0.167 HD
ATOM     45  C   UNL A   1      44.082  31.481  28.565  1.00  0.00     0.034 A 
ATOM     46  C   UNL A   1      37.509  32.394  30.583  1.00  0.00     0.034 A 
ATOM     47  C   UNL A   1      44.254  31.605  30.003  1.00  0.00     0.049 A 
ATOM     48  C   UNL A   1      38.711  33.201  30.912  1.00  0.00     0.074 A 
ATOM     49  C   UNL A   1      44.726  30.759  30.992  1.00  0.00     0.029 A 
ATOM     50  N   UNL A   1      43.512  32.560  30.667  1.00  0.00    -0.354 N 
ATOM     51  N   UNL A   1      39.381  33.049  32.022  1.00  0.00    -0.248 NA
ATOM     52  C   UNL A   1      39.461  33.777  29.807  1.00  0.00     0.031 C 
ATOM     53  C   UNL A   1      43.821  30.932  32.083  1.00  0.00     0.029 A 
ATOM     54  C   UNL A   1      42.931  31.956  31.757  1.00  0.00     0.049 A 
ATOM     55  H   UNL A   1      43.414  33.504  30.407  1.00  0.00     0.167 HD
ATOM     56  C   UNL A   1      40.711  33.065  31.635  1.00  0.00     0.074 A 
ATOM     57  C   UNL A   1      40.702  33.604  30.273  1.00  0.00     0.031 C 
ATOM     58  C   UNL A   1      41.660  32.365  32.327  1.00  0.00     0.034 A 
BRANCH  45  59
ATOM     59  C   UNL A   1      44.260  32.664  27.633  1.00  0.00     0.023 A 
ATOM     60  C   UNL A   1      43.653  33.870  28.029  1.00  0.00     0.031 A 
ATOM     61  C   UNL A   1      44.696  32.614  26.289  1.00  0.00     0.131 A 
ATOM     62  C   UNL A   1      43.368  34.878  27.094  1.00  0.00     0.055 A 
ATOM     63  C   UNL A   1      44.473  33.651  25.378  1.00  0.00     0.041 A 
ATOM     64  F   UNL A   1      45.285  31.543  25.747  1.00  0.00    -0.206 F 
ATOM     65  C   UNL A   1      43.768  34.775  25.766  1.00  0.00     0.022 A 
BRANCH  62  66
ATOM     66  S   UNL A   1      42.285  36.230  27.610  1.00  0.00     0.124 S 
ATOM     67  O   UNL A   1      42.683  37.283  26.684  1.00  0.00    -0.237 OA
ATOM     68  O   UNL A   1      40.963  35.651  27.399  1.00  0.00    -0.237 OA
ATOM     69  O   UNL A   1      42.657  36.446  29.007  1.00  0.00    -0.744 OA
ENDBRANCH  62  66
ENDBRANCH  45  59
BRANCH  46  70
ATOM     70  C   UNL A   1      36.202  33.011  30.183  1.00  0.00     0.023 A 
ATOM     71  C   UNL A   1      35.452  33.868  31.030  1.00  0.00     0.031 A 
ATOM     72  C   UNL A   1      35.806  32.976  28.829  1.00  0.00     0.131 A 
ATOM     73  C   UNL A   1      34.379  34.641  30.509  1.00  0.00     0.055 A 
ATOM     74  C   UNL A   1      34.755  33.745  28.320  1.00  0.00     0.041 A 
ATOM     75  F   UNL A   1      36.488  32.255  27.924  1.00  0.00    -0.206 F 
ATOM     76  C   UNL A   1      34.046  34.592  29.154  1.00  0.00     0.022 A 
BRANCH  73  77
ATOM     77  S   UNL A   1      33.447  35.811  31.562  1.00  0.00     0.124 S 
ATOM     78  O   UNL A   1      33.021  36.822  30.601  1.00  0.00    -0.237 OA
ATOM     79  O   UNL A   1      32.399  34.970  32.128  1.00  0.00    -0.237 OA
ATOM     80  O   UNL A   1      34.446  36.272  32.530  1.00  0.00    -0.744 OA
ENDBRANCH  73  77
ENDBRANCH  46  70
BRANCH  58  81
ATOM     81  C   UNL A   1      41.319  31.828  33.706  1.00  0.00     0.023 A 
ATOM     82  C   UNL A   1      41.370  32.561  34.917  1.00  0.00     0.031 A 
ATOM     83  C   UNL A   1      40.804  30.521  33.763  1.00  0.00     0.131 A 
ATOM     84  C   UNL A   1      40.920  31.969  36.118  1.00  0.00     0.055 A 
ATOM     85  C   UNL A   1      40.337  29.950  34.945  1.00  0.00     0.041 A 
ATOM     86  F   UNL A   1      40.712  29.777  32.648  1.00  0.00    -0.206 F 
ATOM     87  C   UNL A   1      40.398  30.672  36.130  1.00  0.00     0.022 A 
BRANCH  84  88
ATOM     88  S   UNL A   1      41.026  32.864  37.706  1.00  0.00     0.124 S 
ATOM     89  O   UNL A   1      41.936  33.964  37.419  1.00  0.00    -0.237 OA
ATOM     90  O   UNL A   1      39.635  33.232  37.955  1.00  0.00    -0.237 OA
ATOM     91  O   UNL A   1      41.559  31.857  38.627  1.00  0.00    -0.744 OA
ENDBRANCH  84  88
ENDBRANCH  58  81
ENDBRANCH  32  33
ENDBRANCH  24  27
ENDBRANCH  22  23
ENDBRANCH   1  22
TORSDOF 16
ENDMDL
