MODEL 1
REMARK VINA RESULT:     -13.9      0.000      0.000
REMARK SMILES COc1cc(C)cc2c1[C@@H](C)[C@@H](CC(=O)N[C@@H](Cc1c[nH]c3ccccc13)C(=O)NCCCNC(=O)c1ccc(-c3c4nc(c(-c5cc(S(=O)(=O)[O-])ccc5F)c5ccc([nH]5)c(-c5cc(S(=O)(=O)[O-])ccc5F)c5nc(c(-c6cc(S(=O)(=O)[O-])ccc6F)c6ccc3[nH]6)C=C5)C=C4)cc1)C(=O)O2
REMARK SMILES IDX 31 1 30 2 28 3 29 4 17 6 16 7 14 8 15 9 13 11 12 12 3 13
REMARK SMILES IDX 4 14 9 15 5 16 8 17 10 18 6 19 7 20 102 21 11 22 100 23
REMARK SMILES IDX 101 24 2 25 1 26 18 27 19 28 20 29 27 30 21 31 22 32 26 33
REMARK SMILES IDX 23 35 25 36 24 37 32 38 33 39 34 40 35 41 36 43 37 44 38 45
REMARK SMILES IDX 99 46 39 47 98 48 40 49 41 50 42 51 92 52 43 53 97 54 91 55
REMARK SMILES IDX 93 56 44 57 96 58 90 59 89 60 45 62 77 63 57 64 76 65 58 66
REMARK SMILES IDX 61 67 75 68 94 69 59 70 60 71 74 73 95 74 62 75 46 76 47 77
REMARK SMILES IDX 55 78 48 79 54 80 56 81 53 82 49 83 50 84 51 85 52 86 78 87
REMARK SMILES IDX 79 88 87 89 80 90 86 91 88 92 85 93 81 94 82 95 83 96 84 97
REMARK SMILES IDX 63 98 64 99 72 100 65 101 71 102 73 103 70 104 66 105 67 106
REMARK SMILES IDX 68 107 69 108
REMARK H PARENT 30 5 16 10 21 34 34 42 93 61 61 72
REMARK Flexibility Score: inf
ROOT
ATOM      1  C   UNL A   1      35.341  22.006  25.551  1.00  0.00     0.117 C 
ENDROOT
BRANCH   1   2
ATOM      2  N   UNL A   1      35.235  22.717  24.299  1.00  0.00    -0.354 N 
ATOM      3  C   UNL A   1      34.179  22.848  23.462  1.00  0.00     0.242 C 
ATOM      4  O   UNL A   1      34.440  23.270  22.326  1.00  0.00    -0.273 OA
ATOM      5  H   UNL A   1      36.056  23.177  24.009  1.00  0.00     0.163 HD
BRANCH   3   6
ATOM      6  C   UNL A   1      32.707  22.597  23.861  1.00  0.00     0.175 C 
BRANCH   6   7
ATOM      7  N   UNL A   1      31.707  23.303  23.076  1.00  0.00    -0.344 N 
ATOM      8  C   UNL A   1      31.034  24.431  23.455  1.00  0.00     0.221 C 
ATOM      9  O   UNL A   1      29.883  24.614  23.067  1.00  0.00    -0.275 OA
ATOM     10  H   UNL A   1      31.493  22.933  22.188  1.00  0.00     0.164 HD
BRANCH   8  11
ATOM     11  C   UNL A   1      31.782  25.500  24.235  1.00  0.00     0.116 C 
BRANCH  11  12
ATOM     12  C   UNL A   1      32.969  26.213  23.541  1.00  0.00     0.116 C 
ATOM     13  C   UNL A   1      31.615  29.584  24.620  1.00  0.00     0.126 A 
ATOM     14  C   UNL A   1      30.371  30.198  24.394  1.00  0.00     0.050 A 
ATOM     15  C   UNL A   1      32.015  28.492  23.847  1.00  0.00     0.041 A 
ATOM     16  C   UNL A   1      29.502  29.735  23.396  1.00  0.00    -0.044 A 
ATOM     17  C   UNL A   1      31.190  28.149  22.761  1.00  0.00     0.138 A 
ATOM     18  C   UNL A   1      33.253  27.635  24.097  1.00  0.00     0.038 C 
ATOM     19  C   UNL A   1      28.154  30.362  23.201  1.00  0.00     0.044 C 
ATOM     20  C   UNL A   1      29.941  28.726  22.545  1.00  0.00     0.051 A 
ATOM     21  O   UNL A   1      31.598  27.214  21.796  1.00  0.00    -0.426 OA
ATOM     22  C   UNL A   1      33.760  27.537  25.540  1.00  0.00     0.014 C 
ATOM     23  C   UNL A   1      32.748  26.505  22.074  1.00  0.00     0.315 C 
ATOM     24  O   UNL A   1      33.516  26.160  21.184  1.00  0.00    -0.251 OA
BRANCH  13  25
ATOM     25  O   UNL A   1      32.519  30.109  25.502  1.00  0.00    -0.496 OA
ATOM     26  C   UNL A   1      31.957  30.460  26.761  1.00  0.00     0.278 C 
ENDBRANCH  13  25
ENDBRANCH  11  12
ENDBRANCH   8  11
ENDBRANCH   6   7
BRANCH   6  27
ATOM     27  C   UNL A   1      32.174  21.298  24.448  1.00  0.00     0.072 C 
BRANCH  27  28
ATOM     28  C   UNL A   1      32.293  19.899  23.909  1.00  0.00    -0.020 A 
ATOM     29  C   UNL A   1      32.246  19.725  22.531  1.00  0.00     0.087 A 
ATOM     30  C   UNL A   1      32.650  18.609  24.457  1.00  0.00     0.003 A 
ATOM     31  N   UNL A   1      32.721  18.490  22.223  1.00  0.00    -0.361 N 
ATOM     32  C   UNL A   1      32.915  17.766  23.367  1.00  0.00     0.046 A 
ATOM     33  C   UNL A   1      32.829  18.039  25.738  1.00  0.00     0.010 A 
ATOM     34  H   UNL A   1      32.898  18.164  21.310  1.00  0.00     0.166 HD
ATOM     35  C   UNL A   1      33.338  16.436  23.489  1.00  0.00     0.026 A 
ATOM     36  C   UNL A   1      33.213  16.694  25.880  1.00  0.00     0.001 A 
ATOM     37  C   UNL A   1      33.466  15.904  24.768  1.00  0.00     0.002 A 
ENDBRANCH  27  28
ENDBRANCH   6  27
ENDBRANCH   3   6
ENDBRANCH   1   2
BRANCH   1  38
ATOM     38  C   UNL A   1      36.113  20.711  25.363  1.00  0.00     0.042 C 
BRANCH  38  39
ATOM     39  C   UNL A   1      37.541  20.966  24.911  1.00  0.00     0.118 C 
BRANCH  39  40
ATOM     40  N   UNL A   1      38.444  19.905  25.343  1.00  0.00    -0.352 N 
ATOM     41  C   UNL A   1      39.668  20.007  25.968  1.00  0.00     0.251 C 
ATOM     42  H   UNL A   1      38.135  18.988  25.163  1.00  0.00     0.163 HD
ATOM     43  O   UNL A   1      40.399  19.037  26.047  1.00  0.00    -0.269 OA
BRANCH  41  44
ATOM     44  C   UNL A   1      40.076  21.321  26.511  1.00  0.00     0.039 A 
ATOM     45  C   UNL A   1      39.551  22.491  25.963  1.00  0.00     0.014 A 
ATOM     46  C   UNL A   1      41.026  21.378  27.531  1.00  0.00     0.014 A 
ATOM     47  C   UNL A   1      40.123  23.710  26.288  1.00  0.00     0.010 A 
ATOM     48  C   UNL A   1      41.514  22.620  27.942  1.00  0.00     0.010 A 
ATOM     49  C   UNL A   1      41.105  23.792  27.287  1.00  0.00    -0.014 A 
BRANCH  49  50
ATOM     50  C   UNL A   1      41.675  25.120  27.632  1.00  0.00     0.031 A 
ATOM     51  C   UNL A   1      43.058  25.505  27.185  1.00  0.00     0.074 A 
ATOM     52  C   UNL A   1      40.903  26.000  28.299  1.00  0.00     0.049 A 
ATOM     53  N   UNL A   1      43.704  26.624  27.389  1.00  0.00    -0.248 NA
ATOM     54  C   UNL A   1      43.819  24.508  26.414  1.00  0.00     0.031 C 
ATOM     55  C   UNL A   1      39.539  25.728  28.758  1.00  0.00     0.029 A 
ATOM     56  N   UNL A   1      41.127  27.299  28.677  1.00  0.00    -0.354 N 
ATOM     57  C   UNL A   1      44.950  26.461  26.792  1.00  0.00     0.074 A 
ATOM     58  C   UNL A   1      44.985  25.119  26.255  1.00  0.00     0.031 C 
ATOM     59  C   UNL A   1      39.022  26.845  29.284  1.00  0.00     0.029 A 
ATOM     60  C   UNL A   1      40.046  27.885  29.293  1.00  0.00     0.049 A 
ATOM     61  H   UNL A   1      41.979  27.767  28.523  1.00  0.00     0.167 HD
ATOM     62  C   UNL A   1      45.959  27.359  26.690  1.00  0.00     0.034 A 
ATOM     63  C   UNL A   1      39.893  29.115  29.824  1.00  0.00     0.034 A 
ATOM     64  C   UNL A   1      45.890  28.698  27.222  1.00  0.00     0.049 A 
ATOM     65  C   UNL A   1      41.047  30.077  29.740  1.00  0.00     0.074 A 
ATOM     66  C   UNL A   1      46.854  29.688  27.171  1.00  0.00     0.029 A 
ATOM     67  N   UNL A   1      44.798  29.240  27.889  1.00  0.00    -0.354 N 
ATOM     68  N   UNL A   1      42.216  29.911  29.165  1.00  0.00    -0.248 NA
ATOM     69  C   UNL A   1      40.872  31.388  30.377  1.00  0.00     0.031 C 
ATOM     70  C   UNL A   1      46.373  30.802  27.861  1.00  0.00     0.029 A 
ATOM     71  C   UNL A   1      45.076  30.541  28.275  1.00  0.00     0.049 A 
ATOM     72  H   UNL A   1      43.951  28.768  28.062  1.00  0.00     0.167 HD
ATOM     73  C   UNL A   1      42.910  31.100  29.357  1.00  0.00     0.074 A 
ATOM     74  C   UNL A   1      42.017  31.988  30.075  1.00  0.00     0.031 C 
ATOM     75  C   UNL A   1      44.174  31.423  28.980  1.00  0.00     0.034 A 
BRANCH  62  76
ATOM     76  C   UNL A   1      47.227  26.948  25.978  1.00  0.00     0.023 A 
ATOM     77  C   UNL A   1      48.254  26.292  26.685  1.00  0.00     0.031 A 
ATOM     78  C   UNL A   1      47.472  27.308  24.640  1.00  0.00     0.131 A 
ATOM     79  C   UNL A   1      49.486  26.050  26.064  1.00  0.00     0.055 A 
ATOM     80  C   UNL A   1      48.685  27.023  24.011  1.00  0.00     0.041 A 
ATOM     81  F   UNL A   1      46.528  27.934  23.919  1.00  0.00    -0.206 F 
ATOM     82  C   UNL A   1      49.703  26.403  24.728  1.00  0.00     0.022 A 
BRANCH  79  83
ATOM     83  S   UNL A   1      50.876  25.330  26.981  1.00  0.00     0.124 S 
ATOM     84  O   UNL A   1      51.397  26.494  27.694  1.00  0.00    -0.237 OA
ATOM     85  O   UNL A   1      50.209  24.334  27.815  1.00  0.00    -0.237 OA
ATOM     86  O   UNL A   1      51.747  24.799  25.938  1.00  0.00    -0.744 OA
ENDBRANCH  79  83
ENDBRANCH  62  76
BRANCH  63  87
ATOM     87  C   UNL A   1      38.579  29.486  30.428  1.00  0.00     0.023 A 
ATOM     88  C   UNL A   1      37.631  30.227  29.698  1.00  0.00     0.031 A 
ATOM     89  C   UNL A   1      38.315  29.231  31.783  1.00  0.00     0.131 A 
ATOM     90  C   UNL A   1      36.516  30.767  30.350  1.00  0.00     0.055 A 
ATOM     91  C   UNL A   1      37.158  29.702  32.408  1.00  0.00     0.041 A 
ATOM     92  F   UNL A   1      39.193  28.540  32.526  1.00  0.00    -0.206 F 
ATOM     93  C   UNL A   1      36.263  30.494  31.696  1.00  0.00     0.022 A 
BRANCH  90  94
ATOM     94  S   UNL A   1      35.446  31.972  29.513  1.00  0.00     0.124 S 
ATOM     95  O   UNL A   1      34.849  31.166  28.453  1.00  0.00    -0.237 OA
ATOM     96  O   UNL A   1      34.543  32.365  30.592  1.00  0.00    -0.237 OA
ATOM     97  O   UNL A   1      36.372  33.009  29.072  1.00  0.00    -0.744 OA
ENDBRANCH  90  94
ENDBRANCH  63  87
BRANCH  75  98
ATOM     98  C   UNL A   1      44.698  32.797  29.322  1.00  0.00     0.023 A 
ATOM     99  C   UNL A   1      44.608  33.837  28.376  1.00  0.00     0.031 A 
ATOM    100  C   UNL A   1      45.421  33.032  30.503  1.00  0.00     0.131 A 
ATOM    101  C   UNL A   1      45.275  35.046  28.605  1.00  0.00     0.055 A 
ATOM    102  C   UNL A   1      46.038  34.259  30.752  1.00  0.00     0.041 A 
ATOM    103  F   UNL A   1      45.544  32.069  31.431  1.00  0.00    -0.206 F 
ATOM    104  C   UNL A   1      45.981  35.266  29.792  1.00  0.00     0.022 A 
BRANCH 101 105
ATOM    105  S   UNL A   1      45.337  36.337  27.333  1.00  0.00     0.124 S 
ATOM    106  O   UNL A   1      46.241  37.313  27.936  1.00  0.00    -0.237 OA
ATOM    107  O   UNL A   1      45.876  35.611  26.186  1.00  0.00    -0.237 OA
ATOM    108  O   UNL A   1      43.949  36.771  27.205  1.00  0.00    -0.744 OA
ENDBRANCH 101 105
ENDBRANCH  75  98
ENDBRANCH  49  50
ENDBRANCH  41  44
ENDBRANCH  39  40
ENDBRANCH  38  39
ENDBRANCH   1  38
TORSDOF 19
ENDMDL
MODEL 2
REMARK VINA RESULT:     -13.9      2.249      3.125
REMARK SMILES COc1cc(C)cc2c1[C@@H](C)[C@@H](CC(=O)N[C@@H](Cc1c[nH]c3ccccc13)C(=O)NCCCNC(=O)c1ccc(-c3c4nc(c(-c5cc(S(=O)(=O)[O-])ccc5F)c5ccc([nH]5)c(-c5cc(S(=O)(=O)[O-])ccc5F)c5nc(c(-c6cc(S(=O)(=O)[O-])ccc6F)c6ccc3[nH]6)C=C5)C=C4)cc1)C(=O)O2
REMARK SMILES IDX 31 1 30 2 28 3 29 4 17 6 16 7 14 8 15 9 13 11 12 12 3 13
REMARK SMILES IDX 4 14 9 15 5 16 8 17 10 18 6 19 7 20 102 21 11 22 100 23
REMARK SMILES IDX 101 24 2 25 1 26 18 27 19 28 20 29 27 30 21 31 22 32 26 33
REMARK SMILES IDX 23 35 25 36 24 37 32 38 33 39 34 40 35 41 36 43 37 44 38 45
REMARK SMILES IDX 99 46 39 47 98 48 40 49 41 50 42 51 92 52 43 53 97 54 91 55
REMARK SMILES IDX 93 56 44 57 96 58 90 59 89 60 45 62 77 63 57 64 76 65 58 66
REMARK SMILES IDX 61 67 75 68 94 69 59 70 60 71 74 73 95 74 62 75 46 76 47 77
REMARK SMILES IDX 55 78 48 79 54 80 56 81 53 82 49 83 50 84 51 85 52 86 78 87
REMARK SMILES IDX 79 88 87 89 80 90 86 91 88 92 85 93 81 94 82 95 83 96 84 97
REMARK SMILES IDX 63 98 64 99 72 100 65 101 71 102 73 103 70 104 66 105 67 106
REMARK SMILES IDX 68 107 69 108
REMARK H PARENT 30 5 16 10 21 34 34 42 93 61 61 72
REMARK Flexibility Score: inf
ROOT
ATOM      1  C   UNL A   1      37.376  21.914  24.875  1.00  0.00     0.117 C 
ENDROOT
BRANCH   1   2
ATOM      2  N   UNL A   1      36.483  22.307  25.941  1.00  0.00    -0.354 N 
ATOM      3  C   UNL A   1      35.219  22.786  25.882  1.00  0.00     0.242 C 
ATOM      4  O   UNL A   1      34.790  23.307  26.921  1.00  0.00    -0.273 OA
ATOM      5  H   UNL A   1      36.851  22.211  26.849  1.00  0.00     0.163 HD
BRANCH   3   6
ATOM      6  C   UNL A   1      34.282  22.641  24.660  1.00  0.00     0.175 C 
BRANCH   6   7
ATOM      7  N   UNL A   1      34.513  23.575  23.569  1.00  0.00    -0.344 N 
ATOM      8  C   UNL A   1      33.727  24.645  23.244  1.00  0.00     0.221 C 
ATOM      9  O   UNL A   1      33.628  24.996  22.071  1.00  0.00    -0.275 OA
ATOM     10  H   UNL A   1      35.310  23.421  23.011  1.00  0.00     0.164 HD
BRANCH   8  11
ATOM     11  C   UNL A   1      33.104  25.461  24.366  1.00  0.00     0.116 C 
BRANCH  11  12
ATOM     12  C   UNL A   1      31.589  25.288  24.640  1.00  0.00     0.116 C 
ATOM     13  C   UNL A   1      31.125  29.048  24.623  1.00  0.00     0.126 A 
ATOM     14  C   UNL A   1      31.730  30.060  25.387  1.00  0.00     0.050 A 
ATOM     15  C   UNL A   1      31.198  27.715  25.030  1.00  0.00     0.041 A 
ATOM     16  C   UNL A   1      32.420  29.763  26.572  1.00  0.00    -0.044 A 
ATOM     17  C   UNL A   1      31.765  27.469  26.293  1.00  0.00     0.138 A 
ATOM     18  C   UNL A   1      30.734  26.512  24.212  1.00  0.00     0.038 C 
ATOM     19  C   UNL A   1      33.109  30.842  27.350  1.00  0.00     0.044 C 
ATOM     20  C   UNL A   1      32.396  28.455  27.046  1.00  0.00     0.051 A 
ATOM     21  O   UNL A   1      31.697  26.201  26.893  1.00  0.00    -0.426 OA
ATOM     22  C   UNL A   1      30.753  26.650  22.686  1.00  0.00     0.014 C 
ATOM     23  C   UNL A   1      31.231  25.170  26.104  1.00  0.00     0.315 C 
ATOM     24  O   UNL A   1      30.575  24.250  26.577  1.00  0.00    -0.251 OA
BRANCH  13  25
ATOM     25  O   UNL A   1      30.344  29.345  23.539  1.00  0.00    -0.496 OA
ATOM     26  C   UNL A   1      29.524  30.494  23.718  1.00  0.00     0.278 C 
ENDBRANCH  13  25
ENDBRANCH  11  12
ENDBRANCH   8  11
ENDBRANCH   6   7
BRANCH   6  27
ATOM     27  C   UNL A   1      33.667  21.333  24.185  1.00  0.00     0.072 C 
BRANCH  27  28
ATOM     28  C   UNL A   1      33.573  20.016  24.908  1.00  0.00    -0.020 A 
ATOM     29  C   UNL A   1      33.188  20.032  26.243  1.00  0.00     0.087 A 
ATOM     30  C   UNL A   1      33.600  18.623  24.521  1.00  0.00     0.003 A 
ATOM     31  N   UNL A   1      32.815  18.779  26.612  1.00  0.00    -0.361 N 
ATOM     32  C   UNL A   1      33.111  17.891  25.614  1.00  0.00     0.046 A 
ATOM     33  C   UNL A   1      33.933  17.871  23.372  1.00  0.00     0.010 A 
ATOM     34  H   UNL A   1      32.395  18.544  27.471  1.00  0.00     0.166 HD
ATOM     35  C   UNL A   1      32.941  16.500  25.614  1.00  0.00     0.026 A 
ATOM     36  C   UNL A   1      33.809  16.470  23.367  1.00  0.00     0.001 A 
ATOM     37  C   UNL A   1      33.317  15.796  24.475  1.00  0.00     0.002 A 
ENDBRANCH  27  28
ENDBRANCH   6  27
ENDBRANCH   3   6
ENDBRANCH   1   2
BRANCH   1  38
ATOM     38  C   UNL A   1      38.087  20.619  25.227  1.00  0.00     0.042 C 
BRANCH  38  39
ATOM     39  C   UNL A   1      39.291  20.862  26.121  1.00  0.00     0.118 C 
BRANCH  39  40
ATOM     40  N   UNL A   1      40.232  19.748  26.078  1.00  0.00    -0.352 N 
ATOM     41  C   UNL A   1      41.609  19.775  26.043  1.00  0.00     0.251 C 
ATOM     42  H   UNL A   1      39.825  18.852  26.073  1.00  0.00     0.163 HD
ATOM     43  O   UNL A   1      42.235  18.767  25.771  1.00  0.00    -0.269 OA
BRANCH  41  44
ATOM     44  C   UNL A   1      42.297  21.055  26.318  1.00  0.00     0.039 A 
ATOM     45  C   UNL A   1      42.619  21.401  27.630  1.00  0.00     0.014 A 
ATOM     46  C   UNL A   1      42.568  21.930  25.266  1.00  0.00     0.014 A 
ATOM     47  C   UNL A   1      43.019  22.696  27.914  1.00  0.00     0.010 A 
ATOM     48  C   UNL A   1      43.086  23.196  25.546  1.00  0.00     0.010 A 
ATOM     49  C   UNL A   1      43.266  23.608  26.875  1.00  0.00    -0.014 A 
BRANCH  49  50
ATOM     50  C   UNL A   1      43.724  24.980  27.214  1.00  0.00     0.031 A 
ATOM     51  C   UNL A   1      45.131  25.419  26.917  1.00  0.00     0.074 A 
ATOM     52  C   UNL A   1      42.833  25.847  27.736  1.00  0.00     0.049 A 
ATOM     53  N   UNL A   1      45.691  26.580  27.137  1.00  0.00    -0.248 NA
ATOM     54  C   UNL A   1      46.029  24.430  26.298  1.00  0.00     0.031 C 
ATOM     55  C   UNL A   1      41.438  25.522  28.042  1.00  0.00     0.029 A 
ATOM     56  N   UNL A   1      42.946  27.173  28.068  1.00  0.00    -0.354 N 
ATOM     57  C   UNL A   1      47.008  26.458  26.705  1.00  0.00     0.074 A 
ATOM     58  C   UNL A   1      47.175  25.096  26.248  1.00  0.00     0.031 C 
ATOM     59  C   UNL A   1      40.807  26.633  28.441  1.00  0.00     0.029 A 
ATOM     60  C   UNL A   1      41.770  27.726  28.517  1.00  0.00     0.049 A 
ATOM     61  H   UNL A   1      43.786  27.678  27.992  1.00  0.00     0.167 HD
ATOM     62  C   UNL A   1      47.977  27.404  26.676  1.00  0.00     0.034 A 
ATOM     63  C   UNL A   1      41.493  28.970  28.959  1.00  0.00     0.034 A 
ATOM     64  C   UNL A   1      47.777  28.760  27.124  1.00  0.00     0.049 A 
ATOM     65  C   UNL A   1      42.601  29.989  28.963  1.00  0.00     0.074 A 
ATOM     66  C   UNL A   1      48.691  29.798  27.136  1.00  0.00     0.029 A 
ATOM     67  N   UNL A   1      46.587  29.273  27.624  1.00  0.00    -0.354 N 
ATOM     68  N   UNL A   1      43.838  29.860  28.543  1.00  0.00    -0.248 NA
ATOM     69  C   UNL A   1      42.285  31.317  29.503  1.00  0.00     0.031 C 
ATOM     70  C   UNL A   1      48.076  30.916  27.703  1.00  0.00     0.029 A 
ATOM     71  C   UNL A   1      46.752  30.603  27.971  1.00  0.00     0.049 A 
ATOM     72  H   UNL A   1      45.749  28.764  27.719  1.00  0.00     0.167 HD
ATOM     73  C   UNL A   1      44.444  31.094  28.753  1.00  0.00     0.074 A 
ATOM     74  C   UNL A   1      43.427  31.964  29.310  1.00  0.00     0.031 C 
ATOM     75  C   UNL A   1      45.727  31.467  28.514  1.00  0.00     0.034 A 
BRANCH  62  76
ATOM     76  C   UNL A   1      49.341  27.030  26.146  1.00  0.00     0.023 A 
ATOM     77  C   UNL A   1      49.751  27.476  24.874  1.00  0.00     0.031 A 
ATOM     78  C   UNL A   1      50.184  26.140  26.837  1.00  0.00     0.131 A 
ATOM     79  C   UNL A   1      50.950  27.005  24.321  1.00  0.00     0.055 A 
ATOM     80  C   UNL A   1      51.399  25.710  26.301  1.00  0.00     0.041 A 
ATOM     81  F   UNL A   1      49.843  25.684  28.054  1.00  0.00    -0.206 F 
ATOM     82  C   UNL A   1      51.780  26.132  25.031  1.00  0.00     0.022 A 
BRANCH  79  83
ATOM     83  S   UNL A   1      51.445  27.451  22.634  1.00  0.00     0.124 S 
ATOM     84  O   UNL A   1      52.800  26.908  22.567  1.00  0.00    -0.237 OA
ATOM     85  O   UNL A   1      50.451  26.747  21.827  1.00  0.00    -0.237 OA
ATOM     86  O   UNL A   1      51.357  28.906  22.614  1.00  0.00    -0.744 OA
ENDBRANCH  79  83
ENDBRANCH  62  76
BRANCH  63  87
ATOM     87  C   UNL A   1      40.099  29.296  29.380  1.00  0.00     0.023 A 
ATOM     88  C   UNL A   1      39.736  29.299  30.741  1.00  0.00     0.031 A 
ATOM     89  C   UNL A   1      39.082  29.467  28.427  1.00  0.00     0.131 A 
ATOM     90  C   UNL A   1      38.385  29.371  31.102  1.00  0.00     0.055 A 
ATOM     91  C   UNL A   1      37.745  29.622  28.798  1.00  0.00     0.041 A 
ATOM     92  F   UNL A   1      39.374  29.458  27.117  1.00  0.00    -0.206 F 
ATOM     93  C   UNL A   1      37.388  29.552  30.141  1.00  0.00     0.022 A 
BRANCH  90  94
ATOM     94  S   UNL A   1      37.867  29.071  32.817  1.00  0.00     0.124 S 
ATOM     95  O   UNL A   1      36.611  29.810  32.890  1.00  0.00    -0.237 OA
ATOM     96  O   UNL A   1      37.746  27.615  32.839  1.00  0.00    -0.237 OA
ATOM     97  O   UNL A   1      38.966  29.612  33.609  1.00  0.00    -0.744 OA
ENDBRANCH  90  94
ENDBRANCH  63  87
BRANCH  75  98
ATOM     98  C   UNL A   1      46.138  32.882  28.842  1.00  0.00     0.023 A 
ATOM     99  C   UNL A   1      46.037  33.888  27.860  1.00  0.00     0.031 A 
ATOM    100  C   UNL A   1      46.771  33.199  30.056  1.00  0.00     0.131 A 
ATOM    101  C   UNL A   1      46.608  35.144  28.090  1.00  0.00     0.055 A 
ATOM    102  C   UNL A   1      47.289  34.472  30.301  1.00  0.00     0.041 A 
ATOM    103  F   UNL A   1      46.901  32.273  31.019  1.00  0.00    -0.206 F 
ATOM    104  C   UNL A   1      47.224  35.445  29.309  1.00  0.00     0.022 A 
BRANCH 101 105
ATOM    105  S   UNL A   1      46.661  36.401  26.782  1.00  0.00     0.124 S 
ATOM    106  O   UNL A   1      46.254  35.632  25.608  1.00  0.00    -0.237 OA
ATOM    107  O   UNL A   1      45.685  37.378  27.257  1.00  0.00    -0.237 OA
ATOM    108  O   UNL A   1      48.050  36.849  26.781  1.00  0.00    -0.744 OA
ENDBRANCH 101 105
ENDBRANCH  75  98
ENDBRANCH  49  50
ENDBRANCH  41  44
ENDBRANCH  39  40
ENDBRANCH  38  39
ENDBRANCH   1  38
TORSDOF 19
ENDMDL
MODEL 3
REMARK VINA RESULT:     -13.7      1.688      2.014
REMARK SMILES COc1cc(C)cc2c1[C@@H](C)[C@@H](CC(=O)N[C@@H](Cc1c[nH]c3ccccc13)C(=O)NCCCNC(=O)c1ccc(-c3c4nc(c(-c5cc(S(=O)(=O)[O-])ccc5F)c5ccc([nH]5)c(-c5cc(S(=O)(=O)[O-])ccc5F)c5nc(c(-c6cc(S(=O)(=O)[O-])ccc6F)c6ccc3[nH]6)C=C5)C=C4)cc1)C(=O)O2
REMARK SMILES IDX 31 1 30 2 28 3 29 4 17 6 16 7 14 8 15 9 13 11 12 12 3 13
REMARK SMILES IDX 4 14 9 15 5 16 8 17 10 18 6 19 7 20 102 21 11 22 100 23
REMARK SMILES IDX 101 24 2 25 1 26 18 27 19 28 20 29 27 30 21 31 22 32 26 33
REMARK SMILES IDX 23 35 25 36 24 37 32 38 33 39 34 40 35 41 36 43 37 44 38 45
REMARK SMILES IDX 99 46 39 47 98 48 40 49 41 50 42 51 92 52 43 53 97 54 91 55
REMARK SMILES IDX 93 56 44 57 96 58 90 59 89 60 45 62 77 63 57 64 76 65 58 66
REMARK SMILES IDX 61 67 75 68 94 69 59 70 60 71 74 73 95 74 62 75 46 76 47 77
REMARK SMILES IDX 55 78 48 79 54 80 56 81 53 82 49 83 50 84 51 85 52 86 78 87
REMARK SMILES IDX 79 88 87 89 80 90 86 91 88 92 85 93 81 94 82 95 83 96 84 97
REMARK SMILES IDX 63 98 64 99 72 100 65 101 71 102 73 103 70 104 66 105 67 106
REMARK SMILES IDX 68 107 69 108
REMARK H PARENT 30 5 16 10 21 34 34 42 93 61 61 72
REMARK Flexibility Score: inf
ROOT
ATOM      1  C   UNL A   1      35.289  23.473  24.164  1.00  0.00     0.117 C 
ENDROOT
BRANCH   1   2
ATOM      2  N   UNL A   1      34.791  23.528  22.809  1.00  0.00    -0.354 N 
ATOM      3  C   UNL A   1      33.557  23.253  22.326  1.00  0.00     0.242 C 
ATOM      4  O   UNL A   1      33.478  23.106  21.098  1.00  0.00    -0.273 OA
ATOM      5  H   UNL A   1      35.450  23.807  22.133  1.00  0.00     0.163 HD
BRANCH   3   6
ATOM      6  C   UNL A   1      32.271  23.205  23.182  1.00  0.00     0.175 C 
BRANCH   6   7
ATOM      7  N   UNL A   1      31.211  24.121  22.788  1.00  0.00    -0.344 N 
ATOM      8  C   UNL A   1      30.649  25.088  23.573  1.00  0.00     0.221 C 
ATOM      9  O   UNL A   1      29.467  25.386  23.420  1.00  0.00    -0.275 OA
ATOM     10  H   UNL A   1      30.867  24.036  21.869  1.00  0.00     0.164 HD
BRANCH   8  11
ATOM     11  C   UNL A   1      31.542  25.869  24.523  1.00  0.00     0.116 C 
BRANCH  11  12
ATOM     12  C   UNL A   1      32.799  26.562  23.939  1.00  0.00     0.116 C 
ATOM     13  C   UNL A   1      31.386  29.958  24.851  1.00  0.00     0.126 A 
ATOM     14  C   UNL A   1      30.176  30.583  24.501  1.00  0.00     0.050 A 
ATOM     15  C   UNL A   1      31.845  28.854  24.131  1.00  0.00     0.041 A 
ATOM     16  C   UNL A   1      29.401  30.118  23.429  1.00  0.00    -0.044 A 
ATOM     17  C   UNL A   1      31.124  28.508  22.974  1.00  0.00     0.138 A 
ATOM     18  C   UNL A   1      33.044  27.987  24.506  1.00  0.00     0.038 C 
ATOM     19  C   UNL A   1      28.086  30.757  23.100  1.00  0.00     0.044 C 
ATOM     20  C   UNL A   1      29.908  29.095  22.634  1.00  0.00     0.051 A 
ATOM     21  O   UNL A   1      31.611  27.558  22.062  1.00  0.00    -0.426 OA
ATOM     22  C   UNL A   1      33.410  27.899  25.992  1.00  0.00     0.014 C 
ATOM     23  C   UNL A   1      32.722  26.840  22.455  1.00  0.00     0.315 C 
ATOM     24  O   UNL A   1      33.568  26.478  21.646  1.00  0.00    -0.251 OA
BRANCH  13  25
ATOM     25  O   UNL A   1      32.207  30.483  25.810  1.00  0.00    -0.496 OA
ATOM     26  C   UNL A   1      31.630  31.563  26.535  1.00  0.00     0.278 C 
ENDBRANCH  13  25
ENDBRANCH  11  12
ENDBRANCH   8  11
ENDBRANCH   6   7
BRANCH   6  27
ATOM     27  C   UNL A   1      31.735  21.964  23.880  1.00  0.00     0.072 C 
BRANCH  27  28
ATOM     28  C   UNL A   1      32.494  20.783  24.422  1.00  0.00    -0.020 A 
ATOM     29  C   UNL A   1      32.946  20.846  25.735  1.00  0.00     0.087 A 
ATOM     30  C   UNL A   1      32.748  19.429  23.982  1.00  0.00     0.003 A 
ATOM     31  N   UNL A   1      33.273  19.595  26.152  1.00  0.00    -0.361 N 
ATOM     32  C   UNL A   1      33.226  18.725  25.098  1.00  0.00     0.046 A 
ATOM     33  C   UNL A   1      32.601  18.679  22.793  1.00  0.00     0.010 A 
ATOM     34  H   UNL A   1      33.511  19.351  27.076  1.00  0.00     0.166 HD
ATOM     35  C   UNL A   1      33.546  17.361  25.085  1.00  0.00     0.026 A 
ATOM     36  C   UNL A   1      32.956  17.320  22.750  1.00  0.00     0.001 A 
ATOM     37  C   UNL A   1      33.421  16.670  23.885  1.00  0.00     0.002 A 
ENDBRANCH  27  28
ENDBRANCH   6  27
ENDBRANCH   3   6
ENDBRANCH   1   2
BRANCH   1  38
ATOM     38  C   UNL A   1      36.153  22.241  24.363  1.00  0.00     0.042 C 
BRANCH  38  39
ATOM     39  C   UNL A   1      36.843  22.248  25.717  1.00  0.00     0.118 C 
BRANCH  39  40
ATOM     40  N   UNL A   1      37.912  21.258  25.787  1.00  0.00    -0.352 N 
ATOM     41  C   UNL A   1      39.237  21.433  26.123  1.00  0.00     0.251 C 
ATOM     42  H   UNL A   1      37.651  20.337  25.561  1.00  0.00     0.163 HD
ATOM     43  O   UNL A   1      40.047  20.551  25.903  1.00  0.00    -0.269 OA
BRANCH  41  44
ATOM     44  C   UNL A   1      39.648  22.718  26.729  1.00  0.00     0.039 A 
ATOM     45  C   UNL A   1      39.111  23.913  26.252  1.00  0.00     0.014 A 
ATOM     46  C   UNL A   1      40.613  22.725  27.737  1.00  0.00     0.014 A 
ATOM     47  C   UNL A   1      39.682  25.116  26.633  1.00  0.00     0.010 A 
ATOM     48  C   UNL A   1      41.102  23.946  28.206  1.00  0.00     0.010 A 
ATOM     49  C   UNL A   1      40.679  25.149  27.620  1.00  0.00    -0.014 A 
BRANCH  49  50
ATOM     50  C   UNL A   1      41.248  26.460  28.026  1.00  0.00     0.031 A 
ATOM     51  C   UNL A   1      42.661  26.831  27.669  1.00  0.00     0.074 A 
ATOM     52  C   UNL A   1      40.453  27.339  28.667  1.00  0.00     0.049 A 
ATOM     53  N   UNL A   1      43.311  27.934  27.934  1.00  0.00    -0.248 NA
ATOM     54  C   UNL A   1      43.450  25.838  26.921  1.00  0.00     0.031 C 
ATOM     55  C   UNL A   1      39.060  27.080  29.041  1.00  0.00     0.029 A 
ATOM     56  N   UNL A   1      40.675  28.625  29.087  1.00  0.00    -0.354 N 
ATOM     57  C   UNL A   1      44.587  27.763  27.407  1.00  0.00     0.074 A 
ATOM     58  C   UNL A   1      44.633  26.432  26.843  1.00  0.00     0.031 C 
ATOM     59  C   UNL A   1      38.532  28.194  29.561  1.00  0.00     0.029 A 
ATOM     60  C   UNL A   1      39.569  29.216  29.652  1.00  0.00     0.049 A 
ATOM     61  H   UNL A   1      41.542  29.082  28.992  1.00  0.00     0.167 HD
ATOM     62  C   UNL A   1      45.615  28.645  27.383  1.00  0.00     0.034 A 
ATOM     63  C   UNL A   1      39.406  30.437  30.200  1.00  0.00     0.034 A 
ATOM     64  C   UNL A   1      45.535  29.973  27.940  1.00  0.00     0.049 A 
ATOM     65  C   UNL A   1      40.577  31.380  30.205  1.00  0.00     0.074 A 
ATOM     66  C   UNL A   1      46.517  30.948  27.966  1.00  0.00     0.029 A 
ATOM     67  N   UNL A   1      44.415  30.520  28.554  1.00  0.00    -0.354 N 
ATOM     68  N   UNL A   1      41.775  31.207  29.695  1.00  0.00    -0.248 NA
ATOM     69  C   UNL A   1      40.386  32.681  30.859  1.00  0.00     0.031 C 
ATOM     70  C   UNL A   1      46.014  32.055  28.652  1.00  0.00     0.029 A 
ATOM     71  C   UNL A   1      44.692  31.807  28.985  1.00  0.00     0.049 A 
ATOM     72  H   UNL A   1      43.553  30.059  28.668  1.00  0.00     0.167 HD
ATOM     73  C   UNL A   1      42.475  32.380  29.952  1.00  0.00     0.074 A 
ATOM     74  C   UNL A   1      41.556  33.268  30.638  1.00  0.00     0.031 C 
ATOM     75  C   UNL A   1      43.763  32.689  29.656  1.00  0.00     0.034 A 
BRANCH  62  76
ATOM     76  C   UNL A   1      46.915  28.228  26.737  1.00  0.00     0.023 A 
ATOM     77  C   UNL A   1      47.031  28.205  25.334  1.00  0.00     0.031 A 
ATOM     78  C   UNL A   1      47.994  27.741  27.497  1.00  0.00     0.131 A 
ATOM     79  C   UNL A   1      48.182  27.675  24.736  1.00  0.00     0.055 A 
ATOM     80  C   UNL A   1      49.158  27.256  26.898  1.00  0.00     0.041 A 
ATOM     81  F   UNL A   1      47.938  27.741  28.839  1.00  0.00    -0.206 F 
ATOM     82  C   UNL A   1      49.249  27.209  25.510  1.00  0.00     0.022 A 
BRANCH  79  83
ATOM     83  S   UNL A   1      48.313  27.504  22.934  1.00  0.00     0.124 S 
ATOM     84  O   UNL A   1      49.589  28.163  22.664  1.00  0.00    -0.237 OA
ATOM     85  O   UNL A   1      48.312  26.054  22.764  1.00  0.00    -0.237 OA
ATOM     86  O   UNL A   1      47.135  28.200  22.429  1.00  0.00    -0.744 OA
ENDBRANCH  79  83
ENDBRANCH  62  76
BRANCH  63  87
ATOM     87  C   UNL A   1      38.065  30.817  30.736  1.00  0.00     0.023 A 
ATOM     88  C   UNL A   1      37.122  31.476  29.924  1.00  0.00     0.031 A 
ATOM     89  C   UNL A   1      37.764  30.657  32.098  1.00  0.00     0.131 A 
ATOM     90  C   UNL A   1      35.974  32.034  30.501  1.00  0.00     0.055 A 
ATOM     91  C   UNL A   1      36.578  31.142  32.652  1.00  0.00     0.041 A 
ATOM     92  F   UNL A   1      38.635  30.047  32.917  1.00  0.00    -0.206 F 
ATOM     93  C   UNL A   1      35.686  31.855  31.856  1.00  0.00     0.022 A 
BRANCH  90  94
ATOM     94  S   UNL A   1      34.902  33.144  29.544  1.00  0.00     0.124 S 
ATOM     95  O   UNL A   1      34.283  32.227  28.593  1.00  0.00    -0.237 OA
ATOM     96  O   UNL A   1      34.019  33.670  30.582  1.00  0.00    -0.237 OA
ATOM     97  O   UNL A   1      35.831  34.114  28.974  1.00  0.00    -0.744 OA
ENDBRANCH  90  94
ENDBRANCH  63  87
BRANCH  75  98
ATOM     98  C   UNL A   1      44.288  34.047  30.058  1.00  0.00     0.023 A 
ATOM     99  C   UNL A   1      44.155  35.139  29.178  1.00  0.00     0.031 A 
ATOM    100  C   UNL A   1      45.053  34.221  31.224  1.00  0.00     0.131 A 
ATOM    101  C   UNL A   1      44.821  36.339  29.453  1.00  0.00     0.055 A 
ATOM    102  C   UNL A   1      45.668  35.438  31.521  1.00  0.00     0.041 A 
ATOM    103  F   UNL A   1      45.217  33.207  32.089  1.00  0.00    -0.206 F 
ATOM    104  C   UNL A   1      45.567  36.498  30.624  1.00  0.00     0.022 A 
BRANCH 101 105
ATOM    105  S   UNL A   1      44.825  37.702  28.256  1.00  0.00     0.124 S 
ATOM    106  O   UNL A   1      44.083  38.736  28.973  1.00  0.00    -0.237 OA
ATOM    107  O   UNL A   1      46.252  37.959  28.089  1.00  0.00    -0.237 OA
ATOM    108  O   UNL A   1      44.146  37.147  27.089  1.00  0.00    -0.744 OA
ENDBRANCH 101 105
ENDBRANCH  75  98
ENDBRANCH  49  50
ENDBRANCH  41  44
ENDBRANCH  39  40
ENDBRANCH  38  39
ENDBRANCH   1  38
TORSDOF 19
ENDMDL
