MODEL 1
REMARK VINA RESULT:     -13.1      0.000      0.000
REMARK SMILES Cc1cccc(NC(=O)C[C@H]([NH2+]C(C)C)C(=O)NCCCNC(=O)c2ccc(-c3c4nc(c(-c5cc(S(=O)(=O)[O-])ccc5F)c5ccc([nH]5)c(-c5cc(S(=O)(=O)[O-])ccc5F)c5nc(c(-c6cc(S(=O)(=O)[O-])ccc6F)c6ccc3[nH]6)C=C5)C=C4)cc2)c1
REMARK SMILES IDX 20 1 19 2 18 3 16 4 17 5 11 7 10 8 8 9 7 10 9 12 6 13 1 14
REMARK SMILES IDX 2 15 3 16 88 17 4 18 5 19 12 20 13 23 14 24 15 25 21 26
REMARK SMILES IDX 22 27 23 28 24 30 25 31 26 32 87 33 27 34 86 35 28 36 29 37
REMARK SMILES IDX 30 38 80 39 31 40 85 41 79 42 81 43 32 44 84 45 78 46 77 47
REMARK SMILES IDX 33 49 65 50 45 51 64 52 46 53 49 54 63 55 82 56 47 57 48 58
REMARK SMILES IDX 62 60 83 61 50 62 34 63 35 64 43 65 36 66 42 67 44 68 41 69
REMARK SMILES IDX 37 70 38 71 39 72 40 73 66 74 67 75 75 76 68 77 74 78 76 79
REMARK SMILES IDX 73 80 69 81 70 82 71 83 72 84 51 85 52 86 60 87 53 88 59 89
REMARK SMILES IDX 61 90 58 91 54 92 55 93 56 94 57 95
REMARK H PARENT 18 6 7 11 12 21 12 22 22 29 81 48 49 59
REMARK Flexibility Score: inf
ROOT
ATOM      1  C   UNL A   1      38.896  23.612  26.127  1.00  0.00     0.042 C 
ENDROOT
BRANCH   1   2
ATOM      2  C   UNL A   1      37.459  22.772  25.603  1.00  0.00     0.118 C 
BRANCH   2   3
ATOM      3  N   UNL A   1      35.663  22.342  26.562  1.00  0.00    -0.351 N 
ATOM      4  C   UNL A   1      34.301  22.088  26.689  1.00  0.00     0.278 C 
ATOM      5  O   UNL A   1      33.998  21.638  27.813  1.00  0.00    -0.268 OA
ATOM      6  H   UNL A   1      35.957  22.281  27.500  1.00  0.00     0.163 HD
BRANCH   4   7
ATOM      7  C   UNL A   1      33.136  22.340  25.728  1.00  0.00     0.282 C 
BRANCH   7   8
ATOM      8  C   UNL A   1      32.603  23.795  25.644  1.00  0.00     0.175 C 
BRANCH   8   9
ATOM      9  C   UNL A   1      31.463  24.215  26.587  1.00  0.00     0.230 C 
ATOM     10  N   UNL A   1      30.948  25.484  26.604  1.00  0.00    -0.326 N 
ATOM     11  H   UNL A   1      30.350  25.720  27.349  1.00  0.00     0.169 HD
ATOM     12  O   UNL A   1      31.006  23.386  27.383  1.00  0.00    -0.274 OA
BRANCH  10  13
ATOM     13  C   UNL A   1      31.206  26.471  25.646  1.00  0.00     0.041 A 
ATOM     14  C   UNL A   1      31.876  30.847  26.171  1.00  0.00     0.044 C 
ATOM     15  C   UNL A   1      31.457  29.597  25.511  1.00  0.00    -0.049 A 
ATOM     16  C   UNL A   1      30.368  29.610  24.065  1.00  0.00     0.003 A 
ATOM     17  C   UNL A   1      31.851  28.017  26.324  1.00  0.00     0.029 A 
ATOM     18  C   UNL A   1      29.789  28.045  23.352  1.00  0.00     0.002 A 
ATOM     19  C   UNL A   1      30.244  26.478  24.106  1.00  0.00     0.026 A 
ENDBRANCH  10  13
ENDBRANCH   8   9
ENDBRANCH   7   8
BRANCH   7  20
ATOM     20  N   UNL A   1      32.094  21.238  25.771  1.00  0.00    -0.334 N 
ATOM     21  H   UNL A   1      31.176  21.667  25.659  1.00  0.00     0.347 HD
ATOM     22  H   UNL A   1      32.216  20.767  26.667  1.00  0.00     0.347 HD
BRANCH  20  23
ATOM     23  C   UNL A   1      32.243  20.189  24.727  1.00  0.00     0.176 C 
ATOM     24  C   UNL A   1      32.419  20.846  23.350  1.00  0.00     0.075 C 
ATOM     25  C   UNL A   1      33.306  19.119  24.949  1.00  0.00     0.075 C 
ENDBRANCH  20  23
ENDBRANCH   7  20
ENDBRANCH   4   7
ENDBRANCH   2   3
ENDBRANCH   1   2
BRANCH   1  26
ATOM     26  C   UNL A   1      39.753  22.853  27.135  1.00  0.00     0.118 C 
BRANCH  26  27
ATOM     27  N   UNL A   1      40.465  21.710  26.612  1.00  0.00    -0.352 N 
ATOM     28  C   UNL A   1      41.802  21.579  26.292  1.00  0.00     0.251 C 
ATOM     29  H   UNL A   1      39.916  20.907  26.462  1.00  0.00     0.163 HD
ATOM     30  O   UNL A   1      42.153  20.660  25.554  1.00  0.00    -0.269 OA
BRANCH  28  31
ATOM     31  C   UNL A   1      42.846  22.382  26.998  1.00  0.00     0.039 A 
ATOM     32  C   UNL A   1      42.842  22.247  28.394  1.00  0.00     0.014 A 
ATOM     33  C   UNL A   1      43.366  23.533  26.434  1.00  0.00     0.014 A 
ATOM     34  C   UNL A   1      42.940  23.380  29.186  1.00  0.00     0.010 A 
ATOM     35  C   UNL A   1      43.283  24.680  27.178  1.00  0.00     0.010 A 
ATOM     36  C   UNL A   1      42.992  24.603  28.541  1.00  0.00    -0.014 A 
BRANCH  36  37
ATOM     37  C   UNL A   1      43.000  25.882  29.213  1.00  0.00     0.031 A 
ATOM     38  C   UNL A   1      41.760  26.645  28.998  1.00  0.00     0.074 A 
ATOM     39  C   UNL A   1      44.029  26.257  30.008  1.00  0.00     0.049 A 
ATOM     40  N   UNL A   1      41.680  27.909  29.116  1.00  0.00    -0.248 NA
ATOM     41  C   UNL A   1      40.504  26.052  28.520  1.00  0.00     0.031 C 
ATOM     42  C   UNL A   1      44.113  27.373  30.947  1.00  0.00     0.029 A 
ATOM     43  N   UNL A   1      45.334  25.775  29.965  1.00  0.00    -0.354 N 
ATOM     44  C   UNL A   1      40.348  28.252  29.057  1.00  0.00     0.074 A 
ATOM     45  C   UNL A   1      39.669  27.091  28.568  1.00  0.00     0.031 C 
ATOM     46  C   UNL A   1      45.409  27.672  31.168  1.00  0.00     0.029 A 
ATOM     47  C   UNL A   1      46.206  26.825  30.298  1.00  0.00     0.049 A 
ATOM     48  H   UNL A   1      45.601  24.856  29.738  1.00  0.00     0.167 HD
ATOM     49  C   UNL A   1      40.002  29.453  29.579  1.00  0.00     0.034 A 
ATOM     50  C   UNL A   1      47.111  27.244  29.367  1.00  0.00     0.034 A 
ATOM     51  C   UNL A   1      41.215  30.152  29.988  1.00  0.00     0.049 A 
ATOM     52  C   UNL A   1      46.719  28.618  28.857  1.00  0.00     0.074 A 
ATOM     53  C   UNL A   1      41.888  30.258  31.193  1.00  0.00     0.029 A 
ATOM     54  N   UNL A   1      42.117  30.493  28.998  1.00  0.00    -0.354 N 
ATOM     55  N   UNL A   1      45.510  29.116  28.939  1.00  0.00    -0.248 NA
ATOM     56  C   UNL A   1      47.678  29.581  28.333  1.00  0.00     0.031 C 
ATOM     57  C   UNL A   1      43.229  30.641  30.899  1.00  0.00     0.029 A 
ATOM     58  C   UNL A   1      43.351  30.786  29.527  1.00  0.00     0.049 A 
ATOM     59  H   UNL A   1      41.904  30.523  28.038  1.00  0.00     0.167 HD
ATOM     60  C   UNL A   1      45.521  30.439  28.570  1.00  0.00     0.074 A 
ATOM     61  C   UNL A   1      46.905  30.672  28.187  1.00  0.00     0.031 C 
ATOM     62  C   UNL A   1      44.406  31.238  28.636  1.00  0.00     0.034 A 
BRANCH  49  63
ATOM     63  C   UNL A   1      38.628  29.931  29.937  1.00  0.00     0.023 A 
ATOM     64  C   UNL A   1      38.235  31.169  29.395  1.00  0.00     0.031 A 
ATOM     65  C   UNL A   1      37.684  29.306  30.772  1.00  0.00     0.131 A 
ATOM     66  C   UNL A   1      37.001  31.754  29.700  1.00  0.00     0.055 A 
ATOM     67  C   UNL A   1      36.450  29.894  31.089  1.00  0.00     0.041 A 
ATOM     68  F   UNL A   1      37.885  28.095  31.301  1.00  0.00    -0.206 F 
ATOM     69  C   UNL A   1      36.102  31.126  30.553  1.00  0.00     0.022 A 
BRANCH  66  70
ATOM     70  S   UNL A   1      36.616  33.354  28.952  1.00  0.00     0.124 S 
ATOM     71  O   UNL A   1      37.942  33.948  28.806  1.00  0.00    -0.237 OA
ATOM     72  O   UNL A   1      35.943  32.965  27.719  1.00  0.00    -0.237 OA
ATOM     73  O   UNL A   1      35.759  33.992  29.949  1.00  0.00    -0.744 OA
ENDBRANCH  66  70
ENDBRANCH  49  63
BRANCH  50  74
ATOM     74  C   UNL A   1      47.652  26.062  28.601  1.00  0.00     0.023 A 
ATOM     75  C   UNL A   1      47.235  25.964  27.245  1.00  0.00     0.031 A 
ATOM     76  C   UNL A   1      48.901  25.517  28.928  1.00  0.00     0.131 A 
ATOM     77  C   UNL A   1      48.154  25.597  26.243  1.00  0.00     0.055 A 
ATOM     78  C   UNL A   1      49.788  25.095  27.925  1.00  0.00     0.041 A 
ATOM     79  F   UNL A   1      49.359  25.563  30.189  1.00  0.00    -0.206 F 
ATOM     80  C   UNL A   1      49.450  25.213  26.577  1.00  0.00     0.022 A 
BRANCH  77  81
ATOM     81  S   UNL A   1      47.728  25.888  24.496  1.00  0.00     0.124 S 
ATOM     82  O   UNL A   1      48.972  26.434  23.966  1.00  0.00    -0.237 OA
ATOM     83  O   UNL A   1      47.369  24.552  24.027  1.00  0.00    -0.237 OA
ATOM     84  O   UNL A   1      46.605  26.821  24.558  1.00  0.00    -0.744 OA
ENDBRANCH  77  81
ENDBRANCH  50  74
BRANCH  62  85
ATOM     85  C   UNL A   1      44.185  32.556  27.903  1.00  0.00     0.023 A 
ATOM     86  C   UNL A   1      43.830  33.731  28.559  1.00  0.00     0.031 A 
ATOM     87  C   UNL A   1      44.412  32.704  26.503  1.00  0.00     0.131 A 
ATOM     88  C   UNL A   1      43.641  34.936  27.863  1.00  0.00     0.055 A 
ATOM     89  C   UNL A   1      44.324  33.923  25.828  1.00  0.00     0.041 A 
ATOM     90  F   UNL A   1      44.752  31.684  25.706  1.00  0.00    -0.206 F 
ATOM     91  C   UNL A   1      43.913  35.053  26.506  1.00  0.00     0.022 A 
BRANCH  88  92
ATOM     92  S   UNL A   1      42.950  36.321  28.792  1.00  0.00     0.124 S 
ATOM     93  O   UNL A   1      43.925  37.376  28.523  1.00  0.00    -0.237 OA
ATOM     94  O   UNL A   1      41.645  36.493  28.163  1.00  0.00    -0.237 OA
ATOM     95  O   UNL A   1      42.923  35.834  30.168  1.00  0.00    -0.744 OA
ENDBRANCH  88  92
ENDBRANCH  62  85
ENDBRANCH  36  37
ENDBRANCH  28  31
ENDBRANCH  26  27
ENDBRANCH   1  26
TORSDOF 18
ENDMDL
MODEL 2
REMARK VINA RESULT:     -13.1      2.451      3.304
REMARK SMILES Cc1cccc(NC(=O)C[C@H]([NH2+]C(C)C)C(=O)NCCCNC(=O)c2ccc(-c3c4nc(c(-c5cc(S(=O)(=O)[O-])ccc5F)c5ccc([nH]5)c(-c5cc(S(=O)(=O)[O-])ccc5F)c5nc(c(-c6cc(S(=O)(=O)[O-])ccc6F)c6ccc3[nH]6)C=C5)C=C4)cc2)c1
REMARK SMILES IDX 20 1 19 2 18 3 16 4 17 5 11 7 10 8 8 9 7 10 9 12 6 13 1 14
REMARK SMILES IDX 2 15 3 16 88 17 4 18 5 19 12 20 13 23 14 24 15 25 21 26
REMARK SMILES IDX 22 27 23 28 24 30 25 31 26 32 87 33 27 34 86 35 28 36 29 37
REMARK SMILES IDX 30 38 80 39 31 40 85 41 79 42 81 43 32 44 84 45 78 46 77 47
REMARK SMILES IDX 33 49 65 50 45 51 64 52 46 53 49 54 63 55 82 56 47 57 48 58
REMARK SMILES IDX 62 60 83 61 50 62 34 63 35 64 43 65 36 66 42 67 44 68 41 69
REMARK SMILES IDX 37 70 38 71 39 72 40 73 66 74 67 75 75 76 68 77 74 78 76 79
REMARK SMILES IDX 73 80 69 81 70 82 71 83 72 84 51 85 52 86 60 87 53 88 59 89
REMARK SMILES IDX 61 90 58 91 54 92 55 93 56 94 57 95
REMARK H PARENT 18 6 7 11 12 21 12 22 22 29 81 48 49 59
REMARK Flexibility Score: inf
ROOT
ATOM      1  C   UNL A   1      38.126  20.746  25.035  1.00  0.00     0.042 C 
ENDROOT
BRANCH   1   2
ATOM      2  C   UNL A   1      36.429  20.383  25.222  1.00  0.00     0.118 C 
BRANCH   2   3
ATOM      3  N   UNL A   1      34.936  21.239  26.393  1.00  0.00    -0.351 N 
ATOM      4  C   UNL A   1      33.746  21.898  26.679  1.00  0.00     0.278 C 
ATOM      5  O   UNL A   1      33.430  21.821  27.884  1.00  0.00    -0.268 OA
ATOM      6  H   UNL A   1      35.289  21.080  27.298  1.00  0.00     0.163 HD
BRANCH   4   7
ATOM      7  C   UNL A   1      32.826  22.745  25.795  1.00  0.00     0.282 C 
BRANCH   7   8
ATOM      8  C   UNL A   1      32.246  24.037  26.429  1.00  0.00     0.175 C 
BRANCH   8   9
ATOM      9  C   UNL A   1      30.728  24.124  26.660  1.00  0.00     0.230 C 
ATOM     10  N   UNL A   1      29.964  25.153  26.177  1.00  0.00    -0.326 N 
ATOM     11  H   UNL A   1      29.043  25.231  26.513  1.00  0.00     0.169 HD
ATOM     12  O   UNL A   1      30.172  23.247  27.332  1.00  0.00    -0.274 OA
BRANCH  10  13
ATOM     13  C   UNL A   1      30.392  26.103  25.242  1.00  0.00     0.041 A 
ATOM     14  C   UNL A   1      32.102  30.170  25.889  1.00  0.00     0.044 C 
ATOM     15  C   UNL A   1      31.363  29.088  25.212  1.00  0.00    -0.049 A 
ATOM     16  C   UNL A   1      30.227  29.431  23.844  1.00  0.00     0.003 A 
ATOM     17  C   UNL A   1      31.421  27.418  25.934  1.00  0.00     0.029 A 
ATOM     18  C   UNL A   1      29.257  28.084  23.112  1.00  0.00     0.002 A 
ATOM     19  C   UNL A   1      29.374  26.416  23.772  1.00  0.00     0.026 A 
ENDBRANCH  10  13
ENDBRANCH   8   9
ENDBRANCH   7   8
BRANCH   7  20
ATOM     20  N   UNL A   1      31.867  21.904  24.973  1.00  0.00    -0.334 N 
ATOM     21  H   UNL A   1      31.152  22.522  24.591  1.00  0.00     0.347 HD
ATOM     22  H   UNL A   1      31.496  21.196  25.606  1.00  0.00     0.347 HD
BRANCH  20  23
ATOM     23  C   UNL A   1      32.489  21.164  23.842  1.00  0.00     0.176 C 
ATOM     24  C   UNL A   1      32.496  19.658  24.145  1.00  0.00     0.075 C 
ATOM     25  C   UNL A   1      31.942  21.426  22.444  1.00  0.00     0.075 C 
ENDBRANCH  20  23
ENDBRANCH   7  20
ENDBRANCH   4   7
ENDBRANCH   2   3
ENDBRANCH   1   2
BRANCH   1  26
ATOM     26  C   UNL A   1      38.533  22.152  25.463  1.00  0.00     0.118 C 
BRANCH  26  27
ATOM     27  N   UNL A   1      39.796  22.251  26.158  1.00  0.00    -0.352 N 
ATOM     28  C   UNL A   1      40.555  23.369  26.444  1.00  0.00     0.251 C 
ATOM     29  H   UNL A   1      40.170  21.397  26.472  1.00  0.00     0.163 HD
ATOM     30  O   UNL A   1      41.741  23.228  26.735  1.00  0.00    -0.269 OA
BRANCH  28  31
ATOM     31  C   UNL A   1      39.916  24.707  26.630  1.00  0.00     0.039 A 
ATOM     32  C   UNL A   1      40.684  25.790  26.178  1.00  0.00     0.014 A 
ATOM     33  C   UNL A   1      38.972  24.918  27.619  1.00  0.00     0.014 A 
ATOM     34  C   UNL A   1      40.811  26.914  26.978  1.00  0.00     0.010 A 
ATOM     35  C   UNL A   1      39.220  25.929  28.508  1.00  0.00     0.010 A 
ATOM     36  C   UNL A   1      40.198  26.883  28.218  1.00  0.00    -0.014 A 
BRANCH  36  37
ATOM     37  C   UNL A   1      40.309  27.927  29.211  1.00  0.00     0.031 A 
ATOM     38  C   UNL A   1      39.383  29.044  28.966  1.00  0.00     0.074 A 
ATOM     39  C   UNL A   1      41.134  27.805  30.277  1.00  0.00     0.049 A 
ATOM     40  N   UNL A   1      39.562  30.221  29.417  1.00  0.00    -0.248 NA
ATOM     41  C   UNL A   1      38.209  28.960  28.087  1.00  0.00     0.031 C 
ATOM     42  C   UNL A   1      41.204  28.618  31.489  1.00  0.00     0.029 A 
ATOM     43  N   UNL A   1      42.255  26.986  30.373  1.00  0.00    -0.354 N 
ATOM     44  C   UNL A   1      38.413  30.940  29.179  1.00  0.00     0.074 A 
ATOM     45  C   UNL A   1      37.651  30.161  28.251  1.00  0.00     0.031 C 
ATOM     46  C   UNL A   1      42.421  28.471  32.051  1.00  0.00     0.029 A 
ATOM     47  C   UNL A   1      43.214  27.639  31.165  1.00  0.00     0.049 A 
ATOM     48  H   UNL A   1      42.359  26.101  29.957  1.00  0.00     0.167 HD
ATOM     49  C   UNL A   1      38.216  32.046  29.936  1.00  0.00     0.034 A 
ATOM     50  C   UNL A   1      44.412  27.969  30.601  1.00  0.00     0.034 A 
ATOM     51  C   UNL A   1      39.394  32.257  30.771  1.00  0.00     0.049 A 
ATOM     52  C   UNL A   1      44.500  29.474  30.431  1.00  0.00     0.074 A 
ATOM     53  C   UNL A   1      39.712  31.899  32.069  1.00  0.00     0.029 A 
ATOM     54  N   UNL A   1      40.589  32.527  30.129  1.00  0.00    -0.354 N 
ATOM     55  N   UNL A   1      43.460  30.271  30.395  1.00  0.00    -0.248 NA
ATOM     56  C   UNL A   1      45.758  30.206  30.413  1.00  0.00     0.031 C 
ATOM     57  C   UNL A   1      41.133  31.930  32.184  1.00  0.00     0.029 A 
ATOM     58  C   UNL A   1      41.660  32.327  30.966  1.00  0.00     0.049 A 
ATOM     59  H   UNL A   1      40.662  32.825  29.194  1.00  0.00     0.167 HD
ATOM     60  C   UNL A   1      43.873  31.581  30.426  1.00  0.00     0.074 A 
ATOM     61  C   UNL A   1      45.324  31.479  30.424  1.00  0.00     0.031 C 
ATOM     62  C   UNL A   1      42.994  32.635  30.480  1.00  0.00     0.034 A 
BRANCH  49  63
ATOM     63  C   UNL A   1      36.943  32.813  30.118  1.00  0.00     0.023 A 
ATOM     64  C   UNL A   1      36.470  32.937  31.438  1.00  0.00     0.031 A 
ATOM     65  C   UNL A   1      36.141  33.408  29.126  1.00  0.00     0.131 A 
ATOM     66  C   UNL A   1      35.261  33.577  31.736  1.00  0.00     0.055 A 
ATOM     67  C   UNL A   1      34.925  34.042  29.420  1.00  0.00     0.041 A 
ATOM     68  F   UNL A   1      36.496  33.436  27.838  1.00  0.00    -0.206 F 
ATOM     69  C   UNL A   1      34.477  34.129  30.730  1.00  0.00     0.022 A 
BRANCH  66  70
ATOM     70  S   UNL A   1      34.753  33.660  33.468  1.00  0.00     0.124 S 
ATOM     71  O   UNL A   1      35.649  32.692  34.095  1.00  0.00    -0.237 OA
ATOM     72  O   UNL A   1      34.988  35.062  33.792  1.00  0.00    -0.237 OA
ATOM     73  O   UNL A   1      33.348  33.262  33.425  1.00  0.00    -0.744 OA
ENDBRANCH  66  70
ENDBRANCH  49  63
BRANCH  50  74
ATOM     74  C   UNL A   1      44.863  26.875  29.663  1.00  0.00     0.023 A 
ATOM     75  C   UNL A   1      44.597  27.100  28.284  1.00  0.00     0.031 A 
ATOM     76  C   UNL A   1      45.973  26.082  29.980  1.00  0.00     0.131 A 
ATOM     77  C   UNL A   1      45.564  26.779  27.312  1.00  0.00     0.055 A 
ATOM     78  C   UNL A   1      46.900  25.712  28.994  1.00  0.00     0.041 A 
ATOM     79  F   UNL A   1      46.282  25.818  31.259  1.00  0.00    -0.206 F 
ATOM     80  C   UNL A   1      46.743  26.131  27.672  1.00  0.00     0.022 A 
BRANCH  77  81
ATOM     81  S   UNL A   1      45.391  27.453  25.629  1.00  0.00     0.124 S 
ATOM     82  O   UNL A   1      44.212  26.748  25.138  1.00  0.00    -0.237 OA
ATOM     83  O   UNL A   1      45.223  28.883  25.871  1.00  0.00    -0.237 OA
ATOM     84  O   UNL A   1      46.652  27.101  24.978  1.00  0.00    -0.744 OA
ENDBRANCH  77  81
ENDBRANCH  50  74
BRANCH  62  85
ATOM     85  C   UNL A   1      43.290  34.086  30.121  1.00  0.00     0.023 A 
ATOM     86  C   UNL A   1      43.230  34.566  28.815  1.00  0.00     0.031 A 
ATOM     87  C   UNL A   1      43.564  35.081  31.105  1.00  0.00     0.131 A 
ATOM     88  C   UNL A   1      43.498  35.909  28.510  1.00  0.00     0.055 A 
ATOM     89  C   UNL A   1      43.730  36.436  30.812  1.00  0.00     0.041 A 
ATOM     90  F   UNL A   1      43.669  34.807  32.411  1.00  0.00    -0.206 F 
ATOM     91  C   UNL A   1      43.719  36.859  29.498  1.00  0.00     0.022 A 
BRANCH  88  92
ATOM     92  S   UNL A   1      43.623  36.346  26.763  1.00  0.00     0.124 S 
ATOM     93  O   UNL A   1      43.617  35.031  26.125  1.00  0.00    -0.237 OA
ATOM     94  O   UNL A   1      42.423  37.151  26.559  1.00  0.00    -0.237 OA
ATOM     95  O   UNL A   1      44.886  37.073  26.679  1.00  0.00    -0.744 OA
ENDBRANCH  88  92
ENDBRANCH  62  85
ENDBRANCH  36  37
ENDBRANCH  28  31
ENDBRANCH  26  27
ENDBRANCH   1  26
TORSDOF 18
ENDMDL
MODEL 3
REMARK VINA RESULT:     -12.8      4.554     10.230
REMARK SMILES Cc1cccc(NC(=O)C[C@H]([NH2+]C(C)C)C(=O)NCCCNC(=O)c2ccc(-c3c4nc(c(-c5cc(S(=O)(=O)[O-])ccc5F)c5ccc([nH]5)c(-c5cc(S(=O)(=O)[O-])ccc5F)c5nc(c(-c6cc(S(=O)(=O)[O-])ccc6F)c6ccc3[nH]6)C=C5)C=C4)cc2)c1
REMARK SMILES IDX 20 1 19 2 18 3 16 4 17 5 11 7 10 8 8 9 7 10 9 12 6 13 1 14
REMARK SMILES IDX 2 15 3 16 88 17 4 18 5 19 12 20 13 23 14 24 15 25 21 26
REMARK SMILES IDX 22 27 23 28 24 30 25 31 26 32 87 33 27 34 86 35 28 36 29 37
REMARK SMILES IDX 30 38 80 39 31 40 85 41 79 42 81 43 32 44 84 45 78 46 77 47
REMARK SMILES IDX 33 49 65 50 45 51 64 52 46 53 49 54 63 55 82 56 47 57 48 58
REMARK SMILES IDX 62 60 83 61 50 62 34 63 35 64 43 65 36 66 42 67 44 68 41 69
REMARK SMILES IDX 37 70 38 71 39 72 40 73 66 74 67 75 75 76 68 77 74 78 76 79
REMARK SMILES IDX 73 80 69 81 70 82 71 83 72 84 51 85 52 86 60 87 53 88 59 89
REMARK SMILES IDX 61 90 58 91 54 92 55 93 56 94 57 95
REMARK H PARENT 18 6 7 11 12 21 12 22 22 29 81 48 49 59
REMARK Flexibility Score: inf
ROOT
ATOM      1  C   UNL A   1      35.446  30.957  27.742  1.00  0.00     0.042 C 
ENDROOT
BRANCH   1   2
ATOM      2  C   UNL A   1      34.664  29.556  27.057  1.00  0.00     0.118 C 
BRANCH   2   3
ATOM      3  N   UNL A   1      34.016  29.119  25.128  1.00  0.00    -0.351 N 
ATOM      4  C   UNL A   1      33.359  28.423  24.119  1.00  0.00     0.278 C 
ATOM      5  O   UNL A   1      33.290  29.070  23.053  1.00  0.00    -0.268 OA
ATOM      6  H   UNL A   1      34.423  29.856  24.618  1.00  0.00     0.163 HD
BRANCH   4   7
ATOM      7  C   UNL A   1      32.794  27.000  24.080  1.00  0.00     0.282 C 
BRANCH   7   8
ATOM      8  C   UNL A   1      33.764  25.876  23.627  1.00  0.00     0.175 C 
BRANCH   8   9
ATOM      9  C   UNL A   1      33.471  25.143  22.307  1.00  0.00     0.230 C 
ATOM     10  N   UNL A   1      33.444  23.777  22.211  1.00  0.00    -0.326 N 
ATOM     11  H   UNL A   1      33.427  23.386  21.308  1.00  0.00     0.169 HD
ATOM     12  O   UNL A   1      33.279  25.806  21.281  1.00  0.00    -0.274 OA
BRANCH  10  13
ATOM     13  C   UNL A   1      33.439  22.893  23.297  1.00  0.00     0.041 A 
ATOM     14  C   UNL A   1      36.805  20.629  25.145  1.00  0.00     0.044 C 
ATOM     15  C   UNL A   1      35.423  20.924  24.725  1.00  0.00    -0.049 A 
ATOM     16  C   UNL A   1      34.145  19.642  24.705  1.00  0.00     0.003 A 
ATOM     17  C   UNL A   1      35.074  22.551  23.987  1.00  0.00     0.029 A 
ATOM     18  C   UNL A   1      32.487  20.024  24.077  1.00  0.00     0.002 A 
ATOM     19  C   UNL A   1      32.116  21.656  23.422  1.00  0.00     0.026 A 
ENDBRANCH  10  13
ENDBRANCH   8   9
ENDBRANCH   7   8
BRANCH   7  20
ATOM     20  N   UNL A   1      31.385  26.945  23.520  1.00  0.00    -0.334 N 
ATOM     21  H   UNL A   1      31.330  26.155  22.878  1.00  0.00     0.347 HD
ATOM     22  H   UNL A   1      31.223  27.846  23.070  1.00  0.00     0.347 HD
BRANCH  20  23
ATOM     23  C   UNL A   1      30.309  26.790  24.535  1.00  0.00     0.176 C 
ATOM     24  C   UNL A   1      28.995  26.391  23.846  1.00  0.00     0.075 C 
ATOM     25  C   UNL A   1      30.588  25.877  25.723  1.00  0.00     0.075 C 
ENDBRANCH  20  23
ENDBRANCH   7  20
ENDBRANCH   4   7
ENDBRANCH   2   3
ENDBRANCH   1   2
BRANCH   1  26
ATOM     26  C   UNL A   1      35.145  31.205  29.216  1.00  0.00     0.118 C 
BRANCH  26  27
ATOM     27  N   UNL A   1      34.404  32.411  29.507  1.00  0.00    -0.352 N 
ATOM     28  C   UNL A   1      34.656  33.391  30.446  1.00  0.00     0.251 C 
ATOM     29  H   UNL A   1      33.602  32.553  28.955  1.00  0.00     0.163 HD
ATOM     30  O   UNL A   1      33.749  34.152  30.775  1.00  0.00    -0.269 OA
BRANCH  28  31
ATOM     31  C   UNL A   1      36.051  33.688  30.895  1.00  0.00     0.039 A 
ATOM     32  C   UNL A   1      36.926  34.071  29.868  1.00  0.00     0.014 A 
ATOM     33  C   UNL A   1      36.569  33.120  32.045  1.00  0.00     0.014 A 
ATOM     34  C   UNL A   1      38.192  33.509  29.810  1.00  0.00     0.010 A 
ATOM     35  C   UNL A   1      37.735  32.414  31.916  1.00  0.00     0.010 A 
ATOM     36  C   UNL A   1      38.506  32.554  30.760  1.00  0.00    -0.014 A 
BRANCH  36  37
ATOM     37  C   UNL A   1      39.740  31.803  30.787  1.00  0.00     0.031 A 
ATOM     38  C   UNL A   1      39.627  30.499  30.114  1.00  0.00     0.074 A 
ATOM     39  C   UNL A   1      40.873  32.321  31.317  1.00  0.00     0.049 A 
ATOM     40  N   UNL A   1      40.397  29.513  30.352  1.00  0.00    -0.248 NA
ATOM     41  C   UNL A   1      38.552  30.150  29.176  1.00  0.00     0.031 C 
ATOM     42  C   UNL A   1      42.247  31.833  31.221  1.00  0.00     0.029 A 
ATOM     43  N   UNL A   1      40.960  33.346  32.256  1.00  0.00    -0.354 N 
ATOM     44  C   UNL A   1      40.144  28.548  29.404  1.00  0.00     0.074 A 
ATOM     45  C   UNL A   1      38.918  28.931  28.774  1.00  0.00     0.031 C 
ATOM     46  C   UNL A   1      42.969  32.340  32.240  1.00  0.00     0.029 A 
ATOM     47  C   UNL A   1      42.061  33.090  33.089  1.00  0.00     0.049 A 
ATOM     48  H   UNL A   1      40.353  34.117  32.324  1.00  0.00     0.167 HD
ATOM     49  C   UNL A   1      41.113  27.623  29.199  1.00  0.00     0.034 A 
ATOM     50  C   UNL A   1      41.840  32.885  34.420  1.00  0.00     0.034 A 
ATOM     51  C   UNL A   1      42.181  27.843  30.170  1.00  0.00     0.049 A 
ATOM     52  C   UNL A   1      42.091  31.427  34.760  1.00  0.00     0.074 A 
ATOM     53  C   UNL A   1      43.375  28.539  30.124  1.00  0.00     0.029 A 
ATOM     54  N   UNL A   1      41.870  27.675  31.506  1.00  0.00    -0.354 N 
ATOM     55  N   UNL A   1      42.070  30.454  33.883  1.00  0.00    -0.248 NA
ATOM     56  C   UNL A   1      42.504  30.973  36.080  1.00  0.00     0.031 C 
ATOM     57  C   UNL A   1      43.760  28.815  31.469  1.00  0.00     0.029 A 
ATOM     58  C   UNL A   1      42.810  28.266  32.315  1.00  0.00     0.049 A 
ATOM     59  H   UNL A   1      41.077  27.195  31.836  1.00  0.00     0.167 HD
ATOM     60  C   UNL A   1      42.521  29.292  34.462  1.00  0.00     0.074 A 
ATOM     61  C   UNL A   1      42.766  29.675  35.843  1.00  0.00     0.031 C 
ATOM     62  C   UNL A   1      42.683  28.125  33.755  1.00  0.00     0.034 A 
BRANCH  49  63
ATOM     63  C   UNL A   1      41.247  26.682  28.043  1.00  0.00     0.023 A 
ATOM     64  C   UNL A   1      41.523  25.338  28.358  1.00  0.00     0.031 A 
ATOM     65  C   UNL A   1      41.156  26.978  26.670  1.00  0.00     0.131 A 
ATOM     66  C   UNL A   1      41.730  24.371  27.367  1.00  0.00     0.055 A 
ATOM     67  C   UNL A   1      41.373  26.014  25.674  1.00  0.00     0.041 A 
ATOM     68  F   UNL A   1      40.830  28.193  26.218  1.00  0.00    -0.206 F 
ATOM     69  C   UNL A   1      41.663  24.702  26.019  1.00  0.00     0.022 A 
BRANCH  66  70
ATOM     70  S   UNL A   1      42.090  22.681  27.897  1.00  0.00     0.124 S 
ATOM     71  O   UNL A   1      42.652  22.893  29.228  1.00  0.00    -0.237 OA
ATOM     72  O   UNL A   1      40.775  22.053  27.843  1.00  0.00    -0.237 OA
ATOM     73  O   UNL A   1      43.042  22.211  26.893  1.00  0.00    -0.744 OA
ENDBRANCH  66  70
ENDBRANCH  49  63
BRANCH  50  74
ATOM     74  C   UNL A   1      40.750  33.805  34.913  1.00  0.00     0.023 A 
ATOM     75  C   UNL A   1      39.578  33.164  35.401  1.00  0.00     0.031 A 
ATOM     76  C   UNL A   1      41.071  35.056  35.457  1.00  0.00     0.131 A 
ATOM     77  C   UNL A   1      38.945  33.635  36.568  1.00  0.00     0.055 A 
ATOM     78  C   UNL A   1      40.392  35.547  36.583  1.00  0.00     0.041 A 
ATOM     79  F   UNL A   1      42.157  35.726  35.040  1.00  0.00    -0.206 F 
ATOM     80  C   UNL A   1      39.385  34.799  37.192  1.00  0.00     0.022 A 
BRANCH  77  81
ATOM     81  S   UNL A   1      37.727  32.573  37.408  1.00  0.00     0.124 S 
ATOM     82  O   UNL A   1      38.374  32.324  38.691  1.00  0.00    -0.237 OA
ATOM     83  O   UNL A   1      36.538  33.419  37.450  1.00  0.00    -0.237 OA
ATOM     84  O   UNL A   1      37.604  31.413  36.527  1.00  0.00    -0.744 OA
ENDBRANCH  77  81
ENDBRANCH  50  74
BRANCH  62  85
ATOM     85  C   UNL A   1      42.780  26.718  34.332  1.00  0.00     0.023 A 
ATOM     86  C   UNL A   1      43.734  25.795  33.910  1.00  0.00     0.031 A 
ATOM     87  C   UNL A   1      41.959  26.270  35.408  1.00  0.00     0.131 A 
ATOM     88  C   UNL A   1      43.809  24.508  34.463  1.00  0.00     0.055 A 
ATOM     89  C   UNL A   1      42.101  25.026  36.027  1.00  0.00     0.041 A 
ATOM     90  F   UNL A   1      40.982  27.015  35.940  1.00  0.00    -0.206 F 
ATOM     91  C   UNL A   1      43.021  24.121  35.539  1.00  0.00     0.022 A 
BRANCH  88  92
ATOM     92  S   UNL A   1      44.925  23.335  33.664  1.00  0.00     0.124 S 
ATOM     93  O   UNL A   1      46.234  23.868  34.036  1.00  0.00    -0.237 OA
ATOM     94  O   UNL A   1      44.554  22.075  34.299  1.00  0.00    -0.237 OA
ATOM     95  O   UNL A   1      44.586  23.446  32.248  1.00  0.00    -0.744 OA
ENDBRANCH  88  92
ENDBRANCH  62  85
ENDBRANCH  36  37
ENDBRANCH  28  31
ENDBRANCH  26  27
ENDBRANCH   1  26
TORSDOF 18
ENDMDL
