MODEL 1
REMARK VINA RESULT:     -12.9      0.000      0.000
REMARK SMILES CN1C(=O)C[C@H](C(=O)NCCCNC(=O)c2ccc(-c3c4nc(c(-c5cc(S(=O)(=O)[O-])ccc5F)c5ccc([nH]5)c(-c5cc(S(=O)(=O)[O-])ccc5F)c5nc(c(-c6cc(S(=O)(=O)[O-])ccc6F)c6ccc3[nH]6)C=C5)C=C4)cc2)C12CC[NH+](Cc1ccc(Cl)c(F)c1)CC2
REMARK SMILES IDX 11 1 10 2 9 3 7 4 8 5 6 7 1 8 2 9 3 10 79 11 4 12 5 13 80 14
REMARK SMILES IDX 93 15 81 16 92 17 82 18 83 20 84 21 85 22 91 23 86 24 89 25
REMARK SMILES IDX 87 26 90 27 88 28 12 29 13 30 14 31 15 33 16 34 17 35 78 36
REMARK SMILES IDX 18 37 77 38 19 39 20 40 21 41 71 42 22 43 76 44 70 45 72 46
REMARK SMILES IDX 23 47 75 48 69 49 68 50 24 52 56 53 36 54 55 55 37 56 40 57
REMARK SMILES IDX 54 58 73 59 38 60 39 61 53 63 74 64 41 65 25 66 26 67 34 68
REMARK SMILES IDX 27 69 33 70 35 71 32 72 28 73 29 74 30 75 31 76 57 77 58 78
REMARK SMILES IDX 66 79 59 80 65 81 67 82 64 83 60 84 61 85 62 86 63 87 42 88
REMARK SMILES IDX 43 89 51 90 44 91 50 92 52 93 49 94 45 95 46 96 47 97 48 98
REMARK H PARENT 9 6 82 19 13 32 72 51 40 62
REMARK Flexibility Score: inf
ROOT
ATOM      1  C   UNL A   1      33.880  28.669  24.331  1.00  0.00     0.042 C 
ENDROOT
BRANCH   1   2
ATOM      2  C   UNL A   1      32.636  28.549  23.444  1.00  0.00     0.117 C 
BRANCH   2   3
ATOM      3  N   UNL A   1      31.474  28.071  24.171  1.00  0.00    -0.356 N 
ATOM      4  C   UNL A   1      30.740  26.932  24.119  1.00  0.00     0.226 C 
ATOM      5  O   UNL A   1      29.804  26.873  24.922  1.00  0.00    -0.275 OA
ATOM      6  H   UNL A   1      31.151  28.709  24.848  1.00  0.00     0.163 HD
BRANCH   4   7
ATOM      7  C   UNL A   1      31.032  25.787  23.145  1.00  0.00     0.114 C 
ATOM      8  C   UNL A   1      33.695  23.283  22.155  1.00  0.00     0.147 C 
ATOM      9  N   UNL A   1      32.828  24.433  22.363  1.00  0.00    -0.339 N 
ATOM     10  C   UNL A   1      32.633  25.374  21.379  1.00  0.00     0.223 C 
ATOM     11  C   UNL A   1      32.047  24.678  23.604  1.00  0.00     0.065 C 
ATOM     12  O   UNL A   1      33.133  25.383  20.263  1.00  0.00    -0.275 OA
ATOM     13  C   UNL A   1      31.723  26.428  21.915  1.00  0.00     0.116 C 
ATOM     14  C   UNL A   1      31.377  23.344  23.999  1.00  0.00     0.091 C 
ATOM     15  C   UNL A   1      32.982  25.142  24.737  1.00  0.00     0.091 C 
ATOM     16  C   UNL A   1      30.803  23.297  25.397  1.00  0.00     0.265 C 
ATOM     17  C   UNL A   1      32.340  25.092  26.128  1.00  0.00     0.265 C 
ATOM     18  N   UNL A   1      31.633  23.859  26.451  1.00  0.00    -0.331 N 
ATOM     19  H   UNL A   1      30.924  24.190  27.105  1.00  0.00     0.348 HD
BRANCH  18  20
ATOM     20  C   UNL A   1      32.377  22.895  27.272  1.00  0.00     0.299 C 
BRANCH  20  21
ATOM     21  C   UNL A   1      33.690  22.444  26.675  1.00  0.00     0.009 A 
ATOM     22  C   UNL A   1      33.740  21.318  25.839  1.00  0.00     0.011 A 
ATOM     23  C   UNL A   1      34.852  23.205  26.859  1.00  0.00     0.050 A 
ATOM     24  C   UNL A   1      34.900  21.018  25.122  1.00  0.00     0.024 A 
ATOM     25  C   UNL A   1      36.000  22.912  26.130  1.00  0.00     0.142 A 
ATOM     26  C   UNL A   1      36.022  21.835  25.248  1.00  0.00     0.076 A 
ATOM     27  F   UNL A   1      37.057  23.732  26.241  1.00  0.00    -0.205 F 
ATOM     28  Cl  UNL A   1      37.400  21.538  24.262  1.00  0.00    -0.081 Cl
ENDBRANCH  20  21
ENDBRANCH  18  20
ENDBRANCH   4   7
ENDBRANCH   2   3
ENDBRANCH   1   2
BRANCH   1  29
ATOM     29  C   UNL A   1      33.636  28.755  25.830  1.00  0.00     0.118 C 
BRANCH  29  30
ATOM     30  N   UNL A   1      33.549  30.125  26.286  1.00  0.00    -0.352 N 
ATOM     31  C   UNL A   1      34.267  30.777  27.261  1.00  0.00     0.251 C 
ATOM     32  H   UNL A   1      32.873  30.674  25.829  1.00  0.00     0.163 HD
ATOM     33  O   UNL A   1      33.816  31.834  27.699  1.00  0.00    -0.269 OA
BRANCH  31  34
ATOM     34  C   UNL A   1      35.539  30.234  27.808  1.00  0.00     0.039 A 
ATOM     35  C   UNL A   1      35.531  29.702  29.102  1.00  0.00     0.014 A 
ATOM     36  C   UNL A   1      36.754  30.316  27.119  1.00  0.00     0.014 A 
ATOM     37  C   UNL A   1      36.713  29.225  29.681  1.00  0.00     0.010 A 
ATOM     38  C   UNL A   1      37.917  29.759  27.662  1.00  0.00     0.010 A 
ATOM     39  C   UNL A   1      37.916  29.220  28.957  1.00  0.00    -0.014 A 
BRANCH  39  40
ATOM     40  C   UNL A   1      39.171  28.677  29.552  1.00  0.00     0.031 A 
ATOM     41  C   UNL A   1      39.755  29.287  30.801  1.00  0.00     0.074 A 
ATOM     42  C   UNL A   1      39.804  27.648  28.953  1.00  0.00     0.049 A 
ATOM     43  N   UNL A   1      40.860  28.980  31.436  1.00  0.00    -0.248 NA
ATOM     44  C   UNL A   1      39.012  30.403  31.403  1.00  0.00     0.031 C 
ATOM     45  C   UNL A   1      39.356  26.981  27.728  1.00  0.00     0.029 A 
ATOM     46  N   UNL A   1      40.960  26.982  29.286  1.00  0.00    -0.354 N 
ATOM     47  C   UNL A   1      40.947  29.867  32.505  1.00  0.00     0.074 A 
ATOM     48  C   UNL A   1      39.815  30.762  32.395  1.00  0.00     0.031 C 
ATOM     49  C   UNL A   1      40.206  25.986  27.432  1.00  0.00     0.029 A 
ATOM     50  C   UNL A   1      41.292  25.976  28.406  1.00  0.00     0.049 A 
ATOM     51  H   UNL A   1      41.499  27.204  30.078  1.00  0.00     0.167 HD
ATOM     52  C   UNL A   1      41.872  29.919  33.497  1.00  0.00     0.034 A 
ATOM     53  C   UNL A   1      42.358  25.150  28.374  1.00  0.00     0.034 A 
ATOM     54  C   UNL A   1      42.996  29.016  33.598  1.00  0.00     0.049 A 
ATOM     55  C   UNL A   1      43.403  25.262  29.457  1.00  0.00     0.074 A 
ATOM     56  C   UNL A   1      43.962  28.953  34.587  1.00  0.00     0.029 A 
ATOM     57  N   UNL A   1      43.314  28.031  32.672  1.00  0.00    -0.354 N 
ATOM     58  N   UNL A   1      43.443  26.080  30.484  1.00  0.00    -0.248 NA
ATOM     59  C   UNL A   1      44.538  24.333  29.381  1.00  0.00     0.031 C 
ATOM     60  C   UNL A   1      44.908  27.991  34.218  1.00  0.00     0.029 A 
ATOM     61  C   UNL A   1      44.484  27.383  33.046  1.00  0.00     0.049 A 
ATOM     62  H   UNL A   1      42.786  27.820  31.869  1.00  0.00     0.167 HD
ATOM     63  C   UNL A   1      44.594  25.739  31.193  1.00  0.00     0.074 A 
ATOM     64  C   UNL A   1      45.205  24.633  30.485  1.00  0.00     0.031 C 
ATOM     65  C   UNL A   1      45.097  26.290  32.327  1.00  0.00     0.034 A 
BRANCH  52  66
ATOM     66  C   UNL A   1      41.726  31.008  34.536  1.00  0.00     0.023 A 
ATOM     67  C   UNL A   1      40.664  31.016  35.460  1.00  0.00     0.031 A 
ATOM     68  C   UNL A   1      42.656  32.061  34.601  1.00  0.00     0.131 A 
ATOM     69  C   UNL A   1      40.518  32.088  36.352  1.00  0.00     0.055 A 
ATOM     70  C   UNL A   1      42.553  33.080  35.549  1.00  0.00     0.041 A 
ATOM     71  F   UNL A   1      43.680  32.124  33.734  1.00  0.00    -0.206 F 
ATOM     72  C   UNL A   1      41.470  33.107  36.422  1.00  0.00     0.022 A 
BRANCH  69  73
ATOM     73  S   UNL A   1      38.984  32.211  37.313  1.00  0.00     0.124 S 
ATOM     74  O   UNL A   1      38.388  33.427  36.765  1.00  0.00    -0.237 OA
ATOM     75  O   UNL A   1      38.305  30.962  36.985  1.00  0.00    -0.237 OA
ATOM     76  O   UNL A   1      39.453  32.323  38.693  1.00  0.00    -0.744 OA
ENDBRANCH  69  73
ENDBRANCH  52  66
BRANCH  53  77
ATOM     77  C   UNL A   1      42.512  24.159  27.268  1.00  0.00     0.023 A 
ATOM     78  C   UNL A   1      41.892  22.901  27.330  1.00  0.00     0.031 A 
ATOM     79  C   UNL A   1      43.325  24.438  26.154  1.00  0.00     0.131 A 
ATOM     80  C   UNL A   1      42.133  21.952  26.323  1.00  0.00     0.055 A 
ATOM     81  C   UNL A   1      43.510  23.514  25.124  1.00  0.00     0.041 A 
ATOM     82  F   UNL A   1      43.942  25.626  26.042  1.00  0.00    -0.206 F 
ATOM     83  C   UNL A   1      42.923  22.256  25.213  1.00  0.00     0.022 A 
BRANCH  80  84
ATOM     84  S   UNL A   1      41.475  20.275  26.535  1.00  0.00     0.124 S 
ATOM     85  O   UNL A   1      40.036  20.517  26.509  1.00  0.00    -0.237 OA
ATOM     86  O   UNL A   1      42.030  19.583  25.378  1.00  0.00    -0.237 OA
ATOM     87  O   UNL A   1      42.016  19.860  27.827  1.00  0.00    -0.744 OA
ENDBRANCH  80  84
ENDBRANCH  53  77
BRANCH  65  88
ATOM     88  C   UNL A   1      46.352  25.671  32.898  1.00  0.00     0.023 A 
ATOM     89  C   UNL A   1      46.303  24.612  33.822  1.00  0.00     0.031 A 
ATOM     90  C   UNL A   1      47.616  26.160  32.521  1.00  0.00     0.131 A 
ATOM     91  C   UNL A   1      47.490  24.119  34.384  1.00  0.00     0.055 A 
ATOM     92  C   UNL A   1      48.798  25.617  33.030  1.00  0.00     0.041 A 
ATOM     93  F   UNL A   1      47.725  27.173  31.647  1.00  0.00    -0.206 F 
ATOM     94  C   UNL A   1      48.738  24.601  33.979  1.00  0.00     0.022 A 
BRANCH  91  95
ATOM     95  S   UNL A   1      47.379  22.913  35.735  1.00  0.00     0.124 S 
ATOM     96  O   UNL A   1      45.939  22.840  35.957  1.00  0.00    -0.237 OA
ATOM     97  O   UNL A   1      47.995  21.728  35.146  1.00  0.00    -0.237 OA
ATOM     98  O   UNL A   1      48.143  23.536  36.815  1.00  0.00    -0.744 OA
ENDBRANCH  91  95
ENDBRANCH  65  88
ENDBRANCH  39  40
ENDBRANCH  31  34
ENDBRANCH  29  30
ENDBRANCH   1  29
TORSDOF 15
ENDMDL
MODEL 2
REMARK VINA RESULT:     -12.7      1.824      7.554
REMARK SMILES CN1C(=O)C[C@H](C(=O)NCCCNC(=O)c2ccc(-c3c4nc(c(-c5cc(S(=O)(=O)[O-])ccc5F)c5ccc([nH]5)c(-c5cc(S(=O)(=O)[O-])ccc5F)c5nc(c(-c6cc(S(=O)(=O)[O-])ccc6F)c6ccc3[nH]6)C=C5)C=C4)cc2)C12CC[NH+](Cc1ccc(Cl)c(F)c1)CC2
REMARK SMILES IDX 11 1 10 2 9 3 7 4 8 5 6 7 1 8 2 9 3 10 79 11 4 12 5 13 80 14
REMARK SMILES IDX 93 15 81 16 92 17 82 18 83 20 84 21 85 22 91 23 86 24 89 25
REMARK SMILES IDX 87 26 90 27 88 28 12 29 13 30 14 31 15 33 16 34 17 35 78 36
REMARK SMILES IDX 18 37 77 38 19 39 20 40 21 41 71 42 22 43 76 44 70 45 72 46
REMARK SMILES IDX 23 47 75 48 69 49 68 50 24 52 56 53 36 54 55 55 37 56 40 57
REMARK SMILES IDX 54 58 73 59 38 60 39 61 53 63 74 64 41 65 25 66 26 67 34 68
REMARK SMILES IDX 27 69 33 70 35 71 32 72 28 73 29 74 30 75 31 76 57 77 58 78
REMARK SMILES IDX 66 79 59 80 65 81 67 82 64 83 60 84 61 85 62 86 63 87 42 88
REMARK SMILES IDX 43 89 51 90 44 91 50 92 52 93 49 94 45 95 46 96 47 97 48 98
REMARK H PARENT 9 6 82 19 13 32 72 51 40 62
REMARK Flexibility Score: inf
ROOT
ATOM      1  C   UNL A   1      33.055  28.808  24.074  1.00  0.00     0.042 C 
ENDROOT
BRANCH   1   2
ATOM      2  C   UNL A   1      31.789  28.564  23.245  1.00  0.00     0.117 C 
BRANCH   2   3
ATOM      3  N   UNL A   1      30.760  27.857  23.989  1.00  0.00    -0.356 N 
ATOM      4  C   UNL A   1      30.320  26.575  23.990  1.00  0.00     0.226 C 
ATOM      5  O   UNL A   1      29.410  26.333  24.789  1.00  0.00    -0.275 OA
ATOM      6  H   UNL A   1      30.282  28.432  24.630  1.00  0.00     0.163 HD
BRANCH   4   7
ATOM      7  C   UNL A   1      30.894  25.487  23.079  1.00  0.00     0.114 C 
ATOM      8  C   UNL A   1      34.035  23.487  22.388  1.00  0.00     0.147 C 
ATOM      9  N   UNL A   1      32.964  24.466  22.489  1.00  0.00    -0.339 N 
ATOM     10  C   UNL A   1      32.691  25.343  21.465  1.00  0.00     0.223 C 
ATOM     11  C   UNL A   1      32.046  24.584  23.653  1.00  0.00     0.065 C 
ATOM     12  O   UNL A   1      33.278  25.425  20.395  1.00  0.00    -0.275 OA
ATOM     13  C   UNL A   1      31.566  26.224  21.892  1.00  0.00     0.116 C 
ATOM     14  C   UNL A   1      31.591  23.158  24.030  1.00  0.00     0.091 C 
ATOM     15  C   UNL A   1      32.781  25.225  24.846  1.00  0.00     0.091 C 
ATOM     16  C   UNL A   1      30.915  23.029  25.376  1.00  0.00     0.265 C 
ATOM     17  C   UNL A   1      32.040  25.080  26.180  1.00  0.00     0.265 C 
ATOM     18  N   UNL A   1      31.537  23.745  26.479  1.00  0.00    -0.331 N 
ATOM     19  H   UNL A   1      30.726  23.953  27.061  1.00  0.00     0.348 HD
BRANCH  18  20
ATOM     20  C   UNL A   1      32.365  22.942  27.387  1.00  0.00     0.299 C 
BRANCH  20  21
ATOM     21  C   UNL A   1      33.676  22.478  26.795  1.00  0.00     0.009 A 
ATOM     22  C   UNL A   1      33.747  21.269  26.087  1.00  0.00     0.011 A 
ATOM     23  C   UNL A   1      34.810  23.299  26.852  1.00  0.00     0.050 A 
ATOM     24  C   UNL A   1      34.895  20.936  25.366  1.00  0.00     0.024 A 
ATOM     25  C   UNL A   1      35.946  22.972  26.119  1.00  0.00     0.142 A 
ATOM     26  C   UNL A   1      35.985  21.805  25.360  1.00  0.00     0.076 A 
ATOM     27  F   UNL A   1      36.970  23.839  26.100  1.00  0.00    -0.205 F 
ATOM     28  Cl  UNL A   1      37.343  21.453  24.363  1.00  0.00    -0.081 Cl
ENDBRANCH  20  21
ENDBRANCH  18  20
ENDBRANCH   4   7
ENDBRANCH   2   3
ENDBRANCH   1   2
BRANCH   1  29
ATOM     29  C   UNL A   1      32.853  29.037  25.564  1.00  0.00     0.118 C 
BRANCH  29  30
ATOM     30  N   UNL A   1      32.507  30.410  25.860  1.00  0.00    -0.352 N 
ATOM     31  C   UNL A   1      32.968  31.242  26.852  1.00  0.00     0.251 C 
ATOM     32  H   UNL A   1      31.839  30.809  25.257  1.00  0.00     0.163 HD
ATOM     33  O   UNL A   1      32.313  32.250  27.110  1.00  0.00    -0.269 OA
BRANCH  31  34
ATOM     34  C   UNL A   1      34.205  30.947  27.625  1.00  0.00     0.039 A 
ATOM     35  C   UNL A   1      34.394  29.645  28.102  1.00  0.00     0.014 A 
ATOM     36  C   UNL A   1      35.135  31.933  27.968  1.00  0.00     0.014 A 
ATOM     37  C   UNL A   1      35.515  29.329  28.878  1.00  0.00     0.010 A 
ATOM     38  C   UNL A   1      36.301  31.598  28.667  1.00  0.00     0.010 A 
ATOM     39  C   UNL A   1      36.499  30.295  29.145  1.00  0.00    -0.014 A 
BRANCH  39  40
ATOM     40  C   UNL A   1      37.717  29.956  29.937  1.00  0.00     0.031 A 
ATOM     41  C   UNL A   1      38.768  29.035  29.371  1.00  0.00     0.074 A 
ATOM     42  C   UNL A   1      37.866  30.456  31.180  1.00  0.00     0.049 A 
ATOM     43  N   UNL A   1      39.867  28.591  29.928  1.00  0.00    -0.248 NA
ATOM     44  C   UNL A   1      38.542  28.529  28.010  1.00  0.00     0.031 C 
ATOM     45  C   UNL A   1      36.912  31.341  31.853  1.00  0.00     0.029 A 
ATOM     46  N   UNL A   1      38.871  30.292  32.104  1.00  0.00    -0.354 N 
ATOM     47  C   UNL A   1      40.460  27.750  28.990  1.00  0.00     0.074 A 
ATOM     48  C   UNL A   1      39.565  27.700  27.854  1.00  0.00     0.031 C 
ATOM     49  C   UNL A   1      37.391  31.667  33.063  1.00  0.00     0.029 A 
ATOM     50  C   UNL A   1      38.654  30.970  33.284  1.00  0.00     0.049 A 
ATOM     51  H   UNL A   1      39.669  29.742  31.939  1.00  0.00     0.167 HD
ATOM     52  C   UNL A   1      41.648  27.097  29.060  1.00  0.00     0.034 A 
ATOM     53  C   UNL A   1      39.379  31.013  34.421  1.00  0.00     0.034 A 
ATOM     54  C   UNL A   1      42.535  27.159  30.199  1.00  0.00     0.049 A 
ATOM     55  C   UNL A   1      40.669  30.235  34.496  1.00  0.00     0.074 A 
ATOM     56  C   UNL A   1      43.781  26.575  30.352  1.00  0.00     0.029 A 
ATOM     57  N   UNL A   1      42.267  27.831  31.384  1.00  0.00    -0.354 N 
ATOM     58  N   UNL A   1      41.233  29.481  33.580  1.00  0.00    -0.248 NA
ATOM     59  C   UNL A   1      41.424  30.323  35.752  1.00  0.00     0.031 C 
ATOM     60  C   UNL A   1      44.226  26.822  31.655  1.00  0.00     0.029 A 
ATOM     61  C   UNL A   1      43.305  27.641  32.287  1.00  0.00     0.049 A 
ATOM     62  H   UNL A   1      41.459  28.366  31.559  1.00  0.00     0.167 HD
ATOM     63  C   UNL A   1      42.425  29.031  34.144  1.00  0.00     0.074 A 
ATOM     64  C   UNL A   1      42.505  29.614  35.467  1.00  0.00     0.031 C 
ATOM     65  C   UNL A   1      43.370  28.213  33.612  1.00  0.00     0.034 A 
BRANCH  52  66
ATOM     66  C   UNL A   1      42.043  26.232  27.884  1.00  0.00     0.023 A 
ATOM     67  C   UNL A   1      41.553  24.923  27.727  1.00  0.00     0.031 A 
ATOM     68  C   UNL A   1      42.931  26.718  26.907  1.00  0.00     0.131 A 
ATOM     69  C   UNL A   1      42.010  24.124  26.669  1.00  0.00     0.055 A 
ATOM     70  C   UNL A   1      43.314  25.949  25.808  1.00  0.00     0.041 A 
ATOM     71  F   UNL A   1      43.452  27.952  27.010  1.00  0.00    -0.206 F 
ATOM     72  C   UNL A   1      42.865  24.637  25.691  1.00  0.00     0.022 A 
BRANCH  69  73
ATOM     73  S   UNL A   1      41.589  22.359  26.672  1.00  0.00     0.124 S 
ATOM     74  O   UNL A   1      42.268  21.892  25.466  1.00  0.00    -0.237 OA
ATOM     75  O   UNL A   1      42.149  21.904  27.939  1.00  0.00    -0.237 OA
ATOM     76  O   UNL A   1      40.129  22.355  26.596  1.00  0.00    -0.744 OA
ENDBRANCH  69  73
ENDBRANCH  52  66
BRANCH  53  77
ATOM     77  C   UNL A   1      38.895  31.799  35.594  1.00  0.00     0.023 A 
ATOM     78  C   UNL A   1      38.306  31.163  36.700  1.00  0.00     0.031 A 
ATOM     79  C   UNL A   1      38.970  33.204  35.607  1.00  0.00     0.131 A 
ATOM     80  C   UNL A   1      37.771  31.932  37.746  1.00  0.00     0.055 A 
ATOM     81  C   UNL A   1      38.494  33.960  36.679  1.00  0.00     0.041 A 
ATOM     82  F   UNL A   1      39.523  33.864  34.577  1.00  0.00    -0.206 F 
ATOM     83  C   UNL A   1      37.876  33.324  37.751  1.00  0.00     0.022 A 
BRANCH  80  84
ATOM     84  S   UNL A   1      36.846  31.088  39.058  1.00  0.00     0.124 S 
ATOM     85  O   UNL A   1      35.644  31.910  39.148  1.00  0.00    -0.237 OA
ATOM     86  O   UNL A   1      36.672  29.754  38.496  1.00  0.00    -0.237 OA
ATOM     87  O   UNL A   1      37.744  31.166  40.209  1.00  0.00    -0.744 OA
ENDBRANCH  80  84
ENDBRANCH  53  77
BRANCH  65  88
ATOM     88  C   UNL A   1      44.596  27.937  34.452  1.00  0.00     0.023 A 
ATOM     89  C   UNL A   1      44.665  26.836  35.324  1.00  0.00     0.031 A 
ATOM     90  C   UNL A   1      45.705  28.800  34.390  1.00  0.00     0.131 A 
ATOM     91  C   UNL A   1      45.792  26.662  36.143  1.00  0.00     0.055 A 
ATOM     92  C   UNL A   1      46.853  28.581  35.154  1.00  0.00     0.041 A 
ATOM     93  F   UNL A   1      45.694  29.870  33.581  1.00  0.00    -0.206 F 
ATOM     94  C   UNL A   1      46.894  27.515  36.049  1.00  0.00     0.022 A 
BRANCH  91  95
ATOM     95  S   UNL A   1      45.754  25.367  37.413  1.00  0.00     0.124 S 
ATOM     96  O   UNL A   1      46.388  24.249  36.723  1.00  0.00    -0.237 OA
ATOM     97  O   UNL A   1      46.526  25.969  38.495  1.00  0.00    -0.237 OA
ATOM     98  O   UNL A   1      44.328  25.197  37.688  1.00  0.00    -0.744 OA
ENDBRANCH  91  95
ENDBRANCH  65  88
ENDBRANCH  39  40
ENDBRANCH  31  34
ENDBRANCH  29  30
ENDBRANCH   1  29
TORSDOF 15
ENDMDL
MODEL 3
REMARK VINA RESULT:     -12.7      1.470      1.741
REMARK SMILES CN1C(=O)C[C@H](C(=O)NCCCNC(=O)c2ccc(-c3c4nc(c(-c5cc(S(=O)(=O)[O-])ccc5F)c5ccc([nH]5)c(-c5cc(S(=O)(=O)[O-])ccc5F)c5nc(c(-c6cc(S(=O)(=O)[O-])ccc6F)c6ccc3[nH]6)C=C5)C=C4)cc2)C12CC[NH+](Cc1ccc(Cl)c(F)c1)CC2
REMARK SMILES IDX 11 1 10 2 9 3 7 4 8 5 6 7 1 8 2 9 3 10 79 11 4 12 5 13 80 14
REMARK SMILES IDX 93 15 81 16 92 17 82 18 83 20 84 21 85 22 91 23 86 24 89 25
REMARK SMILES IDX 87 26 90 27 88 28 12 29 13 30 14 31 15 33 16 34 17 35 78 36
REMARK SMILES IDX 18 37 77 38 19 39 20 40 21 41 71 42 22 43 76 44 70 45 72 46
REMARK SMILES IDX 23 47 75 48 69 49 68 50 24 52 56 53 36 54 55 55 37 56 40 57
REMARK SMILES IDX 54 58 73 59 38 60 39 61 53 63 74 64 41 65 25 66 26 67 34 68
REMARK SMILES IDX 27 69 33 70 35 71 32 72 28 73 29 74 30 75 31 76 57 77 58 78
REMARK SMILES IDX 66 79 59 80 65 81 67 82 64 83 60 84 61 85 62 86 63 87 42 88
REMARK SMILES IDX 43 89 51 90 44 91 50 92 52 93 49 94 45 95 46 96 47 97 48 98
REMARK H PARENT 9 6 82 19 13 32 72 51 40 62
REMARK Flexibility Score: inf
ROOT
ATOM      1  C   UNL A   1      33.938  28.680  24.391  1.00  0.00     0.042 C 
ENDROOT
BRANCH   1   2
ATOM      2  C   UNL A   1      32.654  28.584  23.559  1.00  0.00     0.117 C 
BRANCH   2   3
ATOM      3  N   UNL A   1      31.529  28.073  24.323  1.00  0.00    -0.356 N 
ATOM      4  C   UNL A   1      30.787  26.939  24.253  1.00  0.00     0.226 C 
ATOM      5  O   UNL A   1      29.895  26.843  25.101  1.00  0.00    -0.275 OA
ATOM      6  H   UNL A   1      31.245  28.677  25.046  1.00  0.00     0.163 HD
BRANCH   4   7
ATOM      7  C   UNL A   1      31.022  25.844  23.210  1.00  0.00     0.114 C 
ATOM      8  C   UNL A   1      33.604  23.360  21.981  1.00  0.00     0.147 C 
ATOM      9  N   UNL A   1      32.764  24.509  22.284  1.00  0.00    -0.339 N 
ATOM     10  C   UNL A   1      32.544  25.503  21.359  1.00  0.00     0.223 C 
ATOM     11  C   UNL A   1      32.038  24.698  23.568  1.00  0.00     0.065 C 
ATOM     12  O   UNL A   1      32.998  25.564  20.226  1.00  0.00    -0.275 OA
ATOM     13  C   UNL A   1      31.673  26.539  21.987  1.00  0.00     0.116 C 
ATOM     14  C   UNL A   1      31.364  23.355  23.920  1.00  0.00     0.091 C 
ATOM     15  C   UNL A   1      33.025  25.090  24.684  1.00  0.00     0.091 C 
ATOM     16  C   UNL A   1      30.847  23.242  25.336  1.00  0.00     0.265 C 
ATOM     17  C   UNL A   1      32.440  24.975  26.096  1.00  0.00     0.265 C 
ATOM     18  N   UNL A   1      31.727  23.736  26.383  1.00  0.00    -0.331 N 
ATOM     19  H   UNL A   1      31.051  24.042  27.082  1.00  0.00     0.348 HD
BRANCH  18  20
ATOM     20  C   UNL A   1      32.489  22.720  27.121  1.00  0.00     0.299 C 
BRANCH  20  21
ATOM     21  C   UNL A   1      33.659  22.140  26.362  1.00  0.00     0.009 A 
ATOM     22  C   UNL A   1      34.945  22.680  26.517  1.00  0.00     0.011 A 
ATOM     23  C   UNL A   1      33.496  20.989  25.579  1.00  0.00     0.050 A 
ATOM     24  C   UNL A   1      36.058  22.026  25.985  1.00  0.00     0.024 A 
ATOM     25  C   UNL A   1      34.609  20.332  25.065  1.00  0.00     0.142 A 
ATOM     26  C   UNL A   1      35.889  20.834  25.282  1.00  0.00     0.076 A 
ATOM     27  F   UNL A   1      34.427  19.169  24.422  1.00  0.00    -0.205 F 
ATOM     28  Cl  UNL A   1      37.274  19.965  24.746  1.00  0.00    -0.081 Cl
ENDBRANCH  20  21
ENDBRANCH  18  20
ENDBRANCH   4   7
ENDBRANCH   2   3
ENDBRANCH   1   2
BRANCH   1  29
ATOM     29  C   UNL A   1      33.762  28.734  25.901  1.00  0.00     0.118 C 
BRANCH  29  30
ATOM     30  N   UNL A   1      33.664  30.093  26.387  1.00  0.00    -0.352 N 
ATOM     31  C   UNL A   1      34.386  30.734  27.364  1.00  0.00     0.251 C 
ATOM     32  H   UNL A   1      32.974  30.642  25.949  1.00  0.00     0.163 HD
ATOM     33  O   UNL A   1      33.928  31.777  27.830  1.00  0.00    -0.269 OA
BRANCH  31  34
ATOM     34  C   UNL A   1      35.673  30.197  27.883  1.00  0.00     0.039 A 
ATOM     35  C   UNL A   1      35.685  29.621  29.158  1.00  0.00     0.014 A 
ATOM     36  C   UNL A   1      36.880  30.327  27.189  1.00  0.00     0.014 A 
ATOM     37  C   UNL A   1      36.881  29.148  29.711  1.00  0.00     0.010 A 
ATOM     38  C   UNL A   1      38.059  29.774  27.703  1.00  0.00     0.010 A 
ATOM     39  C   UNL A   1      38.078  29.191  28.979  1.00  0.00    -0.014 A 
BRANCH  39  40
ATOM     40  C   UNL A   1      39.348  28.652  29.546  1.00  0.00     0.031 A 
ATOM     41  C   UNL A   1      39.957  29.263  30.782  1.00  0.00     0.074 A 
ATOM     42  C   UNL A   1      39.972  27.626  28.931  1.00  0.00     0.049 A 
ATOM     43  N   UNL A   1      41.076  28.959  31.392  1.00  0.00    -0.248 NA
ATOM     44  C   UNL A   1      39.222  30.374  31.402  1.00  0.00     0.031 C 
ATOM     45  C   UNL A   1      39.499  26.960  27.715  1.00  0.00     0.029 A 
ATOM     46  N   UNL A   1      41.137  26.964  29.238  1.00  0.00    -0.354 N 
ATOM     47  C   UNL A   1      41.184  29.844  32.461  1.00  0.00     0.074 A 
ATOM     48  C   UNL A   1      40.045  30.735  32.377  1.00  0.00     0.031 C 
ATOM     49  C   UNL A   1      40.346  25.967  27.399  1.00  0.00     0.029 A 
ATOM     50  C   UNL A   1      41.454  25.961  28.349  1.00  0.00     0.049 A 
ATOM     51  H   UNL A   1      41.693  27.187  30.018  1.00  0.00     0.167 HD
ATOM     52  C   UNL A   1      42.129  29.898  33.433  1.00  0.00     0.034 A 
ATOM     53  C   UNL A   1      42.522  25.138  28.293  1.00  0.00     0.034 A 
ATOM     54  C   UNL A   1      43.258  29.000  33.507  1.00  0.00     0.049 A 
ATOM     55  C   UNL A   1      43.590  25.253  29.353  1.00  0.00     0.074 A 
ATOM     56  C   UNL A   1      44.247  28.939  34.475  1.00  0.00     0.029 A 
ATOM     57  N   UNL A   1      43.560  28.017  32.573  1.00  0.00    -0.354 N 
ATOM     58  N   UNL A   1      43.649  26.070  30.380  1.00  0.00    -0.248 NA
ATOM     59  C   UNL A   1      44.726  24.329  29.251  1.00  0.00     0.031 C 
ATOM     60  C   UNL A   1      45.188  27.981  34.083  1.00  0.00     0.029 A 
ATOM     61  C   UNL A   1      44.741  27.374  32.921  1.00  0.00     0.049 A 
ATOM     62  H   UNL A   1      43.016  27.806  31.781  1.00  0.00     0.167 HD
ATOM     63  C   UNL A   1      44.816  25.733  31.063  1.00  0.00     0.074 A 
ATOM     64  C   UNL A   1      45.416  24.630  30.341  1.00  0.00     0.031 C 
ATOM     65  C   UNL A   1      45.342  26.284  32.187  1.00  0.00     0.034 A 
BRANCH  52  66
ATOM     66  C   UNL A   1      42.002  30.985  34.476  1.00  0.00     0.023 A 
ATOM     67  C   UNL A   1      42.604  32.246  34.312  1.00  0.00     0.031 A 
ATOM     68  C   UNL A   1      41.276  30.757  35.659  1.00  0.00     0.131 A 
ATOM     69  C   UNL A   1      42.533  33.198  35.341  1.00  0.00     0.055 A 
ATOM     70  C   UNL A   1      41.136  31.739  36.641  1.00  0.00     0.041 A 
ATOM     71  F   UNL A   1      40.696  29.567  35.886  1.00  0.00    -0.206 F 
ATOM     72  C   UNL A   1      41.779  32.964  36.492  1.00  0.00     0.022 A 
BRANCH  69  73
ATOM     73  S   UNL A   1      43.564  34.685  35.217  1.00  0.00     0.124 S 
ATOM     74  O   UNL A   1      44.902  34.108  35.104  1.00  0.00    -0.237 OA
ATOM     75  O   UNL A   1      43.044  35.331  34.017  1.00  0.00    -0.237 OA
ATOM     76  O   UNL A   1      43.301  35.389  36.469  1.00  0.00    -0.744 OA
ENDBRANCH  69  73
ENDBRANCH  52  66
BRANCH  53  77
ATOM     77  C   UNL A   1      42.656  24.150  27.182  1.00  0.00     0.023 A 
ATOM     78  C   UNL A   1      42.037  22.891  27.253  1.00  0.00     0.031 A 
ATOM     79  C   UNL A   1      43.447  24.432  26.053  1.00  0.00     0.131 A 
ATOM     80  C   UNL A   1      42.260  21.944  26.240  1.00  0.00     0.055 A 
ATOM     81  C   UNL A   1      43.613  23.510  25.018  1.00  0.00     0.041 A 
ATOM     82  F   UNL A   1      44.061  25.620  25.932  1.00  0.00    -0.206 F 
ATOM     83  C   UNL A   1      43.028  22.251  25.116  1.00  0.00     0.022 A 
BRANCH  80  84
ATOM     84  S   UNL A   1      41.607  20.267  26.461  1.00  0.00     0.124 S 
ATOM     85  O   UNL A   1      42.115  19.924  27.785  1.00  0.00    -0.237 OA
ATOM     86  O   UNL A   1      40.169  20.486  26.361  1.00  0.00    -0.237 OA
ATOM     87  O   UNL A   1      42.201  19.524  25.352  1.00  0.00    -0.744 OA
ENDBRANCH  80  84
ENDBRANCH  53  77
BRANCH  65  88
ATOM     88  C   UNL A   1      46.612  25.669  32.729  1.00  0.00     0.023 A 
ATOM     89  C   UNL A   1      46.588  24.657  33.704  1.00  0.00     0.031 A 
ATOM     90  C   UNL A   1      47.864  26.115  32.271  1.00  0.00     0.131 A 
ATOM     91  C   UNL A   1      47.792  24.168  34.235  1.00  0.00     0.055 A 
ATOM     92  C   UNL A   1      49.059  25.574  32.751  1.00  0.00     0.041 A 
ATOM     93  F   UNL A   1      47.950  27.082  31.345  1.00  0.00    -0.206 F 
ATOM     94  C   UNL A   1      49.027  24.606  33.751  1.00  0.00     0.022 A 
BRANCH  91  95
ATOM     95  S   UNL A   1      47.723  23.031  35.647  1.00  0.00     0.124 S 
ATOM     96  O   UNL A   1      46.414  23.334  36.216  1.00  0.00    -0.237 OA
ATOM     97  O   UNL A   1      47.854  21.728  35.004  1.00  0.00    -0.237 OA
ATOM     98  O   UNL A   1      48.864  23.434  36.468  1.00  0.00    -0.744 OA
ENDBRANCH  91  95
ENDBRANCH  65  88
ENDBRANCH  39  40
ENDBRANCH  31  34
ENDBRANCH  29  30
ENDBRANCH   1  29
TORSDOF 15
ENDMDL
