MODEL 1
REMARK VINA RESULT:     -12.1      0.000      0.000
REMARK SMILES COc1cc(S(=O)(=O)Nc2cccc(C(=O)NCCCNC(=O)c3ccc(-c4c5nc(c(-c6cc(S(=O)(=O)[O-])ccc6F)c6ccc([nH]6)c(-c6cc(S(=O)(=O)[O-])ccc6F)c6nc(c(-c7cc(S(=O)(=O)[O-])ccc7F)c7ccc4[nH]7)C=C6)C=C5)cc3)c2)c(OC)cc1C
REMARK SMILES IDX 18 1 17 2 15 3 16 4 14 6 10 7 11 8 87 9 12 10 13 11 9 12
REMARK SMILES IDX 6 14 7 15 8 16 5 17 3 18 4 19 92 20 91 21 93 22 88 23 2 24
REMARK SMILES IDX 1 25 89 26 90 27 19 28 20 29 21 30 22 31 23 33 24 34 25 35
REMARK SMILES IDX 86 36 26 37 85 38 27 39 28 40 29 41 79 42 30 43 84 44 78 45
REMARK SMILES IDX 80 46 31 47 83 48 77 49 76 50 32 52 64 53 44 54 63 55 45 56
REMARK SMILES IDX 48 57 62 58 81 59 46 60 47 61 61 63 82 64 49 65 33 66 34 67
REMARK SMILES IDX 42 68 35 69 41 70 43 71 40 72 36 73 37 74 38 75 39 76 65 77
REMARK SMILES IDX 66 78 74 79 67 80 73 81 75 82 72 83 68 84 69 85 70 86 71 87
REMARK SMILES IDX 50 88 51 89 59 90 52 91 58 92 60 93 57 94 53 95 54 96 55 97
REMARK SMILES IDX 56 98
REMARK H PARENT 17 5 9 13 21 32 80 51 48 62
REMARK Flexibility Score: inf
ROOT
ATOM      1  C   UNL A   1      34.228  29.612  27.184  1.00  0.00     0.118 C 
ENDROOT
BRANCH   1   2
ATOM      2  N   UNL A   1      33.043  28.965  27.726  1.00  0.00    -0.352 N 
ATOM      3  C   UNL A   1      31.980  28.372  27.089  1.00  0.00     0.251 C 
ATOM      4  O   UNL A   1      31.153  27.730  27.732  1.00  0.00    -0.269 OA
ATOM      5  H   UNL A   1      32.995  28.950  28.709  1.00  0.00     0.163 HD
BRANCH   3   6
ATOM      6  C   UNL A   1      31.837  28.416  25.616  1.00  0.00     0.041 A 
ATOM      7  C   UNL A   1      32.417  27.400  23.486  1.00  0.00     0.050 A 
ATOM      8  C   UNL A   1      31.697  28.390  22.821  1.00  0.00     0.027 A 
ATOM      9  C   UNL A   1      32.422  27.377  24.886  1.00  0.00     0.040 A 
ATOM     10  C   UNL A   1      31.059  29.398  23.552  1.00  0.00     0.003 A 
ATOM     11  C   UNL A   1      31.134  29.417  24.947  1.00  0.00     0.014 A 
BRANCH   7  12
ATOM     12  N   UNL A   1      33.180  26.391  22.835  1.00  0.00    -0.279 N 
ATOM     13  H   UNL A   1      34.092  26.626  22.550  1.00  0.00     0.180 HD
BRANCH  12  14
ATOM     14  S   UNL A   1      32.653  24.838  22.516  1.00  0.00     0.265 S 
ATOM     15  O   UNL A   1      33.301  24.391  21.297  1.00  0.00    -0.201 OA
ATOM     16  O   UNL A   1      31.205  24.899  22.580  1.00  0.00    -0.201 OA
BRANCH  14  17
ATOM     17  C   UNL A   1      33.152  23.698  23.787  1.00  0.00     0.133 A 
ATOM     18  C   UNL A   1      34.709  23.363  25.623  1.00  0.00     0.123 A 
ATOM     19  C   UNL A   1      34.288  24.096  24.516  1.00  0.00     0.073 A 
ATOM     20  C   UNL A   1      33.924  22.321  26.111  1.00  0.00    -0.005 A 
ATOM     21  C   UNL A   1      32.850  21.877  25.326  1.00  0.00     0.055 A 
ATOM     22  C   UNL A   1      34.208  21.631  27.412  1.00  0.00     0.048 C 
ATOM     23  C   UNL A   1      32.494  22.514  24.126  1.00  0.00     0.139 A 
BRANCH  18  24
ATOM     24  O   UNL A   1      35.887  23.740  26.207  1.00  0.00    -0.496 OA
ATOM     25  C   UNL A   1      36.973  23.634  25.279  1.00  0.00     0.278 C 
ENDBRANCH  18  24
BRANCH  23  26
ATOM     26  O   UNL A   1      31.587  21.989  23.257  1.00  0.00    -0.495 OA
ATOM     27  C   UNL A   1      32.067  21.095  22.256  1.00  0.00     0.278 C 
ENDBRANCH  23  26
ENDBRANCH  14  17
ENDBRANCH  12  14
ENDBRANCH   7  12
ENDBRANCH   3   6
ENDBRANCH   1   2
BRANCH   1  28
ATOM     28  C   UNL A   1      34.844  30.623  28.143  1.00  0.00     0.042 C 
BRANCH  28  29
ATOM     29  C   UNL A   1      34.830  32.047  27.602  1.00  0.00     0.118 C 
BRANCH  29  30
ATOM     30  N   UNL A   1      33.965  32.940  28.373  1.00  0.00    -0.352 N 
ATOM     31  C   UNL A   1      34.258  33.672  29.513  1.00  0.00     0.251 C 
ATOM     32  H   UNL A   1      33.045  33.035  28.034  1.00  0.00     0.163 HD
ATOM     33  O   UNL A   1      33.426  34.393  30.034  1.00  0.00    -0.269 OA
BRANCH  31  34
ATOM     34  C   UNL A   1      35.642  33.629  30.034  1.00  0.00     0.039 A 
ATOM     35  C   UNL A   1      36.661  34.175  29.246  1.00  0.00     0.014 A 
ATOM     36  C   UNL A   1      35.941  32.855  31.150  1.00  0.00     0.014 A 
ATOM     37  C   UNL A   1      37.974  33.754  29.449  1.00  0.00     0.010 A 
ATOM     38  C   UNL A   1      37.217  32.345  31.269  1.00  0.00     0.010 A 
ATOM     39  C   UNL A   1      38.226  32.754  30.388  1.00  0.00    -0.014 A 
BRANCH  39  40
ATOM     40  C   UNL A   1      39.460  31.974  30.425  1.00  0.00     0.031 A 
ATOM     41  C   UNL A   1      39.558  30.659  29.754  1.00  0.00     0.074 A 
ATOM     42  C   UNL A   1      40.571  32.490  30.998  1.00  0.00     0.049 A 
ATOM     43  N   UNL A   1      40.440  29.767  30.057  1.00  0.00    -0.248 NA
ATOM     44  C   UNL A   1      38.645  30.223  28.704  1.00  0.00     0.031 C 
ATOM     45  C   UNL A   1      41.946  32.018  30.844  1.00  0.00     0.029 A 
ATOM     46  N   UNL A   1      40.638  33.412  32.038  1.00  0.00    -0.354 N 
ATOM     47  C   UNL A   1      40.414  28.802  29.083  1.00  0.00     0.074 A 
ATOM     48  C   UNL A   1      39.238  29.097  28.296  1.00  0.00     0.031 C 
ATOM     49  C   UNL A   1      42.669  32.436  31.893  1.00  0.00     0.029 A 
ATOM     50  C   UNL A   1      41.757  33.069  32.824  1.00  0.00     0.049 A 
ATOM     51  H   UNL A   1      40.020  34.162  32.196  1.00  0.00     0.167 HD
ATOM     52  C   UNL A   1      41.455  27.933  28.967  1.00  0.00     0.034 A 
ATOM     53  C   UNL A   1      41.625  32.757  34.147  1.00  0.00     0.034 A 
ATOM     54  C   UNL A   1      42.482  28.154  29.985  1.00  0.00     0.049 A 
ATOM     55  C   UNL A   1      42.100  31.362  34.513  1.00  0.00     0.074 A 
ATOM     56  C   UNL A   1      43.741  28.733  29.985  1.00  0.00     0.029 A 
ATOM     57  N   UNL A   1      42.156  27.954  31.314  1.00  0.00    -0.354 N 
ATOM     58  N   UNL A   1      42.529  30.479  33.654  1.00  0.00    -0.248 NA
ATOM     59  C   UNL A   1      42.039  30.819  35.870  1.00  0.00     0.031 C 
ATOM     60  C   UNL A   1      44.180  28.838  31.336  1.00  0.00     0.029 A 
ATOM     61  C   UNL A   1      43.192  28.316  32.150  1.00  0.00     0.049 A 
ATOM     62  H   UNL A   1      41.293  27.596  31.624  1.00  0.00     0.167 HD
ATOM     63  C   UNL A   1      42.703  29.267  34.279  1.00  0.00     0.074 A 
ATOM     64  C   UNL A   1      42.394  29.537  35.672  1.00  0.00     0.031 C 
ATOM     65  C   UNL A   1      43.031  28.133  33.585  1.00  0.00     0.034 A 
BRANCH  52  66
ATOM     66  C   UNL A   1      41.661  27.025  27.781  1.00  0.00     0.023 A 
ATOM     67  C   UNL A   1      41.790  25.637  27.991  1.00  0.00     0.031 A 
ATOM     68  C   UNL A   1      41.749  27.446  26.441  1.00  0.00     0.131 A 
ATOM     69  C   UNL A   1      42.096  24.759  26.939  1.00  0.00     0.055 A 
ATOM     70  C   UNL A   1      42.114  26.584  25.398  1.00  0.00     0.041 A 
ATOM     71  F   UNL A   1      41.437  28.698  26.077  1.00  0.00    -0.206 F 
ATOM     72  C   UNL A   1      42.304  25.232  25.646  1.00  0.00     0.022 A 
BRANCH  69  73
ATOM     73  S   UNL A   1      42.206  22.983  27.285  1.00  0.00     0.124 S 
ATOM     74  O   UNL A   1      41.659  22.896  28.636  1.00  0.00    -0.237 OA
ATOM     75  O   UNL A   1      41.391  22.410  26.220  1.00  0.00    -0.237 OA
ATOM     76  O   UNL A   1      43.638  22.706  27.182  1.00  0.00    -0.744 OA
ENDBRANCH  69  73
ENDBRANCH  52  66
BRANCH  53  77
ATOM     77  C   UNL A   1      40.499  33.497  34.793  1.00  0.00     0.023 A 
ATOM     78  C   UNL A   1      39.507  32.719  35.432  1.00  0.00     0.031 A 
ATOM     79  C   UNL A   1      40.605  34.846  35.152  1.00  0.00     0.131 A 
ATOM     80  C   UNL A   1      38.797  33.239  36.523  1.00  0.00     0.055 A 
ATOM     81  C   UNL A   1      39.825  35.387  36.182  1.00  0.00     0.041 A 
ATOM     82  F   UNL A   1      41.552  35.628  34.611  1.00  0.00    -0.206 F 
ATOM     83  C   UNL A   1      38.950  34.572  36.905  1.00  0.00     0.022 A 
BRANCH  80  84
ATOM     84  S   UNL A   1      37.921  32.068  37.606  1.00  0.00     0.124 S 
ATOM     85  O   UNL A   1      37.926  30.848  36.809  1.00  0.00    -0.237 OA
ATOM     86  O   UNL A   1      38.761  32.052  38.803  1.00  0.00    -0.237 OA
ATOM     87  O   UNL A   1      36.612  32.686  37.801  1.00  0.00    -0.744 OA
ENDBRANCH  80  84
ENDBRANCH  53  77
BRANCH  65  88
ATOM     88  C   UNL A   1      43.186  26.743  34.174  1.00  0.00     0.023 A 
ATOM     89  C   UNL A   1      44.361  25.985  34.054  1.00  0.00     0.031 A 
ATOM     90  C   UNL A   1      42.109  26.096  34.834  1.00  0.00     0.131 A 
ATOM     91  C   UNL A   1      44.463  24.707  34.638  1.00  0.00     0.055 A 
ATOM     92  C   UNL A   1      42.190  24.800  35.352  1.00  0.00     0.041 A 
ATOM     93  F   UNL A   1      40.930  26.698  35.036  1.00  0.00    -0.206 F 
ATOM     94  C   UNL A   1      43.380  24.101  35.271  1.00  0.00     0.022 A 
BRANCH  91  95
ATOM     95  S   UNL A   1      46.063  23.858  34.601  1.00  0.00     0.124 S 
ATOM     96  O   UNL A   1      45.694  22.502  34.208  1.00  0.00    -0.237 OA
ATOM     97  O   UNL A   1      46.788  24.633  33.598  1.00  0.00    -0.237 OA
ATOM     98  O   UNL A   1      46.562  23.995  35.968  1.00  0.00    -0.744 OA
ENDBRANCH  91  95
ENDBRANCH  65  88
ENDBRANCH  39  40
ENDBRANCH  31  34
ENDBRANCH  29  30
ENDBRANCH  28  29
ENDBRANCH   1  28
TORSDOF 18
ENDMDL
MODEL 2
REMARK VINA RESULT:     -12.0      1.301      2.041
REMARK SMILES COc1cc(S(=O)(=O)Nc2cccc(C(=O)NCCCNC(=O)c3ccc(-c4c5nc(c(-c6cc(S(=O)(=O)[O-])ccc6F)c6ccc([nH]6)c(-c6cc(S(=O)(=O)[O-])ccc6F)c6nc(c(-c7cc(S(=O)(=O)[O-])ccc7F)c7ccc4[nH]7)C=C6)C=C5)cc3)c2)c(OC)cc1C
REMARK SMILES IDX 18 1 17 2 15 3 16 4 14 6 10 7 11 8 87 9 12 10 13 11 9 12
REMARK SMILES IDX 6 14 7 15 8 16 5 17 3 18 4 19 92 20 91 21 93 22 88 23 2 24
REMARK SMILES IDX 1 25 89 26 90 27 19 28 20 29 21 30 22 31 23 33 24 34 25 35
REMARK SMILES IDX 86 36 26 37 85 38 27 39 28 40 29 41 79 42 30 43 84 44 78 45
REMARK SMILES IDX 80 46 31 47 83 48 77 49 76 50 32 52 64 53 44 54 63 55 45 56
REMARK SMILES IDX 48 57 62 58 81 59 46 60 47 61 61 63 82 64 49 65 33 66 34 67
REMARK SMILES IDX 42 68 35 69 41 70 43 71 40 72 36 73 37 74 38 75 39 76 65 77
REMARK SMILES IDX 66 78 74 79 67 80 73 81 75 82 72 83 68 84 69 85 70 86 71 87
REMARK SMILES IDX 50 88 51 89 59 90 52 91 58 92 60 93 57 94 53 95 54 96 55 97
REMARK SMILES IDX 56 98
REMARK H PARENT 17 5 9 13 21 32 80 51 48 62
REMARK Flexibility Score: inf
ROOT
ATOM      1  C   UNL A   1      33.982  29.949  26.996  1.00  0.00     0.118 C 
ENDROOT
BRANCH   1   2
ATOM      2  N   UNL A   1      32.793  29.415  27.642  1.00  0.00    -0.352 N 
ATOM      3  C   UNL A   1      31.929  28.424  27.243  1.00  0.00     0.251 C 
ATOM      4  O   UNL A   1      31.072  28.003  28.015  1.00  0.00    -0.269 OA
ATOM      5  H   UNL A   1      32.571  29.831  28.506  1.00  0.00     0.163 HD
BRANCH   3   6
ATOM      6  C   UNL A   1      32.050  27.781  25.915  1.00  0.00     0.041 A 
ATOM      7  C   UNL A   1      32.674  25.789  24.670  1.00  0.00     0.050 A 
ATOM      8  C   UNL A   1      32.373  26.444  23.478  1.00  0.00     0.027 A 
ATOM      9  C   UNL A   1      32.441  26.438  25.888  1.00  0.00     0.040 A 
ATOM     10  C   UNL A   1      31.924  27.768  23.503  1.00  0.00     0.003 A 
ATOM     11  C   UNL A   1      31.769  28.440  24.719  1.00  0.00     0.014 A 
BRANCH   7  12
ATOM     12  N   UNL A   1      33.229  24.481  24.747  1.00  0.00    -0.279 N 
ATOM     13  H   UNL A   1      33.711  24.241  25.570  1.00  0.00     0.180 HD
BRANCH  12  14
ATOM     14  S   UNL A   1      33.125  23.318  23.552  1.00  0.00     0.265 S 
ATOM     15  O   UNL A   1      34.035  23.695  22.486  1.00  0.00    -0.201 OA
ATOM     16  O   UNL A   1      31.709  23.174  23.271  1.00  0.00    -0.201 OA
BRANCH  14  17
ATOM     17  C   UNL A   1      33.675  21.728  24.129  1.00  0.00     0.133 A 
ATOM     18  C   UNL A   1      33.219  19.342  24.038  1.00  0.00     0.123 A 
ATOM     19  C   UNL A   1      32.841  20.654  23.765  1.00  0.00     0.073 A 
ATOM     20  C   UNL A   1      34.493  19.071  24.532  1.00  0.00    -0.005 A 
ATOM     21  C   UNL A   1      35.274  20.147  24.976  1.00  0.00     0.055 A 
ATOM     22  C   UNL A   1      35.039  17.679  24.651  1.00  0.00     0.048 C 
ATOM     23  C   UNL A   1      34.848  21.479  24.843  1.00  0.00     0.139 A 
BRANCH  18  24
ATOM     24  O   UNL A   1      32.306  18.361  23.764  1.00  0.00    -0.496 OA
ATOM     25  C   UNL A   1      32.250  18.096  22.357  1.00  0.00     0.278 C 
ENDBRANCH  18  24
BRANCH  23  26
ATOM     26  O   UNL A   1      35.496  22.520  25.435  1.00  0.00    -0.495 OA
ATOM     27  C   UNL A   1      36.912  22.426  25.575  1.00  0.00     0.278 C 
ENDBRANCH  23  26
ENDBRANCH  14  17
ENDBRANCH  12  14
ENDBRANCH   7  12
ENDBRANCH   3   6
ENDBRANCH   1   2
BRANCH   1  28
ATOM     28  C   UNL A   1      34.998  30.504  27.987  1.00  0.00     0.042 C 
BRANCH  28  29
ATOM     29  C   UNL A   1      35.381  31.951  27.703  1.00  0.00     0.118 C 
BRANCH  29  30
ATOM     30  N   UNL A   1      34.595  32.910  28.480  1.00  0.00    -0.352 N 
ATOM     31  C   UNL A   1      34.958  33.626  29.610  1.00  0.00     0.251 C 
ATOM     32  H   UNL A   1      33.680  33.069  28.154  1.00  0.00     0.163 HD
ATOM     33  O   UNL A   1      34.188  34.409  30.138  1.00  0.00    -0.269 OA
BRANCH  31  34
ATOM     34  C   UNL A   1      36.343  33.485  30.112  1.00  0.00     0.039 A 
ATOM     35  C   UNL A   1      37.384  33.982  29.321  1.00  0.00     0.014 A 
ATOM     36  C   UNL A   1      36.605  32.671  31.207  1.00  0.00     0.014 A 
ATOM     37  C   UNL A   1      38.670  33.476  29.498  1.00  0.00     0.010 A 
ATOM     38  C   UNL A   1      37.848  32.080  31.300  1.00  0.00     0.010 A 
ATOM     39  C   UNL A   1      38.870  32.443  30.414  1.00  0.00    -0.014 A 
BRANCH  39  40
ATOM     40  C   UNL A   1      40.053  31.586  30.418  1.00  0.00     0.031 A 
ATOM     41  C   UNL A   1      40.041  30.256  29.771  1.00  0.00     0.074 A 
ATOM     42  C   UNL A   1      41.217  32.040  30.936  1.00  0.00     0.049 A 
ATOM     43  N   UNL A   1      40.876  29.315  30.057  1.00  0.00    -0.248 NA
ATOM     44  C   UNL A   1      39.060  29.860  28.767  1.00  0.00     0.031 C 
ATOM     45  C   UNL A   1      42.551  31.479  30.738  1.00  0.00     0.029 A 
ATOM     46  N   UNL A   1      41.384  32.975  31.954  1.00  0.00    -0.354 N 
ATOM     47  C   UNL A   1      40.749  28.336  29.105  1.00  0.00     0.074 A 
ATOM     48  C   UNL A   1      39.564  28.691  28.359  1.00  0.00     0.031 C 
ATOM     49  C   UNL A   1      43.341  31.869  31.749  1.00  0.00     0.029 A 
ATOM     50  C   UNL A   1      42.509  32.576  32.702  1.00  0.00     0.049 A 
ATOM     51  H   UNL A   1      40.821  33.766  32.120  1.00  0.00     0.167 HD
ATOM     52  C   UNL A   1      41.729  27.400  28.967  1.00  0.00     0.034 A 
ATOM     53  C   UNL A   1      42.412  32.297  34.036  1.00  0.00     0.034 A 
ATOM     54  C   UNL A   1      42.807  27.574  29.939  1.00  0.00     0.049 A 
ATOM     55  C   UNL A   1      42.812  30.881  34.411  1.00  0.00     0.074 A 
ATOM     56  C   UNL A   1      44.099  28.071  29.878  1.00  0.00     0.029 A 
ATOM     57  N   UNL A   1      42.524  27.419  31.283  1.00  0.00    -0.354 N 
ATOM     58  N   UNL A   1      43.149  29.957  33.555  1.00  0.00    -0.248 NA
ATOM     59  C   UNL A   1      42.772  30.368  35.780  1.00  0.00     0.031 C 
ATOM     60  C   UNL A   1      44.599  28.172  31.208  1.00  0.00     0.029 A 
ATOM     61  C   UNL A   1      43.614  27.729  32.071  1.00  0.00     0.049 A 
ATOM     62  H   UNL A   1      41.653  27.122  31.634  1.00  0.00     0.167 HD
ATOM     63  C   UNL A   1      43.272  28.748  34.197  1.00  0.00     0.074 A 
ATOM     64  C   UNL A   1      43.037  29.063  35.595  1.00  0.00     0.031 C 
ATOM     65  C   UNL A   1      43.499  27.583  33.514  1.00  0.00     0.034 A 
BRANCH  52  66
ATOM     66  C   UNL A   1      41.828  26.460  27.792  1.00  0.00     0.023 A 
ATOM     67  C   UNL A   1      41.737  25.071  28.014  1.00  0.00     0.031 A 
ATOM     68  C   UNL A   1      42.021  26.849  26.453  1.00  0.00     0.131 A 
ATOM     69  C   UNL A   1      41.937  24.146  26.976  1.00  0.00     0.055 A 
ATOM     70  C   UNL A   1      42.280  25.930  25.427  1.00  0.00     0.041 A 
ATOM     71  F   UNL A   1      41.914  28.131  26.074  1.00  0.00    -0.206 F 
ATOM     72  C   UNL A   1      42.253  24.568  25.688  1.00  0.00     0.022 A 
BRANCH  69  73
ATOM     73  S   UNL A   1      41.763  22.377  27.336  1.00  0.00     0.124 S 
ATOM     74  O   UNL A   1      41.913  21.776  26.014  1.00  0.00    -0.237 OA
ATOM     75  O   UNL A   1      42.852  22.146  28.278  1.00  0.00    -0.237 OA
ATOM     76  O   UNL A   1      40.421  22.279  27.908  1.00  0.00    -0.744 OA
ENDBRANCH  69  73
ENDBRANCH  52  66
BRANCH  53  77
ATOM     77  C   UNL A   1      41.361  33.118  34.709  1.00  0.00     0.023 A 
ATOM     78  C   UNL A   1      40.068  32.555  34.797  1.00  0.00     0.031 A 
ATOM     79  C   UNL A   1      41.683  34.159  35.590  1.00  0.00     0.131 A 
ATOM     80  C   UNL A   1      39.220  32.898  35.859  1.00  0.00     0.055 A 
ATOM     81  C   UNL A   1      40.792  34.564  36.592  1.00  0.00     0.041 A 
ATOM     82  F   UNL A   1      42.907  34.709  35.584  1.00  0.00    -0.206 F 
ATOM     83  C   UNL A   1      39.574  33.901  36.761  1.00  0.00     0.022 A 
BRANCH  80  84
ATOM     84  S   UNL A   1      37.808  31.804  36.209  1.00  0.00     0.124 S 
ATOM     85  O   UNL A   1      37.017  31.922  34.991  1.00  0.00    -0.237 OA
ATOM     86  O   UNL A   1      38.456  30.510  36.426  1.00  0.00    -0.237 OA
ATOM     87  O   UNL A   1      37.207  32.382  37.408  1.00  0.00    -0.744 OA
ENDBRANCH  80  84
ENDBRANCH  53  77
BRANCH  65  88
ATOM     88  C   UNL A   1      43.590  26.197  34.125  1.00  0.00     0.023 A 
ATOM     89  C   UNL A   1      44.751  25.411  34.077  1.00  0.00     0.031 A 
ATOM     90  C   UNL A   1      42.464  25.582  34.733  1.00  0.00     0.131 A 
ATOM     91  C   UNL A   1      44.792  24.138  34.679  1.00  0.00     0.055 A 
ATOM     92  C   UNL A   1      42.487  24.291  35.267  1.00  0.00     0.041 A 
ATOM     93  F   UNL A   1      41.290  26.213  34.864  1.00  0.00    -0.206 F 
ATOM     94  C   UNL A   1      43.662  23.564  35.259  1.00  0.00     0.022 A 
BRANCH  91  95
ATOM     95  S   UNL A   1      46.372  23.253  34.738  1.00  0.00     0.124 S 
ATOM     96  O   UNL A   1      46.623  23.148  36.172  1.00  0.00    -0.237 OA
ATOM     97  O   UNL A   1      46.038  22.003  34.061  1.00  0.00    -0.237 OA
ATOM     98  O   UNL A   1      47.288  24.126  34.008  1.00  0.00    -0.744 OA
ENDBRANCH  91  95
ENDBRANCH  65  88
ENDBRANCH  39  40
ENDBRANCH  31  34
ENDBRANCH  29  30
ENDBRANCH  28  29
ENDBRANCH   1  28
TORSDOF 18
ENDMDL
MODEL 3
REMARK VINA RESULT:     -12.0      4.033      9.877
REMARK SMILES COc1cc(S(=O)(=O)Nc2cccc(C(=O)NCCCNC(=O)c3ccc(-c4c5nc(c(-c6cc(S(=O)(=O)[O-])ccc6F)c6ccc([nH]6)c(-c6cc(S(=O)(=O)[O-])ccc6F)c6nc(c(-c7cc(S(=O)(=O)[O-])ccc7F)c7ccc4[nH]7)C=C6)C=C5)cc3)c2)c(OC)cc1C
REMARK SMILES IDX 18 1 17 2 15 3 16 4 14 6 10 7 11 8 87 9 12 10 13 11 9 12
REMARK SMILES IDX 6 14 7 15 8 16 5 17 3 18 4 19 92 20 91 21 93 22 88 23 2 24
REMARK SMILES IDX 1 25 89 26 90 27 19 28 20 29 21 30 22 31 23 33 24 34 25 35
REMARK SMILES IDX 86 36 26 37 85 38 27 39 28 40 29 41 79 42 30 43 84 44 78 45
REMARK SMILES IDX 80 46 31 47 83 48 77 49 76 50 32 52 64 53 44 54 63 55 45 56
REMARK SMILES IDX 48 57 62 58 81 59 46 60 47 61 61 63 82 64 49 65 33 66 34 67
REMARK SMILES IDX 42 68 35 69 41 70 43 71 40 72 36 73 37 74 38 75 39 76 65 77
REMARK SMILES IDX 66 78 74 79 67 80 73 81 75 82 72 83 68 84 69 85 70 86 71 87
REMARK SMILES IDX 50 88 51 89 59 90 52 91 58 92 60 93 57 94 53 95 54 96 55 97
REMARK SMILES IDX 56 98
REMARK H PARENT 17 5 9 13 21 32 80 51 48 62
REMARK Flexibility Score: inf
ROOT
ATOM      1  C   UNL A   1      37.918  20.986  25.079  1.00  0.00     0.118 C 
ENDROOT
BRANCH   1   2
ATOM      2  N   UNL A   1      37.426  22.320  24.769  1.00  0.00    -0.352 N 
ATOM      3  C   UNL A   1      36.142  22.799  24.683  1.00  0.00     0.251 C 
ATOM      4  O   UNL A   1      35.937  24.005  24.571  1.00  0.00    -0.269 OA
ATOM      5  H   UNL A   1      38.127  22.988  24.592  1.00  0.00     0.163 HD
BRANCH   3   6
ATOM      6  C   UNL A   1      34.971  21.900  24.800  1.00  0.00     0.041 A 
ATOM      7  C   UNL A   1      32.576  21.720  25.175  1.00  0.00     0.050 A 
ATOM      8  C   UNL A   1      32.671  20.332  25.088  1.00  0.00     0.027 A 
ATOM      9  C   UNL A   1      33.717  22.500  24.957  1.00  0.00     0.040 A 
ATOM     10  C   UNL A   1      33.914  19.730  24.871  1.00  0.00     0.003 A 
ATOM     11  C   UNL A   1      35.065  20.511  24.734  1.00  0.00     0.014 A 
BRANCH   7  12
ATOM     12  N   UNL A   1      31.380  22.422  25.490  1.00  0.00    -0.279 N 
ATOM     13  H   UNL A   1      30.536  22.061  25.135  1.00  0.00     0.180 HD
BRANCH  12  14
ATOM     14  S   UNL A   1      31.291  23.809  26.418  1.00  0.00     0.265 S 
ATOM     15  O   UNL A   1      32.505  23.891  27.209  1.00  0.00    -0.201 OA
ATOM     16  O   UNL A   1      30.002  23.751  27.081  1.00  0.00    -0.201 OA
BRANCH  14  17
ATOM     17  C   UNL A   1      31.259  25.275  25.411  1.00  0.00     0.133 A 
ATOM     18  C   UNL A   1      31.188  26.081  23.119  1.00  0.00     0.123 A 
ATOM     19  C   UNL A   1      31.334  25.035  24.026  1.00  0.00     0.073 A 
ATOM     20  C   UNL A   1      30.813  27.346  23.565  1.00  0.00    -0.005 A 
ATOM     21  C   UNL A   1      30.833  27.594  24.945  1.00  0.00     0.055 A 
ATOM     22  C   UNL A   1      30.435  28.458  22.632  1.00  0.00     0.048 C 
ATOM     23  C   UNL A   1      31.121  26.583  25.877  1.00  0.00     0.139 A 
BRANCH  18  24
ATOM     24  O   UNL A   1      31.392  25.792  21.797  1.00  0.00    -0.496 OA
ATOM     25  C   UNL A   1      32.788  25.831  21.478  1.00  0.00     0.278 C 
ENDBRANCH  18  24
BRANCH  23  26
ATOM     26  O   UNL A   1      31.335  26.841  27.197  1.00  0.00    -0.495 OA
ATOM     27  C   UNL A   1      31.564  28.195  27.580  1.00  0.00     0.278 C 
ENDBRANCH  23  26
ENDBRANCH  14  17
ENDBRANCH  12  14
ENDBRANCH   7  12
ENDBRANCH   3   6
ENDBRANCH   1   2
BRANCH   1  28
ATOM     28  C   UNL A   1      39.171  21.002  25.946  1.00  0.00     0.042 C 
BRANCH  28  29
ATOM     29  C   UNL A   1      39.579  22.404  26.383  1.00  0.00     0.118 C 
BRANCH  29  30
ATOM     30  N   UNL A   1      40.994  22.684  26.143  1.00  0.00    -0.352 N 
ATOM     31  C   UNL A   1      41.681  23.883  26.261  1.00  0.00     0.251 C 
ATOM     32  H   UNL A   1      41.536  21.913  25.857  1.00  0.00     0.163 HD
ATOM     33  O   UNL A   1      42.877  23.952  26.041  1.00  0.00    -0.269 OA
BRANCH  31  34
ATOM     34  C   UNL A   1      40.941  25.066  26.754  1.00  0.00     0.039 A 
ATOM     35  C   UNL A   1      40.998  26.242  25.998  1.00  0.00     0.014 A 
ATOM     36  C   UNL A   1      40.416  25.070  28.040  1.00  0.00     0.014 A 
ATOM     37  C   UNL A   1      40.739  27.461  26.621  1.00  0.00     0.010 A 
ATOM     38  C   UNL A   1      40.281  26.281  28.688  1.00  0.00     0.010 A 
ATOM     39  C   UNL A   1      40.491  27.480  27.994  1.00  0.00    -0.014 A 
BRANCH  39  40
ATOM     40  C   UNL A   1      40.584  28.684  28.814  1.00  0.00     0.031 A 
ATOM     41  C   UNL A   1      39.482  29.670  28.859  1.00  0.00     0.074 A 
ATOM     42  C   UNL A   1      41.649  28.870  29.627  1.00  0.00     0.049 A 
ATOM     43  N   UNL A   1      39.636  30.897  29.229  1.00  0.00    -0.248 NA
ATOM     44  C   UNL A   1      38.114  29.365  28.455  1.00  0.00     0.031 C 
ATOM     45  C   UNL A   1      41.760  29.815  30.736  1.00  0.00     0.029 A 
ATOM     46  N   UNL A   1      42.945  28.396  29.448  1.00  0.00    -0.354 N 
ATOM     47  C   UNL A   1      38.391  31.444  29.400  1.00  0.00     0.074 A 
ATOM     48  C   UNL A   1      37.476  30.472  28.847  1.00  0.00     0.031 C 
ATOM     49  C   UNL A   1      43.057  30.055  30.975  1.00  0.00     0.029 A 
ATOM     50  C   UNL A   1      43.820  29.385  29.940  1.00  0.00     0.049 A 
ATOM     51  H   UNL A   1      43.202  27.532  29.051  1.00  0.00     0.167 HD
ATOM     52  C   UNL A   1      38.254  32.601  30.105  1.00  0.00     0.034 A 
ATOM     53  C   UNL A   1      44.756  29.969  29.135  1.00  0.00     0.034 A 
ATOM     54  C   UNL A   1      39.539  33.130  30.562  1.00  0.00     0.049 A 
ATOM     55  C   UNL A   1      44.613  31.475  28.998  1.00  0.00     0.074 A 
ATOM     56  C   UNL A   1      40.197  33.164  31.781  1.00  0.00     0.029 A 
ATOM     57  N   UNL A   1      40.465  33.538  29.620  1.00  0.00    -0.354 N 
ATOM     58  N   UNL A   1      43.647  32.176  29.524  1.00  0.00    -0.248 NA
ATOM     59  C   UNL A   1      45.500  32.297  28.176  1.00  0.00     0.031 C 
ATOM     60  C   UNL A   1      41.522  33.638  31.557  1.00  0.00     0.029 A 
ATOM     61  C   UNL A   1      41.661  33.898  30.207  1.00  0.00     0.049 A 
ATOM     62  H   UNL A   1      40.291  33.568  28.651  1.00  0.00     0.167 HD
ATOM     63  C   UNL A   1      43.705  33.469  29.061  1.00  0.00     0.074 A 
ATOM     64  C   UNL A   1      44.894  33.496  28.228  1.00  0.00     0.031 C 
ATOM     65  C   UNL A   1      42.737  34.390  29.359  1.00  0.00     0.034 A 
BRANCH  52  66
ATOM     66  C   UNL A   1      36.930  33.138  30.587  1.00  0.00     0.023 A 
ATOM     67  C   UNL A   1      36.023  33.673  29.649  1.00  0.00     0.031 A 
ATOM     68  C   UNL A   1      36.502  33.165  31.927  1.00  0.00     0.131 A 
ATOM     69  C   UNL A   1      34.827  34.289  30.052  1.00  0.00     0.055 A 
ATOM     70  C   UNL A   1      35.340  33.831  32.339  1.00  0.00     0.041 A 
ATOM     71  F   UNL A   1      37.166  32.505  32.888  1.00  0.00    -0.206 F 
ATOM     72  C   UNL A   1      34.500  34.411  31.400  1.00  0.00     0.022 A 
BRANCH  69  73
ATOM     73  S   UNL A   1      33.696  34.917  28.782  1.00  0.00     0.124 S 
ATOM     74  O   UNL A   1      33.410  33.719  28.001  1.00  0.00    -0.237 OA
ATOM     75  O   UNL A   1      32.596  35.444  29.583  1.00  0.00    -0.237 OA
ATOM     76  O   UNL A   1      34.494  35.928  28.089  1.00  0.00    -0.744 OA
ENDBRANCH  69  73
ENDBRANCH  52  66
BRANCH  53  77
ATOM     77  C   UNL A   1      45.254  29.036  28.079  1.00  0.00     0.023 A 
ATOM     78  C   UNL A   1      46.219  28.082  28.473  1.00  0.00     0.031 A 
ATOM     79  C   UNL A   1      44.532  28.791  26.904  1.00  0.00     0.131 A 
ATOM     80  C   UNL A   1      46.301  26.848  27.813  1.00  0.00     0.055 A 
ATOM     81  C   UNL A   1      44.687  27.595  26.193  1.00  0.00     0.041 A 
ATOM     82  F   UNL A   1      43.575  29.638  26.498  1.00  0.00    -0.206 F 
ATOM     83  C   UNL A   1      45.539  26.596  26.672  1.00  0.00     0.022 A 
BRANCH  80  84
ATOM     84  S   UNL A   1      47.181  25.492  28.649  1.00  0.00     0.124 S 
ATOM     85  O   UNL A   1      46.608  24.313  28.011  1.00  0.00    -0.237 OA
ATOM     86  O   UNL A   1      48.580  25.775  28.327  1.00  0.00    -0.237 OA
ATOM     87  O   UNL A   1      46.842  25.672  30.057  1.00  0.00    -0.744 OA
ENDBRANCH  80  84
ENDBRANCH  53  77
BRANCH  65  88
ATOM     88  C   UNL A   1      42.680  35.818  28.850  1.00  0.00     0.023 A 
ATOM     89  C   UNL A   1      43.104  36.921  29.607  1.00  0.00     0.031 A 
ATOM     90  C   UNL A   1      42.126  36.130  27.581  1.00  0.00     0.131 A 
ATOM     91  C   UNL A   1      43.053  38.227  29.081  1.00  0.00     0.055 A 
ATOM     92  C   UNL A   1      42.011  37.432  27.088  1.00  0.00     0.041 A 
ATOM     93  F   UNL A   1      41.692  35.182  26.740  1.00  0.00    -0.206 F 
ATOM     94  C   UNL A   1      42.492  38.493  27.833  1.00  0.00     0.022 A 
BRANCH  91  95
ATOM     95  S   UNL A   1      43.780  39.582  30.039  1.00  0.00     0.124 S 
ATOM     96  O   UNL A   1      42.850  40.679  29.793  1.00  0.00    -0.237 OA
ATOM     97  O   UNL A   1      43.766  39.031  31.391  1.00  0.00    -0.237 OA
ATOM     98  O   UNL A   1      45.108  39.748  29.453  1.00  0.00    -0.744 OA
ENDBRANCH  91  95
ENDBRANCH  65  88
ENDBRANCH  39  40
ENDBRANCH  31  34
ENDBRANCH  29  30
ENDBRANCH  28  29
ENDBRANCH   1  28
TORSDOF 18
ENDMDL
