MODEL 1
REMARK VINA RESULT:     -12.1      0.000      0.000
REMARK SMILES CC(C)Cn1ncnc1C[N@H+]1CC[C@H](C(=O)NCCCNC(=O)c2ccc(-c3c4nc(c(-c5cc(S(=O)(=O)[O-])ccc5F)c5ccc([nH]5)c(-c5cc(S(=O)(=O)[O-])ccc5F)c5nc(c(-c6cc(S(=O)(=O)[O-])ccc6F)c6ccc3[nH]6)C=C5)C=C4)cc2)[C@@H]1C
REMARK SMILES IDX 18 1 17 2 15 3 16 4 14 6 11 7 12 8 87 9 13 11 88 12 10 13
REMARK SMILES IDX 9 14 5 15 6 16 7 17 8 18 4 19 2 20 1 21 3 22 19 23 20 24
REMARK SMILES IDX 21 25 22 26 23 28 24 29 25 30 86 31 26 32 85 33 27 34 28 35
REMARK SMILES IDX 29 36 79 37 30 38 84 39 78 40 80 41 31 42 83 43 77 44 76 45
REMARK SMILES IDX 32 47 64 48 44 49 63 50 45 51 48 52 62 53 81 54 46 55 47 56
REMARK SMILES IDX 61 58 82 59 49 60 33 61 34 62 42 63 35 64 41 65 43 66 40 67
REMARK SMILES IDX 36 68 37 69 38 70 39 71 65 72 66 73 74 74 67 75 73 76 75 77
REMARK SMILES IDX 72 78 68 79 69 80 70 81 71 82 50 83 51 84 59 85 52 86 58 87
REMARK SMILES IDX 60 88 57 89 53 90 54 91 55 92 56 93
REMARK H PARENT 17 5 11 10 21 27 80 46 48 57
REMARK Flexibility Score: inf
ROOT
ATOM      1  C   UNL A   1      33.046  29.510  25.784  1.00  0.00     0.117 C 
ENDROOT
BRANCH   1   2
ATOM      2  N   UNL A   1      32.107  28.602  25.150  1.00  0.00    -0.356 N 
ATOM      3  C   UNL A   1      32.217  27.292  24.807  1.00  0.00     0.229 C 
ATOM      4  O   UNL A   1      31.147  26.686  24.655  1.00  0.00    -0.275 OA
ATOM      5  H   UNL A   1      31.237  29.007  24.930  1.00  0.00     0.163 HD
BRANCH   3   6
ATOM      6  C   UNL A   1      33.507  26.560  24.434  1.00  0.00     0.142 C 
ATOM      7  N   UNL A   1      33.304  24.224  23.939  1.00  0.00    -0.326 N 
ATOM      8  C   UNL A   1      33.405  24.389  25.399  1.00  0.00     0.263 C 
ATOM      9  C   UNL A   1      33.639  25.531  23.315  1.00  0.00     0.194 C 
ATOM     10  H   UNL A   1      32.349  23.973  23.683  1.00  0.00     0.348 HD
ATOM     11  C   UNL A   1      33.984  25.765  25.641  1.00  0.00     0.081 C 
ATOM     12  C   UNL A   1      32.919  25.866  22.008  1.00  0.00     0.076 C 
BRANCH   7  13
ATOM     13  C   UNL A   1      34.065  23.072  23.416  1.00  0.00     0.340 C 
BRANCH  13  14
ATOM     14  C   UNL A   1      33.633  21.731  23.933  1.00  0.00     0.182 A 
ATOM     15  N   UNL A   1      34.356  20.908  24.765  1.00  0.00    -0.245 N 
ATOM     16  N   UNL A   1      33.715  19.730  24.943  1.00  0.00    -0.159 NA
ATOM     17  C   UNL A   1      32.595  19.919  24.247  1.00  0.00     0.246 A 
ATOM     18  N   UNL A   1      32.488  21.133  23.650  1.00  0.00    -0.214 NA
BRANCH  15  19
ATOM     19  C   UNL A   1      35.528  21.185  25.581  1.00  0.00     0.149 C 
BRANCH  19  20
ATOM     20  C   UNL A   1      36.876  21.108  24.840  1.00  0.00     0.004 C 
ATOM     21  C   UNL A   1      37.939  21.997  25.492  1.00  0.00     0.009 C 
ATOM     22  C   UNL A   1      37.407  19.669  24.840  1.00  0.00     0.009 C 
ENDBRANCH  19  20
ENDBRANCH  15  19
ENDBRANCH  13  14
ENDBRANCH   7  13
ENDBRANCH   3   6
ENDBRANCH   1   2
BRANCH   1  23
ATOM     23  C   UNL A   1      33.447  29.147  27.210  1.00  0.00     0.042 C 
BRANCH  23  24
ATOM     24  C   UNL A   1      34.939  29.243  27.460  1.00  0.00     0.118 C 
BRANCH  24  25
ATOM     25  N   UNL A   1      35.281  30.037  28.644  1.00  0.00    -0.352 N 
ATOM     26  C   UNL A   1      36.421  29.942  29.434  1.00  0.00     0.251 C 
ATOM     27  H   UNL A   1      34.623  30.720  28.911  1.00  0.00     0.163 HD
ATOM     28  O   UNL A   1      36.474  30.444  30.533  1.00  0.00    -0.269 OA
BRANCH  26  29
ATOM     29  C   UNL A   1      37.545  29.164  28.873  1.00  0.00     0.039 A 
ATOM     30  C   UNL A   1      38.225  29.620  27.744  1.00  0.00     0.014 A 
ATOM     31  C   UNL A   1      38.048  28.136  29.658  1.00  0.00     0.014 A 
ATOM     32  C   UNL A   1      39.507  29.127  27.494  1.00  0.00     0.010 A 
ATOM     33  C   UNL A   1      39.369  27.781  29.496  1.00  0.00     0.010 A 
ATOM     34  C   UNL A   1      40.111  28.250  28.410  1.00  0.00    -0.014 A 
BRANCH  34  35
ATOM     35  C   UNL A   1      41.533  27.899  28.287  1.00  0.00     0.031 A 
ATOM     36  C   UNL A   1      41.895  26.706  27.463  1.00  0.00     0.074 A 
ATOM     37  C   UNL A   1      42.547  28.672  28.732  1.00  0.00     0.049 A 
ATOM     38  N   UNL A   1      42.322  25.563  27.889  1.00  0.00    -0.248 NA
ATOM     39  C   UNL A   1      41.712  26.751  26.006  1.00  0.00     0.031 C 
ATOM     40  C   UNL A   1      42.497  30.003  29.347  1.00  0.00     0.029 A 
ATOM     41  N   UNL A   1      43.885  28.440  28.629  1.00  0.00    -0.354 N 
ATOM     42  C   UNL A   1      42.657  24.803  26.768  1.00  0.00     0.074 A 
ATOM     43  C   UNL A   1      42.123  25.531  25.644  1.00  0.00     0.031 C 
ATOM     44  C   UNL A   1      43.726  30.559  29.332  1.00  0.00     0.029 A 
ATOM     45  C   UNL A   1      44.672  29.542  28.920  1.00  0.00     0.049 A 
ATOM     46  H   UNL A   1      44.260  27.568  28.372  1.00  0.00     0.167 HD
ATOM     47  C   UNL A   1      43.489  23.721  26.862  1.00  0.00     0.034 A 
ATOM     48  C   UNL A   1      46.021  29.632  28.891  1.00  0.00     0.034 A 
ATOM     49  C   UNL A   1      43.711  23.364  28.247  1.00  0.00     0.049 A 
ATOM     50  C   UNL A   1      46.542  28.265  29.116  1.00  0.00     0.074 A 
ATOM     51  C   UNL A   1      42.898  22.983  29.298  1.00  0.00     0.029 A 
ATOM     52  N   UNL A   1      44.905  23.733  28.827  1.00  0.00    -0.354 N 
ATOM     53  N   UNL A   1      46.350  27.607  30.228  1.00  0.00    -0.248 NA
ATOM     54  C   UNL A   1      46.878  27.441  27.967  1.00  0.00     0.031 C 
ATOM     55  C   UNL A   1      43.446  23.650  30.436  1.00  0.00     0.029 A 
ATOM     56  C   UNL A   1      44.595  24.330  30.023  1.00  0.00     0.049 A 
ATOM     57  H   UNL A   1      45.805  23.595  28.454  1.00  0.00     0.167 HD
ATOM     58  C   UNL A   1      46.101  26.302  29.837  1.00  0.00     0.074 A 
ATOM     59  C   UNL A   1      46.568  26.235  28.453  1.00  0.00     0.031 C 
ATOM     60  C   UNL A   1      45.296  25.476  30.571  1.00  0.00     0.034 A 
BRANCH  47  61
ATOM     61  C   UNL A   1      44.357  23.124  25.769  1.00  0.00     0.023 A 
ATOM     62  C   UNL A   1      44.143  21.765  25.436  1.00  0.00     0.031 A 
ATOM     63  C   UNL A   1      45.526  23.701  25.235  1.00  0.00     0.131 A 
ATOM     64  C   UNL A   1      45.095  21.028  24.710  1.00  0.00     0.055 A 
ATOM     65  C   UNL A   1      46.439  22.981  24.452  1.00  0.00     0.041 A 
ATOM     66  F   UNL A   1      45.898  24.956  25.509  1.00  0.00    -0.206 F 
ATOM     67  C   UNL A   1      46.246  21.630  24.212  1.00  0.00     0.022 A 
BRANCH  64  68
ATOM     68  S   UNL A   1      44.899  19.227  24.598  1.00  0.00     0.124 S 
ATOM     69  O   UNL A   1      45.565  18.779  25.816  1.00  0.00    -0.237 OA
ATOM     70  O   UNL A   1      43.447  19.085  24.567  1.00  0.00    -0.237 OA
ATOM     71  O   UNL A   1      45.586  18.888  23.354  1.00  0.00    -0.744 OA
ENDBRANCH  64  68
ENDBRANCH  47  61
BRANCH  48  72
ATOM     72  C   UNL A   1      46.805  30.811  28.467  1.00  0.00     0.023 A 
ATOM     73  C   UNL A   1      46.354  31.714  27.492  1.00  0.00     0.031 A 
ATOM     74  C   UNL A   1      47.960  31.177  29.199  1.00  0.00     0.131 A 
ATOM     75  C   UNL A   1      47.052  32.923  27.275  1.00  0.00     0.055 A 
ATOM     76  C   UNL A   1      48.652  32.367  28.973  1.00  0.00     0.041 A 
ATOM     77  F   UNL A   1      48.407  30.421  30.215  1.00  0.00    -0.206 F 
ATOM     78  C   UNL A   1      48.194  33.252  28.012  1.00  0.00     0.022 A 
BRANCH  75  79
ATOM     79  S   UNL A   1      46.403  34.143  26.094  1.00  0.00     0.124 S 
ATOM     80  O   UNL A   1      45.905  35.193  26.975  1.00  0.00    -0.237 OA
ATOM     81  O   UNL A   1      47.583  34.469  25.300  1.00  0.00    -0.237 OA
ATOM     82  O   UNL A   1      45.368  33.402  25.372  1.00  0.00    -0.744 OA
ENDBRANCH  75  79
ENDBRANCH  48  72
BRANCH  60  83
ATOM     83  C   UNL A   1      44.898  25.902  31.971  1.00  0.00     0.023 A 
ATOM     84  C   UNL A   1      43.819  26.765  32.266  1.00  0.00     0.031 A 
ATOM     85  C   UNL A   1      45.547  25.278  33.051  1.00  0.00     0.131 A 
ATOM     86  C   UNL A   1      43.431  26.980  33.603  1.00  0.00     0.055 A 
ATOM     87  C   UNL A   1      45.149  25.478  34.373  1.00  0.00     0.041 A 
ATOM     88  F   UNL A   1      46.557  24.419  32.834  1.00  0.00    -0.206 F 
ATOM     89  C   UNL A   1      44.090  26.334  34.654  1.00  0.00     0.022 A 
BRANCH  86  90
ATOM     90  S   UNL A   1      42.053  28.104  33.997  1.00  0.00     0.124 S 
ATOM     91  O   UNL A   1      41.430  27.486  35.161  1.00  0.00    -0.237 OA
ATOM     92  O   UNL A   1      42.735  29.373  34.235  1.00  0.00    -0.237 OA
ATOM     93  O   UNL A   1      41.234  28.075  32.783  1.00  0.00    -0.744 OA
ENDBRANCH  86  90
ENDBRANCH  60  83
ENDBRANCH  34  35
ENDBRANCH  26  29
ENDBRANCH  24  25
ENDBRANCH  23  24
ENDBRANCH   1  23
TORSDOF 17
ENDMDL
MODEL 2
REMARK VINA RESULT:     -11.4      2.646      7.256
REMARK SMILES CC(C)Cn1ncnc1C[N@H+]1CC[C@H](C(=O)NCCCNC(=O)c2ccc(-c3c4nc(c(-c5cc(S(=O)(=O)[O-])ccc5F)c5ccc([nH]5)c(-c5cc(S(=O)(=O)[O-])ccc5F)c5nc(c(-c6cc(S(=O)(=O)[O-])ccc6F)c6ccc3[nH]6)C=C5)C=C4)cc2)[C@@H]1C
REMARK SMILES IDX 18 1 17 2 15 3 16 4 14 6 11 7 12 8 87 9 13 11 88 12 10 13
REMARK SMILES IDX 9 14 5 15 6 16 7 17 8 18 4 19 2 20 1 21 3 22 19 23 20 24
REMARK SMILES IDX 21 25 22 26 23 28 24 29 25 30 86 31 26 32 85 33 27 34 28 35
REMARK SMILES IDX 29 36 79 37 30 38 84 39 78 40 80 41 31 42 83 43 77 44 76 45
REMARK SMILES IDX 32 47 64 48 44 49 63 50 45 51 48 52 62 53 81 54 46 55 47 56
REMARK SMILES IDX 61 58 82 59 49 60 33 61 34 62 42 63 35 64 41 65 43 66 40 67
REMARK SMILES IDX 36 68 37 69 38 70 39 71 65 72 66 73 74 74 67 75 73 76 75 77
REMARK SMILES IDX 72 78 68 79 69 80 70 81 71 82 50 83 51 84 59 85 52 86 58 87
REMARK SMILES IDX 60 88 57 89 53 90 54 91 55 92 56 93
REMARK H PARENT 17 5 11 10 21 27 80 46 48 57
REMARK Flexibility Score: inf
ROOT
ATOM      1  C   UNL A   1      32.309  30.092  25.806  1.00  0.00     0.117 C 
ENDROOT
BRANCH   1   2
ATOM      2  N   UNL A   1      33.296  29.492  24.926  1.00  0.00    -0.356 N 
ATOM      3  C   UNL A   1      33.179  28.547  23.957  1.00  0.00     0.229 C 
ATOM      4  O   UNL A   1      34.090  28.523  23.118  1.00  0.00    -0.275 OA
ATOM      5  H   UNL A   1      34.213  29.829  25.055  1.00  0.00     0.163 HD
BRANCH   3   6
ATOM      6  C   UNL A   1      32.139  27.427  23.908  1.00  0.00     0.142 C 
ATOM      7  N   UNL A   1      32.924  25.219  24.416  1.00  0.00    -0.326 N 
ATOM      8  C   UNL A   1      33.200  25.503  22.997  1.00  0.00     0.263 C 
ATOM      9  C   UNL A   1      32.026  26.290  24.922  1.00  0.00     0.194 C 
ATOM     10  H   UNL A   1      33.794  25.240  24.949  1.00  0.00     0.348 HD
ATOM     11  C   UNL A   1      32.308  26.660  22.604  1.00  0.00     0.081 C 
ATOM     12  C   UNL A   1      32.195  26.683  26.390  1.00  0.00     0.076 C 
BRANCH   7  13
ATOM     13  C   UNL A   1      32.453  23.843  24.667  1.00  0.00     0.340 C 
BRANCH  13  14
ATOM     14  C   UNL A   1      33.036  23.178  25.880  1.00  0.00     0.182 A 
ATOM     15  N   UNL A   1      34.198  22.444  25.926  1.00  0.00    -0.245 N 
ATOM     16  N   UNL A   1      34.367  21.898  27.152  1.00  0.00    -0.159 NA
ATOM     17  C   UNL A   1      33.316  22.380  27.814  1.00  0.00     0.246 A 
ATOM     18  N   UNL A   1      32.504  23.191  27.091  1.00  0.00    -0.214 NA
BRANCH  15  19
ATOM     19  C   UNL A   1      35.292  22.346  24.972  1.00  0.00     0.149 C 
BRANCH  19  20
ATOM     20  C   UNL A   1      36.694  22.206  25.596  1.00  0.00     0.004 C 
ATOM     21  C   UNL A   1      37.573  21.227  24.812  1.00  0.00     0.009 C 
ATOM     22  C   UNL A   1      37.409  23.563  25.616  1.00  0.00     0.009 C 
ENDBRANCH  19  20
ENDBRANCH  15  19
ENDBRANCH  13  14
ENDBRANCH   7  13
ENDBRANCH   3   6
ENDBRANCH   1   2
BRANCH   1  23
ATOM     23  C   UNL A   1      32.794  30.399  27.219  1.00  0.00     0.042 C 
BRANCH  23  24
ATOM     24  C   UNL A   1      33.913  31.421  27.264  1.00  0.00     0.118 C 
BRANCH  24  25
ATOM     25  N   UNL A   1      33.969  32.166  28.526  1.00  0.00    -0.352 N 
ATOM     26  C   UNL A   1      34.947  32.098  29.513  1.00  0.00     0.251 C 
ATOM     27  H   UNL A   1      33.225  32.789  28.694  1.00  0.00     0.163 HD
ATOM     28  O   UNL A   1      34.758  32.538  30.623  1.00  0.00    -0.269 OA
BRANCH  26  29
ATOM     29  C   UNL A   1      36.209  31.427  29.140  1.00  0.00     0.039 A 
ATOM     30  C   UNL A   1      37.431  32.078  29.306  1.00  0.00     0.014 A 
ATOM     31  C   UNL A   1      36.141  30.065  28.883  1.00  0.00     0.014 A 
ATOM     32  C   UNL A   1      38.594  31.309  29.362  1.00  0.00     0.010 A 
ATOM     33  C   UNL A   1      37.269  29.305  29.104  1.00  0.00     0.010 A 
ATOM     34  C   UNL A   1      38.510  29.908  29.325  1.00  0.00    -0.014 A 
BRANCH  34  35
ATOM     35  C   UNL A   1      39.688  29.077  29.610  1.00  0.00     0.031 A 
ATOM     36  C   UNL A   1      40.014  28.785  31.039  1.00  0.00     0.074 A 
ATOM     37  C   UNL A   1      40.404  28.426  28.668  1.00  0.00     0.049 A 
ATOM     38  N   UNL A   1      40.996  29.263  31.731  1.00  0.00    -0.248 NA
ATOM     39  C   UNL A   1      39.128  27.910  31.818  1.00  0.00     0.031 C 
ATOM     40  C   UNL A   1      40.164  28.329  27.224  1.00  0.00     0.029 A 
ATOM     41  N   UNL A   1      41.483  27.613  28.848  1.00  0.00    -0.354 N 
ATOM     42  C   UNL A   1      40.987  28.614  32.965  1.00  0.00     0.074 A 
ATOM     43  C   UNL A   1      39.733  27.905  33.011  1.00  0.00     0.031 C 
ATOM     44  C   UNL A   1      40.900  27.324  26.706  1.00  0.00     0.029 A 
ATOM     45  C   UNL A   1      41.819  26.869  27.729  1.00  0.00     0.049 A 
ATOM     46  H   UNL A   1      41.979  27.560  29.695  1.00  0.00     0.167 HD
ATOM     47  C   UNL A   1      42.095  28.594  33.768  1.00  0.00     0.034 A 
ATOM     48  C   UNL A   1      42.820  25.968  27.600  1.00  0.00     0.034 A 
ATOM     49  C   UNL A   1      43.095  29.523  33.286  1.00  0.00     0.049 A 
ATOM     50  C   UNL A   1      43.859  26.345  28.584  1.00  0.00     0.074 A 
ATOM     51  C   UNL A   1      43.132  30.886  33.063  1.00  0.00     0.029 A 
ATOM     52  N   UNL A   1      44.172  29.012  32.596  1.00  0.00    -0.354 N 
ATOM     53  N   UNL A   1      44.516  27.473  28.524  1.00  0.00    -0.248 NA
ATOM     54  C   UNL A   1      43.862  25.703  29.888  1.00  0.00     0.031 C 
ATOM     55  C   UNL A   1      43.872  31.032  31.850  1.00  0.00     0.029 A 
ATOM     56  C   UNL A   1      44.299  29.762  31.453  1.00  0.00     0.049 A 
ATOM     57  H   UNL A   1      44.739  28.256  32.869  1.00  0.00     0.167 HD
ATOM     58  C   UNL A   1      44.626  27.896  29.839  1.00  0.00     0.074 A 
ATOM     59  C   UNL A   1      44.323  26.709  30.637  1.00  0.00     0.031 C 
ATOM     60  C   UNL A   1      44.681  29.224  30.160  1.00  0.00     0.034 A 
BRANCH  47  61
ATOM     61  C   UNL A   1      42.453  27.564  34.824  1.00  0.00     0.023 A 
ATOM     62  C   UNL A   1      43.280  26.486  34.430  1.00  0.00     0.031 A 
ATOM     63  C   UNL A   1      41.839  27.426  36.085  1.00  0.00     0.131 A 
ATOM     64  C   UNL A   1      43.384  25.318  35.206  1.00  0.00     0.055 A 
ATOM     65  C   UNL A   1      42.002  26.289  36.889  1.00  0.00     0.041 A 
ATOM     66  F   UNL A   1      40.983  28.331  36.571  1.00  0.00    -0.206 F 
ATOM     67  C   UNL A   1      42.750  25.213  36.438  1.00  0.00     0.022 A 
BRANCH  64  68
ATOM     68  S   UNL A   1      44.202  23.866  34.486  1.00  0.00     0.124 S 
ATOM     69  O   UNL A   1      43.255  22.803  34.803  1.00  0.00    -0.237 OA
ATOM     70  O   UNL A   1      44.300  24.244  33.079  1.00  0.00    -0.237 OA
ATOM     71  O   UNL A   1      45.472  23.802  35.204  1.00  0.00    -0.744 OA
ENDBRANCH  64  68
ENDBRANCH  47  61
BRANCH  48  72
ATOM     72  C   UNL A   1      42.768  24.718  26.814  1.00  0.00     0.023 A 
ATOM     73  C   UNL A   1      43.757  24.362  25.884  1.00  0.00     0.031 A 
ATOM     74  C   UNL A   1      41.804  23.733  27.137  1.00  0.00     0.131 A 
ATOM     75  C   UNL A   1      43.756  23.070  25.314  1.00  0.00     0.055 A 
ATOM     76  C   UNL A   1      41.800  22.462  26.562  1.00  0.00     0.041 A 
ATOM     77  F   UNL A   1      40.878  23.952  28.085  1.00  0.00    -0.206 F 
ATOM     78  C   UNL A   1      42.785  22.121  25.651  1.00  0.00     0.022 A 
BRANCH  75  79
ATOM     79  S   UNL A   1      45.103  22.571  24.199  1.00  0.00     0.124 S 
ATOM     80  O   UNL A   1      45.846  23.815  24.036  1.00  0.00    -0.237 OA
ATOM     81  O   UNL A   1      45.765  21.516  24.959  1.00  0.00    -0.237 OA
ATOM     82  O   UNL A   1      44.400  22.111  23.001  1.00  0.00    -0.744 OA
ENDBRANCH  75  79
ENDBRANCH  48  72
BRANCH  60  83
ATOM     83  C   UNL A   1      44.907  30.234  29.052  1.00  0.00     0.023 A 
ATOM     84  C   UNL A   1      46.177  30.677  28.622  1.00  0.00     0.031 A 
ATOM     85  C   UNL A   1      43.788  30.639  28.303  1.00  0.00     0.131 A 
ATOM     86  C   UNL A   1      46.291  31.499  27.484  1.00  0.00     0.055 A 
ATOM     87  C   UNL A   1      43.905  31.437  27.165  1.00  0.00     0.041 A 
ATOM     88  F   UNL A   1      42.556  30.222  28.639  1.00  0.00    -0.206 F 
ATOM     89  C   UNL A   1      45.159  31.874  26.753  1.00  0.00     0.022 A 
BRANCH  86  90
ATOM     90  S   UNL A   1      47.922  32.091  26.931  1.00  0.00     0.124 S 
ATOM     91  O   UNL A   1      48.575  30.885  26.438  1.00  0.00    -0.237 OA
ATOM     92  O   UNL A   1      47.574  33.087  25.921  1.00  0.00    -0.237 OA
ATOM     93  O   UNL A   1      48.514  32.647  28.150  1.00  0.00    -0.744 OA
ENDBRANCH  86  90
ENDBRANCH  60  83
ENDBRANCH  34  35
ENDBRANCH  26  29
ENDBRANCH  24  25
ENDBRANCH  23  24
ENDBRANCH   1  23
TORSDOF 17
ENDMDL
MODEL 3
REMARK VINA RESULT:     -11.1      4.339     10.481
REMARK SMILES CC(C)Cn1ncnc1C[N@H+]1CC[C@H](C(=O)NCCCNC(=O)c2ccc(-c3c4nc(c(-c5cc(S(=O)(=O)[O-])ccc5F)c5ccc([nH]5)c(-c5cc(S(=O)(=O)[O-])ccc5F)c5nc(c(-c6cc(S(=O)(=O)[O-])ccc6F)c6ccc3[nH]6)C=C5)C=C4)cc2)[C@@H]1C
REMARK SMILES IDX 18 1 17 2 15 3 16 4 14 6 11 7 12 8 87 9 13 11 88 12 10 13
REMARK SMILES IDX 9 14 5 15 6 16 7 17 8 18 4 19 2 20 1 21 3 22 19 23 20 24
REMARK SMILES IDX 21 25 22 26 23 28 24 29 25 30 86 31 26 32 85 33 27 34 28 35
REMARK SMILES IDX 29 36 79 37 30 38 84 39 78 40 80 41 31 42 83 43 77 44 76 45
REMARK SMILES IDX 32 47 64 48 44 49 63 50 45 51 48 52 62 53 81 54 46 55 47 56
REMARK SMILES IDX 61 58 82 59 49 60 33 61 34 62 42 63 35 64 41 65 43 66 40 67
REMARK SMILES IDX 36 68 37 69 38 70 39 71 65 72 66 73 74 74 67 75 73 76 75 77
REMARK SMILES IDX 72 78 68 79 69 80 70 81 71 82 50 83 51 84 59 85 52 86 58 87
REMARK SMILES IDX 60 88 57 89 53 90 54 91 55 92 56 93
REMARK H PARENT 17 5 11 10 21 27 80 46 48 57
REMARK Flexibility Score: inf
ROOT
ATOM      1  C   UNL A   1      38.041  22.758  25.638  1.00  0.00     0.117 C 
ENDROOT
BRANCH   1   2
ATOM      2  N   UNL A   1      36.899  21.886  25.847  1.00  0.00    -0.356 N 
ATOM      3  C   UNL A   1      35.567  22.146  25.893  1.00  0.00     0.229 C 
ATOM      4  O   UNL A   1      34.823  21.177  25.689  1.00  0.00    -0.275 OA
ATOM      5  H   UNL A   1      37.132  20.938  25.981  1.00  0.00     0.163 HD
BRANCH   3   6
ATOM      6  C   UNL A   1      34.917  23.460  26.332  1.00  0.00     0.142 C 
ATOM      7  N   UNL A   1      32.735  23.917  25.451  1.00  0.00    -0.326 N 
ATOM      8  C   UNL A   1      33.741  24.338  24.461  1.00  0.00     0.263 C 
ATOM      9  C   UNL A   1      33.450  23.625  26.721  1.00  0.00     0.194 C 
ATOM     10  H   UNL A   1      32.270  23.067  25.133  1.00  0.00     0.348 HD
ATOM     11  C   UNL A   1      35.052  24.472  25.204  1.00  0.00     0.081 C 
ATOM     12  C   UNL A   1      32.860  22.517  27.596  1.00  0.00     0.076 C 
BRANCH   7  13
ATOM     13  C   UNL A   1      31.598  24.850  25.578  1.00  0.00     0.340 C 
BRANCH  13  14
ATOM     14  C   UNL A   1      31.970  26.296  25.726  1.00  0.00     0.182 A 
ATOM     15  N   UNL A   1      31.833  27.274  24.767  1.00  0.00    -0.245 N 
ATOM     16  N   UNL A   1      32.368  28.439  25.198  1.00  0.00    -0.159 NA
ATOM     17  C   UNL A   1      32.759  28.123  26.431  1.00  0.00     0.246 A 
ATOM     18  N   UNL A   1      32.501  26.845  26.806  1.00  0.00    -0.214 NA
BRANCH  15  19
ATOM     19  C   UNL A   1      31.069  27.282  23.530  1.00  0.00     0.149 C 
BRANCH  19  20
ATOM     20  C   UNL A   1      29.652  27.879  23.639  1.00  0.00     0.004 C 
ATOM     21  C   UNL A   1      29.315  28.772  22.441  1.00  0.00     0.009 C 
ATOM     22  C   UNL A   1      28.603  26.762  23.699  1.00  0.00     0.009 C 
ENDBRANCH  19  20
ENDBRANCH  15  19
ENDBRANCH  13  14
ENDBRANCH   7  13
ENDBRANCH   3   6
ENDBRANCH   1   2
BRANCH   1  23
ATOM     23  C   UNL A   1      39.247  22.483  26.531  1.00  0.00     0.042 C 
BRANCH  23  24
ATOM     24  C   UNL A   1      39.890  23.743  27.078  1.00  0.00     0.118 C 
BRANCH  24  25
ATOM     25  N   UNL A   1      40.857  24.348  26.158  1.00  0.00    -0.352 N 
ATOM     26  C   UNL A   1      41.035  25.698  25.875  1.00  0.00     0.251 C 
ATOM     27  H   UNL A   1      41.452  23.723  25.683  1.00  0.00     0.163 HD
ATOM     28  O   UNL A   1      41.660  26.066  24.907  1.00  0.00    -0.269 OA
BRANCH  26  29
ATOM     29  C   UNL A   1      40.388  26.653  26.798  1.00  0.00     0.039 A 
ATOM     30  C   UNL A   1      39.876  26.217  28.020  1.00  0.00     0.014 A 
ATOM     31  C   UNL A   1      40.553  28.002  26.521  1.00  0.00     0.014 A 
ATOM     32  C   UNL A   1      39.670  27.157  29.031  1.00  0.00     0.010 A 
ATOM     33  C   UNL A   1      40.504  28.893  27.570  1.00  0.00     0.010 A 
ATOM     34  C   UNL A   1      40.046  28.495  28.829  1.00  0.00    -0.014 A 
BRANCH  34  35
ATOM     35  C   UNL A   1      40.052  29.449  29.947  1.00  0.00     0.031 A 
ATOM     36  C   UNL A   1      38.790  30.195  30.241  1.00  0.00     0.074 A 
ATOM     37  C   UNL A   1      41.067  29.582  30.828  1.00  0.00     0.049 A 
ATOM     38  N   UNL A   1      38.555  31.448  30.028  1.00  0.00    -0.248 NA
ATOM     39  C   UNL A   1      37.632  29.471  30.779  1.00  0.00     0.031 C 
ATOM     40  C   UNL A   1      42.311  28.811  30.931  1.00  0.00     0.029 A 
ATOM     41  N   UNL A   1      41.138  30.412  31.905  1.00  0.00    -0.354 N 
ATOM     42  C   UNL A   1      37.305  31.734  30.578  1.00  0.00     0.074 A 
ATOM     43  C   UNL A   1      36.728  30.450  30.892  1.00  0.00     0.031 C 
ATOM     44  C   UNL A   1      42.884  29.030  32.132  1.00  0.00     0.029 A 
ATOM     45  C   UNL A   1      42.174  30.117  32.776  1.00  0.00     0.049 A 
ATOM     46  H   UNL A   1      40.511  31.156  32.052  1.00  0.00     0.167 HD
ATOM     47  C   UNL A   1      36.931  33.016  30.872  1.00  0.00     0.034 A 
ATOM     48  C   UNL A   1      42.492  30.742  33.932  1.00  0.00     0.034 A 
ATOM     49  C   UNL A   1      37.861  33.966  30.299  1.00  0.00     0.049 A 
ATOM     50  C   UNL A   1      41.990  32.129  33.817  1.00  0.00     0.074 A 
ATOM     51  C   UNL A   1      38.293  34.256  29.018  1.00  0.00     0.029 A 
ATOM     52  N   UNL A   1      38.787  34.549  31.135  1.00  0.00    -0.354 N 
ATOM     53  N   UNL A   1      42.443  32.976  32.930  1.00  0.00    -0.248 NA
ATOM     54  C   UNL A   1      40.681  32.452  34.360  1.00  0.00     0.031 C 
ATOM     55  C   UNL A   1      39.692  34.508  29.159  1.00  0.00     0.029 A 
ATOM     56  C   UNL A   1      40.007  34.429  30.518  1.00  0.00     0.049 A 
ATOM     57  H   UNL A   1      38.608  34.970  32.007  1.00  0.00     0.167 HD
ATOM     58  C   UNL A   1      41.326  33.664  32.485  1.00  0.00     0.074 A 
ATOM     59  C   UNL A   1      40.298  33.391  33.489  1.00  0.00     0.031 C 
ATOM     60  C   UNL A   1      41.253  34.162  31.214  1.00  0.00     0.034 A 
BRANCH  47  61
ATOM     61  C   UNL A   1      35.912  33.470  31.901  1.00  0.00     0.023 A 
ATOM     62  C   UNL A   1      34.820  34.243  31.441  1.00  0.00     0.031 A 
ATOM     63  C   UNL A   1      36.074  33.425  33.299  1.00  0.00     0.131 A 
ATOM     64  C   UNL A   1      34.028  34.995  32.326  1.00  0.00     0.055 A 
ATOM     65  C   UNL A   1      35.238  34.121  34.184  1.00  0.00     0.041 A 
ATOM     66  F   UNL A   1      37.094  32.787  33.885  1.00  0.00    -0.206 F 
ATOM     67  C   UNL A   1      34.229  34.937  33.700  1.00  0.00     0.022 A 
BRANCH  64  68
ATOM     68  S   UNL A   1      32.859  36.201  31.636  1.00  0.00     0.124 S 
ATOM     69  O   UNL A   1      33.649  37.427  31.656  1.00  0.00    -0.237 OA
ATOM     70  O   UNL A   1      32.584  35.633  30.320  1.00  0.00    -0.237 OA
ATOM     71  O   UNL A   1      31.742  36.166  32.576  1.00  0.00    -0.744 OA
ENDBRANCH  64  68
ENDBRANCH  47  61
BRANCH  48  72
ATOM     72  C   UNL A   1      43.010  30.095  35.156  1.00  0.00     0.023 A 
ATOM     73  C   UNL A   1      42.518  28.871  35.636  1.00  0.00     0.031 A 
ATOM     74  C   UNL A   1      44.179  30.605  35.770  1.00  0.00     0.131 A 
ATOM     75  C   UNL A   1      43.185  28.209  36.691  1.00  0.00     0.055 A 
ATOM     76  C   UNL A   1      44.827  29.953  36.819  1.00  0.00     0.041 A 
ATOM     77  F   UNL A   1      44.774  31.719  35.313  1.00  0.00    -0.206 F 
ATOM     78  C   UNL A   1      44.335  28.743  37.280  1.00  0.00     0.022 A 
BRANCH  75  79
ATOM     79  S   UNL A   1      42.615  26.571  37.234  1.00  0.00     0.124 S 
ATOM     80  O   UNL A   1      42.979  25.726  36.103  1.00  0.00    -0.237 OA
ATOM     81  O   UNL A   1      43.374  26.367  38.464  1.00  0.00    -0.237 OA
ATOM     82  O   UNL A   1      41.177  26.757  37.429  1.00  0.00    -0.744 OA
ENDBRANCH  75  79
ENDBRANCH  48  72
BRANCH  60  83
ATOM     83  C   UNL A   1      42.515  34.207  30.375  1.00  0.00     0.023 A 
ATOM     84  C   UNL A   1      42.882  33.222  29.432  1.00  0.00     0.031 A 
ATOM     85  C   UNL A   1      43.291  35.378  30.429  1.00  0.00     0.131 A 
ATOM     86  C   UNL A   1      43.993  33.427  28.591  1.00  0.00     0.055 A 
ATOM     87  C   UNL A   1      44.379  35.588  29.582  1.00  0.00     0.041 A 
ATOM     88  F   UNL A   1      42.972  36.368  31.280  1.00  0.00    -0.206 F 
ATOM     89  C   UNL A   1      44.737  34.610  28.661  1.00  0.00     0.022 A 
BRANCH  86  90
ATOM     90  S   UNL A   1      44.487  32.157  27.383  1.00  0.00     0.124 S 
ATOM     91  O   UNL A   1      44.159  32.761  26.097  1.00  0.00    -0.237 OA
ATOM     92  O   UNL A   1      45.910  31.985  27.664  1.00  0.00    -0.237 OA
ATOM     93  O   UNL A   1      43.655  31.005  27.742  1.00  0.00    -0.744 OA
ENDBRANCH  86  90
ENDBRANCH  60  83
ENDBRANCH  34  35
ENDBRANCH  26  29
ENDBRANCH  24  25
ENDBRANCH  23  24
ENDBRANCH   1  23
TORSDOF 17
ENDMDL
