MODEL 1
REMARK VINA RESULT:     -12.0      0.000      0.000
REMARK SMILES CN(CCS(C)(=O)=O)C(=O)Nc1cccc(C(=O)NCCCNC(=O)c2ccc(-c3c4nc(c(-c5cc(S(=O)(=O)[O-])ccc5F)c5ccc([nH]5)c(-c5cc(S(=O)(=O)[O-])ccc5F)c5nc(c(-c6cc(S(=O)(=O)[O-])ccc6F)c6ccc3[nH]6)C=C5)C=C4)cc2)c1
REMARK SMILES IDX 20 1 19 2 17 3 18 4 16 6 12 7 13 8 89 9 14 10 15 11 11 12
REMARK SMILES IDX 9 13 10 14 2 16 1 17 3 18 4 19 5 20 6 21 7 22 8 23 21 24
REMARK SMILES IDX 22 25 23 26 24 27 25 29 26 30 27 31 88 32 28 33 87 34 29 35
REMARK SMILES IDX 30 36 31 37 81 38 32 39 86 40 80 41 82 42 33 43 85 44 79 45
REMARK SMILES IDX 78 46 34 48 66 49 46 50 65 51 47 52 50 53 64 54 83 55 48 56
REMARK SMILES IDX 49 57 63 59 84 60 51 61 35 62 36 63 44 64 37 65 43 66 45 67
REMARK SMILES IDX 42 68 38 69 39 70 40 71 41 72 67 73 68 74 76 75 69 76 75 77
REMARK SMILES IDX 77 78 74 79 70 80 71 81 72 82 73 83 52 84 53 85 61 86 54 87
REMARK SMILES IDX 60 88 62 89 59 90 55 91 56 92 57 93 58 94
REMARK H PARENT 19 5 11 15 23 28 82 47 50 58
REMARK Flexibility Score: inf
ROOT
ATOM      1  C   UNL A   1      31.598  30.586  26.351  1.00  0.00     0.118 C 
ENDROOT
BRANCH   1   2
ATOM      2  N   UNL A   1      32.377  30.152  25.208  1.00  0.00    -0.352 N 
ATOM      3  C   UNL A   1      32.234  29.075  24.347  1.00  0.00     0.251 C 
ATOM      4  O   UNL A   1      33.063  28.980  23.439  1.00  0.00    -0.269 OA
ATOM      5  H   UNL A   1      33.149  30.728  25.006  1.00  0.00     0.163 HD
BRANCH   3   6
ATOM      6  C   UNL A   1      31.173  28.003  24.439  1.00  0.00     0.041 A 
ATOM      7  C   UNL A   1      30.159  25.971  25.434  1.00  0.00     0.043 A 
ATOM      8  C   UNL A   1      29.133  26.083  24.479  1.00  0.00     0.026 A 
ATOM      9  C   UNL A   1      31.146  26.969  25.397  1.00  0.00     0.040 A 
ATOM     10  C   UNL A   1      29.094  27.126  23.552  1.00  0.00     0.003 A 
ATOM     11  C   UNL A   1      30.110  28.079  23.534  1.00  0.00     0.014 A 
BRANCH   7  12
ATOM     12  N   UNL A   1      30.041  24.815  26.250  1.00  0.00    -0.308 N 
ATOM     13  C   UNL A   1      30.544  23.630  26.650  1.00  0.00     0.321 C 
ATOM     14  O   UNL A   1      29.835  23.078  27.505  1.00  0.00    -0.248 OA
ATOM     15  H   UNL A   1      29.208  24.934  26.759  1.00  0.00     0.171 HD
BRANCH  13  16
ATOM     16  N   UNL A   1      31.676  23.028  26.220  1.00  0.00    -0.327 N 
ATOM     17  C   UNL A   1      31.582  21.759  25.493  1.00  0.00     0.148 C 
BRANCH  16  18
ATOM     18  C   UNL A   1      33.017  23.476  26.390  1.00  0.00     0.137 C 
BRANCH  18  19
ATOM     19  C   UNL A   1      33.940  23.374  25.196  1.00  0.00     0.158 C 
BRANCH  19  20
ATOM     20  S   UNL A   1      33.879  24.360  23.712  1.00  0.00     0.149 S 
ATOM     21  C   UNL A   1      32.304  24.448  22.896  1.00  0.00     0.158 C 
ATOM     22  O   UNL A   1      34.115  25.720  24.160  1.00  0.00    -0.229 OA
ATOM     23  O   UNL A   1      34.792  23.751  22.758  1.00  0.00    -0.229 OA
ENDBRANCH  19  20
ENDBRANCH  18  19
ENDBRANCH  16  18
ENDBRANCH  13  16
ENDBRANCH   7  12
ENDBRANCH   3   6
ENDBRANCH   1   2
BRANCH   1  24
ATOM     24  C   UNL A   1      31.524  32.087  26.636  1.00  0.00     0.042 C 
BRANCH  24  25
ATOM     25  C   UNL A   1      32.697  32.789  27.323  1.00  0.00     0.118 C 
BRANCH  25  26
ATOM     26  N   UNL A   1      32.445  34.151  27.794  1.00  0.00    -0.352 N 
ATOM     27  C   UNL A   1      33.108  34.974  28.690  1.00  0.00     0.251 C 
ATOM     28  H   UNL A   1      31.647  34.566  27.395  1.00  0.00     0.163 HD
ATOM     29  O   UNL A   1      32.630  36.095  28.881  1.00  0.00    -0.269 OA
BRANCH  27  30
ATOM     30  C   UNL A   1      34.319  34.559  29.460  1.00  0.00     0.039 A 
ATOM     31  C   UNL A   1      34.167  34.125  30.786  1.00  0.00     0.014 A 
ATOM     32  C   UNL A   1      35.606  34.601  28.930  1.00  0.00     0.014 A 
ATOM     33  C   UNL A   1      35.264  33.629  31.511  1.00  0.00     0.010 A 
ATOM     34  C   UNL A   1      36.673  33.997  29.603  1.00  0.00     0.010 A 
ATOM     35  C   UNL A   1      36.520  33.491  30.901  1.00  0.00    -0.014 A 
BRANCH  35  36
ATOM     36  C   UNL A   1      37.667  32.813  31.583  1.00  0.00     0.031 A 
ATOM     37  C   UNL A   1      38.386  31.658  30.925  1.00  0.00     0.074 A 
ATOM     38  C   UNL A   1      38.011  33.177  32.838  1.00  0.00     0.049 A 
ATOM     39  N   UNL A   1      39.336  30.890  31.399  1.00  0.00    -0.248 NA
ATOM     40  C   UNL A   1      37.950  31.295  29.569  1.00  0.00     0.031 C 
ATOM     41  C   UNL A   1      37.361  34.231  33.620  1.00  0.00     0.029 A 
ATOM     42  N   UNL A   1      38.984  32.698  33.685  1.00  0.00    -0.354 N 
ATOM     43  C   UNL A   1      39.594  29.944  30.412  1.00  0.00     0.074 A 
ATOM     44  C   UNL A   1      38.650  30.193  29.344  1.00  0.00     0.031 C 
ATOM     45  C   UNL A   1      37.973  34.346  34.809  1.00  0.00     0.029 A 
ATOM     46  C   UNL A   1      39.025  33.338  34.904  1.00  0.00     0.049 A 
ATOM     47  H   UNL A   1      39.595  31.966  33.442  1.00  0.00     0.167 HD
ATOM     48  C   UNL A   1      40.545  28.974  30.382  1.00  0.00     0.034 A 
ATOM     49  C   UNL A   1      39.806  33.135  35.985  1.00  0.00     0.034 A 
ATOM     50  C   UNL A   1      41.494  28.748  31.447  1.00  0.00     0.049 A 
ATOM     51  C   UNL A   1      40.849  32.046  35.934  1.00  0.00     0.074 A 
ATOM     52  C   UNL A   1      42.541  27.842  31.490  1.00  0.00     0.029 A 
ATOM     53  N   UNL A   1      41.507  29.423  32.662  1.00  0.00    -0.354 N 
ATOM     54  N   UNL A   1      41.122  31.206  34.961  1.00  0.00    -0.248 NA
ATOM     55  C   UNL A   1      41.697  31.888  37.121  1.00  0.00     0.031 C 
ATOM     56  C   UNL A   1      43.134  27.914  32.755  1.00  0.00     0.029 A 
ATOM     57  C   UNL A   1      42.519  28.926  33.473  1.00  0.00     0.049 A 
ATOM     58  H   UNL A   1      40.889  30.147  32.910  1.00  0.00     0.167 HD
ATOM     59  C   UNL A   1      42.192  30.437  35.413  1.00  0.00     0.074 A 
ATOM     60  C   UNL A   1      42.530  30.935  36.732  1.00  0.00     0.031 C 
ATOM     61  C   UNL A   1      42.836  29.414  34.797  1.00  0.00     0.034 A 
BRANCH  48  62
ATOM     62  C   UNL A   1      40.590  28.075  29.166  1.00  0.00     0.023 A 
ATOM     63  C   UNL A   1      41.530  28.264  28.138  1.00  0.00     0.031 A 
ATOM     64  C   UNL A   1      39.665  27.024  29.019  1.00  0.00     0.131 A 
ATOM     65  C   UNL A   1      41.473  27.478  26.976  1.00  0.00     0.055 A 
ATOM     66  C   UNL A   1      39.671  26.186  27.901  1.00  0.00     0.041 A 
ATOM     67  F   UNL A   1      38.728  26.801  29.954  1.00  0.00    -0.206 F 
ATOM     68  C   UNL A   1      40.567  26.421  26.863  1.00  0.00     0.022 A 
BRANCH  65  69
ATOM     69  S   UNL A   1      42.490  27.958  25.553  1.00  0.00     0.124 S 
ATOM     70  O   UNL A   1      41.617  28.916  24.878  1.00  0.00    -0.237 OA
ATOM     71  O   UNL A   1      43.678  28.515  26.189  1.00  0.00    -0.237 OA
ATOM     72  O   UNL A   1      42.694  26.701  24.837  1.00  0.00    -0.744 OA
ENDBRANCH  65  69
ENDBRANCH  48  62
BRANCH  49  73
ATOM     73  C   UNL A   1      39.637  33.966  37.215  1.00  0.00     0.023 A 
ATOM     74  C   UNL A   1      38.974  33.463  38.346  1.00  0.00     0.031 A 
ATOM     75  C   UNL A   1      40.094  35.296  37.262  1.00  0.00     0.131 A 
ATOM     76  C   UNL A   1      38.746  34.294  39.455  1.00  0.00     0.055 A 
ATOM     77  C   UNL A   1      39.920  36.099  38.390  1.00  0.00     0.041 A 
ATOM     78  F   UNL A   1      40.731  35.832  36.208  1.00  0.00    -0.206 F 
ATOM     79  C   UNL A   1      39.229  35.603  39.492  1.00  0.00     0.022 A 
BRANCH  76  80
ATOM     80  S   UNL A   1      37.722  33.668  40.817  1.00  0.00     0.124 S 
ATOM     81  O   UNL A   1      37.381  34.899  41.521  1.00  0.00    -0.237 OA
ATOM     82  O   UNL A   1      36.630  33.016  40.101  1.00  0.00    -0.237 OA
ATOM     83  O   UNL A   1      38.621  32.767  41.534  1.00  0.00    -0.744 OA
ENDBRANCH  76  80
ENDBRANCH  49  73
BRANCH  61  84
ATOM     84  C   UNL A   1      43.995  28.789  35.538  1.00  0.00     0.023 A 
ATOM     85  C   UNL A   1      43.827  27.659  36.357  1.00  0.00     0.031 A 
ATOM     86  C   UNL A   1      45.281  29.352  35.451  1.00  0.00     0.131 A 
ATOM     87  C   UNL A   1      44.904  27.176  37.116  1.00  0.00     0.055 A 
ATOM     88  C   UNL A   1      46.367  28.821  36.148  1.00  0.00     0.041 A 
ATOM     89  F   UNL A   1      45.505  30.434  34.687  1.00  0.00    -0.206 F 
ATOM     90  C   UNL A   1      46.178  27.737  37.002  1.00  0.00     0.022 A 
BRANCH  87  91
ATOM     91  S   UNL A   1      44.588  25.886  38.351  1.00  0.00     0.124 S 
ATOM     92  O   UNL A   1      43.650  25.016  37.648  1.00  0.00    -0.237 OA
ATOM     93  O   UNL A   1      45.922  25.336  38.576  1.00  0.00    -0.237 OA
ATOM     94  O   UNL A   1      44.024  26.622  39.480  1.00  0.00    -0.744 OA
ENDBRANCH  87  91
ENDBRANCH  61  84
ENDBRANCH  35  36
ENDBRANCH  27  30
ENDBRANCH  25  26
ENDBRANCH  24  25
ENDBRANCH   1  24
TORSDOF 18
ENDMDL
MODEL 2
REMARK VINA RESULT:     -12.0      5.724     11.036
REMARK SMILES CN(CCS(C)(=O)=O)C(=O)Nc1cccc(C(=O)NCCCNC(=O)c2ccc(-c3c4nc(c(-c5cc(S(=O)(=O)[O-])ccc5F)c5ccc([nH]5)c(-c5cc(S(=O)(=O)[O-])ccc5F)c5nc(c(-c6cc(S(=O)(=O)[O-])ccc6F)c6ccc3[nH]6)C=C5)C=C4)cc2)c1
REMARK SMILES IDX 20 1 19 2 17 3 18 4 16 6 12 7 13 8 89 9 14 10 15 11 11 12
REMARK SMILES IDX 9 13 10 14 2 16 1 17 3 18 4 19 5 20 6 21 7 22 8 23 21 24
REMARK SMILES IDX 22 25 23 26 24 27 25 29 26 30 27 31 88 32 28 33 87 34 29 35
REMARK SMILES IDX 30 36 31 37 81 38 32 39 86 40 80 41 82 42 33 43 85 44 79 45
REMARK SMILES IDX 78 46 34 48 66 49 46 50 65 51 47 52 50 53 64 54 83 55 48 56
REMARK SMILES IDX 49 57 63 59 84 60 51 61 35 62 36 63 44 64 37 65 43 66 45 67
REMARK SMILES IDX 42 68 38 69 39 70 40 71 41 72 67 73 68 74 76 75 69 76 75 77
REMARK SMILES IDX 77 78 74 79 70 80 71 81 72 82 73 83 52 84 53 85 61 86 54 87
REMARK SMILES IDX 60 88 62 89 59 90 55 91 56 92 57 93 58 94
REMARK H PARENT 19 5 11 15 23 28 82 47 50 58
REMARK Flexibility Score: inf
ROOT
ATOM      1  C   UNL A   1      34.077  21.456  26.966  1.00  0.00     0.118 C 
ENDROOT
BRANCH   1   2
ATOM      2  N   UNL A   1      32.869  22.084  27.459  1.00  0.00    -0.352 N 
ATOM      3  C   UNL A   1      32.013  23.016  26.892  1.00  0.00     0.251 C 
ATOM      4  O   UNL A   1      31.036  23.352  27.567  1.00  0.00    -0.269 OA
ATOM      5  H   UNL A   1      32.606  21.797  28.364  1.00  0.00     0.163 HD
BRANCH   3   6
ATOM      6  C   UNL A   1      32.185  23.668  25.540  1.00  0.00     0.041 A 
ATOM      7  C   UNL A   1      32.866  25.528  24.049  1.00  0.00     0.043 A 
ATOM      8  C   UNL A   1      32.434  24.743  22.965  1.00  0.00     0.026 A 
ATOM      9  C   UNL A   1      32.750  24.940  25.319  1.00  0.00     0.040 A 
ATOM     10  C   UNL A   1      31.923  23.455  23.139  1.00  0.00     0.003 A 
ATOM     11  C   UNL A   1      31.800  22.924  24.420  1.00  0.00     0.014 A 
BRANCH   7  12
ATOM     12  N   UNL A   1      33.305  26.823  23.665  1.00  0.00    -0.308 N 
ATOM     13  C   UNL A   1      33.015  28.121  23.450  1.00  0.00     0.321 C 
ATOM     14  O   UNL A   1      34.005  28.773  23.082  1.00  0.00    -0.248 OA
ATOM     15  H   UNL A   1      34.263  26.727  23.462  1.00  0.00     0.171 HD
BRANCH  13  16
ATOM     16  N   UNL A   1      31.815  28.730  23.583  1.00  0.00    -0.327 N 
ATOM     17  C   UNL A   1      31.429  29.277  24.886  1.00  0.00     0.148 C 
BRANCH  16  18
ATOM     18  C   UNL A   1      30.821  28.919  22.582  1.00  0.00     0.137 C 
BRANCH  18  19
ATOM     19  C   UNL A   1      29.382  28.672  22.977  1.00  0.00     0.158 C 
BRANCH  19  20
ATOM     20  S   UNL A   1      27.980  29.708  22.609  1.00  0.00     0.149 S 
ATOM     21  C   UNL A   1      27.995  31.330  23.332  1.00  0.00     0.158 C 
ATOM     22  O   UNL A   1      28.071  29.962  21.183  1.00  0.00    -0.229 OA
ATOM     23  O   UNL A   1      26.805  29.040  23.144  1.00  0.00    -0.229 OA
ENDBRANCH  19  20
ENDBRANCH  18  19
ENDBRANCH  16  18
ENDBRANCH  13  16
ENDBRANCH   7  12
ENDBRANCH   3   6
ENDBRANCH   1   2
BRANCH   1  24
ATOM     24  C   UNL A   1      35.265  22.359  26.628  1.00  0.00     0.042 C 
BRANCH  24  25
ATOM     25  C   UNL A   1      36.010  22.171  25.305  1.00  0.00     0.118 C 
BRANCH  25  26
ATOM     26  N   UNL A   1      37.118  21.217  25.320  1.00  0.00    -0.352 N 
ATOM     27  C   UNL A   1      38.429  21.305  25.760  1.00  0.00     0.251 C 
ATOM     28  H   UNL A   1      36.887  20.337  24.944  1.00  0.00     0.163 HD
ATOM     29  O   UNL A   1      39.133  20.300  25.627  1.00  0.00    -0.269 OA
BRANCH  27  30
ATOM     30  C   UNL A   1      39.034  22.547  26.328  1.00  0.00     0.039 A 
ATOM     31  C   UNL A   1      40.124  22.433  27.205  1.00  0.00     0.014 A 
ATOM     32  C   UNL A   1      38.555  23.823  26.044  1.00  0.00     0.014 A 
ATOM     33  C   UNL A   1      40.788  23.578  27.680  1.00  0.00     0.010 A 
ATOM     34  C   UNL A   1      39.285  24.957  26.414  1.00  0.00     0.010 A 
ATOM     35  C   UNL A   1      40.420  24.855  27.230  1.00  0.00    -0.014 A 
BRANCH  35  36
ATOM     36  C   UNL A   1      41.207  26.079  27.579  1.00  0.00     0.031 A 
ATOM     37  C   UNL A   1      40.587  27.193  28.391  1.00  0.00     0.074 A 
ATOM     38  C   UNL A   1      42.458  26.233  27.093  1.00  0.00     0.049 A 
ATOM     39  N   UNL A   1      41.080  28.364  28.710  1.00  0.00    -0.248 NA
ATOM     40  C   UNL A   1      39.215  26.975  28.872  1.00  0.00     0.031 C 
ATOM     41  C   UNL A   1      43.159  25.268  26.242  1.00  0.00     0.029 A 
ATOM     42  N   UNL A   1      43.363  27.260  27.232  1.00  0.00    -0.354 N 
ATOM     43  C   UNL A   1      40.074  29.027  29.408  1.00  0.00     0.074 A 
ATOM     44  C   UNL A   1      38.921  28.153  29.400  1.00  0.00     0.031 C 
ATOM     45  C   UNL A   1      44.390  25.728  25.969  1.00  0.00     0.029 A 
ATOM     46  C   UNL A   1      44.555  27.046  26.574  1.00  0.00     0.049 A 
ATOM     47  H   UNL A   1      43.177  28.074  27.753  1.00  0.00     0.167 HD
ATOM     48  C   UNL A   1      40.113  30.238  30.021  1.00  0.00     0.034 A 
ATOM     49  C   UNL A   1      45.653  27.820  26.456  1.00  0.00     0.034 A 
ATOM     50  C   UNL A   1      41.277  31.094  30.037  1.00  0.00     0.049 A 
ATOM     51  C   UNL A   1      45.670  29.166  27.137  1.00  0.00     0.074 A 
ATOM     52  C   UNL A   1      41.447  32.305  30.686  1.00  0.00     0.029 A 
ATOM     53  N   UNL A   1      42.466  30.836  29.366  1.00  0.00    -0.354 N 
ATOM     54  N   UNL A   1      44.731  29.745  27.851  1.00  0.00    -0.248 NA
ATOM     55  C   UNL A   1      46.900  29.956  27.007  1.00  0.00     0.031 C 
ATOM     56  C   UNL A   1      42.704  32.815  30.344  1.00  0.00     0.029 A 
ATOM     57  C   UNL A   1      43.357  31.883  29.555  1.00  0.00     0.049 A 
ATOM     58  H   UNL A   1      42.649  30.029  28.834  1.00  0.00     0.167 HD
ATOM     59  C   UNL A   1      45.270  30.957  28.275  1.00  0.00     0.074 A 
ATOM     60  C   UNL A   1      46.625  31.009  27.761  1.00  0.00     0.031 C 
ATOM     61  C   UNL A   1      44.700  31.938  29.020  1.00  0.00     0.034 A 
BRANCH  48  62
ATOM     62  C   UNL A   1      38.851  30.716  30.708  1.00  0.00     0.023 A 
ATOM     63  C   UNL A   1      37.779  31.269  29.988  1.00  0.00     0.031 A 
ATOM     64  C   UNL A   1      38.727  30.638  32.108  1.00  0.00     0.131 A 
ATOM     65  C   UNL A   1      36.671  31.799  30.669  1.00  0.00     0.055 A 
ATOM     66  C   UNL A   1      37.582  31.083  32.774  1.00  0.00     0.041 A 
ATOM     67  F   UNL A   1      39.723  30.138  32.857  1.00  0.00    -0.206 F 
ATOM     68  C   UNL A   1      36.553  31.684  32.055  1.00  0.00     0.022 A 
BRANCH  65  69
ATOM     69  S   UNL A   1      35.466  32.779  29.733  1.00  0.00     0.124 S 
ATOM     70  O   UNL A   1      35.277  31.954  28.541  1.00  0.00    -0.237 OA
ATOM     71  O   UNL A   1      34.333  32.846  30.649  1.00  0.00    -0.237 OA
ATOM     72  O   UNL A   1      36.158  34.045  29.501  1.00  0.00    -0.744 OA
ENDBRANCH  65  69
ENDBRANCH  48  62
BRANCH  49  73
ATOM     73  C   UNL A   1      46.828  27.359  25.656  1.00  0.00     0.023 A 
ATOM     74  C   UNL A   1      47.039  27.816  24.346  1.00  0.00     0.031 A 
ATOM     75  C   UNL A   1      47.733  26.415  26.175  1.00  0.00     0.131 A 
ATOM     76  C   UNL A   1      48.098  27.299  23.582  1.00  0.00     0.055 A 
ATOM     77  C   UNL A   1      48.821  25.949  25.434  1.00  0.00     0.041 A 
ATOM     78  F   UNL A   1      47.579  25.939  27.421  1.00  0.00    -0.206 F 
ATOM     79  C   UNL A   1      49.000  26.380  24.123  1.00  0.00     0.022 A 
BRANCH  76  80
ATOM     80  S   UNL A   1      48.225  27.771  21.834  1.00  0.00     0.124 S 
ATOM     81  O   UNL A   1      49.374  28.669  21.852  1.00  0.00    -0.237 OA
ATOM     82  O   UNL A   1      48.430  26.480  21.186  1.00  0.00    -0.237 OA
ATOM     83  O   UNL A   1      46.939  28.407  21.559  1.00  0.00    -0.744 OA
ENDBRANCH  76  80
ENDBRANCH  49  73
BRANCH  61  84
ATOM     84  C   UNL A   1      45.561  33.136  29.349  1.00  0.00     0.023 A 
ATOM     85  C   UNL A   1      45.586  34.276  28.526  1.00  0.00     0.031 A 
ATOM     86  C   UNL A   1      46.393  33.124  30.483  1.00  0.00     0.131 A 
ATOM     87  C   UNL A   1      46.480  35.321  28.804  1.00  0.00     0.055 A 
ATOM     88  C   UNL A   1      47.224  34.200  30.798  1.00  0.00     0.041 A 
ATOM     89  F   UNL A   1      46.415  32.062  31.305  1.00  0.00    -0.206 F 
ATOM     90  C   UNL A   1      47.286  35.299  29.946  1.00  0.00     0.022 A 
BRANCH  87  91
ATOM     91  S   UNL A   1      46.670  36.650  27.585  1.00  0.00     0.124 S 
ATOM     92  O   UNL A   1      45.581  37.551  27.946  1.00  0.00    -0.237 OA
ATOM     93  O   UNL A   1      48.019  37.137  27.861  1.00  0.00    -0.237 OA
ATOM     94  O   UNL A   1      46.510  35.966  26.304  1.00  0.00    -0.744 OA
ENDBRANCH  87  91
ENDBRANCH  61  84
ENDBRANCH  35  36
ENDBRANCH  27  30
ENDBRANCH  25  26
ENDBRANCH  24  25
ENDBRANCH   1  24
TORSDOF 18
ENDMDL
MODEL 3
REMARK VINA RESULT:     -11.9      5.732      9.260
REMARK SMILES CN(CCS(C)(=O)=O)C(=O)Nc1cccc(C(=O)NCCCNC(=O)c2ccc(-c3c4nc(c(-c5cc(S(=O)(=O)[O-])ccc5F)c5ccc([nH]5)c(-c5cc(S(=O)(=O)[O-])ccc5F)c5nc(c(-c6cc(S(=O)(=O)[O-])ccc6F)c6ccc3[nH]6)C=C5)C=C4)cc2)c1
REMARK SMILES IDX 20 1 19 2 17 3 18 4 16 6 12 7 13 8 89 9 14 10 15 11 11 12
REMARK SMILES IDX 9 13 10 14 2 16 1 17 3 18 4 19 5 20 6 21 7 22 8 23 21 24
REMARK SMILES IDX 22 25 23 26 24 27 25 29 26 30 27 31 88 32 28 33 87 34 29 35
REMARK SMILES IDX 30 36 31 37 81 38 32 39 86 40 80 41 82 42 33 43 85 44 79 45
REMARK SMILES IDX 78 46 34 48 66 49 46 50 65 51 47 52 50 53 64 54 83 55 48 56
REMARK SMILES IDX 49 57 63 59 84 60 51 61 35 62 36 63 44 64 37 65 43 66 45 67
REMARK SMILES IDX 42 68 38 69 39 70 40 71 41 72 67 73 68 74 76 75 69 76 75 77
REMARK SMILES IDX 77 78 74 79 70 80 71 81 72 82 73 83 52 84 53 85 61 86 54 87
REMARK SMILES IDX 60 88 62 89 59 90 55 91 56 92 57 93 58 94
REMARK H PARENT 19 5 11 15 23 28 82 47 50 58
REMARK Flexibility Score: inf
ROOT
ATOM      1  C   UNL A   1      35.727  19.580  24.698  1.00  0.00     0.118 C 
ENDROOT
BRANCH   1   2
ATOM      2  N   UNL A   1      34.349  19.240  24.993  1.00  0.00    -0.352 N 
ATOM      3  C   UNL A   1      33.196  20.009  25.042  1.00  0.00     0.251 C 
ATOM      4  O   UNL A   1      32.148  19.416  25.309  1.00  0.00    -0.269 OA
ATOM      5  H   UNL A   1      34.205  18.287  25.196  1.00  0.00     0.163 HD
BRANCH   3   6
ATOM      6  C   UNL A   1      33.118  21.501  24.820  1.00  0.00     0.041 A 
ATOM      7  C   UNL A   1      33.016  23.525  23.391  1.00  0.00     0.043 A 
ATOM      8  C   UNL A   1      32.979  24.288  24.572  1.00  0.00     0.026 A 
ATOM      9  C   UNL A   1      33.058  22.131  23.561  1.00  0.00     0.040 A 
ATOM     10  C   UNL A   1      32.978  23.697  25.837  1.00  0.00     0.003 A 
ATOM     11  C   UNL A   1      33.047  22.312  25.957  1.00  0.00     0.014 A 
BRANCH   7  12
ATOM     12  N   UNL A   1      33.059  24.316  22.213  1.00  0.00    -0.308 N 
ATOM     13  C   UNL A   1      32.849  25.505  21.615  1.00  0.00     0.321 C 
ATOM     14  O   UNL A   1      33.143  25.488  20.409  1.00  0.00    -0.248 OA
ATOM     15  H   UNL A   1      33.400  23.721  21.508  1.00  0.00     0.171 HD
BRANCH  13  16
ATOM     16  N   UNL A   1      32.368  26.637  22.177  1.00  0.00    -0.327 N 
ATOM     17  C   UNL A   1      33.305  27.681  22.601  1.00  0.00     0.148 C 
BRANCH  16  18
ATOM     18  C   UNL A   1      31.008  26.970  22.435  1.00  0.00     0.137 C 
BRANCH  18  19
ATOM     19  C   UNL A   1      30.722  28.354  22.973  1.00  0.00     0.158 C 
BRANCH  19  20
ATOM     20  S   UNL A   1      29.290  29.359  22.630  1.00  0.00     0.149 S 
ATOM     21  C   UNL A   1      29.151  30.865  23.559  1.00  0.00     0.158 C 
ATOM     22  O   UNL A   1      29.473  29.809  21.262  1.00  0.00    -0.229 OA
ATOM     23  O   UNL A   1      28.121  28.565  22.973  1.00  0.00    -0.229 OA
ENDBRANCH  19  20
ENDBRANCH  18  19
ENDBRANCH  16  18
ENDBRANCH  13  16
ENDBRANCH   7  12
ENDBRANCH   3   6
ENDBRANCH   1   2
BRANCH   1  24
ATOM     24  C   UNL A   1      36.286  20.873  25.294  1.00  0.00     0.042 C 
BRANCH  24  25
ATOM     25  C   UNL A   1      37.722  21.296  24.979  1.00  0.00     0.118 C 
BRANCH  25  26
ATOM     26  N   UNL A   1      38.779  20.488  25.587  1.00  0.00    -0.352 N 
ATOM     27  C   UNL A   1      39.836  20.798  26.426  1.00  0.00     0.251 C 
ATOM     28  H   UNL A   1      38.728  19.532  25.354  1.00  0.00     0.163 HD
ATOM     29  O   UNL A   1      40.572  19.869  26.768  1.00  0.00    -0.269 OA
BRANCH  27  30
ATOM     30  C   UNL A   1      40.154  22.184  26.886  1.00  0.00     0.039 A 
ATOM     31  C   UNL A   1      41.219  22.377  27.778  1.00  0.00     0.014 A 
ATOM     32  C   UNL A   1      39.426  23.301  26.485  1.00  0.00     0.014 A 
ATOM     33  C   UNL A   1      41.617  23.672  28.154  1.00  0.00     0.010 A 
ATOM     34  C   UNL A   1      39.894  24.591  26.759  1.00  0.00     0.010 A 
ATOM     35  C   UNL A   1      41.003  24.800  27.590  1.00  0.00    -0.014 A 
BRANCH  35  36
ATOM     36  C   UNL A   1      41.508  26.187  27.835  1.00  0.00     0.031 A 
ATOM     37  C   UNL A   1      42.883  26.604  27.369  1.00  0.00     0.074 A 
ATOM     38  C   UNL A   1      40.763  27.054  28.557  1.00  0.00     0.049 A 
ATOM     39  N   UNL A   1      43.525  27.728  27.571  1.00  0.00    -0.248 NA
ATOM     40  C   UNL A   1      43.653  25.609  26.609  1.00  0.00     0.031 C 
ATOM     41  C   UNL A   1      39.445  26.765  29.125  1.00  0.00     0.029 A 
ATOM     42  N   UNL A   1      41.008  28.351  28.947  1.00  0.00    -0.354 N 
ATOM     43  C   UNL A   1      44.777  27.567  26.984  1.00  0.00     0.074 A 
ATOM     44  C   UNL A   1      44.826  26.210  26.482  1.00  0.00     0.031 C 
ATOM     45  C   UNL A   1      38.983  27.858  29.754  1.00  0.00     0.029 A 
ATOM     46  C   UNL A   1      39.990  28.911  29.687  1.00  0.00     0.049 A 
ATOM     47  H   UNL A   1      41.835  28.834  28.719  1.00  0.00     0.167 HD
ATOM     48  C   UNL A   1      45.783  28.469  26.850  1.00  0.00     0.034 A 
ATOM     49  C   UNL A   1      39.878  30.128  30.260  1.00  0.00     0.034 A 
ATOM     50  C   UNL A   1      45.715  29.827  27.339  1.00  0.00     0.049 A 
ATOM     51  C   UNL A   1      41.012  31.111  30.106  1.00  0.00     0.074 A 
ATOM     52  C   UNL A   1      46.645  30.842  27.195  1.00  0.00     0.029 A 
ATOM     53  N   UNL A   1      44.663  30.358  28.076  1.00  0.00    -0.354 N 
ATOM     54  N   UNL A   1      42.161  30.960  29.487  1.00  0.00    -0.248 NA
ATOM     55  C   UNL A   1      40.828  32.432  30.718  1.00  0.00     0.031 C 
ATOM     56  C   UNL A   1      46.194  31.957  27.909  1.00  0.00     0.029 A 
ATOM     57  C   UNL A   1      44.941  31.672  28.424  1.00  0.00     0.049 A 
ATOM     58  H   UNL A   1      43.841  29.872  28.315  1.00  0.00     0.167 HD
ATOM     59  C   UNL A   1      42.823  32.178  29.615  1.00  0.00     0.074 A 
ATOM     60  C   UNL A   1      41.932  33.059  30.343  1.00  0.00     0.031 C 
ATOM     61  C   UNL A   1      44.055  32.537  29.171  1.00  0.00     0.034 A 
BRANCH  48  62
ATOM     62  C   UNL A   1      47.051  28.008  26.162  1.00  0.00     0.023 A 
ATOM     63  C   UNL A   1      47.241  28.160  24.778  1.00  0.00     0.031 A 
ATOM     64  C   UNL A   1      48.077  27.387  26.898  1.00  0.00     0.131 A 
ATOM     65  C   UNL A   1      48.382  27.623  24.160  1.00  0.00     0.055 A 
ATOM     66  C   UNL A   1      49.253  26.937  26.292  1.00  0.00     0.041 A 
ATOM     67  F   UNL A   1      47.951  27.193  28.221  1.00  0.00    -0.206 F 
ATOM     68  C   UNL A   1      49.402  27.038  24.912  1.00  0.00     0.022 A 
BRANCH  65  69
ATOM     69  S   UNL A   1      48.438  27.561  22.348  1.00  0.00     0.124 S 
ATOM     70  O   UNL A   1      47.147  28.146  21.994  1.00  0.00    -0.237 OA
ATOM     71  O   UNL A   1      49.611  28.370  22.041  1.00  0.00    -0.237 OA
ATOM     72  O   UNL A   1      48.568  26.135  22.058  1.00  0.00    -0.744 OA
ENDBRANCH  65  69
ENDBRANCH  48  62
BRANCH  49  73
ATOM     73  C   UNL A   1      38.658  30.492  31.041  1.00  0.00     0.023 A 
ATOM     74  C   UNL A   1      37.589  31.177  30.440  1.00  0.00     0.031 A 
ATOM     75  C   UNL A   1      38.560  30.202  32.414  1.00  0.00     0.131 A 
ATOM     76  C   UNL A   1      36.493  31.590  31.216  1.00  0.00     0.055 A 
ATOM     77  C   UNL A   1      37.442  30.559  33.168  1.00  0.00     0.041 A 
ATOM     78  F   UNL A   1      39.554  29.552  33.042  1.00  0.00    -0.206 F 
ATOM     79  C   UNL A   1      36.405  31.271  32.573  1.00  0.00     0.022 A 
BRANCH  76  80
ATOM     80  S   UNL A   1      35.225  32.636  30.447  1.00  0.00     0.124 S 
ATOM     81  O   UNL A   1      34.850  31.840  29.283  1.00  0.00    -0.237 OA
ATOM     82  O   UNL A   1      34.227  32.731  31.507  1.00  0.00    -0.237 OA
ATOM     83  O   UNL A   1      35.939  33.876  30.152  1.00  0.00    -0.744 OA
ENDBRANCH  76  80
ENDBRANCH  49  73
BRANCH  61  84
ATOM     84  C   UNL A   1      44.491  33.960  29.439  1.00  0.00     0.023 A 
ATOM     85  C   UNL A   1      44.181  35.007  28.554  1.00  0.00     0.031 A 
ATOM     86  C   UNL A   1      45.256  34.267  30.578  1.00  0.00     0.131 A 
ATOM     87  C   UNL A   1      44.697  36.292  28.780  1.00  0.00     0.055 A 
ATOM     88  C   UNL A   1      45.703  35.563  30.839  1.00  0.00     0.041 A 
ATOM     89  F   UNL A   1      45.588  33.308  31.459  1.00  0.00    -0.206 F 
ATOM     90  C   UNL A   1      45.440  36.582  29.927  1.00  0.00     0.022 A 
BRANCH  87  91
ATOM     91  S   UNL A   1      44.494  37.550  27.489  1.00  0.00     0.124 S 
ATOM     92  O   UNL A   1      45.729  37.404  26.727  1.00  0.00    -0.237 OA
ATOM     93  O   UNL A   1      43.274  37.112  26.816  1.00  0.00    -0.237 OA
ATOM     94  O   UNL A   1      44.372  38.797  28.241  1.00  0.00    -0.744 OA
ENDBRANCH  87  91
ENDBRANCH  61  84
ENDBRANCH  35  36
ENDBRANCH  27  30
ENDBRANCH  25  26
ENDBRANCH  24  25
ENDBRANCH   1  24
TORSDOF 18
ENDMDL
