MODEL 1
REMARK VINA RESULT:     -11.3      0.000      0.000
REMARK SMILES CCC(CC)(NC(=O)C[C@@H]1CCC[NH2+]C1)C(=O)NCCCNC(=O)c1ccc(-c2c3nc(c(-c4cc(S(=O)(=O)[O-])ccc4F)c4ccc([nH]4)c(-c4cc(S(=O)(=O)[O-])ccc4F)c4nc(c(-c5cc(S(=O)(=O)[O-])ccc5F)c5ccc2[nH]5)C=C4)C=C3)cc1
REMARK SMILES IDX 20 1 19 2 18 3 16 4 17 5 3 7 2 8 1 9 4 10 5 11 6 12 7 13
REMARK SMILES IDX 8 15 9 16 10 17 11 18 15 19 12 20 14 21 13 22 21 25 22 26
REMARK SMILES IDX 23 27 24 29 25 30 26 31 87 32 27 33 86 34 28 35 29 36 30 37
REMARK SMILES IDX 80 38 31 39 85 40 79 41 81 42 32 43 84 44 78 45 77 46 33 48
REMARK SMILES IDX 65 49 45 50 64 51 46 52 49 53 63 54 82 55 47 56 48 57 62 59
REMARK SMILES IDX 83 60 50 61 34 62 35 63 43 64 36 65 42 66 44 67 41 68 37 69
REMARK SMILES IDX 38 70 39 71 40 72 66 73 67 74 75 75 68 76 74 77 76 78 73 79
REMARK SMILES IDX 69 80 70 81 71 82 72 83 51 84 52 85 60 86 53 87 59 88 61 89
REMARK SMILES IDX 58 90 54 91 55 92 56 93 57 94
REMARK H PARENT 18 6 6 14 14 23 14 24 22 28 81 47 49 58
REMARK Flexibility Score: inf
ROOT
ATOM      1  C   UNL A   1      31.597  31.893  26.838  1.00  0.00     0.042 C 
ENDROOT
BRANCH   1   2
ATOM      2  C   UNL A   1      31.840  30.505  26.249  1.00  0.00     0.117 C 
BRANCH   2   3
ATOM      3  N   UNL A   1      31.240  30.279  24.938  1.00  0.00    -0.354 N 
ATOM      4  C   UNL A   1      31.193  29.190  24.112  1.00  0.00     0.245 C 
ATOM      5  O   UNL A   1      30.509  29.316  23.092  1.00  0.00    -0.272 OA
ATOM      6  H   UNL A   1      30.775  31.068  24.576  1.00  0.00     0.163 HD
BRANCH   4   7
ATOM      7  C   UNL A   1      31.849  27.827  24.499  1.00  0.00     0.118 C 
BRANCH   7   8
ATOM      8  C   UNL A   1      31.349  27.255  25.861  1.00  0.00     0.035 C 
ATOM      9  C   UNL A   1      30.389  26.069  25.827  1.00  0.00     0.007 C 
ENDBRANCH   7   8
BRANCH   7  10
ATOM     10  C   UNL A   1      33.390  28.103  24.575  1.00  0.00     0.035 C 
ATOM     11  C   UNL A   1      34.048  27.895  25.935  1.00  0.00     0.007 C 
ENDBRANCH   7  10
BRANCH   7  12
ATOM     12  N   UNL A   1      31.564  26.807  23.458  1.00  0.00    -0.342 N 
ATOM     13  C   UNL A   1      32.402  25.988  22.760  1.00  0.00     0.221 C 
ATOM     14  H   UNL A   1      30.612  26.706  23.234  1.00  0.00     0.164 HD
ATOM     15  O   UNL A   1      32.040  25.678  21.621  1.00  0.00    -0.275 OA
BRANCH  13  16
ATOM     16  C   UNL A   1      33.649  25.368  23.370  1.00  0.00     0.109 C 
BRANCH  16  17
ATOM     17  C   UNL A   1      33.501  24.077  24.182  1.00  0.00     0.054 C 
ATOM     18  C   UNL A   1      34.139  24.163  25.573  1.00  0.00     0.016 C 
ATOM     19  C   UNL A   1      34.114  22.891  23.410  1.00  0.00     0.264 C 
ATOM     20  C   UNL A   1      35.662  24.197  25.486  1.00  0.00     0.062 C 
ATOM     21  N   UNL A   1      35.568  22.997  23.315  1.00  0.00    -0.346 N 
ATOM     22  C   UNL A   1      36.195  23.045  24.636  1.00  0.00     0.260 C 
ATOM     23  H   UNL A   1      35.926  22.187  22.808  1.00  0.00     0.346 HD
ATOM     24  H   UNL A   1      35.793  23.863  22.825  1.00  0.00     0.346 HD
ENDBRANCH  16  17
ENDBRANCH  13  16
ENDBRANCH   7  12
ENDBRANCH   4   7
ENDBRANCH   2   3
ENDBRANCH   1   2
BRANCH   1  25
ATOM     25  C   UNL A   1      32.845  32.610  27.335  1.00  0.00     0.118 C 
BRANCH  25  26
ATOM     26  N   UNL A   1      32.582  33.999  27.671  1.00  0.00    -0.352 N 
ATOM     27  C   UNL A   1      33.120  34.769  28.675  1.00  0.00     0.251 C 
ATOM     28  H   UNL A   1      31.925  34.455  27.097  1.00  0.00     0.163 HD
ATOM     29  O   UNL A   1      32.602  35.846  28.952  1.00  0.00    -0.269 OA
BRANCH  27  30
ATOM     30  C   UNL A   1      34.298  34.286  29.430  1.00  0.00     0.039 A 
ATOM     31  C   UNL A   1      34.099  33.584  30.623  1.00  0.00     0.014 A 
ATOM     32  C   UNL A   1      35.595  34.534  28.975  1.00  0.00     0.014 A 
ATOM     33  C   UNL A   1      35.198  33.073  31.319  1.00  0.00     0.010 A 
ATOM     34  C   UNL A   1      36.683  33.962  29.629  1.00  0.00     0.010 A 
ATOM     35  C   UNL A   1      36.497  33.225  30.810  1.00  0.00    -0.014 A 
BRANCH  35  36
ATOM     36  C   UNL A   1      37.681  32.637  31.495  1.00  0.00     0.031 A 
ATOM     37  C   UNL A   1      38.413  31.483  30.866  1.00  0.00     0.074 A 
ATOM     38  C   UNL A   1      38.049  33.088  32.711  1.00  0.00     0.049 A 
ATOM     39  N   UNL A   1      39.378  30.747  31.355  1.00  0.00    -0.248 NA
ATOM     40  C   UNL A   1      37.980  31.088  29.517  1.00  0.00     0.031 C 
ATOM     41  C   UNL A   1      37.407  34.188  33.434  1.00  0.00     0.029 A 
ATOM     42  N   UNL A   1      39.040  32.667  33.563  1.00  0.00    -0.354 N 
ATOM     43  C   UNL A   1      39.656  29.791  30.383  1.00  0.00     0.074 A 
ATOM     44  C   UNL A   1      38.718  30.009  29.302  1.00  0.00     0.031 C 
ATOM     45  C   UNL A   1      38.029  34.362  34.611  1.00  0.00     0.029 A 
ATOM     46  C   UNL A   1      39.074  33.354  34.756  1.00  0.00     0.049 A 
ATOM     47  H   UNL A   1      39.669  31.942  33.342  1.00  0.00     0.167 HD
ATOM     48  C   UNL A   1      40.615  28.831  30.387  1.00  0.00     0.034 A 
ATOM     49  C   UNL A   1      39.841  33.176  35.851  1.00  0.00     0.034 A 
ATOM     50  C   UNL A   1      41.547  28.633  31.470  1.00  0.00     0.049 A 
ATOM     51  C   UNL A   1      40.868  32.070  35.853  1.00  0.00     0.074 A 
ATOM     52  C   UNL A   1      42.587  27.723  31.555  1.00  0.00     0.029 A 
ATOM     53  N   UNL A   1      41.547  29.346  32.662  1.00  0.00    -0.354 N 
ATOM     54  N   UNL A   1      41.141  31.195  34.912  1.00  0.00    -0.248 NA
ATOM     55  C   UNL A   1      41.695  31.932  37.059  1.00  0.00     0.031 C 
ATOM     56  C   UNL A   1      43.167  27.837  32.823  1.00  0.00     0.029 A 
ATOM     57  C   UNL A   1      42.548  28.876  33.499  1.00  0.00     0.049 A 
ATOM     58  H   UNL A   1      40.928  30.080  32.881  1.00  0.00     0.167 HD
ATOM     59  C   UNL A   1      42.199  30.431  35.400  1.00  0.00     0.074 A 
ATOM     60  C   UNL A   1      42.514  30.948  36.715  1.00  0.00     0.031 C 
ATOM     61  C   UNL A   1      42.856  29.402  34.808  1.00  0.00     0.034 A 
BRANCH  48  62
ATOM     62  C   UNL A   1      40.679  27.906  29.194  1.00  0.00     0.023 A 
ATOM     63  C   UNL A   1      41.613  28.093  28.161  1.00  0.00     0.031 A 
ATOM     64  C   UNL A   1      39.778  26.831  29.077  1.00  0.00     0.131 A 
ATOM     65  C   UNL A   1      41.577  27.271  27.024  1.00  0.00     0.055 A 
ATOM     66  C   UNL A   1      39.803  25.964  27.983  1.00  0.00     0.041 A 
ATOM     67  F   UNL A   1      38.848  26.613  30.021  1.00  0.00    -0.206 F 
ATOM     68  C   UNL A   1      40.696  26.191  26.940  1.00  0.00     0.022 A 
BRANCH  65  69
ATOM     69  S   UNL A   1      42.595  27.728  25.594  1.00  0.00     0.124 S 
ATOM     70  O   UNL A   1      41.878  28.893  25.082  1.00  0.00    -0.237 OA
ATOM     71  O   UNL A   1      43.893  27.991  26.202  1.00  0.00    -0.237 OA
ATOM     72  O   UNL A   1      42.534  26.544  24.738  1.00  0.00    -0.744 OA
ENDBRANCH  65  69
ENDBRANCH  48  62
BRANCH  49  73
ATOM     73  C   UNL A   1      39.657  34.043  37.051  1.00  0.00     0.023 A 
ATOM     74  C   UNL A   1      39.050  33.548  38.215  1.00  0.00     0.031 A 
ATOM     75  C   UNL A   1      40.046  35.395  37.036  1.00  0.00     0.131 A 
ATOM     76  C   UNL A   1      38.807  34.407  39.299  1.00  0.00     0.055 A 
ATOM     77  C   UNL A   1      39.855  36.231  38.137  1.00  0.00     0.041 A 
ATOM     78  F   UNL A   1      40.632  35.921  35.948  1.00  0.00    -0.206 F 
ATOM     79  C   UNL A   1      39.218  35.742  39.273  1.00  0.00     0.022 A 
BRANCH  76  80
ATOM     80  S   UNL A   1      37.859  33.777  40.711  1.00  0.00     0.124 S 
ATOM     81  O   UNL A   1      36.765  33.078  40.046  1.00  0.00    -0.237 OA
ATOM     82  O   UNL A   1      38.842  32.937  41.386  1.00  0.00    -0.237 OA
ATOM     83  O   UNL A   1      37.478  34.989  41.433  1.00  0.00    -0.744 OA
ENDBRANCH  76  80
ENDBRANCH  49  73
BRANCH  61  84
ATOM     84  C   UNL A   1      44.031  28.809  35.548  1.00  0.00     0.023 A 
ATOM     85  C   UNL A   1      43.887  27.735  36.441  1.00  0.00     0.031 A 
ATOM     86  C   UNL A   1      45.322  29.324  35.331  1.00  0.00     0.131 A 
ATOM     87  C   UNL A   1      45.012  27.233  37.115  1.00  0.00     0.055 A 
ATOM     88  C   UNL A   1      46.444  28.784  35.960  1.00  0.00     0.041 A 
ATOM     89  F   UNL A   1      45.516  30.352  34.490  1.00  0.00    -0.206 F 
ATOM     90  C   UNL A   1      46.292  27.738  36.865  1.00  0.00     0.022 A 
BRANCH  87  91
ATOM     91  S   UNL A   1      44.779  25.948  38.374  1.00  0.00     0.124 S 
ATOM     92  O   UNL A   1      46.154  25.557  38.667  1.00  0.00    -0.237 OA
ATOM     93  O   UNL A   1      44.081  26.669  39.433  1.00  0.00    -0.237 OA
ATOM     94  O   UNL A   1      43.980  24.935  37.686  1.00  0.00    -0.744 OA
ENDBRANCH  87  91
ENDBRANCH  61  84
ENDBRANCH  35  36
ENDBRANCH  27  30
ENDBRANCH  25  26
ENDBRANCH   1  25
TORSDOF 18
ENDMDL
MODEL 2
REMARK VINA RESULT:     -11.2      1.452      1.817
REMARK SMILES CCC(CC)(NC(=O)C[C@@H]1CCC[NH2+]C1)C(=O)NCCCNC(=O)c1ccc(-c2c3nc(c(-c4cc(S(=O)(=O)[O-])ccc4F)c4ccc([nH]4)c(-c4cc(S(=O)(=O)[O-])ccc4F)c4nc(c(-c5cc(S(=O)(=O)[O-])ccc5F)c5ccc2[nH]5)C=C4)C=C3)cc1
REMARK SMILES IDX 20 1 19 2 18 3 16 4 17 5 3 7 2 8 1 9 4 10 5 11 6 12 7 13
REMARK SMILES IDX 8 15 9 16 10 17 11 18 15 19 12 20 14 21 13 22 21 25 22 26
REMARK SMILES IDX 23 27 24 29 25 30 26 31 87 32 27 33 86 34 28 35 29 36 30 37
REMARK SMILES IDX 80 38 31 39 85 40 79 41 81 42 32 43 84 44 78 45 77 46 33 48
REMARK SMILES IDX 65 49 45 50 64 51 46 52 49 53 63 54 82 55 47 56 48 57 62 59
REMARK SMILES IDX 83 60 50 61 34 62 35 63 43 64 36 65 42 66 44 67 41 68 37 69
REMARK SMILES IDX 38 70 39 71 40 72 66 73 67 74 75 75 68 76 74 77 76 78 73 79
REMARK SMILES IDX 69 80 70 81 71 82 72 83 51 84 52 85 60 86 53 87 59 88 61 89
REMARK SMILES IDX 58 90 54 91 55 92 56 93 57 94
REMARK H PARENT 18 6 6 14 14 23 14 24 22 28 81 47 49 58
REMARK Flexibility Score: inf
ROOT
ATOM      1  C   UNL A   1      31.568  31.660  26.554  1.00  0.00     0.042 C 
ENDROOT
BRANCH   1   2
ATOM      2  C   UNL A   1      31.831  30.291  25.930  1.00  0.00     0.117 C 
BRANCH   2   3
ATOM      3  N   UNL A   1      31.244  30.095  24.609  1.00  0.00    -0.354 N 
ATOM      4  C   UNL A   1      31.264  29.048  23.729  1.00  0.00     0.245 C 
ATOM      5  O   UNL A   1      30.572  29.182  22.715  1.00  0.00    -0.272 OA
ATOM      6  H   UNL A   1      30.730  30.871  24.287  1.00  0.00     0.163 HD
BRANCH   4   7
ATOM      7  C   UNL A   1      32.004  27.712  24.047  1.00  0.00     0.118 C 
BRANCH   7   8
ATOM      8  C   UNL A   1      31.222  26.778  25.021  1.00  0.00     0.035 C 
ATOM      9  C   UNL A   1      29.855  26.267  24.576  1.00  0.00     0.007 C 
ENDBRANCH   7   8
BRANCH   7  10
ATOM     10  C   UNL A   1      33.370  28.125  24.694  1.00  0.00     0.035 C 
ATOM     11  C   UNL A   1      33.769  27.385  25.966  1.00  0.00     0.007 C 
ENDBRANCH   7  10
BRANCH   7  12
ATOM     12  N   UNL A   1      32.243  26.947  22.796  1.00  0.00    -0.342 N 
ATOM     13  C   UNL A   1      33.149  25.969  22.508  1.00  0.00     0.221 C 
ATOM     14  H   UNL A   1      31.648  27.186  22.050  1.00  0.00     0.164 HD
ATOM     15  O   UNL A   1      33.532  25.907  21.336  1.00  0.00    -0.275 OA
BRANCH  13  16
ATOM     16  C   UNL A   1      33.579  24.918  23.519  1.00  0.00     0.109 C 
BRANCH  16  17
ATOM     17  C   UNL A   1      33.328  23.443  23.191  1.00  0.00     0.054 C 
ATOM     18  C   UNL A   1      31.866  23.024  23.374  1.00  0.00     0.016 C 
ATOM     19  C   UNL A   1      34.230  22.544  24.062  1.00  0.00     0.264 C 
ATOM     20  C   UNL A   1      31.475  22.993  24.849  1.00  0.00     0.062 C 
ATOM     21  N   UNL A   1      33.845  22.588  25.471  1.00  0.00    -0.346 N 
ATOM     22  C   UNL A   1      32.459  22.157  25.666  1.00  0.00     0.260 C 
ATOM     23  H   UNL A   1      34.460  21.972  26.001  1.00  0.00     0.346 HD
ATOM     24  H   UNL A   1      33.926  23.552  25.793  1.00  0.00     0.346 HD
ENDBRANCH  16  17
ENDBRANCH  13  16
ENDBRANCH   7  12
ENDBRANCH   4   7
ENDBRANCH   2   3
ENDBRANCH   1   2
BRANCH   1  25
ATOM     25  C   UNL A   1      32.762  32.286  27.262  1.00  0.00     0.118 C 
BRANCH  25  26
ATOM     26  N   UNL A   1      32.566  33.703  27.519  1.00  0.00    -0.352 N 
ATOM     27  C   UNL A   1      33.152  34.505  28.470  1.00  0.00     0.251 C 
ATOM     28  H   UNL A   1      31.922  34.154  26.928  1.00  0.00     0.163 HD
ATOM     29  O   UNL A   1      32.686  35.618  28.691  1.00  0.00    -0.269 OA
BRANCH  27  30
ATOM     30  C   UNL A   1      34.318  34.014  29.239  1.00  0.00     0.039 A 
ATOM     31  C   UNL A   1      34.103  33.174  30.336  1.00  0.00     0.014 A 
ATOM     32  C   UNL A   1      35.617  34.388  28.890  1.00  0.00     0.014 A 
ATOM     33  C   UNL A   1      35.196  32.656  31.038  1.00  0.00     0.010 A 
ATOM     34  C   UNL A   1      36.705  33.814  29.543  1.00  0.00     0.010 A 
ATOM     35  C   UNL A   1      36.507  32.942  30.626  1.00  0.00    -0.014 A 
BRANCH  35  36
ATOM     36  C   UNL A   1      37.689  32.355  31.314  1.00  0.00     0.031 A 
ATOM     37  C   UNL A   1      38.438  31.216  30.675  1.00  0.00     0.074 A 
ATOM     38  C   UNL A   1      38.043  32.791  32.540  1.00  0.00     0.049 A 
ATOM     39  N   UNL A   1      39.405  30.482  31.163  1.00  0.00    -0.248 NA
ATOM     40  C   UNL A   1      38.022  30.837  29.317  1.00  0.00     0.031 C 
ATOM     41  C   UNL A   1      37.384  33.875  33.272  1.00  0.00     0.029 A 
ATOM     42  N   UNL A   1      39.030  32.367  33.395  1.00  0.00    -0.354 N 
ATOM     43  C   UNL A   1      39.702  29.543  30.180  1.00  0.00     0.074 A 
ATOM     44  C   UNL A   1      38.772  29.769  29.092  1.00  0.00     0.031 C 
ATOM     45  C   UNL A   1      37.992  34.037  34.457  1.00  0.00     0.029 A 
ATOM     46  C   UNL A   1      39.046  33.037  34.597  1.00  0.00     0.049 A 
ATOM     47  H   UNL A   1      39.667  31.651  33.169  1.00  0.00     0.167 HD
ATOM     48  C   UNL A   1      40.669  28.592  30.178  1.00  0.00     0.034 A 
ATOM     49  C   UNL A   1      39.804  32.850  35.698  1.00  0.00     0.034 A 
ATOM     50  C   UNL A   1      41.592  28.387  31.268  1.00  0.00     0.049 A 
ATOM     51  C   UNL A   1      40.841  31.754  35.693  1.00  0.00     0.074 A 
ATOM     52  C   UNL A   1      42.640  27.485  31.349  1.00  0.00     0.029 A 
ATOM     53  N   UNL A   1      41.575  29.083  32.470  1.00  0.00    -0.354 N 
ATOM     54  N   UNL A   1      41.131  30.895  34.742  1.00  0.00    -0.248 NA
ATOM     55  C   UNL A   1      41.658  31.605  36.905  1.00  0.00     0.031 C 
ATOM     56  C   UNL A   1      43.207  27.586  32.624  1.00  0.00     0.029 A 
ATOM     57  C   UNL A   1      42.572  28.610  33.309  1.00  0.00     0.049 A 
ATOM     58  H   UNL A   1      40.947  29.807  32.693  1.00  0.00     0.167 HD
ATOM     59  C   UNL A   1      42.191  30.134  35.229  1.00  0.00     0.074 A 
ATOM     60  C   UNL A   1      42.489  30.634  36.554  1.00  0.00     0.031 C 
ATOM     61  C   UNL A   1      42.863  29.119  34.629  1.00  0.00     0.034 A 
BRANCH  48  62
ATOM     62  C   UNL A   1      40.752  27.685  28.973  1.00  0.00     0.023 A 
ATOM     63  C   UNL A   1      41.707  27.885  27.961  1.00  0.00     0.031 A 
ATOM     64  C   UNL A   1      39.850  26.615  28.822  1.00  0.00     0.131 A 
ATOM     65  C   UNL A   1      41.690  27.080  26.811  1.00  0.00     0.055 A 
ATOM     66  C   UNL A   1      39.893  25.765  27.716  1.00  0.00     0.041 A 
ATOM     67  F   UNL A   1      38.902  26.386  29.745  1.00  0.00    -0.206 F 
ATOM     68  C   UNL A   1      40.807  26.005  26.693  1.00  0.00     0.022 A 
BRANCH  65  69
ATOM     69  S   UNL A   1      42.736  27.555  25.408  1.00  0.00     0.124 S 
ATOM     70  O   UNL A   1      42.725  26.335  24.604  1.00  0.00    -0.237 OA
ATOM     71  O   UNL A   1      42.018  28.695  24.851  1.00  0.00    -0.237 OA
ATOM     72  O   UNL A   1      44.021  27.870  26.030  1.00  0.00    -0.744 OA
ENDBRANCH  65  69
ENDBRANCH  48  62
BRANCH  49  73
ATOM     73  C   UNL A   1      39.601  33.698  36.908  1.00  0.00     0.023 A 
ATOM     74  C   UNL A   1      40.447  34.783  37.181  1.00  0.00     0.031 A 
ATOM     75  C   UNL A   1      38.582  33.408  37.834  1.00  0.00     0.131 A 
ATOM     76  C   UNL A   1      40.292  35.511  38.372  1.00  0.00     0.055 A 
ATOM     77  C   UNL A   1      38.395  34.171  38.989  1.00  0.00     0.041 A 
ATOM     78  F   UNL A   1      37.743  32.381  37.623  1.00  0.00    -0.206 F 
ATOM     79  C   UNL A   1      39.262  35.222  39.270  1.00  0.00     0.022 A 
BRANCH  76  80
ATOM     80  S   UNL A   1      41.516  36.787  38.776  1.00  0.00     0.124 S 
ATOM     81  O   UNL A   1      40.662  37.904  39.164  1.00  0.00    -0.237 OA
ATOM     82  O   UNL A   1      42.272  36.152  39.851  1.00  0.00    -0.237 OA
ATOM     83  O   UNL A   1      42.247  36.966  37.524  1.00  0.00    -0.744 OA
ENDBRANCH  76  80
ENDBRANCH  49  73
BRANCH  61  84
ATOM     84  C   UNL A   1      44.036  28.526  35.371  1.00  0.00     0.023 A 
ATOM     85  C   UNL A   1      43.882  27.495  36.312  1.00  0.00     0.031 A 
ATOM     86  C   UNL A   1      45.336  28.995  35.108  1.00  0.00     0.131 A 
ATOM     87  C   UNL A   1      45.007  26.991  36.985  1.00  0.00     0.055 A 
ATOM     88  C   UNL A   1      46.456  28.453  35.739  1.00  0.00     0.041 A 
ATOM     89  F   UNL A   1      45.541  29.982  34.220  1.00  0.00    -0.206 F 
ATOM     90  C   UNL A   1      46.294  27.450  36.689  1.00  0.00     0.022 A 
BRANCH  87  91
ATOM     91  S   UNL A   1      44.764  25.768  38.302  1.00  0.00     0.124 S 
ATOM     92  O   UNL A   1      43.861  24.813  37.666  1.00  0.00    -0.237 OA
ATOM     93  O   UNL A   1      46.123  25.295  38.545  1.00  0.00    -0.237 OA
ATOM     94  O   UNL A   1      44.177  26.547  39.391  1.00  0.00    -0.744 OA
ENDBRANCH  87  91
ENDBRANCH  61  84
ENDBRANCH  35  36
ENDBRANCH  27  30
ENDBRANCH  25  26
ENDBRANCH   1  25
TORSDOF 18
ENDMDL
MODEL 3
REMARK VINA RESULT:     -11.2      1.710      2.144
REMARK SMILES CCC(CC)(NC(=O)C[C@@H]1CCC[NH2+]C1)C(=O)NCCCNC(=O)c1ccc(-c2c3nc(c(-c4cc(S(=O)(=O)[O-])ccc4F)c4ccc([nH]4)c(-c4cc(S(=O)(=O)[O-])ccc4F)c4nc(c(-c5cc(S(=O)(=O)[O-])ccc5F)c5ccc2[nH]5)C=C4)C=C3)cc1
REMARK SMILES IDX 20 1 19 2 18 3 16 4 17 5 3 7 2 8 1 9 4 10 5 11 6 12 7 13
REMARK SMILES IDX 8 15 9 16 10 17 11 18 15 19 12 20 14 21 13 22 21 25 22 26
REMARK SMILES IDX 23 27 24 29 25 30 26 31 87 32 27 33 86 34 28 35 29 36 30 37
REMARK SMILES IDX 80 38 31 39 85 40 79 41 81 42 32 43 84 44 78 45 77 46 33 48
REMARK SMILES IDX 65 49 45 50 64 51 46 52 49 53 63 54 82 55 47 56 48 57 62 59
REMARK SMILES IDX 83 60 50 61 34 62 35 63 43 64 36 65 42 66 44 67 41 68 37 69
REMARK SMILES IDX 38 70 39 71 40 72 66 73 67 74 75 75 68 76 74 77 76 78 73 79
REMARK SMILES IDX 69 80 70 81 71 82 72 83 51 84 52 85 60 86 53 87 59 88 61 89
REMARK SMILES IDX 58 90 54 91 55 92 56 93 57 94
REMARK H PARENT 18 6 6 14 14 23 14 24 22 28 81 47 49 58
REMARK Flexibility Score: inf
ROOT
ATOM      1  C   UNL A   1      31.157  31.516  25.927  1.00  0.00     0.042 C 
ENDROOT
BRANCH   1   2
ATOM      2  C   UNL A   1      31.277  30.103  25.362  1.00  0.00     0.117 C 
BRANCH   2   3
ATOM      3  N   UNL A   1      30.810  29.949  23.988  1.00  0.00    -0.354 N 
ATOM      4  C   UNL A   1      31.001  28.977  23.044  1.00  0.00     0.245 C 
ATOM      5  O   UNL A   1      30.374  29.118  21.990  1.00  0.00    -0.272 OA
ATOM      6  H   UNL A   1      30.245  30.693  23.678  1.00  0.00     0.163 HD
BRANCH   4   7
ATOM      7  C   UNL A   1      31.849  27.699  23.331  1.00  0.00     0.118 C 
BRANCH   7   8
ATOM      8  C   UNL A   1      31.237  26.772  24.427  1.00  0.00     0.035 C 
ATOM      9  C   UNL A   1      29.746  26.457  24.343  1.00  0.00     0.007 C 
ENDBRANCH   7   8
BRANCH   7  10
ATOM     10  C   UNL A   1      33.253  28.215  23.799  1.00  0.00     0.035 C 
ATOM     11  C   UNL A   1      33.788  27.633  25.104  1.00  0.00     0.007 C 
ENDBRANCH   7  10
BRANCH   7  12
ATOM     12  N   UNL A   1      31.991  26.889  22.094  1.00  0.00    -0.342 N 
ATOM     13  C   UNL A   1      32.952  25.998  21.717  1.00  0.00     0.221 C 
ATOM     14  H   UNL A   1      31.270  27.016  21.437  1.00  0.00     0.164 HD
ATOM     15  O   UNL A   1      33.165  25.905  20.504  1.00  0.00    -0.275 OA
BRANCH  13  16
ATOM     16  C   UNL A   1      33.643  25.064  22.697  1.00  0.00     0.109 C 
BRANCH  16  17
ATOM     17  C   UNL A   1      33.427  23.555  22.544  1.00  0.00     0.054 C 
ATOM     18  C   UNL A   1      32.008  23.107  22.912  1.00  0.00     0.016 C 
ATOM     19  C   UNL A   1      34.447  22.782  23.406  1.00  0.00     0.264 C 
ATOM     20  C   UNL A   1      31.762  23.216  24.414  1.00  0.00     0.062 C 
ATOM     21  N   UNL A   1      34.196  22.958  24.835  1.00  0.00    -0.346 N 
ATOM     22  C   UNL A   1      32.855  22.503  25.208  1.00  0.00     0.260 C 
ATOM     23  H   UNL A   1      34.885  22.421  25.361  1.00  0.00     0.346 HD
ATOM     24  H   UNL A   1      34.265  23.953  25.050  1.00  0.00     0.346 HD
ENDBRANCH  16  17
ENDBRANCH  13  16
ENDBRANCH   7  12
ENDBRANCH   4   7
ENDBRANCH   2   3
ENDBRANCH   1   2
BRANCH   1  25
ATOM     25  C   UNL A   1      32.248  31.910  26.914  1.00  0.00     0.118 C 
BRANCH  25  26
ATOM     26  N   UNL A   1      32.251  33.338  27.187  1.00  0.00    -0.352 N 
ATOM     27  C   UNL A   1      33.061  34.062  28.030  1.00  0.00     0.251 C 
ATOM     28  H   UNL A   1      31.576  33.862  26.699  1.00  0.00     0.163 HD
ATOM     29  O   UNL A   1      32.760  35.217  28.311  1.00  0.00    -0.269 OA
BRANCH  27  30
ATOM     30  C   UNL A   1      34.271  33.439  28.613  1.00  0.00     0.039 A 
ATOM     31  C   UNL A   1      35.523  33.994  28.331  1.00  0.00     0.014 A 
ATOM     32  C   UNL A   1      34.176  32.306  29.424  1.00  0.00     0.014 A 
ATOM     33  C   UNL A   1      36.670  33.452  28.919  1.00  0.00     0.010 A 
ATOM     34  C   UNL A   1      35.309  31.814  30.067  1.00  0.00     0.010 A 
ATOM     35  C   UNL A   1      36.570  32.380  29.820  1.00  0.00    -0.014 A 
BRANCH  35  36
ATOM     36  C   UNL A   1      37.766  31.824  30.511  1.00  0.00     0.031 A 
ATOM     37  C   UNL A   1      38.606  30.779  29.829  1.00  0.00     0.074 A 
ATOM     38  C   UNL A   1      38.051  32.201  31.774  1.00  0.00     0.049 A 
ATOM     39  N   UNL A   1      39.603  30.077  30.303  1.00  0.00    -0.248 NA
ATOM     40  C   UNL A   1      38.259  30.464  28.435  1.00  0.00     0.031 C 
ATOM     41  C   UNL A   1      37.301  33.191  32.549  1.00  0.00     0.029 A 
ATOM     42  N   UNL A   1      39.036  31.785  32.635  1.00  0.00    -0.354 N 
ATOM     43  C   UNL A   1      39.991  29.224  29.274  1.00  0.00     0.074 A 
ATOM     44  C   UNL A   1      39.083  29.462  28.171  1.00  0.00     0.031 C 
ATOM     45  C   UNL A   1      37.860  33.314  33.763  1.00  0.00     0.029 A 
ATOM     46  C   UNL A   1      38.972  32.374  33.877  1.00  0.00     0.049 A 
ATOM     47  H   UNL A   1      39.726  31.127  32.387  1.00  0.00     0.167 HD
ATOM     48  C   UNL A   1      41.018  28.338  29.247  1.00  0.00     0.034 A 
ATOM     49  C   UNL A   1      39.705  32.164  34.990  1.00  0.00     0.034 A 
ATOM     50  C   UNL A   1      41.918  28.120  30.353  1.00  0.00     0.049 A 
ATOM     51  C   UNL A   1      40.811  31.138  34.953  1.00  0.00     0.074 A 
ATOM     52  C   UNL A   1      43.019  27.283  30.415  1.00  0.00     0.029 A 
ATOM     53  N   UNL A   1      41.818  28.734  31.595  1.00  0.00    -0.354 N 
ATOM     54  N   UNL A   1      41.186  30.363  33.961  1.00  0.00    -0.248 NA
ATOM     55  C   UNL A   1      41.598  30.963  36.181  1.00  0.00     0.031 C 
ATOM     56  C   UNL A   1      43.538  27.336  31.713  1.00  0.00     0.029 A 
ATOM     57  C   UNL A   1      42.817  28.271  32.438  1.00  0.00     0.049 A 
ATOM     58  H   UNL A   1      41.137  29.402  31.842  1.00  0.00     0.167 HD
ATOM     59  C   UNL A   1      42.277  29.640  34.436  1.00  0.00     0.074 A 
ATOM     60  C   UNL A   1      42.501  30.071  35.800  1.00  0.00     0.031 C 
ATOM     61  C   UNL A   1      43.032  28.711  33.797  1.00  0.00     0.034 A 
BRANCH  48  62
ATOM     62  C   UNL A   1      41.197  27.519  27.991  1.00  0.00     0.023 A 
ATOM     63  C   UNL A   1      40.832  26.162  27.934  1.00  0.00     0.031 A 
ATOM     64  C   UNL A   1      41.761  28.096  26.837  1.00  0.00     0.131 A 
ATOM     65  C   UNL A   1      41.104  25.411  26.780  1.00  0.00     0.055 A 
ATOM     66  C   UNL A   1      41.950  27.364  25.664  1.00  0.00     0.041 A 
ATOM     67  F   UNL A   1      42.149  29.381  26.836  1.00  0.00    -0.206 F 
ATOM     68  C   UNL A   1      41.636  26.007  25.636  1.00  0.00     0.022 A 
BRANCH  65  69
ATOM     69  S   UNL A   1      40.893  23.610  26.852  1.00  0.00     0.124 S 
ATOM     70  O   UNL A   1      39.471  23.467  26.554  1.00  0.00    -0.237 OA
ATOM     71  O   UNL A   1      41.814  23.144  25.822  1.00  0.00    -0.237 OA
ATOM     72  O   UNL A   1      41.270  23.276  28.225  1.00  0.00    -0.744 OA
ENDBRANCH  65  69
ENDBRANCH  48  62
BRANCH  49  73
ATOM     73  C   UNL A   1      39.410  32.917  36.243  1.00  0.00     0.023 A 
ATOM     74  C   UNL A   1      38.581  32.372  37.236  1.00  0.00     0.031 A 
ATOM     75  C   UNL A   1      39.917  34.214  36.448  1.00  0.00     0.131 A 
ATOM     76  C   UNL A   1      38.245  33.136  38.365  1.00  0.00     0.055 A 
ATOM     77  C   UNL A   1      39.627  34.947  37.600  1.00  0.00     0.041 A 
ATOM     78  F   UNL A   1      40.715  34.784  35.531  1.00  0.00    -0.206 F 
ATOM     79  C   UNL A   1      38.774  34.413  38.561  1.00  0.00     0.022 A 
BRANCH  76  80
ATOM     80  S   UNL A   1      37.029  32.469  39.534  1.00  0.00     0.124 S 
ATOM     81  O   UNL A   1      37.191  33.364  40.674  1.00  0.00    -0.237 OA
ATOM     82  O   UNL A   1      35.783  32.602  38.785  1.00  0.00    -0.237 OA
ATOM     83  O   UNL A   1      37.480  31.096  39.749  1.00  0.00    -0.744 OA
ENDBRANCH  76  80
ENDBRANCH  49  73
BRANCH  61  84
ATOM     84  C   UNL A   1      44.218  28.146  34.542  1.00  0.00     0.023 A 
ATOM     85  C   UNL A   1      44.131  26.969  35.303  1.00  0.00     0.031 A 
ATOM     86  C   UNL A   1      45.464  28.794  34.463  1.00  0.00     0.131 A 
ATOM     87  C   UNL A   1      45.262  26.497  35.989  1.00  0.00     0.055 A 
ATOM     88  C   UNL A   1      46.598  28.290  35.100  1.00  0.00     0.041 A 
ATOM     89  F   UNL A   1      45.603  29.924  33.751  1.00  0.00    -0.206 F 
ATOM     90  C   UNL A   1      46.498  27.139  35.875  1.00  0.00     0.022 A 
BRANCH  87  91
ATOM     91  S   UNL A   1      45.086  25.063  37.085  1.00  0.00     0.124 S 
ATOM     92  O   UNL A   1      45.791  24.024  36.340  1.00  0.00    -0.237 OA
ATOM     93  O   UNL A   1      45.735  25.522  38.309  1.00  0.00    -0.237 OA
ATOM     94  O   UNL A   1      43.639  24.881  37.184  1.00  0.00    -0.744 OA
ENDBRANCH  87  91
ENDBRANCH  61  84
ENDBRANCH  35  36
ENDBRANCH  27  30
ENDBRANCH  25  26
ENDBRANCH   1  25
TORSDOF 18
ENDMDL
