MODEL 1
REMARK VINA RESULT:     -11.7      0.000      0.000
REMARK SMILES Cc1oc2cc(OCC(=O)NCCCNC(=O)c3ccc(-c4c5nc(c(-c6cc(S(=O)(=O)[O-])ccc6F)c6ccc([nH]6)c(-c6cc(S(=O)(=O)[O-])ccc6F)c6nc(c(-c7cc(S(=O)(=O)[O-])ccc7F)c7ccc4[nH]7)C=C6)C=C5)cc3)ccc2c(=O)c1Oc1ccc(Cl)cc1Cl
REMARK SMILES IDX 12 1 11 2 9 3 10 4 8 6 7 7 6 8 1 9 2 10 3 11 86 12 4 13
REMARK SMILES IDX 84 14 5 15 83 16 85 17 82 18 81 19 87 20 88 21 89 22 94 23
REMARK SMILES IDX 90 24 93 25 95 26 91 27 92 28 13 29 14 30 15 31 16 32 17 34
REMARK SMILES IDX 18 35 19 36 80 37 20 38 79 39 21 40 22 41 23 42 73 43 24 44
REMARK SMILES IDX 78 45 72 46 74 47 25 48 77 49 71 50 70 51 26 53 58 54 38 55
REMARK SMILES IDX 57 56 39 57 42 58 56 59 75 60 40 61 41 62 55 64 76 65 43 66
REMARK SMILES IDX 27 67 28 68 36 69 29 70 35 71 37 72 34 73 30 74 31 75 32 76
REMARK SMILES IDX 33 77 59 78 60 79 68 80 61 81 67 82 69 83 66 84 62 85 63 86
REMARK SMILES IDX 64 87 65 88 44 89 45 90 53 91 46 92 52 93 54 94 51 95 47 96
REMARK SMILES IDX 48 97 49 98 50 99
REMARK H PARENT 11 5 15 33 74 52 42 63
REMARK Flexibility Score: inf
ROOT
ATOM      1  C   UNL A   1      38.299  23.664  26.302  1.00  0.00     0.117 C 
ENDROOT
BRANCH   1   2
ATOM      2  N   UNL A   1      38.972  22.382  26.386  1.00  0.00    -0.353 N 
ATOM      3  C   UNL A   1      38.669  21.231  25.719  1.00  0.00     0.257 C 
ATOM      4  O   UNL A   1      39.400  20.248  25.864  1.00  0.00    -0.271 OA
ATOM      5  H   UNL A   1      39.741  22.338  26.998  1.00  0.00     0.163 HD
BRANCH   3   6
ATOM      6  C   UNL A   1      37.456  21.199  24.782  1.00  0.00     0.329 C 
BRANCH   6   7
ATOM      7  O   UNL A   1      36.258  20.669  25.336  1.00  0.00    -0.484 OA
BRANCH   7   8
ATOM      8  C   UNL A   1      35.186  21.511  25.448  1.00  0.00     0.123 A 
ATOM      9  C   UNL A   1      31.663  25.183  22.355  1.00  0.00     0.092 C 
ATOM     10  C   UNL A   1      31.928  24.547  23.691  1.00  0.00     0.148 A 
ATOM     11  O   UNL A   1      32.962  23.639  23.541  1.00  0.00    -0.457 OA
ATOM     12  C   UNL A   1      31.310  24.796  24.876  1.00  0.00     0.213 A 
ATOM     13  C   UNL A   1      33.480  23.013  24.633  1.00  0.00     0.142 A 
ATOM     14  C   UNL A   1      31.843  24.092  26.092  1.00  0.00     0.235 A 
ATOM     15  C   UNL A   1      34.576  22.185  24.395  1.00  0.00     0.094 A 
ATOM     16  C   UNL A   1      32.981  23.182  25.909  1.00  0.00     0.069 A 
ATOM     17  O   UNL A   1      31.386  24.293  27.212  1.00  0.00    -0.285 OA
ATOM     18  C   UNL A   1      33.582  22.515  26.980  1.00  0.00     0.020 A 
ATOM     19  C   UNL A   1      34.684  21.682  26.744  1.00  0.00     0.047 A 
BRANCH  12  20
ATOM     20  O   UNL A   1      30.252  25.654  25.164  1.00  0.00    -0.448 OA
BRANCH  20  21
ATOM     21  C   UNL A   1      30.127  26.869  24.550  1.00  0.00     0.146 A 
ATOM     22  C   UNL A   1      29.050  27.017  23.670  1.00  0.00     0.050 A 
ATOM     23  C   UNL A   1      31.026  27.923  24.748  1.00  0.00     0.085 A 
ATOM     24  C   UNL A   1      28.807  28.255  23.076  1.00  0.00     0.024 A 
ATOM     25  C   UNL A   1      30.778  29.163  24.157  1.00  0.00     0.045 A 
ATOM     26  Cl  UNL A   1      32.420  27.753  25.750  1.00  0.00    -0.080 Cl
ATOM     27  C   UNL A   1      29.659  29.327  23.341  1.00  0.00     0.042 A 
ATOM     28  Cl  UNL A   1      29.314  30.871  22.666  1.00  0.00    -0.084 Cl
ENDBRANCH  20  21
ENDBRANCH  12  20
ENDBRANCH   7   8
ENDBRANCH   6   7
ENDBRANCH   3   6
ENDBRANCH   1   2
BRANCH   1  29
ATOM     29  C   UNL A   1      39.123  24.805  26.884  1.00  0.00     0.042 C 
BRANCH  29  30
ATOM     30  C   UNL A   1      40.541  24.413  27.287  1.00  0.00     0.118 C 
BRANCH  30  31
ATOM     31  N   UNL A   1      41.486  24.498  26.181  1.00  0.00    -0.352 N 
ATOM     32  C   UNL A   1      42.231  25.562  25.732  1.00  0.00     0.251 C 
ATOM     33  H   UNL A   1      41.610  23.663  25.675  1.00  0.00     0.163 HD
ATOM     34  O   UNL A   1      42.825  25.469  24.660  1.00  0.00    -0.269 OA
BRANCH  32  35
ATOM     35  C   UNL A   1      42.300  26.812  26.518  1.00  0.00     0.039 A 
ATOM     36  C   UNL A   1      43.177  26.888  27.603  1.00  0.00     0.014 A 
ATOM     37  C   UNL A   1      41.491  27.905  26.197  1.00  0.00     0.014 A 
ATOM     38  C   UNL A   1      43.301  28.084  28.317  1.00  0.00     0.010 A 
ATOM     39  C   UNL A   1      41.669  29.116  26.860  1.00  0.00     0.010 A 
ATOM     40  C   UNL A   1      42.577  29.221  27.925  1.00  0.00    -0.014 A 
BRANCH  40  41
ATOM     41  C   UNL A   1      42.725  30.530  28.617  1.00  0.00     0.031 A 
ATOM     42  C   UNL A   1      43.838  31.459  28.215  1.00  0.00     0.074 A 
ATOM     43  C   UNL A   1      41.925  30.841  29.657  1.00  0.00     0.049 A 
ATOM     44  N   UNL A   1      44.263  32.547  28.802  1.00  0.00    -0.248 NA
ATOM     45  C   UNL A   1      44.588  31.095  27.003  1.00  0.00     0.031 C 
ATOM     46  C   UNL A   1      40.814  30.022  30.147  1.00  0.00     0.029 A 
ATOM     47  N   UNL A   1      41.935  31.922  30.504  1.00  0.00    -0.354 N 
ATOM     48  C   UNL A   1      45.344  32.988  28.044  1.00  0.00     0.074 A 
ATOM     49  C   UNL A   1      45.538  32.017  26.986  1.00  0.00     0.031 C 
ATOM     50  C   UNL A   1      40.246  30.634  31.198  1.00  0.00     0.029 A 
ATOM     51  C   UNL A   1      40.986  31.857  31.499  1.00  0.00     0.049 A 
ATOM     52  H   UNL A   1      42.563  32.674  30.408  1.00  0.00     0.167 HD
ATOM     53  C   UNL A   1      46.091  34.108  28.203  1.00  0.00     0.034 A 
ATOM     54  C   UNL A   1      40.757  32.672  32.550  1.00  0.00     0.034 A 
ATOM     55  C   UNL A   1      45.876  35.073  29.252  1.00  0.00     0.049 A 
ATOM     56  C   UNL A   1      41.637  33.885  32.736  1.00  0.00     0.074 A 
ATOM     57  C   UNL A   1      46.565  36.249  29.497  1.00  0.00     0.029 A 
ATOM     58  N   UNL A   1      44.896  34.977  30.232  1.00  0.00    -0.354 N 
ATOM     59  N   UNL A   1      42.652  34.291  32.007  1.00  0.00    -0.248 NA
ATOM     60  C   UNL A   1      41.338  34.757  33.881  1.00  0.00     0.031 C 
ATOM     61  C   UNL A   1      46.039  36.833  30.654  1.00  0.00     0.029 A 
ATOM     62  C   UNL A   1      44.971  36.064  31.087  1.00  0.00     0.049 A 
ATOM     63  H   UNL A   1      44.244  34.243  30.307  1.00  0.00     0.167 HD
ATOM     64  C   UNL A   1      43.074  35.489  32.577  1.00  0.00     0.074 A 
ATOM     65  C   UNL A   1      42.206  35.743  33.707  1.00  0.00     0.031 C 
ATOM     66  C   UNL A   1      44.081  36.314  32.194  1.00  0.00     0.034 A 
BRANCH  53  67
ATOM     67  C   UNL A   1      47.221  34.336  27.228  1.00  0.00     0.023 A 
ATOM     68  C   UNL A   1      48.516  33.849  27.479  1.00  0.00     0.031 A 
ATOM     69  C   UNL A   1      47.007  35.055  26.040  1.00  0.00     0.131 A 
ATOM     70  C   UNL A   1      49.560  34.145  26.591  1.00  0.00     0.055 A 
ATOM     71  C   UNL A   1      48.033  35.277  25.120  1.00  0.00     0.041 A 
ATOM     72  F   UNL A   1      45.797  35.563  25.756  1.00  0.00    -0.206 F 
ATOM     73  C   UNL A   1      49.322  34.832  25.398  1.00  0.00     0.022 A 
BRANCH  70  74
ATOM     74  S   UNL A   1      51.256  33.729  27.079  1.00  0.00     0.124 S 
ATOM     75  O   UNL A   1      51.103  32.345  27.521  1.00  0.00    -0.237 OA
ATOM     76  O   UNL A   1      51.998  33.926  25.840  1.00  0.00    -0.237 OA
ATOM     77  O   UNL A   1      51.551  34.686  28.142  1.00  0.00    -0.744 OA
ENDBRANCH  70  74
ENDBRANCH  53  67
BRANCH  54  78
ATOM     78  C   UNL A   1      39.670  32.375  33.527  1.00  0.00     0.023 A 
ATOM     79  C   UNL A   1      38.409  32.979  33.403  1.00  0.00     0.031 A 
ATOM     80  C   UNL A   1      39.896  31.549  34.643  1.00  0.00     0.131 A 
ATOM     81  C   UNL A   1      37.446  32.806  34.411  1.00  0.00     0.055 A 
ATOM     82  C   UNL A   1      38.912  31.328  35.609  1.00  0.00     0.041 A 
ATOM     83  F   UNL A   1      41.081  30.942  34.812  1.00  0.00    -0.206 F 
ATOM     84  C   UNL A   1      37.684  31.975  35.507  1.00  0.00     0.022 A 
BRANCH  81  85
ATOM     85  S   UNL A   1      35.922  33.789  34.329  1.00  0.00     0.124 S 
ATOM     86  O   UNL A   1      35.064  32.935  33.515  1.00  0.00    -0.237 OA
ATOM     87  O   UNL A   1      35.564  33.906  35.738  1.00  0.00    -0.237 OA
ATOM     88  O   UNL A   1      36.354  35.030  33.691  1.00  0.00    -0.744 OA
ENDBRANCH  81  85
ENDBRANCH  54  78
BRANCH  66  89
ATOM     89  C   UNL A   1      44.237  37.614  32.945  1.00  0.00     0.023 A 
ATOM     90  C   UNL A   1      43.479  38.756  32.635  1.00  0.00     0.031 A 
ATOM     91  C   UNL A   1      45.158  37.697  34.005  1.00  0.00     0.131 A 
ATOM     92  C   UNL A   1      43.687  39.945  33.351  1.00  0.00     0.055 A 
ATOM     93  C   UNL A   1      45.321  38.865  34.749  1.00  0.00     0.041 A 
ATOM     94  F   UNL A   1      45.909  36.634  34.342  1.00  0.00    -0.206 F 
ATOM     95  C   UNL A   1      44.590  40.001  34.417  1.00  0.00     0.022 A 
BRANCH  92  96
ATOM     96  S   UNL A   1      42.807  41.443  32.832  1.00  0.00     0.124 S 
ATOM     97  O   UNL A   1      42.125  40.992  31.623  1.00  0.00    -0.237 OA
ATOM     98  O   UNL A   1      41.951  41.718  33.981  1.00  0.00    -0.237 OA
ATOM     99  O   UNL A   1      43.878  42.414  32.613  1.00  0.00    -0.744 OA
ENDBRANCH  92  96
ENDBRANCH  66  89
ENDBRANCH  40  41
ENDBRANCH  32  35
ENDBRANCH  30  31
ENDBRANCH  29  30
ENDBRANCH   1  29
TORSDOF 17
ENDMDL
MODEL 2
REMARK VINA RESULT:     -11.6      5.479      8.020
REMARK SMILES Cc1oc2cc(OCC(=O)NCCCNC(=O)c3ccc(-c4c5nc(c(-c6cc(S(=O)(=O)[O-])ccc6F)c6ccc([nH]6)c(-c6cc(S(=O)(=O)[O-])ccc6F)c6nc(c(-c7cc(S(=O)(=O)[O-])ccc7F)c7ccc4[nH]7)C=C6)C=C5)cc3)ccc2c(=O)c1Oc1ccc(Cl)cc1Cl
REMARK SMILES IDX 12 1 11 2 9 3 10 4 8 6 7 7 6 8 1 9 2 10 3 11 86 12 4 13
REMARK SMILES IDX 84 14 5 15 83 16 85 17 82 18 81 19 87 20 88 21 89 22 94 23
REMARK SMILES IDX 90 24 93 25 95 26 91 27 92 28 13 29 14 30 15 31 16 32 17 34
REMARK SMILES IDX 18 35 19 36 80 37 20 38 79 39 21 40 22 41 23 42 73 43 24 44
REMARK SMILES IDX 78 45 72 46 74 47 25 48 77 49 71 50 70 51 26 53 58 54 38 55
REMARK SMILES IDX 57 56 39 57 42 58 56 59 75 60 40 61 41 62 55 64 76 65 43 66
REMARK SMILES IDX 27 67 28 68 36 69 29 70 35 71 37 72 34 73 30 74 31 75 32 76
REMARK SMILES IDX 33 77 59 78 60 79 68 80 61 81 67 82 69 83 66 84 62 85 63 86
REMARK SMILES IDX 64 87 65 88 44 89 45 90 53 91 46 92 52 93 54 94 51 95 47 96
REMARK SMILES IDX 48 97 49 98 50 99
REMARK H PARENT 11 5 15 33 74 52 42 63
REMARK Flexibility Score: inf
ROOT
ATOM      1  C   UNL A   1      44.797  22.409  24.048  1.00  0.00     0.117 C 
ENDROOT
BRANCH   1   2
ATOM      2  N   UNL A   1      43.966  21.419  24.704  1.00  0.00    -0.353 N 
ATOM      3  C   UNL A   1      43.114  21.602  25.755  1.00  0.00     0.257 C 
ATOM      4  O   UNL A   1      42.430  20.652  26.141  1.00  0.00    -0.271 OA
ATOM      5  H   UNL A   1      44.021  20.503  24.348  1.00  0.00     0.163 HD
BRANCH   3   6
ATOM      6  C   UNL A   1      43.003  22.988  26.402  1.00  0.00     0.329 C 
BRANCH   6   7
ATOM      7  O   UNL A   1      41.804  23.242  27.123  1.00  0.00    -0.484 OA
BRANCH   7   8
ATOM      8  C   UNL A   1      41.437  24.547  27.303  1.00  0.00     0.123 A 
ATOM      9  C   UNL A   1      40.180  28.617  31.464  1.00  0.00     0.092 C 
ATOM     10  C   UNL A   1      40.356  28.356  29.994  1.00  0.00     0.148 A 
ATOM     11  O   UNL A   1      40.805  27.056  29.836  1.00  0.00    -0.457 OA
ATOM     12  C   UNL A   1      40.113  29.200  28.957  1.00  0.00     0.213 A 
ATOM     13  C   UNL A   1      40.927  26.526  28.588  1.00  0.00     0.142 A 
ATOM     14  C   UNL A   1      40.272  28.649  27.568  1.00  0.00     0.235 A 
ATOM     15  C   UNL A   1      41.298  25.184  28.532  1.00  0.00     0.094 A 
ATOM     16  C   UNL A   1      40.689  27.247  27.435  1.00  0.00     0.069 A 
ATOM     17  O   UNL A   1      40.024  29.317  26.570  1.00  0.00    -0.285 OA
ATOM     18  C   UNL A   1      40.821  26.623  26.191  1.00  0.00     0.020 A 
ATOM     19  C   UNL A   1      41.195  25.274  26.131  1.00  0.00     0.047 A 
BRANCH  12  20
ATOM     20  O   UNL A   1      39.688  30.526  28.971  1.00  0.00    -0.448 OA
BRANCH  20  21
ATOM     21  C   UNL A   1      38.648  30.938  29.756  1.00  0.00     0.146 A 
ATOM     22  C   UNL A   1      38.969  31.778  30.828  1.00  0.00     0.050 A 
ATOM     23  C   UNL A   1      37.324  30.539  29.544  1.00  0.00     0.085 A 
ATOM     24  C   UNL A   1      37.951  32.309  31.619  1.00  0.00     0.024 A 
ATOM     25  C   UNL A   1      36.306  31.076  30.333  1.00  0.00     0.045 A 
ATOM     26  Cl  UNL A   1      36.897  29.430  28.294  1.00  0.00    -0.080 Cl
ATOM     27  C   UNL A   1      36.624  31.974  31.353  1.00  0.00     0.042 A 
ATOM     28  Cl  UNL A   1      35.365  32.690  32.283  1.00  0.00    -0.084 Cl
ENDBRANCH  20  21
ENDBRANCH  12  20
ENDBRANCH   7   8
ENDBRANCH   6   7
ENDBRANCH   3   6
ENDBRANCH   1   2
BRANCH   1  29
ATOM     29  C   UNL A   1      46.172  22.548  24.691  1.00  0.00     0.042 C 
BRANCH  29  30
ATOM     30  C   UNL A   1      46.392  23.870  25.420  1.00  0.00     0.118 C 
BRANCH  30  31
ATOM     31  N   UNL A   1      47.054  24.869  24.591  1.00  0.00    -0.352 N 
ATOM     32  C   UNL A   1      46.967  26.240  24.617  1.00  0.00     0.251 C 
ATOM     33  H   UNL A   1      47.657  24.505  23.903  1.00  0.00     0.163 HD
ATOM     34  O   UNL A   1      47.465  26.891  23.701  1.00  0.00    -0.269 OA
BRANCH  32  35
ATOM     35  C   UNL A   1      46.265  26.924  25.723  1.00  0.00     0.039 A 
ATOM     36  C   UNL A   1      44.868  26.894  25.767  1.00  0.00     0.014 A 
ATOM     37  C   UNL A   1      46.979  27.608  26.710  1.00  0.00     0.014 A 
ATOM     38  C   UNL A   1      44.192  27.481  26.841  1.00  0.00     0.010 A 
ATOM     39  C   UNL A   1      46.310  28.127  27.814  1.00  0.00     0.010 A 
ATOM     40  C   UNL A   1      44.909  28.067  27.895  1.00  0.00    -0.014 A 
BRANCH  40  41
ATOM     41  C   UNL A   1      44.232  28.649  29.085  1.00  0.00     0.031 A 
ATOM     42  C   UNL A   1      43.816  30.095  29.068  1.00  0.00     0.074 A 
ATOM     43  C   UNL A   1      44.074  27.912  30.203  1.00  0.00     0.049 A 
ATOM     44  N   UNL A   1      43.392  30.848  30.049  1.00  0.00    -0.248 NA
ATOM     45  C   UNL A   1      43.921  30.791  27.776  1.00  0.00     0.031 C 
ATOM     46  C   UNL A   1      44.441  26.501  30.348  1.00  0.00     0.029 A 
ATOM     47  N   UNL A   1      43.583  28.252  31.440  1.00  0.00    -0.354 N 
ATOM     48  C   UNL A   1      43.198  32.112  29.499  1.00  0.00     0.074 A 
ATOM     49  C   UNL A   1      43.603  32.032  28.111  1.00  0.00     0.031 C 
ATOM     50  C   UNL A   1      44.152  26.097  31.595  1.00  0.00     0.029 A 
ATOM     51  C   UNL A   1      43.639  27.230  32.360  1.00  0.00     0.049 A 
ATOM     52  H   UNL A   1      43.224  29.145  31.648  1.00  0.00     0.167 HD
ATOM     53  C   UNL A   1      42.708  33.228  30.092  1.00  0.00     0.034 A 
ATOM     54  C   UNL A   1      43.339  27.214  33.675  1.00  0.00     0.034 A 
ATOM     55  C   UNL A   1      42.295  33.289  31.472  1.00  0.00     0.049 A 
ATOM     56  C   UNL A   1      42.846  28.486  34.325  1.00  0.00     0.074 A 
ATOM     57  C   UNL A   1      41.772  34.364  32.169  1.00  0.00     0.029 A 
ATOM     58  N   UNL A   1      42.355  32.227  32.366  1.00  0.00    -0.354 N 
ATOM     59  N   UNL A   1      42.663  29.671  33.790  1.00  0.00    -0.248 NA
ATOM     60  C   UNL A   1      42.510  28.417  35.754  1.00  0.00     0.031 C 
ATOM     61  C   UNL A   1      41.569  33.970  33.496  1.00  0.00     0.029 A 
ATOM     62  C   UNL A   1      41.891  32.627  33.609  1.00  0.00     0.049 A 
ATOM     63  H   UNL A   1      42.680  31.324  32.149  1.00  0.00     0.167 HD
ATOM     64  C   UNL A   1      42.142  30.470  34.805  1.00  0.00     0.074 A 
ATOM     65  C   UNL A   1      42.039  29.634  35.982  1.00  0.00     0.031 C 
ATOM     66  C   UNL A   1      41.771  31.774  34.765  1.00  0.00     0.034 A 
BRANCH  53  67
ATOM     67  C   UNL A   1      42.612  34.478  29.251  1.00  0.00     0.023 A 
ATOM     68  C   UNL A   1      43.760  35.196  28.870  1.00  0.00     0.031 A 
ATOM     69  C   UNL A   1      41.362  34.964  28.832  1.00  0.00     0.131 A 
ATOM     70  C   UNL A   1      43.630  36.395  28.155  1.00  0.00     0.055 A 
ATOM     71  C   UNL A   1      41.245  36.116  28.050  1.00  0.00     0.041 A 
ATOM     72  F   UNL A   1      40.230  34.333  29.182  1.00  0.00    -0.206 F 
ATOM     73  C   UNL A   1      42.382  36.846  27.718  1.00  0.00     0.022 A 
BRANCH  70  74
ATOM     74  S   UNL A   1      45.103  37.423  27.914  1.00  0.00     0.124 S 
ATOM     75  O   UNL A   1      46.067  36.444  27.415  1.00  0.00    -0.237 OA
ATOM     76  O   UNL A   1      44.643  38.415  26.949  1.00  0.00    -0.237 OA
ATOM     77  O   UNL A   1      45.386  37.938  29.252  1.00  0.00    -0.744 OA
ENDBRANCH  70  74
ENDBRANCH  53  67
BRANCH  54  78
ATOM     78  C   UNL A   1      43.509  25.973  34.486  1.00  0.00     0.023 A 
ATOM     79  C   UNL A   1      44.785  25.432  34.711  1.00  0.00     0.031 A 
ATOM     80  C   UNL A   1      42.399  25.266  34.980  1.00  0.00     0.131 A 
ATOM     81  C   UNL A   1      44.916  24.188  35.348  1.00  0.00     0.055 A 
ATOM     82  C   UNL A   1      42.539  24.060  35.671  1.00  0.00     0.041 A 
ATOM     83  F   UNL A   1      41.155  25.737  34.798  1.00  0.00    -0.206 F 
ATOM     84  C   UNL A   1      43.803  23.504  35.840  1.00  0.00     0.022 A 
BRANCH  81  85
ATOM     85  S   UNL A   1      46.558  23.416  35.408  1.00  0.00     0.124 S 
ATOM     86  O   UNL A   1      46.216  22.005  35.549  1.00  0.00    -0.237 OA
ATOM     87  O   UNL A   1      47.125  23.817  34.126  1.00  0.00    -0.237 OA
ATOM     88  O   UNL A   1      47.176  24.029  36.581  1.00  0.00    -0.744 OA
ENDBRANCH  81  85
ENDBRANCH  54  78
BRANCH  66  89
ATOM     89  C   UNL A   1      41.129  32.351  36.004  1.00  0.00     0.023 A 
ATOM     90  C   UNL A   1      39.775  32.145  36.313  1.00  0.00     0.031 A 
ATOM     91  C   UNL A   1      41.906  33.111  36.898  1.00  0.00     0.131 A 
ATOM     92  C   UNL A   1      39.227  32.729  37.466  1.00  0.00     0.055 A 
ATOM     93  C   UNL A   1      41.369  33.643  38.070  1.00  0.00     0.041 A 
ATOM     94  F   UNL A   1      43.206  33.339  36.649  1.00  0.00    -0.206 F 
ATOM     95  C   UNL A   1      40.020  33.461  38.355  1.00  0.00     0.022 A 
BRANCH  92  96
ATOM     96  S   UNL A   1      37.444  32.575  37.762  1.00  0.00     0.124 S 
ATOM     97  O   UNL A   1      37.264  33.386  38.962  1.00  0.00    -0.237 OA
ATOM     98  O   UNL A   1      36.874  33.120  36.534  1.00  0.00    -0.237 OA
ATOM     99  O   UNL A   1      37.249  31.139  37.949  1.00  0.00    -0.744 OA
ENDBRANCH  92  96
ENDBRANCH  66  89
ENDBRANCH  40  41
ENDBRANCH  32  35
ENDBRANCH  30  31
ENDBRANCH  29  30
ENDBRANCH   1  29
TORSDOF 17
ENDMDL
MODEL 3
REMARK VINA RESULT:     -11.5      7.977     13.770
REMARK SMILES Cc1oc2cc(OCC(=O)NCCCNC(=O)c3ccc(-c4c5nc(c(-c6cc(S(=O)(=O)[O-])ccc6F)c6ccc([nH]6)c(-c6cc(S(=O)(=O)[O-])ccc6F)c6nc(c(-c7cc(S(=O)(=O)[O-])ccc7F)c7ccc4[nH]7)C=C6)C=C5)cc3)ccc2c(=O)c1Oc1ccc(Cl)cc1Cl
REMARK SMILES IDX 12 1 11 2 9 3 10 4 8 6 7 7 6 8 1 9 2 10 3 11 86 12 4 13
REMARK SMILES IDX 84 14 5 15 83 16 85 17 82 18 81 19 87 20 88 21 89 22 94 23
REMARK SMILES IDX 90 24 93 25 95 26 91 27 92 28 13 29 14 30 15 31 16 32 17 34
REMARK SMILES IDX 18 35 19 36 80 37 20 38 79 39 21 40 22 41 23 42 73 43 24 44
REMARK SMILES IDX 78 45 72 46 74 47 25 48 77 49 71 50 70 51 26 53 58 54 38 55
REMARK SMILES IDX 57 56 39 57 42 58 56 59 75 60 40 61 41 62 55 64 76 65 43 66
REMARK SMILES IDX 27 67 28 68 36 69 29 70 35 71 37 72 34 73 30 74 31 75 32 76
REMARK SMILES IDX 33 77 59 78 60 79 68 80 61 81 67 82 69 83 66 84 62 85 63 86
REMARK SMILES IDX 64 87 65 88 44 89 45 90 53 91 46 92 52 93 54 94 51 95 47 96
REMARK SMILES IDX 48 97 49 98 50 99
REMARK H PARENT 11 5 15 33 74 52 42 63
REMARK Flexibility Score: inf
ROOT
ATOM      1  C   UNL A   1      46.786  38.642  25.465  1.00  0.00     0.117 C 
ENDROOT
BRANCH   1   2
ATOM      2  N   UNL A   1      45.499  38.599  26.133  1.00  0.00    -0.353 N 
ATOM      3  C   UNL A   1      44.763  39.648  26.604  1.00  0.00     0.257 C 
ATOM      4  O   UNL A   1      43.650  39.426  27.086  1.00  0.00    -0.271 OA
ATOM      5  H   UNL A   1      45.109  37.705  26.261  1.00  0.00     0.163 HD
BRANCH   3   6
ATOM      6  C   UNL A   1      45.320  41.071  26.488  1.00  0.00     0.329 C 
BRANCH   6   7
ATOM      7  O   UNL A   1      44.365  42.091  26.222  1.00  0.00    -0.484 OA
BRANCH   7   8
ATOM      8  C   UNL A   1      44.032  42.321  24.916  1.00  0.00     0.123 A 
ATOM      9  C   UNL A   1      46.307  43.688  19.585  1.00  0.00     0.092 C 
ATOM     10  C   UNL A   1      45.065  43.327  20.351  1.00  0.00     0.148 A 
ATOM     11  O   UNL A   1      45.430  43.019  21.650  1.00  0.00    -0.457 OA
ATOM     12  C   UNL A   1      43.780  43.310  19.906  1.00  0.00     0.213 A 
ATOM     13  C   UNL A   1      44.473  42.777  22.586  1.00  0.00     0.142 A 
ATOM     14  C   UNL A   1      42.706  43.011  20.914  1.00  0.00     0.235 A 
ATOM     15  C   UNL A   1      44.933  42.565  23.884  1.00  0.00     0.094 A 
ATOM     16  C   UNL A   1      43.123  42.751  22.298  1.00  0.00     0.069 A 
ATOM     17  O   UNL A   1      41.516  43.026  20.620  1.00  0.00    -0.285 OA
ATOM     18  C   UNL A   1      42.203  42.511  23.322  1.00  0.00     0.020 A 
ATOM     19  C   UNL A   1      42.663  42.297  24.628  1.00  0.00     0.047 A 
BRANCH  12  20
ATOM     20  O   UNL A   1      43.276  43.569  18.634  1.00  0.00    -0.448 OA
BRANCH  20  21
ATOM     21  C   UNL A   1      43.070  44.846  18.191  1.00  0.00     0.146 A 
ATOM     22  C   UNL A   1      44.188  45.686  18.163  1.00  0.00     0.050 A 
ATOM     23  C   UNL A   1      41.815  45.328  17.803  1.00  0.00     0.085 A 
ATOM     24  C   UNL A   1      44.072  46.974  17.640  1.00  0.00     0.024 A 
ATOM     25  C   UNL A   1      41.702  46.615  17.275  1.00  0.00     0.045 A 
ATOM     26  Cl  UNL A   1      40.394  44.356  17.913  1.00  0.00    -0.080 Cl
ATOM     27  C   UNL A   1      42.835  47.422  17.178  1.00  0.00     0.042 A 
ATOM     28  Cl  UNL A   1      42.712  48.983  16.465  1.00  0.00    -0.084 Cl
ENDBRANCH  20  21
ENDBRANCH  12  20
ENDBRANCH   7   8
ENDBRANCH   6   7
ENDBRANCH   3   6
ENDBRANCH   1   2
BRANCH   1  29
ATOM     29  C   UNL A   1      47.612  37.382  25.689  1.00  0.00     0.042 C 
BRANCH  29  30
ATOM     30  C   UNL A   1      46.828  36.214  26.279  1.00  0.00     0.118 C 
BRANCH  30  31
ATOM     31  N   UNL A   1      46.063  35.483  25.277  1.00  0.00    -0.352 N 
ATOM     32  C   UNL A   1      44.945  34.697  25.416  1.00  0.00     0.251 C 
ATOM     33  H   UNL A   1      46.400  35.565  24.356  1.00  0.00     0.163 HD
ATOM     34  O   UNL A   1      44.568  34.015  24.466  1.00  0.00    -0.269 OA
BRANCH  32  35
ATOM     35  C   UNL A   1      44.215  34.654  26.701  1.00  0.00     0.039 A 
ATOM     36  C   UNL A   1      44.178  33.458  27.425  1.00  0.00     0.014 A 
ATOM     37  C   UNL A   1      43.555  35.784  27.188  1.00  0.00     0.014 A 
ATOM     38  C   UNL A   1      43.548  33.418  28.673  1.00  0.00     0.010 A 
ATOM     39  C   UNL A   1      42.992  35.763  28.461  1.00  0.00     0.010 A 
ATOM     40  C   UNL A   1      42.985  34.582  29.219  1.00  0.00    -0.014 A 
BRANCH  40  41
ATOM     41  C   UNL A   1      42.358  34.598  30.568  1.00  0.00     0.031 A 
ATOM     42  C   UNL A   1      43.233  34.532  31.792  1.00  0.00     0.074 A 
ATOM     43  C   UNL A   1      41.016  34.581  30.694  1.00  0.00     0.049 A 
ATOM     44  N   UNL A   1      42.898  34.344  33.042  1.00  0.00    -0.248 NA
ATOM     45  C   UNL A   1      44.681  34.669  31.569  1.00  0.00     0.031 C 
ATOM     46  C   UNL A   1      40.060  34.636  29.586  1.00  0.00     0.029 A 
ATOM     47  N   UNL A   1      40.220  34.490  31.810  1.00  0.00    -0.354 N 
ATOM     48  C   UNL A   1      44.094  34.319  33.754  1.00  0.00     0.074 A 
ATOM     49  C   UNL A   1      45.162  34.458  32.785  1.00  0.00     0.031 C 
ATOM     50  C   UNL A   1      38.812  34.589  30.078  1.00  0.00     0.029 A 
ATOM     51  C   UNL A   1      38.874  34.438  31.529  1.00  0.00     0.049 A 
ATOM     52  H   UNL A   1      40.581  34.465  32.726  1.00  0.00     0.167 HD
ATOM     53  C   UNL A   1      44.282  34.210  35.092  1.00  0.00     0.034 A 
ATOM     54  C   UNL A   1      37.813  34.259  32.343  1.00  0.00     0.034 A 
ATOM     55  C   UNL A   1      43.208  34.086  36.046  1.00  0.00     0.049 A 
ATOM     56  C   UNL A   1      38.052  34.087  33.825  1.00  0.00     0.074 A 
ATOM     57  C   UNL A   1      43.286  33.984  37.424  1.00  0.00     0.029 A 
ATOM     58  N   UNL A   1      41.858  34.051  35.721  1.00  0.00    -0.354 N 
ATOM     59  N   UNL A   1      39.189  34.070  34.483  1.00  0.00    -0.248 NA
ATOM     60  C   UNL A   1      36.866  33.917  34.676  1.00  0.00     0.031 C 
ATOM     61  C   UNL A   1      41.990  33.831  37.927  1.00  0.00     0.029 A 
ATOM     62  C   UNL A   1      41.097  33.916  36.871  1.00  0.00     0.049 A 
ATOM     63  H   UNL A   1      41.495  34.112  34.808  1.00  0.00     0.167 HD
ATOM     64  C   UNL A   1      38.848  33.942  35.826  1.00  0.00     0.074 A 
ATOM     65  C   UNL A   1      37.403  33.886  35.887  1.00  0.00     0.031 C 
ATOM     66  C   UNL A   1      39.656  33.887  36.915  1.00  0.00     0.034 A 
BRANCH  53  67
ATOM     67  C   UNL A   1      45.704  34.201  35.596  1.00  0.00     0.023 A 
ATOM     68  C   UNL A   1      46.392  32.998  35.834  1.00  0.00     0.031 A 
ATOM     69  C   UNL A   1      46.380  35.407  35.852  1.00  0.00     0.131 A 
ATOM     70  C   UNL A   1      47.685  33.025  36.377  1.00  0.00     0.055 A 
ATOM     71  C   UNL A   1      47.697  35.428  36.316  1.00  0.00     0.041 A 
ATOM     72  F   UNL A   1      45.769  36.587  35.664  1.00  0.00    -0.206 F 
ATOM     73  C   UNL A   1      48.353  34.233  36.593  1.00  0.00     0.022 A 
BRANCH  70  74
ATOM     74  S   UNL A   1      48.431  31.463  36.914  1.00  0.00     0.124 S 
ATOM     75  O   UNL A   1      49.314  31.913  37.987  1.00  0.00    -0.237 OA
ATOM     76  O   UNL A   1      47.270  30.683  37.327  1.00  0.00    -0.237 OA
ATOM     77  O   UNL A   1      49.114  30.979  35.717  1.00  0.00    -0.744 OA
ENDBRANCH  70  74
ENDBRANCH  53  67
BRANCH  54  78
ATOM     78  C   UNL A   1      36.426  34.209  31.795  1.00  0.00     0.023 A 
ATOM     79  C   UNL A   1      35.524  35.259  32.028  1.00  0.00     0.031 A 
ATOM     80  C   UNL A   1      35.955  33.080  31.100  1.00  0.00     0.131 A 
ATOM     81  C   UNL A   1      34.182  35.131  31.634  1.00  0.00     0.055 A 
ATOM     82  C   UNL A   1      34.636  32.986  30.652  1.00  0.00     0.041 A 
ATOM     83  F   UNL A   1      36.774  32.047  30.845  1.00  0.00    -0.206 F 
ATOM     84  C   UNL A   1      33.735  34.008  30.937  1.00  0.00     0.022 A 
BRANCH  81  85
ATOM     85  S   UNL A   1      33.001  36.405  32.161  1.00  0.00     0.124 S 
ATOM     86  O   UNL A   1      33.688  36.987  33.308  1.00  0.00    -0.237 OA
ATOM     87  O   UNL A   1      32.912  37.243  30.971  1.00  0.00    -0.237 OA
ATOM     88  O   UNL A   1      31.797  35.640  32.477  1.00  0.00    -0.744 OA
ENDBRANCH  81  85
ENDBRANCH  54  78
BRANCH  66  89
ATOM     89  C   UNL A   1      38.993  33.857  38.271  1.00  0.00     0.023 A 
ATOM     90  C   UNL A   1      38.360  32.707  38.772  1.00  0.00     0.031 A 
ATOM     91  C   UNL A   1      39.014  35.008  39.080  1.00  0.00     0.131 A 
ATOM     92  C   UNL A   1      37.737  32.746  40.029  1.00  0.00     0.055 A 
ATOM     93  C   UNL A   1      38.441  35.024  40.351  1.00  0.00     0.041 A 
ATOM     94  F   UNL A   1      39.605  36.135  38.648  1.00  0.00    -0.206 F 
ATOM     95  C   UNL A   1      37.790  33.892  40.829  1.00  0.00     0.022 A 
BRANCH  92  96
ATOM     96  S   UNL A   1      36.798  31.298  40.586  1.00  0.00     0.124 S 
ATOM     97  O   UNL A   1      35.928  31.874  41.607  1.00  0.00    -0.237 OA
ATOM     98  O   UNL A   1      36.138  30.862  39.359  1.00  0.00    -0.237 OA
ATOM     99  O   UNL A   1      37.829  30.392  41.089  1.00  0.00    -0.744 OA
ENDBRANCH  92  96
ENDBRANCH  66  89
ENDBRANCH  40  41
ENDBRANCH  32  35
ENDBRANCH  30  31
ENDBRANCH  29  30
ENDBRANCH   1  29
TORSDOF 17
ENDMDL
