MODEL 1
REMARK VINA RESULT:     -12.5      0.000      0.000
REMARK SMILES Cc1ccc(C(=O)Nc2cccc(F)c2C(=O)NCCCNC(=O)c2ccc(-c3c4nc(c(-c5cc(S(=O)(=O)[O-])ccc5F)c5ccc([nH]5)c(-c5cc(S(=O)(=O)[O-])ccc5F)c5nc(c(-c6cc(S(=O)(=O)[O-])ccc6F)c6ccc3[nH]6)C=C5)C=C4)cc2)c(F)c1
REMARK SMILES IDX 20 1 19 2 18 3 16 4 17 5 15 7 9 8 10 9 11 10 13 11 12 12
REMARK SMILES IDX 14 13 8 14 6 15 7 16 5 18 1 19 2 20 3 21 90 22 4 23 88 24
REMARK SMILES IDX 89 25 21 26 22 27 23 28 24 30 25 31 26 32 87 33 27 34 86 35
REMARK SMILES IDX 28 36 29 37 30 38 80 39 31 40 85 41 79 42 81 43 32 44 84 45
REMARK SMILES IDX 78 46 77 47 33 49 65 50 45 51 64 52 46 53 49 54 63 55 82 56
REMARK SMILES IDX 47 57 48 58 62 60 83 61 50 62 34 63 35 64 43 65 36 66 42 67
REMARK SMILES IDX 44 68 41 69 37 70 38 71 39 72 40 73 66 74 67 75 75 76 68 77
REMARK SMILES IDX 74 78 76 79 73 80 69 81 70 82 71 83 72 84 51 85 52 86 60 87
REMARK SMILES IDX 53 88 59 89 61 90 58 91 54 92 55 93 56 94 57 95
REMARK H PARENT 18 6 8 17 22 29 81 48 49 59
REMARK Flexibility Score: inf
ROOT
ATOM      1  C   UNL A   1      33.468  28.951  23.342  1.00  0.00     0.042 C 
ENDROOT
BRANCH   1   2
ATOM      2  C   UNL A   1      32.100  28.830  22.666  1.00  0.00     0.118 C 
BRANCH   2   3
ATOM      3  N   UNL A   1      31.957  27.544  22.013  1.00  0.00    -0.352 N 
ATOM      4  C   UNL A   1      31.858  26.244  22.420  1.00  0.00     0.256 C 
ATOM      5  O   UNL A   1      31.833  25.429  21.489  1.00  0.00    -0.269 OA
ATOM      6  H   UNL A   1      31.923  27.628  21.033  1.00  0.00     0.163 HD
BRANCH   4   7
ATOM      7  C   UNL A   1      31.747  25.718  23.819  1.00  0.00     0.099 A 
ATOM      8  C   UNL A   1      32.891  25.080  24.381  1.00  0.00     0.057 A 
ATOM      9  C   UNL A   1      32.907  24.683  25.731  1.00  0.00     0.027 A 
ATOM     10  C   UNL A   1      31.758  24.765  26.503  1.00  0.00     0.005 A 
ATOM     11  C   UNL A   1      30.612  25.788  24.630  1.00  0.00     0.138 A 
ATOM     12  C   UNL A   1      30.601  25.280  25.937  1.00  0.00     0.040 A 
ATOM     13  F   UNL A   1      29.473  26.361  24.232  1.00  0.00    -0.206 F 
BRANCH   8  14
ATOM     14  N   UNL A   1      34.015  24.794  23.573  1.00  0.00    -0.321 N 
ATOM     15  C   UNL A   1      34.712  23.616  23.381  1.00  0.00     0.258 C 
ATOM     16  O   UNL A   1      35.767  23.630  22.752  1.00  0.00    -0.269 OA
ATOM     17  H   UNL A   1      34.359  25.562  23.062  1.00  0.00     0.170 HD
BRANCH  15  18
ATOM     18  C   UNL A   1      34.138  22.310  23.803  1.00  0.00     0.075 A 
ATOM     19  C   UNL A   1      32.528  18.444  24.855  1.00  0.00     0.044 C 
ATOM     20  C   UNL A   1      33.075  19.795  24.504  1.00  0.00    -0.048 A 
ATOM     21  C   UNL A   1      34.160  20.321  25.208  1.00  0.00     0.004 A 
ATOM     22  C   UNL A   1      32.472  20.573  23.508  1.00  0.00     0.043 A 
ATOM     23  C   UNL A   1      34.662  21.584  24.884  1.00  0.00     0.017 A 
ATOM     24  C   UNL A   1      33.010  21.811  23.154  1.00  0.00     0.136 A 
ATOM     25  F   UNL A   1      32.419  22.488  22.159  1.00  0.00    -0.206 F 
ENDBRANCH  15  18
ENDBRANCH   8  14
ENDBRANCH   4   7
ENDBRANCH   2   3
ENDBRANCH   1   2
BRANCH   1  26
ATOM     26  C   UNL A   1      33.393  28.976  24.872  1.00  0.00     0.118 C 
BRANCH  26  27
ATOM     27  N   UNL A   1      32.818  30.220  25.367  1.00  0.00    -0.352 N 
ATOM     28  C   UNL A   1      32.991  30.881  26.556  1.00  0.00     0.251 C 
ATOM     29  H   UNL A   1      32.199  30.661  24.741  1.00  0.00     0.163 HD
ATOM     30  O   UNL A   1      32.167  31.735  26.876  1.00  0.00    -0.269 OA
BRANCH  28  31
ATOM     31  C   UNL A   1      34.143  30.596  27.441  1.00  0.00     0.039 A 
ATOM     32  C   UNL A   1      35.106  31.593  27.631  1.00  0.00     0.014 A 
ATOM     33  C   UNL A   1      34.339  29.331  28.002  1.00  0.00     0.014 A 
ATOM     34  C   UNL A   1      36.242  31.331  28.400  1.00  0.00     0.010 A 
ATOM     35  C   UNL A   1      35.432  29.095  28.835  1.00  0.00     0.010 A 
ATOM     36  C   UNL A   1      36.407  30.084  29.025  1.00  0.00    -0.014 A 
BRANCH  36  37
ATOM     37  C   UNL A   1      37.618  29.788  29.834  1.00  0.00     0.031 A 
ATOM     38  C   UNL A   1      38.698  28.899  29.273  1.00  0.00     0.074 A 
ATOM     39  C   UNL A   1      37.733  30.297  31.076  1.00  0.00     0.049 A 
ATOM     40  N   UNL A   1      39.799  28.480  29.841  1.00  0.00    -0.248 NA
ATOM     41  C   UNL A   1      38.502  28.394  27.904  1.00  0.00     0.031 C 
ATOM     42  C   UNL A   1      36.739  31.146  31.736  1.00  0.00     0.029 A 
ATOM     43  N   UNL A   1      38.737  30.181  32.005  1.00  0.00    -0.354 N 
ATOM     44  C   UNL A   1      40.416  27.653  28.908  1.00  0.00     0.074 A 
ATOM     45  C   UNL A   1      39.539  27.583  27.760  1.00  0.00     0.031 C 
ATOM     46  C   UNL A   1      37.202  31.511  32.942  1.00  0.00     0.029 A 
ATOM     47  C   UNL A   1      38.503  30.887  33.163  1.00  0.00     0.049 A 
ATOM     48  H   UNL A   1      39.548  29.644  31.856  1.00  0.00     0.167 HD
ATOM     49  C   UNL A   1      41.618  27.032  28.990  1.00  0.00     0.034 A 
ATOM     50  C   UNL A   1      39.250  31.014  34.277  1.00  0.00     0.034 A 
ATOM     51  C   UNL A   1      42.501  27.146  30.121  1.00  0.00     0.049 A 
ATOM     52  C   UNL A   1      40.573  30.301  34.353  1.00  0.00     0.074 A 
ATOM     53  C   UNL A   1      43.768  26.612  30.278  1.00  0.00     0.029 A 
ATOM     54  N   UNL A   1      42.213  27.844  31.285  1.00  0.00    -0.354 N 
ATOM     55  N   UNL A   1      41.146  29.536  33.453  1.00  0.00    -0.248 NA
ATOM     56  C   UNL A   1      41.348  30.461  35.591  1.00  0.00     0.031 C 
ATOM     57  C   UNL A   1      44.223  26.942  31.558  1.00  0.00     0.029 A 
ATOM     58  C   UNL A   1      43.266  27.731  32.176  1.00  0.00     0.049 A 
ATOM     59  H   UNL A   1      41.382  28.347  31.451  1.00  0.00     0.167 HD
ATOM     60  C   UNL A   1      42.355  29.135  34.011  1.00  0.00     0.074 A 
ATOM     61  C   UNL A   1      42.433  29.746  35.323  1.00  0.00     0.031 C 
ATOM     62  C   UNL A   1      43.315  28.336  33.484  1.00  0.00     0.034 A 
BRANCH  49  63
ATOM     63  C   UNL A   1      42.045  26.174  27.828  1.00  0.00     0.023 A 
ATOM     64  C   UNL A   1      41.653  24.828  27.726  1.00  0.00     0.031 A 
ATOM     65  C   UNL A   1      42.837  26.712  26.800  1.00  0.00     0.131 A 
ATOM     66  C   UNL A   1      42.095  24.052  26.646  1.00  0.00     0.055 A 
ATOM     67  C   UNL A   1      43.220  25.951  25.692  1.00  0.00     0.041 A 
ATOM     68  F   UNL A   1      43.254  27.987  26.853  1.00  0.00    -0.206 F 
ATOM     69  C   UNL A   1      42.856  24.610  25.615  1.00  0.00     0.022 A 
BRANCH  66  70
ATOM     70  S   UNL A   1      41.728  22.276  26.646  1.00  0.00     0.124 S 
ATOM     71  O   UNL A   1      42.316  21.856  25.376  1.00  0.00    -0.237 OA
ATOM     72  O   UNL A   1      42.409  21.810  27.849  1.00  0.00    -0.237 OA
ATOM     73  O   UNL A   1      40.268  22.227  26.698  1.00  0.00    -0.744 OA
ENDBRANCH  66  70
ENDBRANCH  49  63
BRANCH  50  74
ATOM     74  C   UNL A   1      38.759  31.849  35.408  1.00  0.00     0.023 A 
ATOM     75  C   UNL A   1      38.153  31.259  36.528  1.00  0.00     0.031 A 
ATOM     76  C   UNL A   1      38.903  33.247  35.390  1.00  0.00     0.131 A 
ATOM     77  C   UNL A   1      37.699  32.067  37.582  1.00  0.00     0.055 A 
ATOM     78  C   UNL A   1      38.481  34.044  36.456  1.00  0.00     0.041 A 
ATOM     79  F   UNL A   1      39.485  33.856  34.346  1.00  0.00    -0.206 F 
ATOM     80  C   UNL A   1      37.870  33.454  37.558  1.00  0.00     0.022 A 
BRANCH  77  81
ATOM     81  S   UNL A   1      36.859  31.282  38.985  1.00  0.00     0.124 S 
ATOM     82  O   UNL A   1      36.685  29.918  38.501  1.00  0.00    -0.237 OA
ATOM     83  O   UNL A   1      37.828  31.464  40.062  1.00  0.00    -0.237 OA
ATOM     84  O   UNL A   1      35.630  32.060  39.122  1.00  0.00    -0.744 OA
ENDBRANCH  77  81
ENDBRANCH  50  74
BRANCH  62  85
ATOM     85  C   UNL A   1      44.542  28.082  34.315  1.00  0.00     0.023 A 
ATOM     86  C   UNL A   1      44.604  27.000  35.208  1.00  0.00     0.031 A 
ATOM     87  C   UNL A   1      45.685  28.884  34.153  1.00  0.00     0.131 A 
ATOM     88  C   UNL A   1      45.786  26.756  35.922  1.00  0.00     0.055 A 
ATOM     89  C   UNL A   1      46.871  28.611  34.833  1.00  0.00     0.041 A 
ATOM     90  F   UNL A   1      45.673  29.923  33.304  1.00  0.00    -0.206 F 
ATOM     91  C   UNL A   1      46.925  27.542  35.725  1.00  0.00     0.022 A 
BRANCH  88  92
ATOM     92  S   UNL A   1      45.818  25.394  37.118  1.00  0.00     0.124 S 
ATOM     93  O   UNL A   1      46.166  26.088  38.353  1.00  0.00    -0.237 OA
ATOM     94  O   UNL A   1      44.458  24.871  37.042  1.00  0.00    -0.237 OA
ATOM     95  O   UNL A   1      46.851  24.502  36.594  1.00  0.00    -0.744 OA
ENDBRANCH  88  92
ENDBRANCH  62  85
ENDBRANCH  36  37
ENDBRANCH  28  31
ENDBRANCH  26  27
ENDBRANCH   1  26
TORSDOF 15
ENDMDL
MODEL 2
REMARK VINA RESULT:     -12.4      5.098     10.068
REMARK SMILES Cc1ccc(C(=O)Nc2cccc(F)c2C(=O)NCCCNC(=O)c2ccc(-c3c4nc(c(-c5cc(S(=O)(=O)[O-])ccc5F)c5ccc([nH]5)c(-c5cc(S(=O)(=O)[O-])ccc5F)c5nc(c(-c6cc(S(=O)(=O)[O-])ccc6F)c6ccc3[nH]6)C=C5)C=C4)cc2)c(F)c1
REMARK SMILES IDX 20 1 19 2 18 3 16 4 17 5 15 7 9 8 10 9 11 10 13 11 12 12
REMARK SMILES IDX 14 13 8 14 6 15 7 16 5 18 1 19 2 20 3 21 90 22 4 23 88 24
REMARK SMILES IDX 89 25 21 26 22 27 23 28 24 30 25 31 26 32 87 33 27 34 86 35
REMARK SMILES IDX 28 36 29 37 30 38 80 39 31 40 85 41 79 42 81 43 32 44 84 45
REMARK SMILES IDX 78 46 77 47 33 49 65 50 45 51 64 52 46 53 49 54 63 55 82 56
REMARK SMILES IDX 47 57 48 58 62 60 83 61 50 62 34 63 35 64 43 65 36 66 42 67
REMARK SMILES IDX 44 68 41 69 37 70 38 71 39 72 40 73 66 74 67 75 75 76 68 77
REMARK SMILES IDX 74 78 76 79 73 80 69 81 70 82 71 83 72 84 51 85 52 86 60 87
REMARK SMILES IDX 53 88 59 89 61 90 58 91 54 92 55 93 56 94 57 95
REMARK H PARENT 18 6 8 17 22 29 81 48 49 59
REMARK Flexibility Score: inf
ROOT
ATOM      1  C   UNL A   1      34.713  22.002  26.832  1.00  0.00     0.042 C 
ENDROOT
BRANCH   1   2
ATOM      2  C   UNL A   1      33.621  21.000  26.450  1.00  0.00     0.118 C 
BRANCH   2   3
ATOM      3  N   UNL A   1      32.325  21.646  26.385  1.00  0.00    -0.352 N 
ATOM      4  C   UNL A   1      31.788  22.700  25.703  1.00  0.00     0.256 C 
ATOM      5  O   UNL A   1      30.623  22.965  26.026  1.00  0.00    -0.269 OA
ATOM      6  H   UNL A   1      31.668  21.219  26.981  1.00  0.00     0.163 HD
BRANCH   4   7
ATOM      7  C   UNL A   1      32.422  23.522  24.621  1.00  0.00     0.099 A 
ATOM      8  C   UNL A   1      32.719  24.885  24.911  1.00  0.00     0.057 A 
ATOM      9  C   UNL A   1      33.435  25.679  23.996  1.00  0.00     0.027 A 
ATOM     10  C   UNL A   1      33.734  25.199  22.730  1.00  0.00     0.005 A 
ATOM     11  C   UNL A   1      32.745  23.073  23.338  1.00  0.00     0.138 A 
ATOM     12  C   UNL A   1      33.351  23.909  22.390  1.00  0.00     0.040 A 
ATOM     13  F   UNL A   1      32.524  21.820  22.935  1.00  0.00    -0.206 F 
BRANCH   8  14
ATOM     14  N   UNL A   1      32.257  25.476  26.109  1.00  0.00    -0.321 N 
ATOM     15  C   UNL A   1      31.575  26.658  26.328  1.00  0.00     0.258 C 
ATOM     16  O   UNL A   1      31.411  27.061  27.477  1.00  0.00    -0.269 OA
ATOM     17  H   UNL A   1      32.453  24.958  26.924  1.00  0.00     0.170 HD
BRANCH  15  18
ATOM     18  C   UNL A   1      30.916  27.379  25.206  1.00  0.00     0.075 A 
ATOM     19  C   UNL A   1      28.839  29.487  22.061  1.00  0.00     0.044 C 
ATOM     20  C   UNL A   1      29.574  28.748  23.139  1.00  0.00    -0.048 A 
ATOM     21  C   UNL A   1      30.667  29.336  23.778  1.00  0.00     0.004 A 
ATOM     22  C   UNL A   1      29.213  27.439  23.480  1.00  0.00     0.043 A 
ATOM     23  C   UNL A   1      31.354  28.642  24.777  1.00  0.00     0.017 A 
ATOM     24  C   UNL A   1      29.871  26.770  24.514  1.00  0.00     0.136 A 
ATOM     25  F   UNL A   1      29.449  25.537  24.829  1.00  0.00    -0.206 F 
ENDBRANCH  15  18
ENDBRANCH   8  14
ENDBRANCH   4   7
ENDBRANCH   2   3
ENDBRANCH   1   2
BRANCH   1  26
ATOM     26  C   UNL A   1      35.755  22.220  25.730  1.00  0.00     0.118 C 
BRANCH  26  27
ATOM     27  N   UNL A   1      36.742  21.150  25.698  1.00  0.00    -0.352 N 
ATOM     28  C   UNL A   1      38.113  21.190  25.723  1.00  0.00     0.251 C 
ATOM     29  H   UNL A   1      36.361  20.244  25.649  1.00  0.00     0.163 HD
ATOM     30  O   UNL A   1      38.734  20.190  25.368  1.00  0.00    -0.269 OA
BRANCH  28  31
ATOM     31  C   UNL A   1      38.845  22.393  26.177  1.00  0.00     0.039 A 
ATOM     32  C   UNL A   1      38.362  23.653  25.806  1.00  0.00     0.014 A 
ATOM     33  C   UNL A   1      40.052  22.295  26.874  1.00  0.00     0.014 A 
ATOM     34  C   UNL A   1      39.070  24.804  26.156  1.00  0.00     0.010 A 
ATOM     35  C   UNL A   1      40.717  23.448  27.292  1.00  0.00     0.010 A 
ATOM     36  C   UNL A   1      40.246  24.714  26.918  1.00  0.00    -0.014 A 
BRANCH  36  37
ATOM     37  C   UNL A   1      41.016  25.931  27.284  1.00  0.00     0.031 A 
ATOM     38  C   UNL A   1      40.388  26.985  28.158  1.00  0.00     0.074 A 
ATOM     39  C   UNL A   1      42.267  26.098  26.810  1.00  0.00     0.049 A 
ATOM     40  N   UNL A   1      40.875  28.137  28.542  1.00  0.00    -0.248 NA
ATOM     41  C   UNL A   1      39.023  26.722  28.644  1.00  0.00     0.031 C 
ATOM     42  C   UNL A   1      42.969  25.159  25.932  1.00  0.00     0.029 A 
ATOM     43  N   UNL A   1      43.173  27.110  27.004  1.00  0.00    -0.354 N 
ATOM     44  C   UNL A   1      39.874  28.739  29.297  1.00  0.00     0.074 A 
ATOM     45  C   UNL A   1      38.732  27.852  29.270  1.00  0.00     0.031 C 
ATOM     46  C   UNL A   1      44.210  25.617  25.700  1.00  0.00     0.029 A 
ATOM     47  C   UNL A   1      44.378  26.901  26.373  1.00  0.00     0.049 A 
ATOM     48  H   UNL A   1      42.980  27.910  27.544  1.00  0.00     0.167 HD
ATOM     49  C   UNL A   1      39.913  29.911  29.975  1.00  0.00     0.034 A 
ATOM     50  C   UNL A   1      45.492  27.660  26.339  1.00  0.00     0.034 A 
ATOM     51  C   UNL A   1      41.072  30.765  30.031  1.00  0.00     0.049 A 
ATOM     52  C   UNL A   1      45.507  28.966  27.085  1.00  0.00     0.074 A 
ATOM     53  C   UNL A   1      41.240  31.939  30.741  1.00  0.00     0.029 A 
ATOM     54  N   UNL A   1      42.260  30.532  29.353  1.00  0.00    -0.354 N 
ATOM     55  N   UNL A   1      44.556  29.510  27.807  1.00  0.00    -0.248 NA
ATOM     56  C   UNL A   1      46.739  29.763  27.010  1.00  0.00     0.031 C 
ATOM     57  C   UNL A   1      42.510  32.445  30.451  1.00  0.00     0.029 A 
ATOM     58  C   UNL A   1      43.156  31.556  29.606  1.00  0.00     0.049 A 
ATOM     59  H   UNL A   1      42.440  29.753  28.778  1.00  0.00     0.167 HD
ATOM     60  C   UNL A   1      45.079  30.708  28.283  1.00  0.00     0.074 A 
ATOM     61  C   UNL A   1      46.432  30.805  27.773  1.00  0.00     0.031 C 
ATOM     62  C   UNL A   1      44.494  31.641  29.074  1.00  0.00     0.034 A 
BRANCH  49  63
ATOM     63  C   UNL A   1      38.670  30.341  30.709  1.00  0.00     0.023 A 
ATOM     64  C   UNL A   1      37.658  31.078  30.070  1.00  0.00     0.031 A 
ATOM     65  C   UNL A   1      38.483  29.992  32.057  1.00  0.00     0.131 A 
ATOM     66  C   UNL A   1      36.528  31.486  30.793  1.00  0.00     0.055 A 
ATOM     67  C   UNL A   1      37.325  30.345  32.754  1.00  0.00     0.041 A 
ATOM     68  F   UNL A   1      39.424  29.302  32.722  1.00  0.00    -0.206 F 
ATOM     69  C   UNL A   1      36.343  31.104  32.124  1.00  0.00     0.022 A 
BRANCH  66  70
ATOM     70  S   UNL A   1      35.338  32.594  29.991  1.00  0.00     0.124 S 
ATOM     71  O   UNL A   1      34.451  32.925  31.104  1.00  0.00    -0.237 OA
ATOM     72  O   UNL A   1      36.187  33.677  29.507  1.00  0.00    -0.237 OA
ATOM     73  O   UNL A   1      34.740  31.759  28.951  1.00  0.00    -0.744 OA
ENDBRANCH  66  70
ENDBRANCH  49  63
BRANCH  50  74
ATOM     74  C   UNL A   1      46.679  27.199  25.567  1.00  0.00     0.023 A 
ATOM     75  C   UNL A   1      46.917  27.666  24.266  1.00  0.00     0.031 A 
ATOM     76  C   UNL A   1      47.600  26.297  26.128  1.00  0.00     0.131 A 
ATOM     77  C   UNL A   1      48.045  27.218  23.559  1.00  0.00     0.055 A 
ATOM     78  C   UNL A   1      48.738  25.880  25.434  1.00  0.00     0.041 A 
ATOM     79  F   UNL A   1      47.421  25.830  27.373  1.00  0.00    -0.206 F 
ATOM     80  C   UNL A   1      48.962  26.338  24.140  1.00  0.00     0.022 A 
BRANCH  77  81
ATOM     81  S   UNL A   1      48.290  27.787  21.854  1.00  0.00     0.124 S 
ATOM     82  O   UNL A   1      46.999  28.397  21.557  1.00  0.00    -0.237 OA
ATOM     83  O   UNL A   1      49.417  28.703  21.997  1.00  0.00    -0.237 OA
ATOM     84  O   UNL A   1      48.583  26.555  21.125  1.00  0.00    -0.744 OA
ENDBRANCH  77  81
ENDBRANCH  50  74
BRANCH  62  85
ATOM     85  C   UNL A   1      45.311  32.844  29.451  1.00  0.00     0.023 A 
ATOM     86  C   UNL A   1      45.302  34.006  28.662  1.00  0.00     0.031 A 
ATOM     87  C   UNL A   1      46.043  32.855  30.652  1.00  0.00     0.131 A 
ATOM     88  C   UNL A   1      46.027  35.132  29.077  1.00  0.00     0.055 A 
ATOM     89  C   UNL A   1      46.728  33.991  31.079  1.00  0.00     0.041 A 
ATOM     90  F   UNL A   1      46.074  31.769  31.440  1.00  0.00    -0.206 F 
ATOM     91  C   UNL A   1      46.724  35.138  30.290  1.00  0.00     0.022 A 
BRANCH  88  92
ATOM     92  S   UNL A   1      46.053  36.595  28.008  1.00  0.00     0.124 S 
ATOM     93  O   UNL A   1      44.645  36.977  27.986  1.00  0.00    -0.237 OA
ATOM     94  O   UNL A   1      46.947  37.498  28.727  1.00  0.00    -0.237 OA
ATOM     95  O   UNL A   1      46.579  36.086  26.742  1.00  0.00    -0.744 OA
ENDBRANCH  88  92
ENDBRANCH  62  85
ENDBRANCH  36  37
ENDBRANCH  28  31
ENDBRANCH  26  27
ENDBRANCH   1  26
TORSDOF 15
ENDMDL
MODEL 3
REMARK VINA RESULT:     -12.3      5.105      7.557
REMARK SMILES Cc1ccc(C(=O)Nc2cccc(F)c2C(=O)NCCCNC(=O)c2ccc(-c3c4nc(c(-c5cc(S(=O)(=O)[O-])ccc5F)c5ccc([nH]5)c(-c5cc(S(=O)(=O)[O-])ccc5F)c5nc(c(-c6cc(S(=O)(=O)[O-])ccc6F)c6ccc3[nH]6)C=C5)C=C4)cc2)c(F)c1
REMARK SMILES IDX 20 1 19 2 18 3 16 4 17 5 15 7 9 8 10 9 11 10 13 11 12 12
REMARK SMILES IDX 14 13 8 14 6 15 7 16 5 18 1 19 2 20 3 21 90 22 4 23 88 24
REMARK SMILES IDX 89 25 21 26 22 27 23 28 24 30 25 31 26 32 87 33 27 34 86 35
REMARK SMILES IDX 28 36 29 37 30 38 80 39 31 40 85 41 79 42 81 43 32 44 84 45
REMARK SMILES IDX 78 46 77 47 33 49 65 50 45 51 64 52 46 53 49 54 63 55 82 56
REMARK SMILES IDX 47 57 48 58 62 60 83 61 50 62 34 63 35 64 43 65 36 66 42 67
REMARK SMILES IDX 44 68 41 69 37 70 38 71 39 72 40 73 66 74 67 75 75 76 68 77
REMARK SMILES IDX 74 78 76 79 73 80 69 81 70 82 71 83 72 84 51 85 52 86 60 87
REMARK SMILES IDX 53 88 59 89 61 90 58 91 54 92 55 93 56 94 57 95
REMARK H PARENT 18 6 8 17 22 29 81 48 49 59
REMARK Flexibility Score: inf
ROOT
ATOM      1  C   UNL A   1      34.938  22.163  26.540  1.00  0.00     0.042 C 
ENDROOT
BRANCH   1   2
ATOM      2  C   UNL A   1      33.859  21.080  26.469  1.00  0.00     0.118 C 
BRANCH   2   3
ATOM      3  N   UNL A   1      32.535  21.668  26.431  1.00  0.00    -0.352 N 
ATOM      4  C   UNL A   1      31.932  22.681  25.740  1.00  0.00     0.256 C 
ATOM      5  O   UNL A   1      30.768  22.905  26.096  1.00  0.00    -0.269 OA
ATOM      6  H   UNL A   1      31.917  21.231  27.059  1.00  0.00     0.163 HD
BRANCH   4   7
ATOM      7  C   UNL A   1      32.495  23.499  24.618  1.00  0.00     0.099 A 
ATOM      8  C   UNL A   1      32.762  24.876  24.869  1.00  0.00     0.057 A 
ATOM      9  C   UNL A   1      33.415  25.672  23.910  1.00  0.00     0.027 A 
ATOM     10  C   UNL A   1      33.676  25.176  22.641  1.00  0.00     0.005 A 
ATOM     11  C   UNL A   1      32.777  23.035  23.331  1.00  0.00     0.138 A 
ATOM     12  C   UNL A   1      33.318  23.869  22.343  1.00  0.00     0.040 A 
ATOM     13  F   UNL A   1      32.578  21.767  22.960  1.00  0.00    -0.206 F 
BRANCH   8  14
ATOM     14  N   UNL A   1      32.333  25.477  26.075  1.00  0.00    -0.321 N 
ATOM     15  C   UNL A   1      31.659  26.662  26.303  1.00  0.00     0.258 C 
ATOM     16  O   UNL A   1      31.527  27.073  27.452  1.00  0.00    -0.269 OA
ATOM     17  H   UNL A   1      32.549  24.964  26.887  1.00  0.00     0.170 HD
BRANCH  15  18
ATOM     18  C   UNL A   1      30.972  27.376  25.193  1.00  0.00     0.075 A 
ATOM     19  C   UNL A   1      28.818  29.463  22.088  1.00  0.00     0.044 C 
ATOM     20  C   UNL A   1      29.579  28.732  23.151  1.00  0.00    -0.048 A 
ATOM     21  C   UNL A   1      30.683  29.327  23.765  1.00  0.00     0.004 A 
ATOM     22  C   UNL A   1      29.232  27.422  23.505  1.00  0.00     0.043 A 
ATOM     23  C   UNL A   1      31.395  28.640  24.750  1.00  0.00     0.017 A 
ATOM     24  C   UNL A   1      29.916  26.760  24.526  1.00  0.00     0.136 A 
ATOM     25  F   UNL A   1      29.506  25.526  24.854  1.00  0.00    -0.206 F 
ENDBRANCH  15  18
ENDBRANCH   8  14
ENDBRANCH   4   7
ENDBRANCH   2   3
ENDBRANCH   1   2
BRANCH   1  26
ATOM     26  C   UNL A   1      35.917  22.128  25.362  1.00  0.00     0.118 C 
BRANCH  26  27
ATOM     27  N   UNL A   1      36.917  21.080  25.518  1.00  0.00    -0.352 N 
ATOM     28  C   UNL A   1      38.273  21.152  25.707  1.00  0.00     0.251 C 
ATOM     29  H   UNL A   1      36.558  20.165  25.482  1.00  0.00     0.163 HD
ATOM     30  O   UNL A   1      38.948  20.146  25.494  1.00  0.00    -0.269 OA
BRANCH  28  31
ATOM     31  C   UNL A   1      38.927  22.397  26.168  1.00  0.00     0.039 A 
ATOM     32  C   UNL A   1      38.386  23.626  25.772  1.00  0.00     0.014 A 
ATOM     33  C   UNL A   1      40.119  22.371  26.896  1.00  0.00     0.014 A 
ATOM     34  C   UNL A   1      39.021  24.817  26.129  1.00  0.00     0.010 A 
ATOM     35  C   UNL A   1      40.709  23.561  27.320  1.00  0.00     0.010 A 
ATOM     36  C   UNL A   1      40.180  24.797  26.922  1.00  0.00    -0.014 A 
BRANCH  36  37
ATOM     37  C   UNL A   1      40.873  26.057  27.295  1.00  0.00     0.031 A 
ATOM     38  C   UNL A   1      42.267  26.328  26.790  1.00  0.00     0.074 A 
ATOM     39  C   UNL A   1      40.261  26.943  28.105  1.00  0.00     0.049 A 
ATOM     40  N   UNL A   1      43.057  27.338  27.047  1.00  0.00    -0.248 NA
ATOM     41  C   UNL A   1      42.861  25.316  25.900  1.00  0.00     0.031 C 
ATOM     42  C   UNL A   1      38.924  26.777  28.680  1.00  0.00     0.029 A 
ATOM     43  N   UNL A   1      40.676  28.161  28.582  1.00  0.00    -0.354 N 
ATOM     44  C   UNL A   1      44.241  27.077  26.366  1.00  0.00     0.074 A 
ATOM     45  C   UNL A   1      44.088  25.785  25.732  1.00  0.00     0.031 C 
ATOM     46  C   UNL A   1      38.612  27.870  29.393  1.00  0.00     0.029 A 
ATOM     47  C   UNL A   1      39.740  28.796  29.367  1.00  0.00     0.049 A 
ATOM     48  H   UNL A   1      41.560  28.545  28.382  1.00  0.00     0.167 HD
ATOM     49  C   UNL A   1      45.344  27.855  26.255  1.00  0.00     0.034 A 
ATOM     50  C   UNL A   1      39.787  29.987  29.995  1.00  0.00     0.034 A 
ATOM     51  C   UNL A   1      45.467  29.158  26.855  1.00  0.00     0.049 A 
ATOM     52  C   UNL A   1      41.030  30.827  29.873  1.00  0.00     0.074 A 
ATOM     53  C   UNL A   1      46.514  30.057  26.751  1.00  0.00     0.029 A 
ATOM     54  N   UNL A   1      44.509  29.750  27.666  1.00  0.00    -0.354 N 
ATOM     55  N   UNL A   1      42.133  30.569  29.211  1.00  0.00    -0.248 NA
ATOM     56  C   UNL A   1      41.039  32.113  30.584  1.00  0.00     0.031 C 
ATOM     57  C   UNL A   1      46.214  31.168  27.543  1.00  0.00     0.029 A 
ATOM     58  C   UNL A   1      44.954  30.990  28.094  1.00  0.00     0.049 A 
ATOM     59  H   UNL A   1      43.642  29.348  27.903  1.00  0.00     0.167 HD
ATOM     60  C   UNL A   1      42.963  31.666  29.415  1.00  0.00     0.074 A 
ATOM     61  C   UNL A   1      42.232  32.593  30.255  1.00  0.00     0.031 C 
ATOM     62  C   UNL A   1      44.215  31.889  28.945  1.00  0.00     0.034 A 
BRANCH  49  63
ATOM     63  C   UNL A   1      46.505  27.318  25.460  1.00  0.00     0.023 A 
ATOM     64  C   UNL A   1      46.821  27.825  24.188  1.00  0.00     0.031 A 
ATOM     65  C   UNL A   1      47.319  26.301  25.987  1.00  0.00     0.131 A 
ATOM     66  C   UNL A   1      47.891  27.280  23.464  1.00  0.00     0.055 A 
ATOM     67  C   UNL A   1      48.424  25.807  25.289  1.00  0.00     0.041 A 
ATOM     68  F   UNL A   1      47.054  25.769  27.192  1.00  0.00    -0.206 F 
ATOM     69  C   UNL A   1      48.709  26.291  24.016  1.00  0.00     0.022 A 
BRANCH  66  70
ATOM     70  S   UNL A   1      48.151  27.825  21.755  1.00  0.00     0.124 S 
ATOM     71  O   UNL A   1      46.925  28.577  21.498  1.00  0.00    -0.237 OA
ATOM     72  O   UNL A   1      49.374  28.612  21.854  1.00  0.00    -0.237 OA
ATOM     73  O   UNL A   1      48.275  26.573  21.011  1.00  0.00    -0.744 OA
ENDBRANCH  66  70
ENDBRANCH  49  63
BRANCH  50  74
ATOM     74  C   UNL A   1      38.621  30.449  30.797  1.00  0.00     0.023 A 
ATOM     75  C   UNL A   1      37.589  31.193  30.204  1.00  0.00     0.031 A 
ATOM     76  C   UNL A   1      38.515  30.138  32.164  1.00  0.00     0.131 A 
ATOM     77  C   UNL A   1      36.499  31.615  30.982  1.00  0.00     0.055 A 
ATOM     78  C   UNL A   1      37.412  30.531  32.925  1.00  0.00     0.041 A 
ATOM     79  F   UNL A   1      39.471  29.420  32.772  1.00  0.00    -0.206 F 
ATOM     80  C   UNL A   1      36.398  31.279  32.335  1.00  0.00     0.022 A 
BRANCH  77  81
ATOM     81  S   UNL A   1      35.214  32.634  30.204  1.00  0.00     0.124 S 
ATOM     82  O   UNL A   1      34.771  31.770  29.115  1.00  0.00    -0.237 OA
ATOM     83  O   UNL A   1      34.269  32.822  31.301  1.00  0.00    -0.237 OA
ATOM     84  O   UNL A   1      35.936  33.837  29.796  1.00  0.00    -0.744 OA
ENDBRANCH  77  81
ENDBRANCH  50  74
BRANCH  62  85
ATOM     85  C   UNL A   1      44.876  33.187  29.314  1.00  0.00     0.023 A 
ATOM     86  C   UNL A   1      44.730  34.332  28.514  1.00  0.00     0.031 A 
ATOM     87  C   UNL A   1      45.592  33.298  30.519  1.00  0.00     0.131 A 
ATOM     88  C   UNL A   1      45.308  35.542  28.921  1.00  0.00     0.055 A 
ATOM     89  C   UNL A   1      46.130  34.514  30.939  1.00  0.00     0.041 A 
ATOM     90  F   UNL A   1      45.750  32.232  31.318  1.00  0.00    -0.206 F 
ATOM     91  C   UNL A   1      45.990  35.645  30.138  1.00  0.00     0.022 A 
BRANCH  88  92
ATOM     92  S   UNL A   1      45.163  36.988  27.838  1.00  0.00     0.124 S 
ATOM     93  O   UNL A   1      46.426  36.945  27.109  1.00  0.00    -0.237 OA
ATOM     94  O   UNL A   1      43.967  36.683  27.059  1.00  0.00    -0.237 OA
ATOM     95  O   UNL A   1      45.022  38.104  28.772  1.00  0.00    -0.744 OA
ENDBRANCH  88  92
ENDBRANCH  62  85
ENDBRANCH  36  37
ENDBRANCH  28  31
ENDBRANCH  26  27
ENDBRANCH   1  26
TORSDOF 15
ENDMDL
