MODEL 1
REMARK VINA RESULT:     -12.1      0.000      0.000
REMARK SMILES CC[C@H](C(=O)NCCCNC(=O)c1ccc(-c2c3nc(c(-c4cc(S(=O)(=O)[O-])ccc4F)c4ccc([nH]4)c(-c4cc(S(=O)(=O)[O-])ccc4F)c4nc(c(-c5cc(S(=O)(=O)[O-])ccc5F)c5ccc2[nH]5)C=C4)C=C3)cc1)N1C(=O)c2ccc([N+](=O)[O-])cc2C1=O
REMARK SMILES IDX 8 1 7 2 6 3 4 4 5 5 3 7 2 8 1 9 76 10 77 11 88 12 78 13
REMARK SMILES IDX 79 14 87 15 89 16 80 17 86 18 81 19 82 20 83 21 84 22 85 23
REMARK SMILES IDX 9 24 10 25 11 26 12 28 13 29 14 30 75 31 15 32 74 33 16 34
REMARK SMILES IDX 17 35 18 36 68 37 19 38 73 39 67 40 69 41 20 42 72 43 66 44
REMARK SMILES IDX 65 45 21 47 53 48 33 49 52 50 34 51 37 52 51 53 70 54 35 55
REMARK SMILES IDX 36 56 50 58 71 59 38 60 22 61 23 62 31 63 24 64 30 65 32 66
REMARK SMILES IDX 29 67 25 68 26 69 27 70 28 71 54 72 55 73 63 74 56 75 62 76
REMARK SMILES IDX 64 77 61 78 57 79 58 80 59 81 60 82 39 83 40 84 48 85 41 86
REMARK SMILES IDX 47 87 49 88 46 89 42 90 43 91 44 92 45 93
REMARK H PARENT 6 6 10 27 69 46 37 57
REMARK Flexibility Score: inf
ROOT
ATOM      1  C   UNL A   1      31.768  31.523  26.469  1.00  0.00     0.042 C 
ENDROOT
BRANCH   1   2
ATOM      2  C   UNL A   1      32.096  30.093  26.096  1.00  0.00     0.117 C 
BRANCH   2   3
ATOM      3  N   UNL A   1      33.037  30.017  24.992  1.00  0.00    -0.354 N 
ATOM      4  C   UNL A   1      33.020  29.181  23.910  1.00  0.00     0.243 C 
ATOM      5  O   UNL A   1      33.794  29.408  22.977  1.00  0.00    -0.273 OA
ATOM      6  H   UNL A   1      33.787  30.654  25.027  1.00  0.00     0.163 HD
BRANCH   4   7
ATOM      7  C   UNL A   1      32.068  27.970  23.867  1.00  0.00     0.183 C 
BRANCH   7   8
ATOM      8  C   UNL A   1      31.123  27.992  22.636  1.00  0.00     0.032 C 
ATOM      9  C   UNL A   1      30.150  29.169  22.595  1.00  0.00     0.006 C 
ENDBRANCH   7   8
BRANCH   7  10
ATOM     10  N   UNL A   1      32.767  26.678  24.049  1.00  0.00    -0.262 N 
ATOM     11  C   UNL A   1      33.445  25.979  23.088  1.00  0.00     0.262 C 
ATOM     12  C   UNL A   1      32.932  26.077  25.274  1.00  0.00     0.262 C 
ATOM     13  O   UNL A   1      33.738  26.247  21.937  1.00  0.00    -0.269 OA
ATOM     14  C   UNL A   1      33.894  24.737  23.686  1.00  0.00     0.053 A 
ATOM     15  C   UNL A   1      33.636  24.810  25.038  1.00  0.00     0.060 A 
ATOM     16  O   UNL A   1      32.601  26.461  26.373  1.00  0.00    -0.269 OA
ATOM     17  C   UNL A   1      34.490  23.643  23.087  1.00  0.00     0.022 A 
ATOM     18  C   UNL A   1      34.017  23.796  25.897  1.00  0.00     0.100 A 
ATOM     19  C   UNL A   1      34.866  22.590  23.919  1.00  0.00     0.086 A 
ATOM     20  C   UNL A   1      34.648  22.677  25.317  1.00  0.00     0.270 A 
BRANCH  20  21
ATOM     21  N   UNL A   1      35.101  21.573  26.175  1.00  0.00     0.062 N 
ATOM     22  O   UNL A   1      36.263  21.168  26.025  1.00  0.00    -0.258 OA
ATOM     23  O   UNL A   1      34.299  21.124  27.003  1.00  0.00    -0.258 OA
ENDBRANCH  20  21
ENDBRANCH   7  10
ENDBRANCH   4   7
ENDBRANCH   2   3
ENDBRANCH   1   2
BRANCH   1  24
ATOM     24  C   UNL A   1      32.878  32.148  27.299  1.00  0.00     0.118 C 
BRANCH  24  25
ATOM     25  N   UNL A   1      32.647  33.574  27.527  1.00  0.00    -0.352 N 
ATOM     26  C   UNL A   1      33.141  34.393  28.511  1.00  0.00     0.251 C 
ATOM     27  H   UNL A   1      32.048  34.010  26.879  1.00  0.00     0.163 HD
ATOM     28  O   UNL A   1      32.622  35.486  28.713  1.00  0.00    -0.269 OA
BRANCH  26  29
ATOM     29  C   UNL A   1      34.286  33.936  29.320  1.00  0.00     0.039 A 
ATOM     30  C   UNL A   1      34.064  33.119  30.430  1.00  0.00     0.014 A 
ATOM     31  C   UNL A   1      35.584  34.305  28.963  1.00  0.00     0.014 A 
ATOM     32  C   UNL A   1      35.157  32.615  31.137  1.00  0.00     0.010 A 
ATOM     33  C   UNL A   1      36.667  33.712  29.592  1.00  0.00     0.010 A 
ATOM     34  C   UNL A   1      36.466  32.874  30.698  1.00  0.00    -0.014 A 
BRANCH  34  35
ATOM     35  C   UNL A   1      37.648  32.308  31.392  1.00  0.00     0.031 A 
ATOM     36  C   UNL A   1      38.409  31.176  30.756  1.00  0.00     0.074 A 
ATOM     37  C   UNL A   1      37.982  32.759  32.617  1.00  0.00     0.049 A 
ATOM     38  N   UNL A   1      39.402  30.474  31.235  1.00  0.00    -0.248 NA
ATOM     39  C   UNL A   1      37.969  30.754  29.416  1.00  0.00     0.031 C 
ATOM     40  C   UNL A   1      37.282  33.819  33.349  1.00  0.00     0.029 A 
ATOM     41  N   UNL A   1      38.988  32.381  33.469  1.00  0.00    -0.354 N 
ATOM     42  C   UNL A   1      39.690  29.518  30.266  1.00  0.00     0.074 A 
ATOM     43  C   UNL A   1      38.719  29.684  29.209  1.00  0.00     0.031 C 
ATOM     44  C   UNL A   1      37.903  34.028  34.521  1.00  0.00     0.029 A 
ATOM     45  C   UNL A   1      39.006  33.083  34.652  1.00  0.00     0.049 A 
ATOM     46  H   UNL A   1      39.637  31.673  33.254  1.00  0.00     0.167 HD
ATOM     47  C   UNL A   1      40.695  28.608  30.248  1.00  0.00     0.034 A 
ATOM     48  C   UNL A   1      39.815  32.968  35.724  1.00  0.00     0.034 A 
ATOM     49  C   UNL A   1      41.663  28.475  31.306  1.00  0.00     0.049 A 
ATOM     50  C   UNL A   1      40.910  31.931  35.689  1.00  0.00     0.074 A 
ATOM     51  C   UNL A   1      42.754  27.628  31.373  1.00  0.00     0.029 A 
ATOM     52  N   UNL A   1      41.656  29.209  32.487  1.00  0.00    -0.354 N 
ATOM     53  N   UNL A   1      41.204  31.070  34.742  1.00  0.00    -0.248 NA
ATOM     54  C   UNL A   1      41.791  31.860  36.862  1.00  0.00     0.031 C 
ATOM     55  C   UNL A   1      43.361  27.796  32.623  1.00  0.00     0.029 A 
ATOM     56  C   UNL A   1      42.704  28.810  33.301  1.00  0.00     0.049 A 
ATOM     57  H   UNL A   1      41.001  29.909  32.712  1.00  0.00     0.167 HD
ATOM     58  C   UNL A   1      42.326  30.379  35.192  1.00  0.00     0.074 A 
ATOM     59  C   UNL A   1      42.663  30.938  36.485  1.00  0.00     0.031 C 
ATOM     60  C   UNL A   1      43.019  29.377  34.591  1.00  0.00     0.034 A 
BRANCH  47  61
ATOM     61  C   UNL A   1      40.774  27.682  29.057  1.00  0.00     0.023 A 
ATOM     62  C   UNL A   1      41.714  27.878  28.029  1.00  0.00     0.031 A 
ATOM     63  C   UNL A   1      39.883  26.603  28.932  1.00  0.00     0.131 A 
ATOM     64  C   UNL A   1      41.689  27.061  26.889  1.00  0.00     0.055 A 
ATOM     65  C   UNL A   1      39.921  25.739  27.835  1.00  0.00     0.041 A 
ATOM     66  F   UNL A   1      38.946  26.377  29.867  1.00  0.00    -0.206 F 
ATOM     67  C   UNL A   1      40.819  25.974  26.797  1.00  0.00     0.022 A 
BRANCH  64  68
ATOM     68  S   UNL A   1      42.711  27.530  25.465  1.00  0.00     0.124 S 
ATOM     69  O   UNL A   1      42.601  26.342  24.621  1.00  0.00    -0.237 OA
ATOM     70  O   UNL A   1      42.038  28.727  24.974  1.00  0.00    -0.237 OA
ATOM     71  O   UNL A   1      44.032  27.752  26.049  1.00  0.00    -0.744 OA
ENDBRANCH  64  68
ENDBRANCH  47  61
BRANCH  48  72
ATOM     72  C   UNL A   1      39.624  33.840  36.918  1.00  0.00     0.023 A 
ATOM     73  C   UNL A   1      39.048  33.336  38.096  1.00  0.00     0.031 A 
ATOM     74  C   UNL A   1      39.966  35.204  36.887  1.00  0.00     0.131 A 
ATOM     75  C   UNL A   1      38.780  34.198  39.170  1.00  0.00     0.055 A 
ATOM     76  C   UNL A   1      39.754  36.045  37.981  1.00  0.00     0.041 A 
ATOM     77  F   UNL A   1      40.524  35.740  35.790  1.00  0.00    -0.206 F 
ATOM     78  C   UNL A   1      39.142  35.547  39.126  1.00  0.00     0.022 A 
BRANCH  75  79
ATOM     79  S   UNL A   1      37.852  33.553  40.588  1.00  0.00     0.124 S 
ATOM     80  O   UNL A   1      37.652  34.759  41.385  1.00  0.00    -0.237 OA
ATOM     81  O   UNL A   1      36.662  33.003  39.946  1.00  0.00    -0.237 OA
ATOM     82  O   UNL A   1      38.759  32.564  41.167  1.00  0.00    -0.744 OA
ENDBRANCH  75  79
ENDBRANCH  48  72
BRANCH  60  83
ATOM     83  C   UNL A   1      44.241  28.861  35.312  1.00  0.00     0.023 A 
ATOM     84  C   UNL A   1      44.155  27.863  36.298  1.00  0.00     0.031 A 
ATOM     85  C   UNL A   1      45.510  29.383  35.007  1.00  0.00     0.131 A 
ATOM     86  C   UNL A   1      45.309  27.463  36.988  1.00  0.00     0.055 A 
ATOM     87  C   UNL A   1      46.664  28.930  35.647  1.00  0.00     0.041 A 
ATOM     88  F   UNL A   1      45.652  30.340  34.075  1.00  0.00    -0.206 F 
ATOM     89  C   UNL A   1      46.565  27.975  36.655  1.00  0.00     0.022 A 
BRANCH  86  90
ATOM     90  S   UNL A   1      45.130  26.336  38.397  1.00  0.00     0.124 S 
ATOM     91  O   UNL A   1      46.069  26.903  39.359  1.00  0.00    -0.237 OA
ATOM     92  O   UNL A   1      43.716  26.473  38.729  1.00  0.00    -0.237 OA
ATOM     93  O   UNL A   1      45.515  25.037  37.846  1.00  0.00    -0.744 OA
ENDBRANCH  86  90
ENDBRANCH  60  83
ENDBRANCH  34  35
ENDBRANCH  26  29
ENDBRANCH  24  25
ENDBRANCH   1  24
TORSDOF 16
ENDMDL
MODEL 2
REMARK VINA RESULT:     -12.0      2.674      8.363
REMARK SMILES CC[C@H](C(=O)NCCCNC(=O)c1ccc(-c2c3nc(c(-c4cc(S(=O)(=O)[O-])ccc4F)c4ccc([nH]4)c(-c4cc(S(=O)(=O)[O-])ccc4F)c4nc(c(-c5cc(S(=O)(=O)[O-])ccc5F)c5ccc2[nH]5)C=C4)C=C3)cc1)N1C(=O)c2ccc([N+](=O)[O-])cc2C1=O
REMARK SMILES IDX 8 1 7 2 6 3 4 4 5 5 3 7 2 8 1 9 76 10 77 11 88 12 78 13
REMARK SMILES IDX 79 14 87 15 89 16 80 17 86 18 81 19 82 20 83 21 84 22 85 23
REMARK SMILES IDX 9 24 10 25 11 26 12 28 13 29 14 30 75 31 15 32 74 33 16 34
REMARK SMILES IDX 17 35 18 36 68 37 19 38 73 39 67 40 69 41 20 42 72 43 66 44
REMARK SMILES IDX 65 45 21 47 53 48 33 49 52 50 34 51 37 52 51 53 70 54 35 55
REMARK SMILES IDX 36 56 50 58 71 59 38 60 22 61 23 62 31 63 24 64 30 65 32 66
REMARK SMILES IDX 29 67 25 68 26 69 27 70 28 71 54 72 55 73 63 74 56 75 62 76
REMARK SMILES IDX 64 77 61 78 57 79 58 80 59 81 60 82 39 83 40 84 48 85 41 86
REMARK SMILES IDX 47 87 49 88 46 89 42 90 43 91 44 92 45 93
REMARK H PARENT 6 6 10 27 69 46 37 57
REMARK Flexibility Score: inf
ROOT
ATOM      1  C   UNL A   1      31.736  28.722  26.745  1.00  0.00     0.042 C 
ENDROOT
BRANCH   1   2
ATOM      2  C   UNL A   1      31.363  27.587  25.817  1.00  0.00     0.117 C 
BRANCH   2   3
ATOM      3  N   UNL A   1      31.109  26.350  26.536  1.00  0.00    -0.354 N 
ATOM      4  C   UNL A   1      31.704  25.130  26.376  1.00  0.00     0.243 C 
ATOM      5  O   UNL A   1      31.495  24.257  27.221  1.00  0.00    -0.273 OA
ATOM      6  H   UNL A   1      30.415  26.399  27.233  1.00  0.00     0.163 HD
BRANCH   4   7
ATOM      7  C   UNL A   1      32.603  24.846  25.157  1.00  0.00     0.183 C 
BRANCH   7   8
ATOM      8  C   UNL A   1      33.916  25.675  25.171  1.00  0.00     0.032 C 
ATOM      9  C   UNL A   1      34.053  26.678  24.027  1.00  0.00     0.006 C 
ENDBRANCH   7   8
BRANCH   7  10
ATOM     10  N   UNL A   1      32.821  23.401  24.923  1.00  0.00    -0.262 N 
ATOM     11  C   UNL A   1      33.666  22.584  25.624  1.00  0.00     0.262 C 
ATOM     12  C   UNL A   1      32.080  22.662  24.033  1.00  0.00     0.262 C 
ATOM     13  O   UNL A   1      34.337  22.767  26.623  1.00  0.00    -0.269 OA
ATOM     14  C   UNL A   1      33.624  21.276  25.001  1.00  0.00     0.053 A 
ATOM     15  C   UNL A   1      32.616  21.295  24.061  1.00  0.00     0.060 A 
ATOM     16  O   UNL A   1      31.148  22.999  23.336  1.00  0.00    -0.269 OA
ATOM     17  C   UNL A   1      34.403  20.162  25.253  1.00  0.00     0.022 A 
ATOM     18  C   UNL A   1      32.283  20.161  23.343  1.00  0.00     0.100 A 
ATOM     19  C   UNL A   1      34.113  19.007  24.528  1.00  0.00     0.086 A 
ATOM     20  C   UNL A   1      33.046  19.004  23.595  1.00  0.00     0.270 A 
BRANCH  20  21
ATOM     21  N   UNL A   1      32.731  17.757  22.884  1.00  0.00     0.062 N 
ATOM     22  O   UNL A   1      33.181  16.700  23.348  1.00  0.00    -0.258 OA
ATOM     23  O   UNL A   1      32.025  17.838  21.870  1.00  0.00    -0.258 OA
ENDBRANCH  20  21
ENDBRANCH   7  10
ENDBRANCH   4   7
ENDBRANCH   2   3
ENDBRANCH   1   2
BRANCH   1  24
ATOM     24  C   UNL A   1      32.894  29.535  26.191  1.00  0.00     0.118 C 
BRANCH  24  25
ATOM     25  N   UNL A   1      32.769  30.954  26.520  1.00  0.00    -0.352 N 
ATOM     26  C   UNL A   1      33.497  31.716  27.398  1.00  0.00     0.251 C 
ATOM     27  H   UNL A   1      32.055  31.433  26.040  1.00  0.00     0.163 HD
ATOM     28  O   UNL A   1      33.074  32.811  27.754  1.00  0.00    -0.269 OA
BRANCH  26  29
ATOM     29  C   UNL A   1      34.779  31.195  27.911  1.00  0.00     0.039 A 
ATOM     30  C   UNL A   1      35.910  32.012  27.899  1.00  0.00     0.014 A 
ATOM     31  C   UNL A   1      34.849  29.897  28.421  1.00  0.00     0.014 A 
ATOM     32  C   UNL A   1      37.096  31.546  28.469  1.00  0.00     0.010 A 
ATOM     33  C   UNL A   1      35.990  29.481  29.088  1.00  0.00     0.010 A 
ATOM     34  C   UNL A   1      37.132  30.294  29.104  1.00  0.00    -0.014 A 
BRANCH  34  35
ATOM     35  C   UNL A   1      38.360  29.792  29.769  1.00  0.00     0.031 A 
ATOM     36  C   UNL A   1      38.738  30.324  31.125  1.00  0.00     0.074 A 
ATOM     37  C   UNL A   1      39.162  28.924  29.121  1.00  0.00     0.049 A 
ATOM     38  N   UNL A   1      39.814  30.098  31.832  1.00  0.00    -0.248 NA
ATOM     39  C   UNL A   1      37.797  31.267  31.751  1.00  0.00     0.031 C 
ATOM     40  C   UNL A   1      38.916  28.381  27.782  1.00  0.00     0.029 A 
ATOM     41  N   UNL A   1      40.351  28.351  29.496  1.00  0.00    -0.354 N 
ATOM     42  C   UNL A   1      39.687  30.883  32.974  1.00  0.00     0.074 A 
ATOM     43  C   UNL A   1      38.468  31.646  32.827  1.00  0.00     0.031 C 
ATOM     44  C   UNL A   1      39.904  27.529  27.465  1.00  0.00     0.029 A 
ATOM     45  C   UNL A   1      40.880  27.506  28.549  1.00  0.00     0.049 A 
ATOM     46  H   UNL A   1      40.784  28.528  30.362  1.00  0.00     0.167 HD
ATOM     47  C   UNL A   1      40.497  30.936  34.059  1.00  0.00     0.034 A 
ATOM     48  C   UNL A   1      42.030  26.802  28.552  1.00  0.00     0.034 A 
ATOM     49  C   UNL A   1      41.697  30.150  34.191  1.00  0.00     0.049 A 
ATOM     50  C   UNL A   1      42.927  26.896  29.760  1.00  0.00     0.074 A 
ATOM     51  C   UNL A   1      42.567  30.079  35.263  1.00  0.00     0.029 A 
ATOM     52  N   UNL A   1      42.200  29.298  33.214  1.00  0.00    -0.354 N 
ATOM     53  N   UNL A   1      42.767  27.602  30.856  1.00  0.00    -0.248 NA
ATOM     54  C   UNL A   1      44.153  26.089  29.739  1.00  0.00     0.031 C 
ATOM     55  C   UNL A   1      43.632  29.244  34.908  1.00  0.00     0.029 A 
ATOM     56  C   UNL A   1      43.384  28.724  33.648  1.00  0.00     0.049 A 
ATOM     57  H   UNL A   1      41.777  29.127  32.341  1.00  0.00     0.167 HD
ATOM     58  C   UNL A   1      43.855  27.295  31.668  1.00  0.00     0.074 A 
ATOM     59  C   UNL A   1      44.652  26.328  30.942  1.00  0.00     0.031 C 
ATOM     60  C   UNL A   1      44.167  27.765  32.904  1.00  0.00     0.034 A 
BRANCH  47  61
ATOM     61  C   UNL A   1      40.116  31.888  35.168  1.00  0.00     0.023 A 
ATOM     62  C   UNL A   1      39.253  31.502  36.210  1.00  0.00     0.031 A 
ATOM     63  C   UNL A   1      40.599  33.207  35.173  1.00  0.00     0.131 A 
ATOM     64  C   UNL A   1      38.838  32.443  37.164  1.00  0.00     0.055 A 
ATOM     65  C   UNL A   1      40.252  34.116  36.176  1.00  0.00     0.041 A 
ATOM     66  F   UNL A   1      41.406  33.644  34.193  1.00  0.00    -0.206 F 
ATOM     67  C   UNL A   1      39.355  33.740  37.172  1.00  0.00     0.022 A 
BRANCH  64  68
ATOM     68  S   UNL A   1      37.503  31.989  38.304  1.00  0.00     0.124 S 
ATOM     69  O   UNL A   1      36.478  32.973  37.962  1.00  0.00    -0.237 OA
ATOM     70  O   UNL A   1      37.217  30.610  37.923  1.00  0.00    -0.237 OA
ATOM     71  O   UNL A   1      38.106  32.161  39.624  1.00  0.00    -0.744 OA
ENDBRANCH  64  68
ENDBRANCH  47  61
BRANCH  48  72
ATOM     72  C   UNL A   1      42.408  25.958  27.381  1.00  0.00     0.023 A 
ATOM     73  C   UNL A   1      41.999  24.616  27.297  1.00  0.00     0.031 A 
ATOM     74  C   UNL A   1      43.224  26.460  26.353  1.00  0.00     0.131 A 
ATOM     75  C   UNL A   1      42.452  23.810  26.242  1.00  0.00     0.055 A 
ATOM     76  C   UNL A   1      43.622  25.671  25.272  1.00  0.00     0.041 A 
ATOM     77  F   UNL A   1      43.642  27.736  26.379  1.00  0.00    -0.206 F 
ATOM     78  C   UNL A   1      43.250  24.332  25.221  1.00  0.00     0.022 A 
BRANCH  75  79
ATOM     79  S   UNL A   1      42.070  22.038  26.280  1.00  0.00     0.124 S 
ATOM     80  O   UNL A   1      42.499  21.670  27.625  1.00  0.00    -0.237 OA
ATOM     81  O   UNL A   1      40.630  22.034  26.041  1.00  0.00    -0.237 OA
ATOM     82  O   UNL A   1      42.882  21.492  25.194  1.00  0.00    -0.744 OA
ENDBRANCH  75  79
ENDBRANCH  48  72
BRANCH  60  83
ATOM     83  C   UNL A   1      45.400  27.194  33.563  1.00  0.00     0.023 A 
ATOM     84  C   UNL A   1      45.349  26.035  34.356  1.00  0.00     0.031 A 
ATOM     85  C   UNL A   1      46.644  27.829  33.396  1.00  0.00     0.131 A 
ATOM     86  C   UNL A   1      46.508  25.581  35.002  1.00  0.00     0.055 A 
ATOM     87  C   UNL A   1      47.807  27.331  33.984  1.00  0.00     0.041 A 
ATOM     88  F   UNL A   1      46.752  28.941  32.651  1.00  0.00    -0.206 F 
ATOM     89  C   UNL A   1      47.740  26.209  34.805  1.00  0.00     0.022 A 
BRANCH  86  90
ATOM     90  S   UNL A   1      46.363  24.215  36.186  1.00  0.00     0.124 S 
ATOM     91  O   UNL A   1      45.052  23.665  35.854  1.00  0.00    -0.237 OA
ATOM     92  O   UNL A   1      47.510  23.381  35.842  1.00  0.00    -0.237 OA
ATOM     93  O   UNL A   1      46.446  24.879  37.486  1.00  0.00    -0.744 OA
ENDBRANCH  86  90
ENDBRANCH  60  83
ENDBRANCH  34  35
ENDBRANCH  26  29
ENDBRANCH  24  25
ENDBRANCH   1  24
TORSDOF 16
ENDMDL
MODEL 3
REMARK VINA RESULT:     -11.9      3.716      9.419
REMARK SMILES CC[C@H](C(=O)NCCCNC(=O)c1ccc(-c2c3nc(c(-c4cc(S(=O)(=O)[O-])ccc4F)c4ccc([nH]4)c(-c4cc(S(=O)(=O)[O-])ccc4F)c4nc(c(-c5cc(S(=O)(=O)[O-])ccc5F)c5ccc2[nH]5)C=C4)C=C3)cc1)N1C(=O)c2ccc([N+](=O)[O-])cc2C1=O
REMARK SMILES IDX 8 1 7 2 6 3 4 4 5 5 3 7 2 8 1 9 76 10 77 11 88 12 78 13
REMARK SMILES IDX 79 14 87 15 89 16 80 17 86 18 81 19 82 20 83 21 84 22 85 23
REMARK SMILES IDX 9 24 10 25 11 26 12 28 13 29 14 30 75 31 15 32 74 33 16 34
REMARK SMILES IDX 17 35 18 36 68 37 19 38 73 39 67 40 69 41 20 42 72 43 66 44
REMARK SMILES IDX 65 45 21 47 53 48 33 49 52 50 34 51 37 52 51 53 70 54 35 55
REMARK SMILES IDX 36 56 50 58 71 59 38 60 22 61 23 62 31 63 24 64 30 65 32 66
REMARK SMILES IDX 29 67 25 68 26 69 27 70 28 71 54 72 55 73 63 74 56 75 62 76
REMARK SMILES IDX 64 77 61 78 57 79 58 80 59 81 60 82 39 83 40 84 48 85 41 86
REMARK SMILES IDX 47 87 49 88 46 89 42 90 43 91 44 92 45 93
REMARK H PARENT 6 6 10 27 69 46 37 57
REMARK Flexibility Score: inf
ROOT
ATOM      1  C   UNL A   1      33.115  28.142  27.103  1.00  0.00     0.042 C 
ENDROOT
BRANCH   1   2
ATOM      2  C   UNL A   1      31.656  27.986  26.734  1.00  0.00     0.117 C 
BRANCH   2   3
ATOM      3  N   UNL A   1      31.269  26.592  26.602  1.00  0.00    -0.354 N 
ATOM      4  C   UNL A   1      31.398  25.767  25.520  1.00  0.00     0.243 C 
ATOM      5  O   UNL A   1      31.197  24.559  25.671  1.00  0.00    -0.273 OA
ATOM      6  H   UNL A   1      30.859  26.187  27.401  1.00  0.00     0.163 HD
BRANCH   4   7
ATOM      7  C   UNL A   1      31.770  26.335  24.137  1.00  0.00     0.183 C 
BRANCH   7   8
ATOM      8  C   UNL A   1      32.064  25.228  23.090  1.00  0.00     0.032 C 
ATOM      9  C   UNL A   1      33.516  25.157  22.621  1.00  0.00     0.006 C 
ENDBRANCH   7   8
BRANCH   7  10
ATOM     10  N   UNL A   1      30.816  27.360  23.657  1.00  0.00    -0.262 N 
ATOM     11  C   UNL A   1      29.452  27.309  23.758  1.00  0.00     0.262 C 
ATOM     12  C   UNL A   1      31.207  28.579  23.159  1.00  0.00     0.262 C 
ATOM     13  O   UNL A   1      28.703  26.531  24.319  1.00  0.00    -0.269 OA
ATOM     14  C   UNL A   1      28.921  28.477  23.084  1.00  0.00     0.053 A 
ATOM     15  C   UNL A   1      29.986  29.291  22.762  1.00  0.00     0.060 A 
ATOM     16  O   UNL A   1      32.318  29.048  23.048  1.00  0.00    -0.269 OA
ATOM     17  C   UNL A   1      27.608  28.797  22.792  1.00  0.00     0.022 A 
ATOM     18  C   UNL A   1      29.792  30.525  22.167  1.00  0.00     0.100 A 
ATOM     19  C   UNL A   1      27.377  30.023  22.169  1.00  0.00     0.086 A 
ATOM     20  C   UNL A   1      28.462  30.887  21.878  1.00  0.00     0.270 A 
BRANCH  20  21
ATOM     21  N   UNL A   1      28.182  32.195  21.268  1.00  0.00     0.062 N 
ATOM     22  O   UNL A   1      27.996  32.230  20.043  1.00  0.00    -0.258 OA
ATOM     23  O   UNL A   1      28.138  33.179  22.016  1.00  0.00    -0.258 OA
ENDBRANCH  20  21
ENDBRANCH   7  10
ENDBRANCH   4   7
ENDBRANCH   2   3
ENDBRANCH   1   2
BRANCH   1  24
ATOM     24  C   UNL A   1      33.822  29.114  26.173  1.00  0.00     0.118 C 
BRANCH  24  25
ATOM     25  N   UNL A   1      33.787  30.482  26.690  1.00  0.00    -0.352 N 
ATOM     26  C   UNL A   1      34.561  31.071  27.657  1.00  0.00     0.251 C 
ATOM     27  H   UNL A   1      33.106  31.066  26.284  1.00  0.00     0.163 HD
ATOM     28  O   UNL A   1      34.209  32.134  28.159  1.00  0.00    -0.269 OA
BRANCH  26  29
ATOM     29  C   UNL A   1      35.806  30.406  28.086  1.00  0.00     0.039 A 
ATOM     30  C   UNL A   1      36.964  30.546  27.319  1.00  0.00     0.014 A 
ATOM     31  C   UNL A   1      35.825  29.656  29.264  1.00  0.00     0.014 A 
ATOM     32  C   UNL A   1      38.159  29.990  27.777  1.00  0.00     0.010 A 
ATOM     33  C   UNL A   1      37.032  29.206  29.774  1.00  0.00     0.010 A 
ATOM     34  C   UNL A   1      38.210  29.353  29.028  1.00  0.00    -0.014 A 
BRANCH  34  35
ATOM     35  C   UNL A   1      39.476  28.801  29.570  1.00  0.00     0.031 A 
ATOM     36  C   UNL A   1      40.161  29.504  30.711  1.00  0.00     0.074 A 
ATOM     37  C   UNL A   1      40.037  27.723  28.989  1.00  0.00     0.049 A 
ATOM     38  N   UNL A   1      41.318  29.251  31.263  1.00  0.00    -0.248 NA
ATOM     39  C   UNL A   1      39.470  30.673  31.279  1.00  0.00     0.031 C 
ATOM     40  C   UNL A   1      39.483  26.992  27.845  1.00  0.00     0.029 A 
ATOM     41  N   UNL A   1      41.202  27.056  29.272  1.00  0.00    -0.354 N 
ATOM     42  C   UNL A   1      41.500  30.236  32.228  1.00  0.00     0.074 A 
ATOM     43  C   UNL A   1      40.371  31.133  32.132  1.00  0.00     0.031 C 
ATOM     44  C   UNL A   1      40.289  25.960  27.550  1.00  0.00     0.029 A 
ATOM     45  C   UNL A   1      41.443  25.986  28.442  1.00  0.00     0.049 A 
ATOM     46  H   UNL A   1      41.808  27.318  30.002  1.00  0.00     0.167 HD
ATOM     47  C   UNL A   1      42.501  30.361  33.133  1.00  0.00     0.034 A 
ATOM     48  C   UNL A   1      42.485  25.131  28.398  1.00  0.00     0.034 A 
ATOM     49  C   UNL A   1      43.607  29.442  33.223  1.00  0.00     0.049 A 
ATOM     50  C   UNL A   1      43.598  25.305  29.400  1.00  0.00     0.074 A 
ATOM     51  C   UNL A   1      44.650  29.435  34.131  1.00  0.00     0.029 A 
ATOM     52  N   UNL A   1      43.816  28.364  32.370  1.00  0.00    -0.354 N 
ATOM     53  N   UNL A   1      43.729  26.211  30.342  1.00  0.00    -0.248 NA
ATOM     54  C   UNL A   1      44.698  24.334  29.342  1.00  0.00     0.031 C 
ATOM     55  C   UNL A   1      45.527  28.402  33.782  1.00  0.00     0.029 A 
ATOM     56  C   UNL A   1      44.987  27.708  32.711  1.00  0.00     0.049 A 
ATOM     57  H   UNL A   1      43.219  28.106  31.630  1.00  0.00     0.167 HD
ATOM     58  C   UNL A   1      44.909  25.896  31.011  1.00  0.00     0.074 A 
ATOM     59  C   UNL A   1      45.439  24.707  30.374  1.00  0.00     0.031 C 
ATOM     60  C   UNL A   1      45.501  26.526  32.058  1.00  0.00     0.034 A 
BRANCH  47  61
ATOM     61  C   UNL A   1      42.447  31.541  34.075  1.00  0.00     0.023 A 
ATOM     62  C   UNL A   1      41.691  31.507  35.261  1.00  0.00     0.031 A 
ATOM     63  C   UNL A   1      43.139  32.726  33.773  1.00  0.00     0.131 A 
ATOM     64  C   UNL A   1      41.581  32.657  36.056  1.00  0.00     0.055 A 
ATOM     65  C   UNL A   1      43.096  33.840  34.615  1.00  0.00     0.041 A 
ATOM     66  F   UNL A   1      43.859  32.830  32.644  1.00  0.00    -0.206 F 
ATOM     67  C   UNL A   1      42.302  33.815  35.758  1.00  0.00     0.022 A 
BRANCH  64  68
ATOM     68  S   UNL A   1      40.366  32.664  37.404  1.00  0.00     0.124 S 
ATOM     69  O   UNL A   1      39.905  34.051  37.375  1.00  0.00    -0.237 OA
ATOM     70  O   UNL A   1      39.402  31.661  36.966  1.00  0.00    -0.237 OA
ATOM     71  O   UNL A   1      41.155  32.301  38.578  1.00  0.00    -0.744 OA
ENDBRANCH  64  68
ENDBRANCH  47  61
BRANCH  48  72
ATOM     72  C   UNL A   1      42.535  24.046  27.377  1.00  0.00     0.023 A 
ATOM     73  C   UNL A   1      41.861  22.830  27.581  1.00  0.00     0.031 A 
ATOM     74  C   UNL A   1      43.298  24.183  26.204  1.00  0.00     0.131 A 
ATOM     75  C   UNL A   1      42.008  21.784  26.659  1.00  0.00     0.055 A 
ATOM     76  C   UNL A   1      43.392  23.161  25.258  1.00  0.00     0.041 A 
ATOM     77  F   UNL A   1      43.960  25.325  25.954  1.00  0.00    -0.206 F 
ATOM     78  C   UNL A   1      42.758  21.945  25.490  1.00  0.00     0.022 A 
BRANCH  75  79
ATOM     79  S   UNL A   1      41.290  20.167  27.060  1.00  0.00     0.124 S 
ATOM     80  O   UNL A   1      40.828  20.379  28.427  1.00  0.00    -0.237 OA
ATOM     81  O   UNL A   1      40.251  20.038  26.043  1.00  0.00    -0.237 OA
ATOM     82  O   UNL A   1      42.418  19.249  26.916  1.00  0.00    -0.744 OA
ENDBRANCH  75  79
ENDBRANCH  48  72
BRANCH  60  83
ATOM     83  C   UNL A   1      46.763  25.906  32.608  1.00  0.00     0.023 A 
ATOM     84  C   UNL A   1      48.032  26.230  32.098  1.00  0.00     0.031 A 
ATOM     85  C   UNL A   1      46.688  24.971  33.655  1.00  0.00     0.131 A 
ATOM     86  C   UNL A   1      49.170  25.578  32.596  1.00  0.00     0.055 A 
ATOM     87  C   UNL A   1      47.831  24.378  34.193  1.00  0.00     0.041 A 
ATOM     88  F   UNL A   1      45.502  24.621  34.179  1.00  0.00    -0.206 F 
ATOM     89  C   UNL A   1      49.080  24.670  33.653  1.00  0.00     0.022 A 
BRANCH  86  90
ATOM     90  S   UNL A   1      50.761  25.860  31.771  1.00  0.00     0.124 S 
ATOM     91  O   UNL A   1      50.346  26.475  30.515  1.00  0.00    -0.237 OA
ATOM     92  O   UNL A   1      51.449  26.736  32.713  1.00  0.00    -0.237 OA
ATOM     93  O   UNL A   1      51.324  24.516  31.648  1.00  0.00    -0.744 OA
ENDBRANCH  86  90
ENDBRANCH  60  83
ENDBRANCH  34  35
ENDBRANCH  26  29
ENDBRANCH  24  25
ENDBRANCH   1  24
TORSDOF 16
ENDMDL
