MODEL 1
REMARK VINA RESULT:     -12.2      0.000      0.000
REMARK SMILES O=C(NCCCNC(=O)C1(C/C=C/c2ccccc2)CCCCC1)c1ccc(-c2c3nc(c(-c4cc(S(=O)(=O)[O-])ccc4F)c4ccc([nH]4)c(-c4cc(S(=O)(=O)[O-])ccc4F)c4nc(c(-c5cc(S(=O)(=O)[O-])ccc5F)c5ccc2[nH]5)C=C4)C=C3)cc1
REMARK SMILES IDX 5 1 4 2 3 3 1 4 2 5 25 7 26 8 87 9 27 10 86 11 28 12 29 13
REMARK SMILES IDX 30 14 80 15 31 16 85 17 79 18 81 19 32 20 84 21 78 22 77 23
REMARK SMILES IDX 33 25 65 26 45 27 64 28 46 29 49 30 63 31 82 32 47 33 48 34
REMARK SMILES IDX 62 36 83 37 50 38 34 39 35 40 43 41 36 42 42 43 44 44 41 45
REMARK SMILES IDX 37 46 38 47 39 48 40 49 66 50 67 51 75 52 68 53 74 54 76 55
REMARK SMILES IDX 73 56 69 57 70 58 71 59 72 60 51 61 52 62 60 63 53 64 59 65
REMARK SMILES IDX 61 66 58 67 54 68 55 69 56 70 57 71 6 72 7 73 8 74 9 76
REMARK SMILES IDX 10 77 20 78 24 79 21 80 23 81 22 82 11 83 12 84 13 85 14 86
REMARK SMILES IDX 15 87 19 88 16 89 18 90 17 91
REMARK H PARENT 3 6 81 24 49 35 7 75
REMARK Flexibility Score: inf
ROOT
ATOM      1  C   UNL A   1      31.591  31.564  26.508  1.00  0.00     0.042 C 
ENDROOT
BRANCH   1   2
ATOM      2  C   UNL A   1      32.816  32.144  27.219  1.00  0.00     0.118 C 
BRANCH   2   3
ATOM      3  N   UNL A   1      32.643  33.558  27.512  1.00  0.00    -0.352 N 
ATOM      4  O   UNL A   1      32.662  35.400  28.793  1.00  0.00    -0.269 OA
ATOM      5  C   UNL A   1      33.169  34.312  28.531  1.00  0.00     0.251 C 
ATOM      6  H   UNL A   1      32.062  34.048  26.886  1.00  0.00     0.163 HD
BRANCH   5   7
ATOM      7  C   UNL A   1      34.340  33.834  29.299  1.00  0.00     0.039 A 
ATOM      8  C   UNL A   1      34.192  32.914  30.341  1.00  0.00     0.014 A 
ATOM      9  C   UNL A   1      35.618  34.241  28.901  1.00  0.00     0.014 A 
ATOM     10  C   UNL A   1      35.311  32.462  31.038  1.00  0.00     0.010 A 
ATOM     11  C   UNL A   1      36.742  33.742  29.562  1.00  0.00     0.010 A 
ATOM     12  C   UNL A   1      36.597  32.855  30.642  1.00  0.00    -0.014 A 
BRANCH  12  13
ATOM     13  C   UNL A   1      37.797  32.302  31.321  1.00  0.00     0.031 A 
ATOM     14  C   UNL A   1      38.563  31.167  30.708  1.00  0.00     0.074 A 
ATOM     15  C   UNL A   1      38.164  32.802  32.518  1.00  0.00     0.049 A 
ATOM     16  N   UNL A   1      39.564  30.481  31.198  1.00  0.00    -0.248 NA
ATOM     17  C   UNL A   1      38.132  30.738  29.371  1.00  0.00     0.031 C 
ATOM     18  C   UNL A   1      37.492  33.905  33.209  1.00  0.00     0.029 A 
ATOM     19  N   UNL A   1      39.177  32.442  33.369  1.00  0.00    -0.354 N 
ATOM     20  C   UNL A   1      39.873  29.524  30.237  1.00  0.00     0.074 A 
ATOM     21  C   UNL A   1      38.924  29.699  29.156  1.00  0.00     0.031 C 
ATOM     22  C   UNL A   1      38.110  34.131  34.378  1.00  0.00     0.029 A 
ATOM     23  C   UNL A   1      39.179  33.150  34.548  1.00  0.00     0.049 A 
ATOM     24  H   UNL A   1      39.837  31.743  33.158  1.00  0.00     0.167 HD
ATOM     25  C   UNL A   1      40.860  28.592  30.259  1.00  0.00     0.034 A 
ATOM     26  C   UNL A   1      39.926  33.004  35.659  1.00  0.00     0.034 A 
ATOM     27  C   UNL A   1      41.785  28.432  31.358  1.00  0.00     0.049 A 
ATOM     28  C   UNL A   1      40.978  31.929  35.692  1.00  0.00     0.074 A 
ATOM     29  C   UNL A   1      42.842  27.546  31.476  1.00  0.00     0.029 A 
ATOM     30  N   UNL A   1      41.750  29.165  32.540  1.00  0.00    -0.354 N 
ATOM     31  N   UNL A   1      41.274  31.041  34.771  1.00  0.00    -0.248 NA
ATOM     32  C   UNL A   1      41.798  31.839  36.905  1.00  0.00     0.031 C 
ATOM     33  C   UNL A   1      43.399  27.694  32.753  1.00  0.00     0.029 A 
ATOM     34  C   UNL A   1      42.744  28.728  33.403  1.00  0.00     0.049 A 
ATOM     35  H   UNL A   1      41.112  29.888  32.735  1.00  0.00     0.167 HD
ATOM     36  C   UNL A   1      42.335  30.302  35.284  1.00  0.00     0.074 A 
ATOM     37  C   UNL A   1      42.625  30.850  36.595  1.00  0.00     0.031 C 
ATOM     38  C   UNL A   1      43.015  29.275  34.714  1.00  0.00     0.034 A 
BRANCH  25  39
ATOM     39  C   UNL A   1      40.942  27.645  29.083  1.00  0.00     0.023 A 
ATOM     40  C   UNL A   1      41.892  27.814  28.060  1.00  0.00     0.031 A 
ATOM     41  C   UNL A   1      40.015  26.595  28.949  1.00  0.00     0.131 A 
ATOM     42  C   UNL A   1      41.832  27.015  26.907  1.00  0.00     0.055 A 
ATOM     43  C   UNL A   1      40.020  25.744  27.841  1.00  0.00     0.041 A 
ATOM     44  F   UNL A   1      39.070  26.392  29.880  1.00  0.00    -0.206 F 
ATOM     45  C   UNL A   1      40.917  25.965  26.801  1.00  0.00     0.022 A 
BRANCH  42  46
ATOM     46  S   UNL A   1      42.838  27.491  25.473  1.00  0.00     0.124 S 
ATOM     47  O   UNL A   1      44.073  27.940  26.111  1.00  0.00    -0.237 OA
ATOM     48  O   UNL A   1      42.924  26.244  24.722  1.00  0.00    -0.237 OA
ATOM     49  O   UNL A   1      42.054  28.550  24.840  1.00  0.00    -0.744 OA
ENDBRANCH  42  46
ENDBRANCH  25  39
BRANCH  26  50
ATOM     50  C   UNL A   1      39.660  33.871  36.840  1.00  0.00     0.023 A 
ATOM     51  C   UNL A   1      39.023  33.371  37.986  1.00  0.00     0.031 A 
ATOM     52  C   UNL A   1      40.075  35.215  36.846  1.00  0.00     0.131 A 
ATOM     53  C   UNL A   1      38.803  34.216  39.085  1.00  0.00     0.055 A 
ATOM     54  C   UNL A   1      39.893  36.039  37.957  1.00  0.00     0.041 A 
ATOM     55  F   UNL A   1      40.699  35.737  35.778  1.00  0.00    -0.206 F 
ATOM     56  C   UNL A   1      39.247  35.541  39.084  1.00  0.00     0.022 A 
BRANCH  53  57
ATOM     57  S   UNL A   1      37.894  33.568  40.514  1.00  0.00     0.124 S 
ATOM     58  O   UNL A   1      38.827  32.574  41.033  1.00  0.00    -0.237 OA
ATOM     59  O   UNL A   1      37.714  34.765  41.329  1.00  0.00    -0.237 OA
ATOM     60  O   UNL A   1      36.671  33.029  39.925  1.00  0.00    -0.744 OA
ENDBRANCH  53  57
ENDBRANCH  26  50
BRANCH  38  61
ATOM     61  C   UNL A   1      44.182  28.711  35.484  1.00  0.00     0.023 A 
ATOM     62  C   UNL A   1      44.023  27.701  36.447  1.00  0.00     0.031 A 
ATOM     63  C   UNL A   1      45.481  29.186  35.228  1.00  0.00     0.131 A 
ATOM     64  C   UNL A   1      45.143  27.219  37.142  1.00  0.00     0.055 A 
ATOM     65  C   UNL A   1      46.595  28.669  35.888  1.00  0.00     0.041 A 
ATOM     66  F   UNL A   1      45.687  30.154  34.320  1.00  0.00    -0.206 F 
ATOM     67  C   UNL A   1      46.429  27.684  36.855  1.00  0.00     0.022 A 
BRANCH  64  68
ATOM     68  S   UNL A   1      44.896  26.006  38.469  1.00  0.00     0.124 S 
ATOM     69  O   UNL A   1      44.493  24.819  37.723  1.00  0.00    -0.237 OA
ATOM     70  O   UNL A   1      46.215  25.951  39.093  1.00  0.00    -0.237 OA
ATOM     71  O   UNL A   1      43.849  26.606  39.293  1.00  0.00    -0.744 OA
ENDBRANCH  64  68
ENDBRANCH  38  61
ENDBRANCH  12  13
ENDBRANCH   5   7
ENDBRANCH   2   3
ENDBRANCH   1   2
BRANCH   1  72
ATOM     72  C   UNL A   1      31.875  30.236  25.800  1.00  0.00     0.117 C 
BRANCH  72  73
ATOM     73  N   UNL A   1      31.708  29.125  26.715  1.00  0.00    -0.356 N 
ATOM     74  C   UNL A   1      31.511  27.794  26.537  1.00  0.00     0.226 C 
ATOM     75  H   UNL A   1      31.745  29.391  27.662  1.00  0.00     0.163 HD
ATOM     76  O   UNL A   1      31.095  27.221  27.550  1.00  0.00    -0.274 OA
BRANCH  74  77
ATOM     77  C   UNL A   1      31.880  27.017  25.239  1.00  0.00     0.053 C 
ATOM     78  C   UNL A   1      32.986  27.713  24.398  1.00  0.00     0.017 C 
ATOM     79  C   UNL A   1      32.349  25.601  25.658  1.00  0.00     0.017 C 
ATOM     80  C   UNL A   1      33.547  26.851  23.260  1.00  0.00     0.001 C 
ATOM     81  C   UNL A   1      32.854  24.756  24.490  1.00  0.00     0.001 C 
ATOM     82  C   UNL A   1      33.974  25.468  23.741  1.00  0.00     0.000 C 
BRANCH  77  83
ATOM     83  C   UNL A   1      30.605  26.961  24.314  1.00  0.00     0.044 C 
BRANCH  83  84
ATOM     84  C   UNL A   1      29.895  28.257  24.013  1.00  0.00    -0.025 C 
ATOM     85  C   UNL A   1      29.948  28.844  22.806  1.00  0.00     0.004 C 
BRANCH  85  86
ATOM     86  C   UNL A   1      29.333  30.137  22.501  1.00  0.00    -0.026 A 
ATOM     87  C   UNL A   1      29.111  31.057  23.531  1.00  0.00     0.008 A 
ATOM     88  C   UNL A   1      28.881  30.437  21.210  1.00  0.00     0.008 A 
ATOM     89  C   UNL A   1      28.473  32.271  23.269  1.00  0.00     0.001 A 
ATOM     90  C   UNL A   1      28.241  31.650  20.948  1.00  0.00     0.001 A 
ATOM     91  C   UNL A   1      28.041  32.568  21.978  1.00  0.00     0.000 A 
ENDBRANCH  85  86
ENDBRANCH  83  84
ENDBRANCH  77  83
ENDBRANCH  74  77
ENDBRANCH  72  73
ENDBRANCH   1  72
TORSDOF 16
ENDMDL
MODEL 2
REMARK VINA RESULT:     -12.2      1.328      3.437
REMARK SMILES O=C(NCCCNC(=O)C1(C/C=C/c2ccccc2)CCCCC1)c1ccc(-c2c3nc(c(-c4cc(S(=O)(=O)[O-])ccc4F)c4ccc([nH]4)c(-c4cc(S(=O)(=O)[O-])ccc4F)c4nc(c(-c5cc(S(=O)(=O)[O-])ccc5F)c5ccc2[nH]5)C=C4)C=C3)cc1
REMARK SMILES IDX 5 1 4 2 3 3 1 4 2 5 25 7 26 8 87 9 27 10 86 11 28 12 29 13
REMARK SMILES IDX 30 14 80 15 31 16 85 17 79 18 81 19 32 20 84 21 78 22 77 23
REMARK SMILES IDX 33 25 65 26 45 27 64 28 46 29 49 30 63 31 82 32 47 33 48 34
REMARK SMILES IDX 62 36 83 37 50 38 34 39 35 40 43 41 36 42 42 43 44 44 41 45
REMARK SMILES IDX 37 46 38 47 39 48 40 49 66 50 67 51 75 52 68 53 74 54 76 55
REMARK SMILES IDX 73 56 69 57 70 58 71 59 72 60 51 61 52 62 60 63 53 64 59 65
REMARK SMILES IDX 61 66 58 67 54 68 55 69 56 70 57 71 6 72 7 73 8 74 9 76
REMARK SMILES IDX 10 77 20 78 24 79 21 80 23 81 22 82 11 83 12 84 13 85 14 86
REMARK SMILES IDX 15 87 19 88 16 89 18 90 17 91
REMARK H PARENT 3 6 81 24 49 35 7 75
REMARK Flexibility Score: inf
ROOT
ATOM      1  C   UNL A   1      31.527  31.933  26.603  1.00  0.00     0.042 C 
ENDROOT
BRANCH   1   2
ATOM      2  C   UNL A   1      32.756  32.479  27.333  1.00  0.00     0.118 C 
BRANCH   2   3
ATOM      3  N   UNL A   1      32.629  33.903  27.599  1.00  0.00    -0.352 N 
ATOM      4  O   UNL A   1      32.715  35.768  28.843  1.00  0.00    -0.269 OA
ATOM      5  C   UNL A   1      33.186  34.660  28.599  1.00  0.00     0.251 C 
ATOM      6  H   UNL A   1      32.059  34.399  26.968  1.00  0.00     0.163 HD
BRANCH   5   7
ATOM      7  C   UNL A   1      34.347  34.161  29.368  1.00  0.00     0.039 A 
ATOM      8  C   UNL A   1      34.175  33.301  30.458  1.00  0.00     0.014 A 
ATOM      9  C   UNL A   1      35.635  34.481  28.927  1.00  0.00     0.014 A 
ATOM     10  C   UNL A   1      35.284  32.827  31.155  1.00  0.00     0.010 A 
ATOM     11  C   UNL A   1      36.747  33.958  29.591  1.00  0.00     0.010 A 
ATOM     12  C   UNL A   1      36.580  33.134  30.716  1.00  0.00    -0.014 A 
BRANCH  12  13
ATOM     13  C   UNL A   1      37.764  32.554  31.401  1.00  0.00     0.031 A 
ATOM     14  C   UNL A   1      38.506  31.401  30.790  1.00  0.00     0.074 A 
ATOM     15  C   UNL A   1      38.139  33.047  32.598  1.00  0.00     0.049 A 
ATOM     16  N   UNL A   1      39.489  30.692  31.284  1.00  0.00    -0.248 NA
ATOM     17  C   UNL A   1      38.070  30.981  29.453  1.00  0.00     0.031 C 
ATOM     18  C   UNL A   1      37.490  34.165  33.286  1.00  0.00     0.029 A 
ATOM     19  N   UNL A   1      39.140  32.664  33.453  1.00  0.00    -0.354 N 
ATOM     20  C   UNL A   1      39.780  29.728  30.326  1.00  0.00     0.074 A 
ATOM     21  C   UNL A   1      38.839  29.924  29.241  1.00  0.00     0.031 C 
ATOM     22  C   UNL A   1      38.109  34.377  34.457  1.00  0.00     0.029 A 
ATOM     23  C   UNL A   1      39.154  33.373  34.631  1.00  0.00     0.049 A 
ATOM     24  H   UNL A   1      39.785  31.950  33.245  1.00  0.00     0.167 HD
ATOM     25  C   UNL A   1      40.745  28.773  30.352  1.00  0.00     0.034 A 
ATOM     26  C   UNL A   1      39.894  33.210  35.746  1.00  0.00     0.034 A 
ATOM     27  C   UNL A   1      41.662  28.593  31.454  1.00  0.00     0.049 A 
ATOM     28  C   UNL A   1      40.921  32.111  35.782  1.00  0.00     0.074 A 
ATOM     29  C   UNL A   1      42.698  27.684  31.576  1.00  0.00     0.029 A 
ATOM     30  N   UNL A   1      41.640  29.327  32.636  1.00  0.00    -0.354 N 
ATOM     31  N   UNL A   1      41.199  31.216  34.863  1.00  0.00    -0.248 NA
ATOM     32  C   UNL A   1      41.735  32.003  36.998  1.00  0.00     0.031 C 
ATOM     33  C   UNL A   1      43.254  27.819  32.855  1.00  0.00     0.029 A 
ATOM     34  C   UNL A   1      42.620  28.868  33.502  1.00  0.00     0.049 A 
ATOM     35  H   UNL A   1      41.018  30.065  32.828  1.00  0.00     0.167 HD
ATOM     36  C   UNL A   1      42.241  30.453  35.381  1.00  0.00     0.074 A 
ATOM     37  C   UNL A   1      42.539  30.995  36.692  1.00  0.00     0.031 C 
ATOM     38  C   UNL A   1      42.899  29.410  34.813  1.00  0.00     0.034 A 
BRANCH  25  39
ATOM     39  C   UNL A   1      40.808  27.823  29.177  1.00  0.00     0.023 A 
ATOM     40  C   UNL A   1      41.767  27.969  28.157  1.00  0.00     0.031 A 
ATOM     41  C   UNL A   1      39.858  26.796  29.040  1.00  0.00     0.131 A 
ATOM     42  C   UNL A   1      41.692  27.171  27.005  1.00  0.00     0.055 A 
ATOM     43  C   UNL A   1      39.847  25.944  27.932  1.00  0.00     0.041 A 
ATOM     44  F   UNL A   1      38.905  26.617  29.967  1.00  0.00    -0.206 F 
ATOM     45  C   UNL A   1      40.753  26.144  26.896  1.00  0.00     0.022 A 
BRANCH  42  46
ATOM     46  S   UNL A   1      42.715  27.622  25.574  1.00  0.00     0.124 S 
ATOM     47  O   UNL A   1      44.009  27.881  26.203  1.00  0.00    -0.237 OA
ATOM     48  O   UNL A   1      42.637  26.426  24.743  1.00  0.00    -0.237 OA
ATOM     49  O   UNL A   1      42.048  28.804  25.034  1.00  0.00    -0.744 OA
ENDBRANCH  42  46
ENDBRANCH  25  39
BRANCH  26  50
ATOM     50  C   UNL A   1      39.644  34.084  36.925  1.00  0.00     0.023 A 
ATOM     51  C   UNL A   1      39.020  33.592  38.081  1.00  0.00     0.031 A 
ATOM     52  C   UNL A   1      40.061  35.428  36.918  1.00  0.00     0.131 A 
ATOM     53  C   UNL A   1      38.816  34.443  39.178  1.00  0.00     0.055 A 
ATOM     54  C   UNL A   1      39.894  36.258  38.027  1.00  0.00     0.041 A 
ATOM     55  F   UNL A   1      40.673  35.942  35.839  1.00  0.00    -0.206 F 
ATOM     56  C   UNL A   1      39.261  35.767  39.164  1.00  0.00     0.022 A 
BRANCH  53  57
ATOM     57  S   UNL A   1      37.924  33.804  40.622  1.00  0.00     0.124 S 
ATOM     58  O   UNL A   1      36.800  33.117  39.997  1.00  0.00    -0.237 OA
ATOM     59  O   UNL A   1      38.929  32.951  41.248  1.00  0.00    -0.237 OA
ATOM     60  O   UNL A   1      37.580  35.010  41.372  1.00  0.00    -0.744 OA
ENDBRANCH  53  57
ENDBRANCH  26  50
BRANCH  38  61
ATOM     61  C   UNL A   1      44.051  28.821  35.589  1.00  0.00     0.023 A 
ATOM     62  C   UNL A   1      43.880  27.743  36.474  1.00  0.00     0.031 A 
ATOM     63  C   UNL A   1      45.346  29.340  35.415  1.00  0.00     0.131 A 
ATOM     64  C   UNL A   1      44.985  27.239  37.177  1.00  0.00     0.055 A 
ATOM     65  C   UNL A   1      46.448  28.803  36.080  1.00  0.00     0.041 A 
ATOM     66  F   UNL A   1      45.562  30.371  34.582  1.00  0.00    -0.206 F 
ATOM     67  C   UNL A   1      46.270  27.751  36.972  1.00  0.00     0.022 A 
BRANCH  64  68
ATOM     68  S   UNL A   1      44.719  25.934  38.409  1.00  0.00     0.124 S 
ATOM     69  O   UNL A   1      46.080  25.470  38.657  1.00  0.00    -0.237 OA
ATOM     70  O   UNL A   1      44.084  26.661  39.505  1.00  0.00    -0.237 OA
ATOM     71  O   UNL A   1      43.854  24.980  37.718  1.00  0.00    -0.744 OA
ENDBRANCH  64  68
ENDBRANCH  38  61
ENDBRANCH  12  13
ENDBRANCH   5   7
ENDBRANCH   2   3
ENDBRANCH   1   2
BRANCH   1  72
ATOM     72  C   UNL A   1      31.755  30.551  25.983  1.00  0.00     0.117 C 
BRANCH  72  73
ATOM     73  N   UNL A   1      31.902  29.546  27.018  1.00  0.00    -0.356 N 
ATOM     74  C   UNL A   1      31.655  28.213  27.062  1.00  0.00     0.226 C 
ATOM     75  H   UNL A   1      32.253  29.907  27.864  1.00  0.00     0.163 HD
ATOM     76  O   UNL A   1      31.601  27.764  28.212  1.00  0.00    -0.274 OA
BRANCH  74  77
ATOM     77  C   UNL A   1      31.569  27.293  25.809  1.00  0.00     0.053 C 
ATOM     78  C   UNL A   1      30.964  25.894  26.113  1.00  0.00     0.017 C 
ATOM     79  C   UNL A   1      30.705  28.023  24.750  1.00  0.00     0.017 C 
ATOM     80  C   UNL A   1      30.631  25.068  24.864  1.00  0.00     0.001 C 
ATOM     81  C   UNL A   1      30.437  27.186  23.501  1.00  0.00     0.001 C 
ATOM     82  C   UNL A   1      29.794  25.852  23.860  1.00  0.00     0.000 C 
BRANCH  77  83
ATOM     83  C   UNL A   1      33.032  27.027  25.287  1.00  0.00     0.044 C 
BRANCH  83  84
ATOM     84  C   UNL A   1      33.668  25.699  25.617  1.00  0.00    -0.025 C 
ATOM     85  C   UNL A   1      34.580  25.118  24.821  1.00  0.00     0.004 C 
BRANCH  85  86
ATOM     86  C   UNL A   1      35.161  23.799  25.073  1.00  0.00    -0.026 A 
ATOM     87  C   UNL A   1      36.517  23.579  24.807  1.00  0.00     0.008 A 
ATOM     88  C   UNL A   1      34.366  22.725  25.493  1.00  0.00     0.008 A 
ATOM     89  C   UNL A   1      37.075  22.311  24.986  1.00  0.00     0.001 A 
ATOM     90  C   UNL A   1      34.923  21.458  25.670  1.00  0.00     0.001 A 
ATOM     91  C   UNL A   1      36.279  21.253  25.420  1.00  0.00     0.000 A 
ENDBRANCH  85  86
ENDBRANCH  83  84
ENDBRANCH  77  83
ENDBRANCH  74  77
ENDBRANCH  72  73
ENDBRANCH   1  72
TORSDOF 16
ENDMDL
MODEL 3
REMARK VINA RESULT:     -12.2      6.054     11.661
REMARK SMILES O=C(NCCCNC(=O)C1(C/C=C/c2ccccc2)CCCCC1)c1ccc(-c2c3nc(c(-c4cc(S(=O)(=O)[O-])ccc4F)c4ccc([nH]4)c(-c4cc(S(=O)(=O)[O-])ccc4F)c4nc(c(-c5cc(S(=O)(=O)[O-])ccc5F)c5ccc2[nH]5)C=C4)C=C3)cc1
REMARK SMILES IDX 5 1 4 2 3 3 1 4 2 5 25 7 26 8 87 9 27 10 86 11 28 12 29 13
REMARK SMILES IDX 30 14 80 15 31 16 85 17 79 18 81 19 32 20 84 21 78 22 77 23
REMARK SMILES IDX 33 25 65 26 45 27 64 28 46 29 49 30 63 31 82 32 47 33 48 34
REMARK SMILES IDX 62 36 83 37 50 38 34 39 35 40 43 41 36 42 42 43 44 44 41 45
REMARK SMILES IDX 37 46 38 47 39 48 40 49 66 50 67 51 75 52 68 53 74 54 76 55
REMARK SMILES IDX 73 56 69 57 70 58 71 59 72 60 51 61 52 62 60 63 53 64 59 65
REMARK SMILES IDX 61 66 58 67 54 68 55 69 56 70 57 71 6 72 7 73 8 74 9 76
REMARK SMILES IDX 10 77 20 78 24 79 21 80 23 81 22 82 11 83 12 84 13 85 14 86
REMARK SMILES IDX 15 87 19 88 16 89 18 90 17 91
REMARK H PARENT 3 6 81 24 49 35 7 75
REMARK Flexibility Score: inf
ROOT
ATOM      1  C   UNL A   1      38.000  20.136  24.843  1.00  0.00     0.042 C 
ENDROOT
BRANCH   1   2
ATOM      2  C   UNL A   1      39.030  20.490  25.918  1.00  0.00     0.118 C 
BRANCH   2   3
ATOM      3  N   UNL A   1      40.047  19.457  26.042  1.00  0.00    -0.352 N 
ATOM      4  O   UNL A   1      42.106  18.583  25.878  1.00  0.00    -0.269 OA
ATOM      5  C   UNL A   1      41.413  19.575  26.089  1.00  0.00     0.251 C 
ATOM      6  H   UNL A   1      39.704  18.536  26.101  1.00  0.00     0.163 HD
BRANCH   5   7
ATOM      7  C   UNL A   1      42.050  20.873  26.403  1.00  0.00     0.039 A 
ATOM      8  C   UNL A   1      42.330  21.801  25.395  1.00  0.00     0.014 A 
ATOM      9  C   UNL A   1      42.279  21.204  27.743  1.00  0.00     0.014 A 
ATOM     10  C   UNL A   1      42.912  23.026  25.717  1.00  0.00     0.010 A 
ATOM     11  C   UNL A   1      42.808  22.455  28.068  1.00  0.00     0.010 A 
ATOM     12  C   UNL A   1      43.137  23.372  27.056  1.00  0.00    -0.014 A 
BRANCH  12  13
ATOM     13  C   UNL A   1      43.670  24.713  27.408  1.00  0.00     0.031 A 
ATOM     14  C   UNL A   1      42.750  25.791  27.904  1.00  0.00     0.074 A 
ATOM     15  C   UNL A   1      44.982  24.966  27.236  1.00  0.00     0.049 A 
ATOM     16  N   UNL A   1      43.006  27.049  28.156  1.00  0.00    -0.248 NA
ATOM     17  C   UNL A   1      41.352  25.401  28.129  1.00  0.00     0.031 C 
ATOM     18  C   UNL A   1      45.969  23.995  26.758  1.00  0.00     0.029 A 
ATOM     19  N   UNL A   1      45.708  26.115  27.423  1.00  0.00    -0.354 N 
ATOM     20  C   UNL A   1      41.797  27.610  28.554  1.00  0.00     0.074 A 
ATOM     21  C   UNL A   1      40.804  26.558  28.469  1.00  0.00     0.031 C 
ATOM     22  C   UNL A   1      47.171  24.588  26.691  1.00  0.00     0.029 A 
ATOM     23  C   UNL A   1      47.028  25.994  27.058  1.00  0.00     0.049 A 
ATOM     24  H   UNL A   1      45.322  26.945  27.784  1.00  0.00     0.167 HD
ATOM     25  C   UNL A   1      41.546  28.882  28.954  1.00  0.00     0.034 A 
ATOM     26  C   UNL A   1      48.007  26.916  26.983  1.00  0.00     0.034 A 
ATOM     27  C   UNL A   1      42.555  29.915  29.017  1.00  0.00     0.049 A 
ATOM     28  C   UNL A   1      47.700  28.335  27.376  1.00  0.00     0.074 A 
ATOM     29  C   UNL A   1      42.424  31.227  29.438  1.00  0.00     0.029 A 
ATOM     30  N   UNL A   1      43.882  29.756  28.630  1.00  0.00    -0.354 N 
ATOM     31  N   UNL A   1      46.557  28.851  27.767  1.00  0.00    -0.248 NA
ATOM     32  C   UNL A   1      48.810  29.294  27.324  1.00  0.00     0.031 C 
ATOM     33  C   UNL A   1      43.648  31.878  29.238  1.00  0.00     0.029 A 
ATOM     34  C   UNL A   1      44.568  30.953  28.770  1.00  0.00     0.049 A 
ATOM     35  H   UNL A   1      44.276  28.915  28.304  1.00  0.00     0.167 HD
ATOM     36  C   UNL A   1      46.817  30.191  28.033  1.00  0.00     0.074 A 
ATOM     37  C   UNL A   1      48.225  30.402  27.758  1.00  0.00     0.031 C 
ATOM     38  C   UNL A   1      45.970  31.153  28.479  1.00  0.00     0.034 A 
BRANCH  25  39
ATOM     39  C   UNL A   1      40.114  29.229  29.295  1.00  0.00     0.023 A 
ATOM     40  C   UNL A   1      39.673  29.333  30.627  1.00  0.00     0.031 A 
ATOM     41  C   UNL A   1      39.159  29.395  28.276  1.00  0.00     0.131 A 
ATOM     42  C   UNL A   1      38.307  29.494  30.905  1.00  0.00     0.055 A 
ATOM     43  C   UNL A   1      37.815  29.648  28.558  1.00  0.00     0.041 A 
ATOM     44  F   UNL A   1      39.510  29.288  26.985  1.00  0.00    -0.206 F 
ATOM     45  C   UNL A   1      37.377  29.676  29.879  1.00  0.00     0.022 A 
BRANCH  42  46
ATOM     46  S   UNL A   1      37.740  29.271  32.614  1.00  0.00     0.124 S 
ATOM     47  O   UNL A   1      37.714  27.815  32.732  1.00  0.00    -0.237 OA
ATOM     48  O   UNL A   1      38.776  29.955  33.380  1.00  0.00    -0.237 OA
ATOM     49  O   UNL A   1      36.427  29.911  32.627  1.00  0.00    -0.744 OA
ENDBRANCH  42  46
ENDBRANCH  25  39
BRANCH  26  50
ATOM     50  C   UNL A   1      49.348  26.522  26.469  1.00  0.00     0.023 A 
ATOM     51  C   UNL A   1      49.813  26.966  25.222  1.00  0.00     0.031 A 
ATOM     52  C   UNL A   1      50.200  25.714  27.244  1.00  0.00     0.131 A 
ATOM     53  C   UNL A   1      51.089  26.584  24.779  1.00  0.00     0.055 A 
ATOM     54  C   UNL A   1      51.484  25.373  26.818  1.00  0.00     0.041 A 
ATOM     55  F   UNL A   1      49.804  25.273  28.450  1.00  0.00    -0.206 F 
ATOM     56  C   UNL A   1      51.932  25.804  25.574  1.00  0.00     0.022 A 
BRANCH  53  57
ATOM     57  S   UNL A   1      51.625  27.096  23.124  1.00  0.00     0.124 S 
ATOM     58  O   UNL A   1      52.158  28.429  23.384  1.00  0.00    -0.237 OA
ATOM     59  O   UNL A   1      52.604  26.068  22.789  1.00  0.00    -0.237 OA
ATOM     60  O   UNL A   1      50.393  27.059  22.339  1.00  0.00    -0.744 OA
ENDBRANCH  53  57
ENDBRANCH  26  50
BRANCH  38  61
ATOM     61  C   UNL A   1      46.559  32.514  28.755  1.00  0.00     0.023 A 
ATOM     62  C   UNL A   1      46.545  33.540  27.796  1.00  0.00     0.031 A 
ATOM     63  C   UNL A   1      47.123  32.787  30.013  1.00  0.00     0.131 A 
ATOM     64  C   UNL A   1      47.115  34.786  28.101  1.00  0.00     0.055 A 
ATOM     65  C   UNL A   1      47.645  34.042  30.327  1.00  0.00     0.041 A 
ATOM     66  F   UNL A   1      47.164  31.839  30.963  1.00  0.00    -0.206 F 
ATOM     67  C   UNL A   1      47.649  35.047  29.367  1.00  0.00     0.022 A 
BRANCH  64  68
ATOM     68  S   UNL A   1      47.200  36.053  26.806  1.00  0.00     0.124 S 
ATOM     69  O   UNL A   1      46.970  37.278  27.565  1.00  0.00    -0.237 OA
ATOM     70  O   UNL A   1      48.550  35.873  26.279  1.00  0.00    -0.237 OA
ATOM     71  O   UNL A   1      46.125  35.679  25.888  1.00  0.00    -0.744 OA
ENDBRANCH  64  68
ENDBRANCH  38  61
ENDBRANCH  12  13
ENDBRANCH   5   7
ENDBRANCH   2   3
ENDBRANCH   1   2
BRANCH   1  72
ATOM     72  C   UNL A   1      36.880  21.174  24.713  1.00  0.00     0.117 C 
BRANCH  72  73
ATOM     73  N   UNL A   1      35.936  21.043  25.805  1.00  0.00    -0.356 N 
ATOM     74  C   UNL A   1      34.774  21.673  26.111  1.00  0.00     0.226 C 
ATOM     75  H   UNL A   1      36.190  20.353  26.460  1.00  0.00     0.163 HD
ATOM     76  O   UNL A   1      34.424  21.511  27.285  1.00  0.00    -0.274 OA
BRANCH  74  77
ATOM     77  C   UNL A   1      33.885  22.427  25.078  1.00  0.00     0.053 C 
ATOM     78  C   UNL A   1      34.662  23.497  24.262  1.00  0.00     0.017 C 
ATOM     79  C   UNL A   1      33.280  21.370  24.121  1.00  0.00     0.017 C 
ATOM     80  C   UNL A   1      33.881  24.070  23.072  1.00  0.00     0.001 C 
ATOM     81  C   UNL A   1      32.469  21.978  22.977  1.00  0.00     0.001 C 
ATOM     82  C   UNL A   1      33.302  22.976  22.182  1.00  0.00     0.000 C 
BRANCH  77  83
ATOM     83  C   UNL A   1      32.767  23.211  25.865  1.00  0.00     0.044 C 
BRANCH  83  84
ATOM     84  C   UNL A   1      33.072  24.621  26.305  1.00  0.00    -0.025 C 
ATOM     85  C   UNL A   1      32.254  25.653  26.038  1.00  0.00     0.004 C 
BRANCH  85  86
ATOM     86  C   UNL A   1      32.555  27.043  26.385  1.00  0.00    -0.026 A 
ATOM     87  C   UNL A   1      33.854  27.532  26.214  1.00  0.00     0.008 A 
ATOM     88  C   UNL A   1      31.587  27.869  26.970  1.00  0.00     0.008 A 
ATOM     89  C   UNL A   1      34.174  28.837  26.594  1.00  0.00     0.001 A 
ATOM     90  C   UNL A   1      31.906  29.173  27.351  1.00  0.00     0.001 A 
ATOM     91  C   UNL A   1      33.199  29.657  27.161  1.00  0.00     0.000 A 
ENDBRANCH  85  86
ENDBRANCH  83  84
ENDBRANCH  77  83
ENDBRANCH  74  77
ENDBRANCH  72  73
ENDBRANCH   1  72
TORSDOF 16
ENDMDL
