MODEL 1
REMARK VINA RESULT:     -11.9      0.000      0.000
REMARK SMILES CC/C(C(=O)NCCCNC(=O)c1ccc(-c2c3nc(c(-c4cc(S(=O)(=O)[O-])ccc4F)c4ccc([nH]4)c(-c4cc(S(=O)(=O)[O-])ccc4F)c4nc(c(-c5cc(S(=O)(=O)[O-])ccc5F)c5ccc2[nH]5)C=C4)C=C3)cc1)=C1\CCc2ccccc21
REMARK SMILES IDX 9 1 8 2 7 3 6 4 4 5 5 6 3 8 76 9 77 10 84 11 78 12 79 13
REMARK SMILES IDX 83 14 80 15 82 16 81 17 2 18 1 19 10 20 11 21 12 23 13 24
REMARK SMILES IDX 14 25 75 26 15 27 74 28 16 29 17 30 18 31 68 32 19 33 73 34
REMARK SMILES IDX 67 35 69 36 20 37 72 38 66 39 65 40 21 42 53 43 33 44 52 45
REMARK SMILES IDX 34 46 37 47 51 48 70 49 35 50 36 51 50 53 71 54 38 55 22 56
REMARK SMILES IDX 23 57 31 58 24 59 30 60 32 61 29 62 25 63 26 64 27 65 28 66
REMARK SMILES IDX 54 67 55 68 63 69 56 70 62 71 64 72 61 73 57 74 58 75 59 76
REMARK SMILES IDX 60 77 39 78 40 79 48 80 41 81 47 82 49 83 46 84 42 85 43 86
REMARK SMILES IDX 44 87 45 88
REMARK H PARENT 6 7 10 22 69 41 37 52
REMARK Flexibility Score: inf
ROOT
ATOM      1  C   UNL A   1      32.930  28.670  25.304  1.00  0.00     0.118 C 
ENDROOT
BRANCH   1   2
ATOM      2  C   UNL A   1      33.830  28.694  24.078  1.00  0.00     0.042 C 
BRANCH   2   3
ATOM      3  C   UNL A   1      33.076  28.847  22.754  1.00  0.00     0.118 C 
BRANCH   3   4
ATOM      4  N   UNL A   1      33.257  27.676  21.928  1.00  0.00    -0.352 N 
ATOM      5  C   UNL A   1      33.112  26.344  22.012  1.00  0.00     0.247 C 
ATOM      6  O   UNL A   1      33.321  25.808  20.911  1.00  0.00    -0.270 OA
ATOM      7  H   UNL A   1      33.586  27.931  21.037  1.00  0.00     0.163 HD
BRANCH   5   8
ATOM      8  C   UNL A   1      32.644  25.459  23.162  1.00  0.00     0.020 C 
ATOM      9  C   UNL A   1      33.277  24.603  24.009  1.00  0.00    -0.031 C 
ATOM     10  C   UNL A   1      32.749  24.267  25.414  1.00  0.00     0.041 C 
ATOM     11  C   UNL A   1      34.613  23.999  24.073  1.00  0.00    -0.019 A 
ATOM     12  C   UNL A   1      33.976  24.387  26.333  1.00  0.00     0.041 C 
ATOM     13  C   UNL A   1      35.068  24.002  25.395  1.00  0.00    -0.040 A 
ATOM     14  C   UNL A   1      35.346  23.313  23.126  1.00  0.00     0.009 A 
ATOM     15  C   UNL A   1      36.360  23.620  25.730  1.00  0.00     0.004 A 
ATOM     16  C   UNL A   1      36.647  22.897  23.443  1.00  0.00     0.001 A 
ATOM     17  C   UNL A   1      37.171  23.103  24.725  1.00  0.00     0.000 A 
BRANCH   8  18
ATOM     18  C   UNL A   1      31.135  25.721  23.403  1.00  0.00     0.038 C 
ATOM     19  C   UNL A   1      30.209  24.531  23.125  1.00  0.00     0.009 C 
ENDBRANCH   8  18
ENDBRANCH   5   8
ENDBRANCH   3   4
ENDBRANCH   2   3
ENDBRANCH   1   2
BRANCH   1  20
ATOM     20  N   UNL A   1      32.533  30.014  25.709  1.00  0.00    -0.352 N 
ATOM     21  C   UNL A   1      32.965  30.867  26.695  1.00  0.00     0.251 C 
ATOM     22  H   UNL A   1      31.805  30.387  25.161  1.00  0.00     0.163 HD
ATOM     23  O   UNL A   1      32.251  31.834  26.960  1.00  0.00    -0.269 OA
BRANCH  21  24
ATOM     24  C   UNL A   1      34.229  30.666  27.453  1.00  0.00     0.039 A 
ATOM     25  C   UNL A   1      35.084  31.763  27.630  1.00  0.00     0.014 A 
ATOM     26  C   UNL A   1      34.641  29.419  27.916  1.00  0.00     0.014 A 
ATOM     27  C   UNL A   1      36.307  31.612  28.299  1.00  0.00     0.010 A 
ATOM     28  C   UNL A   1      35.792  29.295  28.692  1.00  0.00     0.010 A 
ATOM     29  C   UNL A   1      36.657  30.382  28.871  1.00  0.00    -0.014 A 
BRANCH  29  30
ATOM     30  C   UNL A   1      37.934  30.184  29.616  1.00  0.00     0.031 A 
ATOM     31  C   UNL A   1      39.011  29.296  29.035  1.00  0.00     0.074 A 
ATOM     32  C   UNL A   1      38.092  30.722  30.843  1.00  0.00     0.049 A 
ATOM     33  N   UNL A   1      40.117  28.861  29.585  1.00  0.00    -0.248 NA
ATOM     34  C   UNL A   1      38.790  28.792  27.669  1.00  0.00     0.031 C 
ATOM     35  C   UNL A   1      37.111  31.566  31.530  1.00  0.00     0.029 A 
ATOM     36  N   UNL A   1      39.128  30.630  31.739  1.00  0.00    -0.354 N 
ATOM     37  C   UNL A   1      40.692  27.997  28.656  1.00  0.00     0.074 A 
ATOM     38  C   UNL A   1      39.788  27.932  27.529  1.00  0.00     0.031 C 
ATOM     39  C   UNL A   1      37.602  31.934  32.724  1.00  0.00     0.029 A 
ATOM     40  C   UNL A   1      38.905  31.306  32.919  1.00  0.00     0.049 A 
ATOM     41  H   UNL A   1      39.955  30.127  31.557  1.00  0.00     0.167 HD
ATOM     42  C   UNL A   1      41.873  27.334  28.730  1.00  0.00     0.034 A 
ATOM     43  C   UNL A   1      39.653  31.393  34.037  1.00  0.00     0.034 A 
ATOM     44  C   UNL A   1      42.790  27.465  29.834  1.00  0.00     0.049 A 
ATOM     45  C   UNL A   1      40.974  30.663  34.082  1.00  0.00     0.074 A 
ATOM     46  C   UNL A   1      44.058  26.925  29.967  1.00  0.00     0.029 A 
ATOM     47  N   UNL A   1      42.543  28.186  30.994  1.00  0.00    -0.354 N 
ATOM     48  N   UNL A   1      41.529  29.900  33.167  1.00  0.00    -0.248 NA
ATOM     49  C   UNL A   1      41.773  30.811  35.305  1.00  0.00     0.031 C 
ATOM     50  C   UNL A   1      44.546  27.260  31.233  1.00  0.00     0.029 A 
ATOM     51  C   UNL A   1      43.619  28.078  31.859  1.00  0.00     0.049 A 
ATOM     52  H   UNL A   1      41.723  28.700  31.174  1.00  0.00     0.167 HD
ATOM     53  C   UNL A   1      42.759  29.513  33.692  1.00  0.00     0.074 A 
ATOM     54  C   UNL A   1      42.871  30.140  34.992  1.00  0.00     0.031 C 
ATOM     55  C   UNL A   1      43.713  28.715  33.151  1.00  0.00     0.034 A 
BRANCH  42  56
ATOM     56  C   UNL A   1      42.233  26.395  27.603  1.00  0.00     0.023 A 
ATOM     57  C   UNL A   1      41.765  25.070  27.553  1.00  0.00     0.031 A 
ATOM     58  C   UNL A   1      43.057  26.839  26.551  1.00  0.00     0.131 A 
ATOM     59  C   UNL A   1      42.175  24.219  26.515  1.00  0.00     0.055 A 
ATOM     60  C   UNL A   1      43.395  26.012  25.478  1.00  0.00     0.041 A 
ATOM     61  F   UNL A   1      43.550  28.087  26.551  1.00  0.00    -0.206 F 
ATOM     62  C   UNL A   1      42.964  24.690  25.462  1.00  0.00     0.022 A 
BRANCH  59  63
ATOM     63  S   UNL A   1      41.762  22.457  26.621  1.00  0.00     0.124 S 
ATOM     64  O   UNL A   1      40.303  22.501  26.690  1.00  0.00    -0.237 OA
ATOM     65  O   UNL A   1      42.328  21.924  25.388  1.00  0.00    -0.237 OA
ATOM     66  O   UNL A   1      42.422  22.023  27.851  1.00  0.00    -0.744 OA
ENDBRANCH  59  63
ENDBRANCH  42  56
BRANCH  43  67
ATOM     67  C   UNL A   1      39.186  32.183  35.215  1.00  0.00     0.023 A 
ATOM     68  C   UNL A   1      38.628  31.546  36.335  1.00  0.00     0.031 A 
ATOM     69  C   UNL A   1      39.222  33.590  35.212  1.00  0.00     0.131 A 
ATOM     70  C   UNL A   1      38.067  32.308  37.370  1.00  0.00     0.055 A 
ATOM     71  C   UNL A   1      38.723  34.343  36.277  1.00  0.00     0.041 A 
ATOM     72  F   UNL A   1      39.747  34.255  34.170  1.00  0.00    -0.206 F 
ATOM     73  C   UNL A   1      38.123  33.702  37.356  1.00  0.00     0.022 A 
BRANCH  70  74
ATOM     74  S   UNL A   1      37.150  31.449  38.679  1.00  0.00     0.124 S 
ATOM     75  O   UNL A   1      37.029  30.106  38.122  1.00  0.00    -0.237 OA
ATOM     76  O   UNL A   1      38.047  31.593  39.820  1.00  0.00    -0.237 OA
ATOM     77  O   UNL A   1      35.902  32.202  38.770  1.00  0.00    -0.744 OA
ENDBRANCH  70  74
ENDBRANCH  43  67
BRANCH  55  78
ATOM     78  C   UNL A   1      44.984  28.528  33.943  1.00  0.00     0.023 A 
ATOM     79  C   UNL A   1      45.137  27.475  34.861  1.00  0.00     0.031 A 
ATOM     80  C   UNL A   1      46.053  29.428  33.782  1.00  0.00     0.131 A 
ATOM     81  C   UNL A   1      46.309  27.384  35.626  1.00  0.00     0.055 A 
ATOM     82  C   UNL A   1      47.242  29.292  34.498  1.00  0.00     0.041 A 
ATOM     83  F   UNL A   1      45.958  30.453  32.919  1.00  0.00    -0.206 F 
ATOM     84  C   UNL A   1      47.369  28.273  35.437  1.00  0.00     0.022 A 
BRANCH  81  85
ATOM     85  S   UNL A   1      46.391  26.139  36.942  1.00  0.00     0.124 S 
ATOM     86  O   UNL A   1      47.697  25.534  36.707  1.00  0.00    -0.237 OA
ATOM     87  O   UNL A   1      46.272  26.951  38.149  1.00  0.00    -0.237 OA
ATOM     88  O   UNL A   1      45.246  25.272  36.666  1.00  0.00    -0.744 OA
ENDBRANCH  81  85
ENDBRANCH  55  78
ENDBRANCH  29  30
ENDBRANCH  21  24
ENDBRANCH   1  20
TORSDOF 14
ENDMDL
MODEL 2
REMARK VINA RESULT:     -11.8      5.170     10.047
REMARK SMILES CC/C(C(=O)NCCCNC(=O)c1ccc(-c2c3nc(c(-c4cc(S(=O)(=O)[O-])ccc4F)c4ccc([nH]4)c(-c4cc(S(=O)(=O)[O-])ccc4F)c4nc(c(-c5cc(S(=O)(=O)[O-])ccc5F)c5ccc2[nH]5)C=C4)C=C3)cc1)=C1\CCc2ccccc21
REMARK SMILES IDX 9 1 8 2 7 3 6 4 4 5 5 6 3 8 76 9 77 10 84 11 78 12 79 13
REMARK SMILES IDX 83 14 80 15 82 16 81 17 2 18 1 19 10 20 11 21 12 23 13 24
REMARK SMILES IDX 14 25 75 26 15 27 74 28 16 29 17 30 18 31 68 32 19 33 73 34
REMARK SMILES IDX 67 35 69 36 20 37 72 38 66 39 65 40 21 42 53 43 33 44 52 45
REMARK SMILES IDX 34 46 37 47 51 48 70 49 35 50 36 51 50 53 71 54 38 55 22 56
REMARK SMILES IDX 23 57 31 58 24 59 30 60 32 61 29 62 25 63 26 64 27 65 28 66
REMARK SMILES IDX 54 67 55 68 63 69 56 70 62 71 64 72 61 73 57 74 58 75 59 76
REMARK SMILES IDX 60 77 39 78 40 79 48 80 41 81 47 82 49 83 46 84 42 85 43 86
REMARK SMILES IDX 44 87 45 88
REMARK H PARENT 6 7 10 22 69 41 37 52
REMARK Flexibility Score: inf
ROOT
ATOM      1  C   UNL A   1      35.704  22.080  25.795  1.00  0.00     0.118 C 
ENDROOT
BRANCH   1   2
ATOM      2  C   UNL A   1      34.472  21.586  26.538  1.00  0.00     0.042 C 
BRANCH   2   3
ATOM      3  C   UNL A   1      34.046  22.482  27.704  1.00  0.00     0.118 C 
BRANCH   3   4
ATOM      4  N   UNL A   1      32.628  22.750  27.647  1.00  0.00    -0.352 N 
ATOM      5  C   UNL A   1      31.746  23.379  26.854  1.00  0.00     0.247 C 
ATOM      6  O   UNL A   1      30.584  23.191  27.251  1.00  0.00    -0.270 OA
ATOM      7  H   UNL A   1      32.171  22.351  28.422  1.00  0.00     0.163 HD
BRANCH   5   8
ATOM      8  C   UNL A   1      31.942  24.148  25.552  1.00  0.00     0.020 C 
ATOM      9  C   UNL A   1      32.244  25.442  25.259  1.00  0.00    -0.031 C 
ATOM     10  C   UNL A   1      32.943  25.868  23.957  1.00  0.00     0.041 C 
ATOM     11  C   UNL A   1      32.312  26.694  26.022  1.00  0.00    -0.019 A 
ATOM     12  C   UNL A   1      34.053  26.833  24.405  1.00  0.00     0.041 C 
ATOM     13  C   UNL A   1      33.433  27.428  25.622  1.00  0.00    -0.040 A 
ATOM     14  C   UNL A   1      31.402  27.290  26.870  1.00  0.00     0.009 A 
ATOM     15  C   UNL A   1      33.823  28.588  26.275  1.00  0.00     0.004 A 
ATOM     16  C   UNL A   1      31.762  28.475  27.529  1.00  0.00     0.001 A 
ATOM     17  C   UNL A   1      32.994  29.090  27.274  1.00  0.00     0.000 A 
BRANCH   8  18
ATOM     18  C   UNL A   1      31.848  23.148  24.371  1.00  0.00     0.038 C 
ATOM     19  C   UNL A   1      30.653  23.351  23.432  1.00  0.00     0.009 C 
ENDBRANCH   8  18
ENDBRANCH   5   8
ENDBRANCH   3   4
ENDBRANCH   2   3
ENDBRANCH   1   2
BRANCH   1  20
ATOM     20  N   UNL A   1      36.737  21.053  25.721  1.00  0.00    -0.352 N 
ATOM     21  C   UNL A   1      38.111  21.097  25.728  1.00  0.00     0.251 C 
ATOM     22  H   UNL A   1      36.376  20.140  25.651  1.00  0.00     0.163 HD
ATOM     23  O   UNL A   1      38.711  20.080  25.381  1.00  0.00    -0.269 OA
BRANCH  21  24
ATOM     24  C   UNL A   1      38.887  22.303  26.117  1.00  0.00     0.039 A 
ATOM     25  C   UNL A   1      40.032  22.136  26.909  1.00  0.00     0.014 A 
ATOM     26  C   UNL A   1      38.478  23.598  25.804  1.00  0.00     0.014 A 
ATOM     27  C   UNL A   1      40.771  23.247  27.337  1.00  0.00     0.010 A 
ATOM     28  C   UNL A   1      39.283  24.692  26.119  1.00  0.00     0.010 A 
ATOM     29  C   UNL A   1      40.425  24.537  26.914  1.00  0.00    -0.014 A 
BRANCH  29  30
ATOM     30  C   UNL A   1      41.199  25.745  27.322  1.00  0.00     0.031 A 
ATOM     31  C   UNL A   1      40.546  26.798  28.188  1.00  0.00     0.074 A 
ATOM     32  C   UNL A   1      42.447  25.940  26.847  1.00  0.00     0.049 A 
ATOM     33  N   UNL A   1      40.979  27.989  28.518  1.00  0.00    -0.248 NA
ATOM     34  C   UNL A   1      39.206  26.487  28.712  1.00  0.00     0.031 C 
ATOM     35  C   UNL A   1      43.175  25.017  25.972  1.00  0.00     0.029 A 
ATOM     36  N   UNL A   1      43.322  26.984  27.019  1.00  0.00    -0.354 N 
ATOM     37  C   UNL A   1      39.948  28.583  29.241  1.00  0.00     0.074 A 
ATOM     38  C   UNL A   1      38.851  27.641  29.258  1.00  0.00     0.031 C 
ATOM     39  C   UNL A   1      44.390  25.522  25.707  1.00  0.00     0.029 A 
ATOM     40  C   UNL A   1      44.511  26.832  26.339  1.00  0.00     0.049 A 
ATOM     41  H   UNL A   1      43.120  27.770  27.576  1.00  0.00     0.167 HD
ATOM     42  C   UNL A   1      39.925  29.796  29.848  1.00  0.00     0.034 A 
ATOM     43  C   UNL A   1      45.568  27.660  26.221  1.00  0.00     0.034 A 
ATOM     44  C   UNL A   1      41.053  30.692  29.875  1.00  0.00     0.049 A 
ATOM     45  C   UNL A   1      45.524  28.994  26.927  1.00  0.00     0.074 A 
ATOM     46  C   UNL A   1      41.179  31.896  30.547  1.00  0.00     0.029 A 
ATOM     47  N   UNL A   1      42.250  30.486  29.203  1.00  0.00    -0.354 N 
ATOM     48  N   UNL A   1      44.563  29.512  27.658  1.00  0.00    -0.248 NA
ATOM     49  C   UNL A   1      46.710  29.851  26.800  1.00  0.00     0.031 C 
ATOM     50  C   UNL A   1      42.421  32.451  30.225  1.00  0.00     0.029 A 
ATOM     51  C   UNL A   1      43.106  31.555  29.418  1.00  0.00     0.049 A 
ATOM     52  H   UNL A   1      42.461  29.696  28.655  1.00  0.00     0.167 HD
ATOM     53  C   UNL A   1      45.048  30.737  28.109  1.00  0.00     0.074 A 
ATOM     54  C   UNL A   1      46.390  30.870  27.582  1.00  0.00     0.031 C 
ATOM     55  C   UNL A   1      44.443  31.668  28.888  1.00  0.00     0.034 A 
BRANCH  42  56
ATOM     56  C   UNL A   1      38.642  30.234  30.514  1.00  0.00     0.023 A 
ATOM     57  C   UNL A   1      37.655  30.965  29.830  1.00  0.00     0.031 A 
ATOM     58  C   UNL A   1      38.399  29.906  31.861  1.00  0.00     0.131 A 
ATOM     59  C   UNL A   1      36.505  31.399  30.510  1.00  0.00     0.055 A 
ATOM     60  C   UNL A   1      37.217  30.271  32.509  1.00  0.00     0.041 A 
ATOM     61  F   UNL A   1      39.312  29.227  32.573  1.00  0.00    -0.206 F 
ATOM     62  C   UNL A   1      36.267  31.032  31.836  1.00  0.00     0.022 A 
BRANCH  59  63
ATOM     63  S   UNL A   1      35.383  32.549  29.671  1.00  0.00     0.124 S 
ATOM     64  O   UNL A   1      36.293  33.630  29.301  1.00  0.00    -0.237 OA
ATOM     65  O   UNL A   1      34.868  31.743  28.571  1.00  0.00    -0.237 OA
ATOM     66  O   UNL A   1      34.408  32.893  30.704  1.00  0.00    -0.744 OA
ENDBRANCH  59  63
ENDBRANCH  42  56
BRANCH  43  67
ATOM     67  C   UNL A   1      46.756  27.278  25.400  1.00  0.00     0.023 A 
ATOM     68  C   UNL A   1      46.959  27.830  24.125  1.00  0.00     0.031 A 
ATOM     69  C   UNL A   1      47.667  26.302  25.844  1.00  0.00     0.131 A 
ATOM     70  C   UNL A   1      48.000  27.358  23.312  1.00  0.00     0.055 A 
ATOM     71  C   UNL A   1      48.742  25.883  25.056  1.00  0.00     0.041 A 
ATOM     72  F   UNL A   1      47.526  25.740  27.055  1.00  0.00    -0.206 F 
ATOM     73  C   UNL A   1      48.902  26.398  23.774  1.00  0.00     0.022 A 
BRANCH  70  74
ATOM     74  S   UNL A   1      48.082  27.928  21.592  1.00  0.00     0.124 S 
ATOM     75  O   UNL A   1      46.776  28.557  21.427  1.00  0.00    -0.237 OA
ATOM     76  O   UNL A   1      49.229  28.829  21.627  1.00  0.00    -0.237 OA
ATOM     77  O   UNL A   1      48.282  26.696  20.834  1.00  0.00    -0.744 OA
ENDBRANCH  70  74
ENDBRANCH  43  67
BRANCH  55  78
ATOM     78  C   UNL A   1      45.257  32.881  29.265  1.00  0.00     0.023 A 
ATOM     79  C   UNL A   1      45.236  34.056  28.495  1.00  0.00     0.031 A 
ATOM     80  C   UNL A   1      46.074  32.853  30.410  1.00  0.00     0.131 A 
ATOM     81  C   UNL A   1      46.062  35.134  28.845  1.00  0.00     0.055 A 
ATOM     82  C   UNL A   1      46.843  33.953  30.790  1.00  0.00     0.041 A 
ATOM     83  F   UNL A   1      46.132  31.755  31.181  1.00  0.00    -0.206 F 
ATOM     84  C   UNL A   1      46.850  35.097  29.998  1.00  0.00     0.022 A 
BRANCH  81  85
ATOM     85  S   UNL A   1      46.164  36.551  27.719  1.00  0.00     0.124 S 
ATOM     86  O   UNL A   1      46.782  37.567  28.565  1.00  0.00    -0.237 OA
ATOM     87  O   UNL A   1      46.994  36.032  26.637  1.00  0.00    -0.237 OA
ATOM     88  O   UNL A   1      44.770  36.806  27.361  1.00  0.00    -0.744 OA
ENDBRANCH  81  85
ENDBRANCH  55  78
ENDBRANCH  29  30
ENDBRANCH  21  24
ENDBRANCH   1  20
TORSDOF 14
ENDMDL
MODEL 3
REMARK VINA RESULT:     -11.8      1.910      3.225
REMARK SMILES CC/C(C(=O)NCCCNC(=O)c1ccc(-c2c3nc(c(-c4cc(S(=O)(=O)[O-])ccc4F)c4ccc([nH]4)c(-c4cc(S(=O)(=O)[O-])ccc4F)c4nc(c(-c5cc(S(=O)(=O)[O-])ccc5F)c5ccc2[nH]5)C=C4)C=C3)cc1)=C1\CCc2ccccc21
REMARK SMILES IDX 9 1 8 2 7 3 6 4 4 5 5 6 3 8 76 9 77 10 84 11 78 12 79 13
REMARK SMILES IDX 83 14 80 15 82 16 81 17 2 18 1 19 10 20 11 21 12 23 13 24
REMARK SMILES IDX 14 25 75 26 15 27 74 28 16 29 17 30 18 31 68 32 19 33 73 34
REMARK SMILES IDX 67 35 69 36 20 37 72 38 66 39 65 40 21 42 53 43 33 44 52 45
REMARK SMILES IDX 34 46 37 47 51 48 70 49 35 50 36 51 50 53 71 54 38 55 22 56
REMARK SMILES IDX 23 57 31 58 24 59 30 60 32 61 29 62 25 63 26 64 27 65 28 66
REMARK SMILES IDX 54 67 55 68 63 69 56 70 62 71 64 72 61 73 57 74 58 75 59 76
REMARK SMILES IDX 60 77 39 78 40 79 48 80 41 81 47 82 49 83 46 84 42 85 43 86
REMARK SMILES IDX 44 87 45 88
REMARK H PARENT 6 7 10 22 69 41 37 52
REMARK Flexibility Score: inf
ROOT
ATOM      1  C   UNL A   1      33.327  29.031  24.688  1.00  0.00     0.118 C 
ENDROOT
BRANCH   1   2
ATOM      2  C   UNL A   1      33.243  29.161  23.174  1.00  0.00     0.042 C 
BRANCH   2   3
ATOM      3  C   UNL A   1      34.048  28.105  22.412  1.00  0.00     0.118 C 
BRANCH   3   4
ATOM      4  N   UNL A   1      33.170  27.253  21.645  1.00  0.00    -0.352 N 
ATOM      5  C   UNL A   1      32.061  26.518  21.823  1.00  0.00     0.247 C 
ATOM      6  O   UNL A   1      31.660  26.057  20.741  1.00  0.00    -0.270 OA
ATOM      7  H   UNL A   1      33.477  27.194  20.712  1.00  0.00     0.163 HD
BRANCH   5   8
ATOM      8  C   UNL A   1      31.209  26.276  23.064  1.00  0.00     0.020 C 
ATOM      9  C   UNL A   1      30.122  26.898  23.595  1.00  0.00    -0.031 C 
ATOM     10  C   UNL A   1      29.101  26.181  24.495  1.00  0.00     0.041 C 
ATOM     11  C   UNL A   1      29.419  28.162  23.346  1.00  0.00    -0.019 A 
ATOM     12  C   UNL A   1      27.728  26.594  23.937  1.00  0.00     0.041 C 
ATOM     13  C   UNL A   1      28.038  27.953  23.409  1.00  0.00    -0.040 A 
ATOM     14  C   UNL A   1      29.886  29.457  23.255  1.00  0.00     0.009 A 
ATOM     15  C   UNL A   1      27.128  28.945  23.073  1.00  0.00     0.004 A 
ATOM     16  C   UNL A   1      28.984  30.484  22.936  1.00  0.00     0.001 A 
ATOM     17  C   UNL A   1      27.618  30.216  22.789  1.00  0.00     0.000 A 
BRANCH   8  18
ATOM     18  C   UNL A   1      31.703  24.979  23.755  1.00  0.00     0.038 C 
ATOM     19  C   UNL A   1      31.082  23.679  23.229  1.00  0.00     0.009 C 
ENDBRANCH   8  18
ENDBRANCH   5   8
ENDBRANCH   3   4
ENDBRANCH   2   3
ENDBRANCH   1   2
BRANCH   1  20
ATOM     20  N   UNL A   1      32.734  30.180  25.362  1.00  0.00    -0.352 N 
ATOM     21  C   UNL A   1      33.016  30.831  26.538  1.00  0.00     0.251 C 
ATOM     22  H   UNL A   1      31.974  30.571  24.873  1.00  0.00     0.163 HD
ATOM     23  O   UNL A   1      32.166  31.608  26.974  1.00  0.00    -0.269 OA
BRANCH  21  24
ATOM     24  C   UNL A   1      34.276  30.628  27.302  1.00  0.00     0.039 A 
ATOM     25  C   UNL A   1      35.066  31.748  27.599  1.00  0.00     0.014 A 
ATOM     26  C   UNL A   1      34.750  29.367  27.655  1.00  0.00     0.014 A 
ATOM     27  C   UNL A   1      36.283  31.602  28.277  1.00  0.00     0.010 A 
ATOM     28  C   UNL A   1      35.894  29.234  28.441  1.00  0.00     0.010 A 
ATOM     29  C   UNL A   1      36.693  30.344  28.740  1.00  0.00    -0.014 A 
BRANCH  29  30
ATOM     30  C   UNL A   1      37.966  30.146  29.490  1.00  0.00     0.031 A 
ATOM     31  C   UNL A   1      39.050  29.267  28.910  1.00  0.00     0.074 A 
ATOM     32  C   UNL A   1      38.115  30.677  30.722  1.00  0.00     0.049 A 
ATOM     33  N   UNL A   1      40.154  28.833  29.463  1.00  0.00    -0.248 NA
ATOM     34  C   UNL A   1      38.839  28.771  27.540  1.00  0.00     0.031 C 
ATOM     35  C   UNL A   1      37.127  31.513  31.409  1.00  0.00     0.029 A 
ATOM     36  N   UNL A   1      39.147  30.583  31.623  1.00  0.00    -0.354 N 
ATOM     37  C   UNL A   1      40.738  27.977  28.532  1.00  0.00     0.074 A 
ATOM     38  C   UNL A   1      39.842  27.915  27.399  1.00  0.00     0.031 C 
ATOM     39  C   UNL A   1      37.610  31.874  32.608  1.00  0.00     0.029 A 
ATOM     40  C   UNL A   1      38.914  31.250  32.806  1.00  0.00     0.049 A 
ATOM     41  H   UNL A   1      39.976  30.085  31.442  1.00  0.00     0.167 HD
ATOM     42  C   UNL A   1      41.922  27.319  28.608  1.00  0.00     0.034 A 
ATOM     43  C   UNL A   1      39.656  31.333  33.929  1.00  0.00     0.034 A 
ATOM     44  C   UNL A   1      42.832  27.446  29.718  1.00  0.00     0.049 A 
ATOM     45  C   UNL A   1      40.979  30.608  33.977  1.00  0.00     0.074 A 
ATOM     46  C   UNL A   1      44.101  26.910  29.854  1.00  0.00     0.029 A 
ATOM     47  N   UNL A   1      42.575  28.158  30.881  1.00  0.00    -0.354 N 
ATOM     48  N   UNL A   1      41.542  29.853  33.060  1.00  0.00    -0.248 NA
ATOM     49  C   UNL A   1      41.771  30.752  35.205  1.00  0.00     0.031 C 
ATOM     50  C   UNL A   1      44.581  27.238  31.126  1.00  0.00     0.029 A 
ATOM     51  C   UNL A   1      43.647  28.048  31.752  1.00  0.00     0.049 A 
ATOM     52  H   UNL A   1      41.752  28.668  31.061  1.00  0.00     0.167 HD
ATOM     53  C   UNL A   1      42.771  29.468  33.589  1.00  0.00     0.074 A 
ATOM     54  C   UNL A   1      42.873  30.087  34.894  1.00  0.00     0.031 C 
ATOM     55  C   UNL A   1      43.731  28.677  33.049  1.00  0.00     0.034 A 
BRANCH  42  56
ATOM     56  C   UNL A   1      42.292  26.388  27.477  1.00  0.00     0.023 A 
ATOM     57  C   UNL A   1      41.830  25.061  27.416  1.00  0.00     0.031 A 
ATOM     58  C   UNL A   1      43.120  26.842  26.433  1.00  0.00     0.131 A 
ATOM     59  C   UNL A   1      42.250  24.219  26.374  1.00  0.00     0.055 A 
ATOM     60  C   UNL A   1      43.468  26.024  25.356  1.00  0.00     0.041 A 
ATOM     61  F   UNL A   1      43.608  28.093  26.443  1.00  0.00    -0.206 F 
ATOM     62  C   UNL A   1      43.042  24.700  25.329  1.00  0.00     0.022 A 
BRANCH  59  63
ATOM     63  S   UNL A   1      41.843  22.455  26.467  1.00  0.00     0.124 S 
ATOM     64  O   UNL A   1      42.402  22.093  27.767  1.00  0.00    -0.237 OA
ATOM     65  O   UNL A   1      40.388  22.460  26.376  1.00  0.00    -0.237 OA
ATOM     66  O   UNL A   1      42.539  21.881  25.317  1.00  0.00    -0.744 OA
ENDBRANCH  59  63
ENDBRANCH  42  56
BRANCH  43  67
ATOM     67  C   UNL A   1      39.179  32.113  35.109  1.00  0.00     0.023 A 
ATOM     68  C   UNL A   1      39.584  33.443  35.306  1.00  0.00     0.031 A 
ATOM     69  C   UNL A   1      38.370  31.522  36.098  1.00  0.00     0.131 A 
ATOM     70  C   UNL A   1      39.242  34.115  36.489  1.00  0.00     0.055 A 
ATOM     71  C   UNL A   1      37.975  32.218  37.243  1.00  0.00     0.041 A 
ATOM     72  F   UNL A   1      37.948  30.255  35.963  1.00  0.00    -0.206 F 
ATOM     73  C   UNL A   1      38.428  33.517  37.453  1.00  0.00     0.022 A 
BRANCH  70  74
ATOM     74  S   UNL A   1      39.981  35.741  36.806  1.00  0.00     0.124 S 
ATOM     75  O   UNL A   1      39.307  36.136  38.039  1.00  0.00    -0.237 OA
ATOM     76  O   UNL A   1      41.397  35.410  36.927  1.00  0.00    -0.237 OA
ATOM     77  O   UNL A   1      39.621  36.516  35.622  1.00  0.00    -0.744 OA
ENDBRANCH  70  74
ENDBRANCH  43  67
BRANCH  55  78
ATOM     78  C   UNL A   1      44.998  28.491  33.847  1.00  0.00     0.023 A 
ATOM     79  C   UNL A   1      45.146  27.440  34.768  1.00  0.00     0.031 A 
ATOM     80  C   UNL A   1      46.069  29.388  33.687  1.00  0.00     0.131 A 
ATOM     81  C   UNL A   1      46.314  27.348  35.539  1.00  0.00     0.055 A 
ATOM     82  C   UNL A   1      47.255  29.252  34.409  1.00  0.00     0.041 A 
ATOM     83  F   UNL A   1      45.981  30.411  32.821  1.00  0.00    -0.206 F 
ATOM     84  C   UNL A   1      47.377  28.235  35.351  1.00  0.00     0.022 A 
BRANCH  81  85
ATOM     85  S   UNL A   1      46.388  26.107  36.858  1.00  0.00     0.124 S 
ATOM     86  O   UNL A   1      47.822  26.027  37.120  1.00  0.00    -0.237 OA
ATOM     87  O   UNL A   1      45.581  26.719  37.909  1.00  0.00    -0.237 OA
ATOM     88  O   UNL A   1      45.802  24.917  36.244  1.00  0.00    -0.744 OA
ENDBRANCH  81  85
ENDBRANCH  55  78
ENDBRANCH  29  30
ENDBRANCH  21  24
ENDBRANCH   1  20
TORSDOF 14
ENDMDL
