MODEL 1
REMARK VINA RESULT:     -12.2      0.000      0.000
REMARK SMILES CCc1cccc(C)c1Nc1ccccc1CC(=O)NCCCNC(=O)c1ccc(-c2c3nc(c(-c4cc(S(=O)(=O)[O-])ccc4F)c4ccc([nH]4)c(-c4cc(S(=O)(=O)[O-])ccc4F)c4nc(c(-c5cc(S(=O)(=O)[O-])ccc5F)c5ccc2[nH]5)C=C4)C=C3)cc1
REMARK SMILES IDX 21 1 20 2 18 3 19 4 17 6 16 7 11 8 12 9 13 10 15 11 14 12
REMARK SMILES IDX 10 13 9 15 3 16 4 17 5 18 7 19 6 20 8 21 2 22 1 23 22 24
REMARK SMILES IDX 23 25 24 26 25 27 26 29 27 30 28 31 89 32 29 33 88 34 30 35
REMARK SMILES IDX 31 36 32 37 82 38 33 39 87 40 81 41 83 42 34 43 86 44 80 45
REMARK SMILES IDX 79 46 35 48 67 49 47 50 66 51 48 52 51 53 65 54 84 55 49 56
REMARK SMILES IDX 50 57 64 59 85 60 52 61 36 62 37 63 45 64 38 65 44 66 46 67
REMARK SMILES IDX 43 68 39 69 40 70 41 71 42 72 68 73 69 74 77 75 70 76 76 77
REMARK SMILES IDX 78 78 75 79 71 80 72 81 73 82 74 83 53 84 54 85 62 86 55 87
REMARK SMILES IDX 61 88 63 89 60 90 56 91 57 92 58 93 59 94
REMARK H PARENT 20 5 10 14 24 28 83 47 51 58
REMARK Flexibility Score: inf
ROOT
ATOM      1  C   UNL A   1      32.177  30.761  26.468  1.00  0.00     0.117 C 
ENDROOT
BRANCH   1   2
ATOM      2  N   UNL A   1      32.046  29.378  26.887  1.00  0.00    -0.356 N 
ATOM      3  C   UNL A   1      32.725  28.253  26.520  1.00  0.00     0.224 C 
ATOM      4  O   UNL A   1      32.655  27.259  27.251  1.00  0.00    -0.275 OA
ATOM      5  H   UNL A   1      31.340  29.224  27.556  1.00  0.00     0.163 HD
BRANCH   3   6
ATOM      6  C   UNL A   1      33.678  28.243  25.340  1.00  0.00     0.137 C 
BRANCH   6   7
ATOM      7  C   UNL A   1      33.499  27.206  24.247  1.00  0.00    -0.015 A 
ATOM      8  C   UNL A   1      33.860  25.848  24.375  1.00  0.00     0.042 A 
ATOM      9  C   UNL A   1      33.741  25.004  23.249  1.00  0.00     0.026 A 
ATOM     10  C   UNL A   1      33.276  25.476  22.022  1.00  0.00     0.002 A 
ATOM     11  C   UNL A   1      33.067  27.669  22.983  1.00  0.00     0.006 A 
ATOM     12  C   UNL A   1      32.941  26.813  21.890  1.00  0.00     0.000 A 
BRANCH   8  13
ATOM     13  N   UNL A   1      34.310  25.242  25.567  1.00  0.00    -0.355 N 
ATOM     14  H   UNL A   1      34.689  25.874  26.220  1.00  0.00     0.167 HD
BRANCH  13  15
ATOM     15  C   UNL A   1      34.317  23.894  25.998  1.00  0.00     0.045 A 
ATOM     16  C   UNL A   1      33.123  23.283  26.469  1.00  0.00    -0.024 A 
ATOM     17  C   UNL A   1      33.105  21.878  26.646  1.00  0.00     0.006 A 
ATOM     18  C   UNL A   1      34.228  21.095  26.431  1.00  0.00     0.001 A 
ATOM     19  C   UNL A   1      35.492  23.101  25.935  1.00  0.00    -0.027 A 
ATOM     20  C   UNL A   1      35.424  21.709  26.106  1.00  0.00     0.005 A 
ATOM     21  C   UNL A   1      36.860  23.687  25.743  1.00  0.00     0.046 C 
BRANCH  16  22
ATOM     22  C   UNL A   1      31.791  23.942  26.788  1.00  0.00     0.034 C 
ATOM     23  C   UNL A   1      30.909  24.519  25.693  1.00  0.00     0.009 C 
ENDBRANCH  16  22
ENDBRANCH  13  15
ENDBRANCH   8  13
ENDBRANCH   6   7
ENDBRANCH   3   6
ENDBRANCH   1   2
BRANCH   1  24
ATOM     24  C   UNL A   1      33.200  31.582  27.252  1.00  0.00     0.042 C 
BRANCH  24  25
ATOM     25  C   UNL A   1      34.295  30.767  27.946  1.00  0.00     0.118 C 
BRANCH  25  26
ATOM     26  N   UNL A   1      34.866  31.444  29.110  1.00  0.00    -0.352 N 
ATOM     27  C   UNL A   1      36.030  31.168  29.807  1.00  0.00     0.251 C 
ATOM     28  H   UNL A   1      34.344  32.207  29.448  1.00  0.00     0.163 HD
ATOM     29  O   UNL A   1      36.401  31.868  30.729  1.00  0.00    -0.269 OA
BRANCH  27  30
ATOM     30  C   UNL A   1      36.898  30.062  29.332  1.00  0.00     0.039 A 
ATOM     31  C   UNL A   1      37.171  29.029  30.234  1.00  0.00     0.014 A 
ATOM     32  C   UNL A   1      37.557  30.122  28.107  1.00  0.00     0.014 A 
ATOM     33  C   UNL A   1      38.266  28.196  30.011  1.00  0.00     0.010 A 
ATOM     34  C   UNL A   1      38.675  29.325  27.906  1.00  0.00     0.010 A 
ATOM     35  C   UNL A   1      39.076  28.420  28.894  1.00  0.00    -0.014 A 
BRANCH  35  36
ATOM     36  C   UNL A   1      40.442  27.905  28.819  1.00  0.00     0.031 A 
ATOM     37  C   UNL A   1      40.751  26.545  28.342  1.00  0.00     0.074 A 
ATOM     38  C   UNL A   1      41.465  28.667  29.266  1.00  0.00     0.049 A 
ATOM     39  N   UNL A   1      41.724  25.833  28.804  1.00  0.00    -0.248 NA
ATOM     40  C   UNL A   1      39.966  25.869  27.317  1.00  0.00     0.031 C 
ATOM     41  C   UNL A   1      42.894  28.392  29.149  1.00  0.00     0.029 A 
ATOM     42  N   UNL A   1      41.387  29.731  30.163  1.00  0.00    -0.354 N 
ATOM     43  C   UNL A   1      41.870  24.748  27.978  1.00  0.00     0.074 A 
ATOM     44  C   UNL A   1      40.708  24.773  27.113  1.00  0.00     0.031 C 
ATOM     45  C   UNL A   1      43.539  29.053  30.122  1.00  0.00     0.029 A 
ATOM     46  C   UNL A   1      42.538  29.674  30.970  1.00  0.00     0.049 A 
ATOM     47  H   UNL A   1      40.663  30.395  30.221  1.00  0.00     0.167 HD
ATOM     48  C   UNL A   1      43.014  24.008  28.004  1.00  0.00     0.034 A 
ATOM     49  C   UNL A   1      42.440  29.549  32.324  1.00  0.00     0.034 A 
ATOM     50  C   UNL A   1      44.004  24.514  28.950  1.00  0.00     0.049 A 
ATOM     51  C   UNL A   1      43.118  28.317  32.891  1.00  0.00     0.074 A 
ATOM     52  C   UNL A   1      45.174  25.244  28.820  1.00  0.00     0.029 A 
ATOM     53  N   UNL A   1      43.727  24.479  30.306  1.00  0.00    -0.354 N 
ATOM     54  N   UNL A   1      43.705  27.397  32.176  1.00  0.00    -0.248 NA
ATOM     55  C   UNL A   1      43.089  27.976  34.313  1.00  0.00     0.031 C 
ATOM     56  C   UNL A   1      45.608  25.630  30.120  1.00  0.00     0.029 A 
ATOM     57  C   UNL A   1      44.708  25.126  31.038  1.00  0.00     0.049 A 
ATOM     58  H   UNL A   1      42.934  24.048  30.699  1.00  0.00     0.167 HD
ATOM     59  C   UNL A   1      44.045  26.338  32.982  1.00  0.00     0.074 A 
ATOM     60  C   UNL A   1      43.641  26.752  34.313  1.00  0.00     0.031 C 
ATOM     61  C   UNL A   1      44.579  25.182  32.485  1.00  0.00     0.034 A 
BRANCH  48  62
ATOM     62  C   UNL A   1      43.324  22.962  26.965  1.00  0.00     0.023 A 
ATOM     63  C   UNL A   1      42.736  21.685  27.058  1.00  0.00     0.031 A 
ATOM     64  C   UNL A   1      44.194  23.162  25.877  1.00  0.00     0.131 A 
ATOM     65  C   UNL A   1      43.091  20.652  26.174  1.00  0.00     0.055 A 
ATOM     66  C   UNL A   1      44.592  22.120  25.029  1.00  0.00     0.041 A 
ATOM     67  F   UNL A   1      44.672  24.381  25.584  1.00  0.00    -0.206 F 
ATOM     68  C   UNL A   1      44.052  20.851  25.186  1.00  0.00     0.022 A 
BRANCH  65  69
ATOM     69  S   UNL A   1      42.278  19.039  26.339  1.00  0.00     0.124 S 
ATOM     70  O   UNL A   1      43.155  18.165  25.566  1.00  0.00    -0.237 OA
ATOM     71  O   UNL A   1      42.281  18.840  27.784  1.00  0.00    -0.237 OA
ATOM     72  O   UNL A   1      40.959  19.263  25.749  1.00  0.00    -0.744 OA
ENDBRANCH  65  69
ENDBRANCH  48  62
BRANCH  49  73
ATOM     73  C   UNL A   1      41.217  30.198  32.885  1.00  0.00     0.023 A 
ATOM     74  C   UNL A   1      41.199  31.607  32.960  1.00  0.00     0.031 A 
ATOM     75  C   UNL A   1      39.994  29.525  33.000  1.00  0.00     0.131 A 
ATOM     76  C   UNL A   1      39.982  32.302  32.987  1.00  0.00     0.055 A 
ATOM     77  C   UNL A   1      38.785  30.222  33.106  1.00  0.00     0.041 A 
ATOM     78  F   UNL A   1      39.932  28.189  32.890  1.00  0.00    -0.206 F 
ATOM     79  C   UNL A   1      38.771  31.616  33.058  1.00  0.00     0.022 A 
BRANCH  76  80
ATOM     80  S   UNL A   1      40.006  34.085  32.648  1.00  0.00     0.124 S 
ATOM     81  O   UNL A   1      41.168  34.533  33.404  1.00  0.00    -0.237 OA
ATOM     82  O   UNL A   1      40.134  34.129  31.191  1.00  0.00    -0.237 OA
ATOM     83  O   UNL A   1      38.715  34.561  33.142  1.00  0.00    -0.744 OA
ENDBRANCH  76  80
ENDBRANCH  49  73
BRANCH  61  84
ATOM     84  C   UNL A   1      44.983  23.988  33.323  1.00  0.00     0.023 A 
ATOM     85  C   UNL A   1      46.292  23.797  33.791  1.00  0.00     0.031 A 
ATOM     86  C   UNL A   1      44.064  22.955  33.631  1.00  0.00     0.131 A 
ATOM     87  C   UNL A   1      46.620  22.696  34.605  1.00  0.00     0.055 A 
ATOM     88  C   UNL A   1      44.411  21.824  34.376  1.00  0.00     0.041 A 
ATOM     89  F   UNL A   1      42.782  23.008  33.246  1.00  0.00    -0.206 F 
ATOM     90  C   UNL A   1      45.691  21.697  34.887  1.00  0.00     0.022 A 
BRANCH  87  91
ATOM     91  S   UNL A   1      48.273  22.628  35.345  1.00  0.00     0.124 S 
ATOM     92  O   UNL A   1      48.092  23.357  36.595  1.00  0.00    -0.237 OA
ATOM     93  O   UNL A   1      48.481  21.187  35.473  1.00  0.00    -0.237 OA
ATOM     94  O   UNL A   1      49.122  23.289  34.356  1.00  0.00    -0.744 OA
ENDBRANCH  87  91
ENDBRANCH  61  84
ENDBRANCH  35  36
ENDBRANCH  27  30
ENDBRANCH  25  26
ENDBRANCH  24  25
ENDBRANCH   1  24
TORSDOF 17
ENDMDL
MODEL 2
REMARK VINA RESULT:     -12.1      3.994     10.512
REMARK SMILES CCc1cccc(C)c1Nc1ccccc1CC(=O)NCCCNC(=O)c1ccc(-c2c3nc(c(-c4cc(S(=O)(=O)[O-])ccc4F)c4ccc([nH]4)c(-c4cc(S(=O)(=O)[O-])ccc4F)c4nc(c(-c5cc(S(=O)(=O)[O-])ccc5F)c5ccc2[nH]5)C=C4)C=C3)cc1
REMARK SMILES IDX 21 1 20 2 18 3 19 4 17 6 16 7 11 8 12 9 13 10 15 11 14 12
REMARK SMILES IDX 10 13 9 15 3 16 4 17 5 18 7 19 6 20 8 21 2 22 1 23 22 24
REMARK SMILES IDX 23 25 24 26 25 27 26 29 27 30 28 31 89 32 29 33 88 34 30 35
REMARK SMILES IDX 31 36 32 37 82 38 33 39 87 40 81 41 83 42 34 43 86 44 80 45
REMARK SMILES IDX 79 46 35 48 67 49 47 50 66 51 48 52 51 53 65 54 84 55 49 56
REMARK SMILES IDX 50 57 64 59 85 60 52 61 36 62 37 63 45 64 38 65 44 66 46 67
REMARK SMILES IDX 43 68 39 69 40 70 41 71 42 72 68 73 69 74 77 75 70 76 76 77
REMARK SMILES IDX 78 78 75 79 71 80 72 81 73 82 74 83 53 84 54 85 62 86 55 87
REMARK SMILES IDX 61 88 63 89 60 90 56 91 57 92 58 93 59 94
REMARK H PARENT 20 5 10 14 24 28 83 47 51 58
REMARK Flexibility Score: inf
ROOT
ATOM      1  C   UNL A   1      36.980  22.247  25.354  1.00  0.00     0.117 C 
ENDROOT
BRANCH   1   2
ATOM      2  N   UNL A   1      36.181  22.589  24.191  1.00  0.00    -0.356 N 
ATOM      3  C   UNL A   1      35.326  23.626  23.955  1.00  0.00     0.224 C 
ATOM      4  O   UNL A   1      35.021  23.882  22.785  1.00  0.00    -0.275 OA
ATOM      5  H   UNL A   1      36.272  21.961  23.439  1.00  0.00     0.163 HD
BRANCH   3   6
ATOM      6  C   UNL A   1      34.873  24.558  25.063  1.00  0.00     0.137 C 
BRANCH   6   7
ATOM      7  C   UNL A   1      33.411  24.579  25.467  1.00  0.00    -0.015 A 
ATOM      8  C   UNL A   1      32.587  25.724  25.410  1.00  0.00     0.042 A 
ATOM      9  C   UNL A   1      31.271  25.640  25.914  1.00  0.00     0.026 A 
ATOM     10  C   UNL A   1      30.766  24.462  26.460  1.00  0.00     0.002 A 
ATOM     11  C   UNL A   1      32.888  23.407  26.060  1.00  0.00     0.006 A 
ATOM     12  C   UNL A   1      31.579  23.343  26.535  1.00  0.00     0.000 A 
BRANCH   8  13
ATOM     13  N   UNL A   1      32.968  26.962  24.852  1.00  0.00    -0.355 N 
ATOM     14  H   UNL A   1      33.619  26.888  24.117  1.00  0.00     0.167 HD
BRANCH  13  15
ATOM     15  C   UNL A   1      32.586  28.292  25.153  1.00  0.00     0.045 A 
ATOM     16  C   UNL A   1      31.554  28.930  24.413  1.00  0.00    -0.024 A 
ATOM     17  C   UNL A   1      31.025  30.150  24.900  1.00  0.00     0.006 A 
ATOM     18  C   UNL A   1      31.523  30.765  26.038  1.00  0.00     0.001 A 
ATOM     19  C   UNL A   1      33.184  29.012  26.221  1.00  0.00    -0.027 A 
ATOM     20  C   UNL A   1      32.617  30.212  26.678  1.00  0.00     0.005 A 
ATOM     21  C   UNL A   1      34.461  28.578  26.880  1.00  0.00     0.046 C 
BRANCH  16  22
ATOM     22  C   UNL A   1      30.878  28.453  23.138  1.00  0.00     0.034 C 
ATOM     23  C   UNL A   1      29.625  29.126  22.604  1.00  0.00     0.009 C 
ENDBRANCH  16  22
ENDBRANCH  13  15
ENDBRANCH   8  13
ENDBRANCH   6   7
ENDBRANCH   3   6
ENDBRANCH   1   2
BRANCH   1  24
ATOM     24  C   UNL A   1      38.238  23.092  25.547  1.00  0.00     0.042 C 
BRANCH  24  25
ATOM     25  C   UNL A   1      39.243  22.541  26.562  1.00  0.00     0.118 C 
BRANCH  25  26
ATOM     26  N   UNL A   1      40.629  22.885  26.243  1.00  0.00    -0.352 N 
ATOM     27  C   UNL A   1      41.282  24.102  26.350  1.00  0.00     0.251 C 
ATOM     28  H   UNL A   1      41.177  22.142  25.902  1.00  0.00     0.163 HD
ATOM     29  O   UNL A   1      42.465  24.213  26.096  1.00  0.00    -0.269 OA
BRANCH  27  30
ATOM     30  C   UNL A   1      40.538  25.262  26.902  1.00  0.00     0.039 A 
ATOM     31  C   UNL A   1      40.741  26.503  26.290  1.00  0.00     0.014 A 
ATOM     32  C   UNL A   1      39.802  25.167  28.080  1.00  0.00     0.014 A 
ATOM     33  C   UNL A   1      40.412  27.669  26.980  1.00  0.00     0.010 A 
ATOM     34  C   UNL A   1      39.516  26.326  28.788  1.00  0.00     0.010 A 
ATOM     35  C   UNL A   1      39.894  27.570  28.274  1.00  0.00    -0.014 A 
BRANCH  35  36
ATOM     36  C   UNL A   1      39.933  28.697  29.205  1.00  0.00     0.031 A 
ATOM     37  C   UNL A   1      38.878  29.725  29.249  1.00  0.00     0.074 A 
ATOM     38  C   UNL A   1      41.005  28.854  30.014  1.00  0.00     0.049 A 
ATOM     39  N   UNL A   1      39.106  30.968  29.522  1.00  0.00    -0.248 NA
ATOM     40  C   UNL A   1      37.479  29.437  28.963  1.00  0.00     0.031 C 
ATOM     41  C   UNL A   1      41.167  29.821  31.095  1.00  0.00     0.029 A 
ATOM     42  N   UNL A   1      42.280  28.324  29.827  1.00  0.00    -0.354 N 
ATOM     43  C   UNL A   1      37.894  31.577  29.717  1.00  0.00     0.074 A 
ATOM     44  C   UNL A   1      36.909  30.605  29.285  1.00  0.00     0.031 C 
ATOM     45  C   UNL A   1      42.477  30.025  31.296  1.00  0.00     0.029 A 
ATOM     46  C   UNL A   1      43.198  29.292  30.271  1.00  0.00     0.049 A 
ATOM     47  H   UNL A   1      42.496  27.439  29.453  1.00  0.00     0.167 HD
ATOM     48  C   UNL A   1      37.819  32.783  30.347  1.00  0.00     0.034 A 
ATOM     49  C   UNL A   1      44.142  29.803  29.429  1.00  0.00     0.034 A 
ATOM     50  C   UNL A   1      39.119  33.287  30.778  1.00  0.00     0.049 A 
ATOM     51  C   UNL A   1      44.068  31.306  29.243  1.00  0.00     0.074 A 
ATOM     52  C   UNL A   1      39.771  33.350  31.999  1.00  0.00     0.029 A 
ATOM     53  N   UNL A   1      40.064  33.630  29.826  1.00  0.00    -0.354 N 
ATOM     54  N   UNL A   1      43.161  32.078  29.777  1.00  0.00    -0.248 NA
ATOM     55  C   UNL A   1      44.960  32.042  28.347  1.00  0.00     0.031 C 
ATOM     56  C   UNL A   1      41.115  33.756  31.769  1.00  0.00     0.029 A 
ATOM     57  C   UNL A   1      41.276  33.949  30.411  1.00  0.00     0.049 A 
ATOM     58  H   UNL A   1      39.894  33.647  28.857  1.00  0.00     0.167 HD
ATOM     59  C   UNL A   1      43.275  33.344  29.259  1.00  0.00     0.074 A 
ATOM     60  C   UNL A   1      44.420  33.271  28.370  1.00  0.00     0.031 C 
ATOM     61  C   UNL A   1      42.386  34.339  29.556  1.00  0.00     0.034 A 
BRANCH  48  62
ATOM     62  C   UNL A   1      36.510  33.381  30.796  1.00  0.00     0.023 A 
ATOM     63  C   UNL A   1      35.676  34.025  29.861  1.00  0.00     0.031 A 
ATOM     64  C   UNL A   1      36.045  33.356  32.124  1.00  0.00     0.131 A 
ATOM     65  C   UNL A   1      34.507  34.692  30.266  1.00  0.00     0.055 A 
ATOM     66  C   UNL A   1      34.911  34.067  32.538  1.00  0.00     0.041 A 
ATOM     67  F   UNL A   1      36.662  32.623  33.063  1.00  0.00    -0.206 F 
ATOM     68  C   UNL A   1      34.144  34.755  31.608  1.00  0.00     0.022 A 
BRANCH  65  69
ATOM     69  S   UNL A   1      33.468  35.482  29.006  1.00  0.00     0.124 S 
ATOM     70  O   UNL A   1      32.736  36.477  29.782  1.00  0.00    -0.237 OA
ATOM     71  O   UNL A   1      34.460  35.998  28.069  1.00  0.00    -0.237 OA
ATOM     72  O   UNL A   1      32.655  34.378  28.497  1.00  0.00    -0.744 OA
ENDBRANCH  65  69
ENDBRANCH  48  62
BRANCH  49  73
ATOM     73  C   UNL A   1      44.593  28.825  28.394  1.00  0.00     0.023 A 
ATOM     74  C   UNL A   1      45.439  27.775  28.810  1.00  0.00     0.031 A 
ATOM     75  C   UNL A   1      43.956  28.695  27.154  1.00  0.00     0.131 A 
ATOM     76  C   UNL A   1      45.503  26.582  28.077  1.00  0.00     0.055 A 
ATOM     77  C   UNL A   1      44.086  27.532  26.385  1.00  0.00     0.041 A 
ATOM     78  F   UNL A   1      43.102  29.634  26.718  1.00  0.00    -0.206 F 
ATOM     79  C   UNL A   1      44.828  26.452  26.865  1.00  0.00     0.022 A 
BRANCH  76  80
ATOM     80  S   UNL A   1      46.250  25.129  28.870  1.00  0.00     0.124 S 
ATOM     81  O   UNL A   1      47.187  24.665  27.856  1.00  0.00    -0.237 OA
ATOM     82  O   UNL A   1      46.843  25.698  30.080  1.00  0.00    -0.237 OA
ATOM     83  O   UNL A   1      45.117  24.241  29.128  1.00  0.00    -0.744 OA
ENDBRANCH  76  80
ENDBRANCH  49  73
BRANCH  61  84
ATOM     84  C   UNL A   1      42.466  35.754  29.025  1.00  0.00     0.023 A 
ATOM     85  C   UNL A   1      43.210  36.762  29.659  1.00  0.00     0.031 A 
ATOM     86  C   UNL A   1      41.734  36.159  27.882  1.00  0.00     0.131 A 
ATOM     87  C   UNL A   1      43.295  38.056  29.111  1.00  0.00     0.055 A 
ATOM     88  C   UNL A   1      41.759  37.465  27.383  1.00  0.00     0.041 A 
ATOM     89  F   UNL A   1      40.980  35.300  27.182  1.00  0.00    -0.206 F 
ATOM     90  C   UNL A   1      42.561  38.420  27.985  1.00  0.00     0.022 A 
BRANCH  87  91
ATOM     91  S   UNL A   1      44.441  39.241  29.864  1.00  0.00     0.124 S 
ATOM     92  O   UNL A   1      44.998  38.482  30.978  1.00  0.00    -0.237 OA
ATOM     93  O   UNL A   1      45.357  39.511  28.758  1.00  0.00    -0.237 OA
ATOM     94  O   UNL A   1      43.581  40.361  30.242  1.00  0.00    -0.744 OA
ENDBRANCH  87  91
ENDBRANCH  61  84
ENDBRANCH  35  36
ENDBRANCH  27  30
ENDBRANCH  25  26
ENDBRANCH  24  25
ENDBRANCH   1  24
TORSDOF 17
ENDMDL
MODEL 3
REMARK VINA RESULT:     -12.0      4.105     10.292
REMARK SMILES CCc1cccc(C)c1Nc1ccccc1CC(=O)NCCCNC(=O)c1ccc(-c2c3nc(c(-c4cc(S(=O)(=O)[O-])ccc4F)c4ccc([nH]4)c(-c4cc(S(=O)(=O)[O-])ccc4F)c4nc(c(-c5cc(S(=O)(=O)[O-])ccc5F)c5ccc2[nH]5)C=C4)C=C3)cc1
REMARK SMILES IDX 21 1 20 2 18 3 19 4 17 6 16 7 11 8 12 9 13 10 15 11 14 12
REMARK SMILES IDX 10 13 9 15 3 16 4 17 5 18 7 19 6 20 8 21 2 22 1 23 22 24
REMARK SMILES IDX 23 25 24 26 25 27 26 29 27 30 28 31 89 32 29 33 88 34 30 35
REMARK SMILES IDX 31 36 32 37 82 38 33 39 87 40 81 41 83 42 34 43 86 44 80 45
REMARK SMILES IDX 79 46 35 48 67 49 47 50 66 51 48 52 51 53 65 54 84 55 49 56
REMARK SMILES IDX 50 57 64 59 85 60 52 61 36 62 37 63 45 64 38 65 44 66 46 67
REMARK SMILES IDX 43 68 39 69 40 70 41 71 42 72 68 73 69 74 77 75 70 76 76 77
REMARK SMILES IDX 78 78 75 79 71 80 72 81 73 82 74 83 53 84 54 85 62 86 55 87
REMARK SMILES IDX 61 88 63 89 60 90 56 91 57 92 58 93 59 94
REMARK H PARENT 20 5 10 14 24 28 83 47 51 58
REMARK Flexibility Score: inf
ROOT
ATOM      1  C   UNL A   1      36.928  22.042  24.865  1.00  0.00     0.117 C 
ENDROOT
BRANCH   1   2
ATOM      2  N   UNL A   1      36.441  23.350  25.260  1.00  0.00    -0.356 N 
ATOM      3  C   UNL A   1      35.386  24.095  24.817  1.00  0.00     0.224 C 
ATOM      4  O   UNL A   1      34.981  25.022  25.526  1.00  0.00    -0.275 OA
ATOM      5  H   UNL A   1      36.965  23.778  25.976  1.00  0.00     0.163 HD
BRANCH   3   6
ATOM      6  C   UNL A   1      34.610  23.719  23.569  1.00  0.00     0.137 C 
BRANCH   6   7
ATOM      7  C   UNL A   1      33.431  24.572  23.140  1.00  0.00    -0.015 A 
ATOM      8  C   UNL A   1      32.080  24.234  23.370  1.00  0.00     0.042 A 
ATOM      9  C   UNL A   1      31.071  25.059  22.829  1.00  0.00     0.026 A 
ATOM     10  C   UNL A   1      31.372  26.195  22.080  1.00  0.00     0.002 A 
ATOM     11  C   UNL A   1      33.711  25.707  22.345  1.00  0.00     0.006 A 
ATOM     12  C   UNL A   1      32.697  26.517  21.836  1.00  0.00     0.000 A 
BRANCH   8  13
ATOM     13  N   UNL A   1      31.645  23.133  24.138  1.00  0.00    -0.355 N 
ATOM     14  H   UNL A   1      30.788  22.750  23.841  1.00  0.00     0.167 HD
BRANCH  13  15
ATOM     15  C   UNL A   1      32.213  22.476  25.256  1.00  0.00     0.045 A 
ATOM     16  C   UNL A   1      32.715  21.152  25.135  1.00  0.00    -0.024 A 
ATOM     17  C   UNL A   1      33.500  20.625  26.189  1.00  0.00     0.006 A 
ATOM     18  C   UNL A   1      33.744  21.338  27.353  1.00  0.00     0.001 A 
ATOM     19  C   UNL A   1      32.342  23.126  26.512  1.00  0.00    -0.027 A 
ATOM     20  C   UNL A   1      33.142  22.572  27.524  1.00  0.00     0.005 A 
ATOM     21  C   UNL A   1      31.605  24.388  26.854  1.00  0.00     0.046 C 
BRANCH  16  22
ATOM     22  C   UNL A   1      32.554  20.189  23.971  1.00  0.00     0.034 C 
ATOM     23  C   UNL A   1      33.152  18.792  24.008  1.00  0.00     0.009 C 
ENDBRANCH  16  22
ENDBRANCH  13  15
ENDBRANCH   8  13
ENDBRANCH   6   7
ENDBRANCH   3   6
ENDBRANCH   1   2
BRANCH   1  24
ATOM     24  C   UNL A   1      38.328  21.693  25.367  1.00  0.00     0.042 C 
BRANCH  24  25
ATOM     25  C   UNL A   1      38.905  22.654  26.411  1.00  0.00     0.118 C 
BRANCH  25  26
ATOM     26  N   UNL A   1      40.340  22.886  26.249  1.00  0.00    -0.352 N 
ATOM     27  C   UNL A   1      41.074  24.043  26.450  1.00  0.00     0.251 C 
ATOM     28  H   UNL A   1      40.859  22.104  25.953  1.00  0.00     0.163 HD
ATOM     29  O   UNL A   1      42.283  24.058  26.327  1.00  0.00    -0.269 OA
BRANCH  27  30
ATOM     30  C   UNL A   1      40.372  25.254  26.943  1.00  0.00     0.039 A 
ATOM     31  C   UNL A   1      40.709  26.475  26.351  1.00  0.00     0.014 A 
ATOM     32  C   UNL A   1      39.540  25.216  28.059  1.00  0.00     0.014 A 
ATOM     33  C   UNL A   1      40.408  27.664  27.014  1.00  0.00     0.010 A 
ATOM     34  C   UNL A   1      39.280  26.394  28.744  1.00  0.00     0.010 A 
ATOM     35  C   UNL A   1      39.784  27.607  28.264  1.00  0.00    -0.014 A 
BRANCH  35  36
ATOM     36  C   UNL A   1      39.828  28.732  29.196  1.00  0.00     0.031 A 
ATOM     37  C   UNL A   1      38.782  29.770  29.236  1.00  0.00     0.074 A 
ATOM     38  C   UNL A   1      40.896  28.879  30.011  1.00  0.00     0.049 A 
ATOM     39  N   UNL A   1      39.019  31.010  29.512  1.00  0.00    -0.248 NA
ATOM     40  C   UNL A   1      37.382  29.494  28.942  1.00  0.00     0.031 C 
ATOM     41  C   UNL A   1      41.061  29.843  31.095  1.00  0.00     0.029 A 
ATOM     42  N   UNL A   1      42.168  28.337  29.830  1.00  0.00    -0.354 N 
ATOM     43  C   UNL A   1      37.811  31.629  29.700  1.00  0.00     0.074 A 
ATOM     44  C   UNL A   1      36.821  30.667  29.262  1.00  0.00     0.031 C 
ATOM     45  C   UNL A   1      42.372  30.035  31.302  1.00  0.00     0.029 A 
ATOM     46  C   UNL A   1      43.092  29.297  30.280  1.00  0.00     0.049 A 
ATOM     47  H   UNL A   1      42.378  27.451  29.457  1.00  0.00     0.167 HD
ATOM     48  C   UNL A   1      37.743  32.836  30.332  1.00  0.00     0.034 A 
ATOM     49  C   UNL A   1      44.045  29.801  29.444  1.00  0.00     0.034 A 
ATOM     50  C   UNL A   1      39.046  33.327  30.770  1.00  0.00     0.049 A 
ATOM     51  C   UNL A   1      43.986  31.305  29.261  1.00  0.00     0.074 A 
ATOM     52  C   UNL A   1      39.691  33.383  31.995  1.00  0.00     0.029 A 
ATOM     53  N   UNL A   1      39.999  33.664  29.825  1.00  0.00    -0.354 N 
ATOM     54  N   UNL A   1      43.083  32.083  29.790  1.00  0.00    -0.248 NA
ATOM     55  C   UNL A   1      44.889  32.033  28.371  1.00  0.00     0.031 C 
ATOM     56  C   UNL A   1      41.041  33.777  31.774  1.00  0.00     0.029 A 
ATOM     57  C   UNL A   1      41.211  33.971  30.417  1.00  0.00     0.049 A 
ATOM     58  H   UNL A   1      39.834  33.683  28.854  1.00  0.00     0.167 HD
ATOM     59  C   UNL A   1      43.211  33.349  29.274  1.00  0.00     0.074 A 
ATOM     60  C   UNL A   1      44.360  33.267  28.392  1.00  0.00     0.031 C 
ATOM     61  C   UNL A   1      42.328  34.352  29.568  1.00  0.00     0.034 A 
BRANCH  48  62
ATOM     62  C   UNL A   1      36.438  33.444  30.774  1.00  0.00     0.023 A 
ATOM     63  C   UNL A   1      35.595  34.060  29.828  1.00  0.00     0.031 A 
ATOM     64  C   UNL A   1      35.984  33.457  32.106  1.00  0.00     0.131 A 
ATOM     65  C   UNL A   1      34.428  34.736  30.224  1.00  0.00     0.055 A 
ATOM     66  C   UNL A   1      34.853  34.179  32.509  1.00  0.00     0.041 A 
ATOM     67  F   UNL A   1      36.610  32.753  33.061  1.00  0.00    -0.206 F 
ATOM     68  C   UNL A   1      34.076  34.838  31.567  1.00  0.00     0.022 A 
BRANCH  65  69
ATOM     69  S   UNL A   1      33.377  35.488  28.950  1.00  0.00     0.124 S 
ATOM     70  O   UNL A   1      32.531  36.386  29.730  1.00  0.00    -0.237 OA
ATOM     71  O   UNL A   1      34.359  36.124  28.078  1.00  0.00    -0.237 OA
ATOM     72  O   UNL A   1      32.683  34.342  28.365  1.00  0.00    -0.744 OA
ENDBRANCH  65  69
ENDBRANCH  48  62
BRANCH  49  73
ATOM     73  C   UNL A   1      44.493  28.820  28.411  1.00  0.00     0.023 A 
ATOM     74  C   UNL A   1      45.285  27.733  28.839  1.00  0.00     0.031 A 
ATOM     75  C   UNL A   1      43.892  28.731  27.149  1.00  0.00     0.131 A 
ATOM     76  C   UNL A   1      45.329  26.548  28.091  1.00  0.00     0.055 A 
ATOM     77  C   UNL A   1      44.004  27.574  26.368  1.00  0.00     0.041 A 
ATOM     78  F   UNL A   1      43.089  29.707  26.699  1.00  0.00    -0.206 F 
ATOM     79  C   UNL A   1      44.690  26.460  26.856  1.00  0.00     0.022 A 
BRANCH  76  80
ATOM     80  S   UNL A   1      45.994  25.058  28.886  1.00  0.00     0.124 S 
ATOM     81  O   UNL A   1      47.242  25.540  29.462  1.00  0.00    -0.237 OA
ATOM     82  O   UNL A   1      44.940  24.711  29.840  1.00  0.00    -0.237 OA
ATOM     83  O   UNL A   1      46.138  24.101  27.790  1.00  0.00    -0.744 OA
ENDBRANCH  76  80
ENDBRANCH  49  73
BRANCH  61  84
ATOM     84  C   UNL A   1      42.424  35.767  29.040  1.00  0.00     0.023 A 
ATOM     85  C   UNL A   1      43.142  36.777  29.699  1.00  0.00     0.031 A 
ATOM     86  C   UNL A   1      41.733  36.169  27.870  1.00  0.00     0.131 A 
ATOM     87  C   UNL A   1      43.243  38.071  29.154  1.00  0.00     0.055 A 
ATOM     88  C   UNL A   1      41.773  37.475  27.372  1.00  0.00     0.041 A 
ATOM     89  F   UNL A   1      41.008  35.308  27.144  1.00  0.00    -0.206 F 
ATOM     90  C   UNL A   1      42.549  38.432  28.002  1.00  0.00     0.022 A 
BRANCH  87  91
ATOM     91  S   UNL A   1      44.358  39.259  29.947  1.00  0.00     0.124 S 
ATOM     92  O   UNL A   1      43.552  39.760  31.056  1.00  0.00    -0.237 OA
ATOM     93  O   UNL A   1      45.486  38.408  30.316  1.00  0.00    -0.237 OA
ATOM     94  O   UNL A   1      44.636  40.232  28.891  1.00  0.00    -0.744 OA
ENDBRANCH  87  91
ENDBRANCH  61  84
ENDBRANCH  35  36
ENDBRANCH  27  30
ENDBRANCH  25  26
ENDBRANCH  24  25
ENDBRANCH   1  24
TORSDOF 17
ENDMDL
