MODEL 1
REMARK VINA RESULT:     -13.2      0.000      0.000
REMARK SMILES C[C@@H]1CC(C)(C)C[C@@](CC(=O)Nc2cccc(C(F)(F)F)c2)(C(=O)NCCCNC(=O)c2ccc(-c3c4nc(c(-c5cc(S(=O)(=O)[O-])ccc5F)c5ccc([nH]5)c(-c5cc(S(=O)(=O)[O-])ccc5F)c5nc(c(-c6cc(S(=O)(=O)[O-])ccc6F)c6ccc3[nH]6)C=C5)C=C4)cc2)C1
REMARK SMILES IDX 26 1 25 2 23 3 24 4 8 6 1 7 2 8 3 9 95 10 4 11 5 12 6 13
REMARK SMILES IDX 7 14 9 15 10 16 11 17 12 18 13 20 14 21 22 22 15 23 17 24
REMARK SMILES IDX 16 25 18 26 19 27 20 28 21 29 27 30 28 31 29 32 30 33 31 35
REMARK SMILES IDX 32 36 33 37 94 38 34 39 93 40 35 41 36 42 37 43 87 44 38 45
REMARK SMILES IDX 92 46 86 47 88 48 39 49 91 50 85 51 84 52 40 54 72 55 52 56
REMARK SMILES IDX 71 57 53 58 56 59 70 60 89 61 54 62 55 63 69 65 90 66 57 67
REMARK SMILES IDX 41 68 42 69 50 70 43 71 49 72 51 73 48 74 44 75 45 76 46 77
REMARK SMILES IDX 47 78 73 79 74 80 82 81 75 82 81 83 83 84 80 85 76 86 77 87
REMARK SMILES IDX 78 88 79 89 58 90 59 91 67 92 60 93 66 94 68 95 65 96 61 97
REMARK SMILES IDX 62 98 63 99 64 100
REMARK H PARENT 25 5 12 19 29 34 88 53 56 64
REMARK Flexibility Score: inf
ROOT
ATOM      1  C   UNL A   1      34.812  20.231  25.104  1.00  0.00     0.117 C 
ENDROOT
BRANCH   1   2
ATOM      2  N   UNL A   1      34.462  20.805  26.407  1.00  0.00    -0.356 N 
ATOM      3  C   UNL A   1      33.781  21.938  26.779  1.00  0.00     0.226 C 
ATOM      4  O   UNL A   1      33.613  22.081  27.993  1.00  0.00    -0.274 OA
ATOM      5  H   UNL A   1      34.780  20.269  27.170  1.00  0.00     0.163 HD
BRANCH   3   6
ATOM      6  C   UNL A   1      33.243  23.005  25.744  1.00  0.00     0.059 C 
ATOM      7  C   UNL A   1      33.520  25.711  23.697  1.00  0.00     0.008 C 
ATOM      8  C   UNL A   1      34.192  24.345  23.650  1.00  0.00    -0.013 C 
ATOM      9  C   UNL A   1      33.513  23.391  22.687  1.00  0.00     0.009 C 
ATOM     10  C   UNL A   1      34.439  23.636  24.985  1.00  0.00     0.020 C 
ATOM     11  C   UNL A   1      32.277  22.651  23.237  1.00  0.00    -0.034 C 
ATOM     12  C   UNL A   1      31.003  23.504  23.133  1.00  0.00     0.011 C 
ATOM     13  C   UNL A   1      32.079  21.432  22.296  1.00  0.00     0.011 C 
ATOM     14  C   UNL A   1      32.442  22.145  24.703  1.00  0.00     0.024 C 
BRANCH   6  15
ATOM     15  C   UNL A   1      32.447  23.982  26.651  1.00  0.00     0.117 C 
BRANCH  15  16
ATOM     16  C   UNL A   1      30.957  24.137  26.795  1.00  0.00     0.225 C 
ATOM     17  O   UNL A   1      30.332  23.229  27.367  1.00  0.00    -0.275 OA
ATOM     18  N   UNL A   1      30.212  25.216  26.458  1.00  0.00    -0.326 N 
ATOM     19  H   UNL A   1      29.318  25.162  26.867  1.00  0.00     0.169 HD
BRANCH  18  20
ATOM     20  C   UNL A   1      30.341  26.390  25.696  1.00  0.00     0.041 A 
ATOM     21  C   UNL A   1      29.603  26.382  24.499  1.00  0.00     0.026 A 
ATOM     22  C   UNL A   1      31.203  27.457  25.931  1.00  0.00     0.039 A 
ATOM     23  C   UNL A   1      29.821  27.330  23.501  1.00  0.00     0.003 A 
ATOM     24  C   UNL A   1      31.509  28.365  24.890  1.00  0.00     0.058 A 
ATOM     25  C   UNL A   1      30.798  28.297  23.682  1.00  0.00     0.013 A 
BRANCH  24  26
ATOM     26  C   UNL A   1      32.642  29.362  25.019  1.00  0.00     0.416 C 
ATOM     27  F   UNL A   1      32.218  30.571  25.497  1.00  0.00    -0.166 F 
ATOM     28  F   UNL A   1      33.617  28.948  25.871  1.00  0.00    -0.166 F 
ATOM     29  F   UNL A   1      33.246  29.642  23.837  1.00  0.00    -0.166 F 
ENDBRANCH  24  26
ENDBRANCH  18  20
ENDBRANCH  15  16
ENDBRANCH   6  15
ENDBRANCH   3   6
ENDBRANCH   1   2
BRANCH   1  30
ATOM     30  C   UNL A   1      36.165  20.691  24.557  1.00  0.00     0.042 C 
BRANCH  30  31
ATOM     31  C   UNL A   1      37.182  21.124  25.619  1.00  0.00     0.118 C 
BRANCH  31  32
ATOM     32  N   UNL A   1      38.324  20.226  25.747  1.00  0.00    -0.352 N 
ATOM     33  C   UNL A   1      39.627  20.452  26.146  1.00  0.00     0.251 C 
ATOM     34  H   UNL A   1      38.131  19.291  25.509  1.00  0.00     0.163 HD
ATOM     35  O   UNL A   1      40.429  19.529  26.075  1.00  0.00    -0.269 OA
BRANCH  33  36
ATOM     36  C   UNL A   1      40.081  21.787  26.615  1.00  0.00     0.039 A 
ATOM     37  C   UNL A   1      41.023  21.851  27.650  1.00  0.00     0.014 A 
ATOM     38  C   UNL A   1      39.574  22.972  26.082  1.00  0.00     0.014 A 
ATOM     39  C   UNL A   1      41.526  23.088  28.071  1.00  0.00     0.010 A 
ATOM     40  C   UNL A   1      40.132  24.199  26.446  1.00  0.00     0.010 A 
ATOM     41  C   UNL A   1      41.126  24.274  27.434  1.00  0.00    -0.014 A 
BRANCH  41  42
ATOM     42  C   UNL A   1      41.743  25.590  27.765  1.00  0.00     0.031 A 
ATOM     43  C   UNL A   1      40.960  26.633  28.518  1.00  0.00     0.074 A 
ATOM     44  C   UNL A   1      42.976  25.887  27.305  1.00  0.00     0.049 A 
ATOM     45  N   UNL A   1      41.270  27.879  28.779  1.00  0.00    -0.248 NA
ATOM     46  C   UNL A   1      39.637  26.228  29.010  1.00  0.00     0.031 C 
ATOM     47  C   UNL A   1      43.831  24.985  26.532  1.00  0.00     0.029 A 
ATOM     48  N   UNL A   1      43.721  27.038  27.407  1.00  0.00    -0.354 N 
ATOM     49  C   UNL A   1      40.169  28.416  29.440  1.00  0.00     0.074 A 
ATOM     50  C   UNL A   1      39.166  27.370  29.487  1.00  0.00     0.031 C 
ATOM     51  C   UNL A   1      44.988  25.605  26.250  1.00  0.00     0.029 A 
ATOM     52  C   UNL A   1      44.941  26.966  26.775  1.00  0.00     0.049 A 
ATOM     53  H   UNL A   1      43.410  27.840  27.886  1.00  0.00     0.167 HD
ATOM     54  C   UNL A   1      40.014  29.655  29.973  1.00  0.00     0.034 A 
ATOM     55  C   UNL A   1      45.908  27.892  26.617  1.00  0.00     0.034 A 
ATOM     56  C   UNL A   1      41.031  30.679  29.939  1.00  0.00     0.049 A 
ATOM     57  C   UNL A   1      45.710  29.268  27.200  1.00  0.00     0.074 A 
ATOM     58  C   UNL A   1      41.004  31.942  30.508  1.00  0.00     0.029 A 
ATOM     59  N   UNL A   1      42.256  30.567  29.292  1.00  0.00    -0.354 N 
ATOM     60  N   UNL A   1      44.679  29.746  27.858  1.00  0.00    -0.248 NA
ATOM     61  C   UNL A   1      46.809  30.225  27.023  1.00  0.00     0.031 C 
ATOM     62  C   UNL A   1      42.180  32.613  30.151  1.00  0.00     0.029 A 
ATOM     63  C   UNL A   1      42.977  31.745  29.423  1.00  0.00     0.049 A 
ATOM     64  H   UNL A   1      42.568  29.766  28.812  1.00  0.00     0.167 HD
ATOM     65  C   UNL A   1      45.023  31.051  28.202  1.00  0.00     0.074 A 
ATOM     66  C   UNL A   1      46.357  31.280  27.685  1.00  0.00     0.031 C 
ATOM     67  C   UNL A   1      44.302  31.972  28.892  1.00  0.00     0.034 A 
BRANCH  54  68
ATOM     68  C   UNL A   1      38.679  29.973  30.609  1.00  0.00     0.023 A 
ATOM     69  C   UNL A   1      37.663  30.644  29.905  1.00  0.00     0.031 A 
ATOM     70  C   UNL A   1      38.433  29.644  31.954  1.00  0.00     0.131 A 
ATOM     71  C   UNL A   1      36.498  31.053  30.570  1.00  0.00     0.055 A 
ATOM     72  C   UNL A   1      37.230  29.971  32.586  1.00  0.00     0.041 A 
ATOM     73  F   UNL A   1      39.367  29.015  32.686  1.00  0.00    -0.206 F 
ATOM     74  C   UNL A   1      36.263  30.698  31.900  1.00  0.00     0.022 A 
BRANCH  71  75
ATOM     75  S   UNL A   1      35.381  32.205  29.725  1.00  0.00     0.124 S 
ATOM     76  O   UNL A   1      36.293  33.284  29.358  1.00  0.00    -0.237 OA
ATOM     77  O   UNL A   1      34.870  31.396  28.624  1.00  0.00    -0.237 OA
ATOM     78  O   UNL A   1      34.402  32.550  30.754  1.00  0.00    -0.744 OA
ENDBRANCH  71  75
ENDBRANCH  54  68
BRANCH  55  79
ATOM     79  C   UNL A   1      47.155  27.557  25.872  1.00  0.00     0.023 A 
ATOM     80  C   UNL A   1      47.257  27.806  24.494  1.00  0.00     0.031 A 
ATOM     81  C   UNL A   1      48.251  26.961  26.519  1.00  0.00     0.131 A 
ATOM     82  C   UNL A   1      48.415  27.426  23.798  1.00  0.00     0.055 A 
ATOM     83  C   UNL A   1      49.419  26.628  25.831  1.00  0.00     0.041 A 
ATOM     84  F   UNL A   1      48.207  26.709  27.837  1.00  0.00    -0.206 F 
ATOM     85  C   UNL A   1      49.502  26.851  24.460  1.00  0.00     0.022 A 
BRANCH  82  86
ATOM     86  S   UNL A   1      48.456  27.642  21.998  1.00  0.00     0.124 S 
ATOM     87  O   UNL A   1      47.144  28.221  21.738  1.00  0.00    -0.237 OA
ATOM     88  O   UNL A   1      49.598  28.535  21.826  1.00  0.00    -0.237 OA
ATOM     89  O   UNL A   1      48.651  26.283  21.497  1.00  0.00    -0.744 OA
ENDBRANCH  82  86
ENDBRANCH  55  79
BRANCH  67  90
ATOM     90  C   UNL A   1      44.968  33.298  29.169  1.00  0.00     0.023 A 
ATOM     91  C   UNL A   1      44.892  34.371  28.264  1.00  0.00     0.031 A 
ATOM     92  C   UNL A   1      45.702  33.483  30.354  1.00  0.00     0.131 A 
ATOM     93  C   UNL A   1      45.581  35.563  28.535  1.00  0.00     0.055 A 
ATOM     94  C   UNL A   1      46.338  34.690  30.644  1.00  0.00     0.041 A 
ATOM     95  F   UNL A   1      45.812  32.491  31.251  1.00  0.00    -0.206 F 
ATOM     96  C   UNL A   1      46.289  35.735  29.727  1.00  0.00     0.022 A 
BRANCH  93  97
ATOM     97  S   UNL A   1      45.611  36.863  27.268  1.00  0.00     0.124 S 
ATOM     98  O   UNL A   1      46.494  37.855  27.873  1.00  0.00    -0.237 OA
ATOM     99  O   UNL A   1      46.145  36.157  26.108  1.00  0.00    -0.237 OA
ATOM    100  O   UNL A   1      44.210  37.266  27.157  1.00  0.00    -0.744 OA
ENDBRANCH  93  97
ENDBRANCH  67  90
ENDBRANCH  41  42
ENDBRANCH  33  36
ENDBRANCH  31  32
ENDBRANCH  30  31
ENDBRANCH   1  30
TORSDOF 17
ENDMDL
MODEL 2
REMARK VINA RESULT:     -13.1      1.176      7.379
REMARK SMILES C[C@@H]1CC(C)(C)C[C@@](CC(=O)Nc2cccc(C(F)(F)F)c2)(C(=O)NCCCNC(=O)c2ccc(-c3c4nc(c(-c5cc(S(=O)(=O)[O-])ccc5F)c5ccc([nH]5)c(-c5cc(S(=O)(=O)[O-])ccc5F)c5nc(c(-c6cc(S(=O)(=O)[O-])ccc6F)c6ccc3[nH]6)C=C5)C=C4)cc2)C1
REMARK SMILES IDX 26 1 25 2 23 3 24 4 8 6 1 7 2 8 3 9 95 10 4 11 5 12 6 13
REMARK SMILES IDX 7 14 9 15 10 16 11 17 12 18 13 20 14 21 22 22 15 23 17 24
REMARK SMILES IDX 16 25 18 26 19 27 20 28 21 29 27 30 28 31 29 32 30 33 31 35
REMARK SMILES IDX 32 36 33 37 94 38 34 39 93 40 35 41 36 42 37 43 87 44 38 45
REMARK SMILES IDX 92 46 86 47 88 48 39 49 91 50 85 51 84 52 40 54 72 55 52 56
REMARK SMILES IDX 71 57 53 58 56 59 70 60 89 61 54 62 55 63 69 65 90 66 57 67
REMARK SMILES IDX 41 68 42 69 50 70 43 71 49 72 51 73 48 74 44 75 45 76 46 77
REMARK SMILES IDX 47 78 73 79 74 80 82 81 75 82 81 83 83 84 80 85 76 86 77 87
REMARK SMILES IDX 78 88 79 89 58 90 59 91 67 92 60 93 66 94 68 95 65 96 61 97
REMARK SMILES IDX 62 98 63 99 64 100
REMARK H PARENT 25 5 12 19 29 34 88 53 56 64
REMARK Flexibility Score: inf
ROOT
ATOM      1  C   UNL A   1      35.334  20.486  25.015  1.00  0.00     0.117 C 
ENDROOT
BRANCH   1   2
ATOM      2  N   UNL A   1      34.952  21.013  26.329  1.00  0.00    -0.356 N 
ATOM      3  C   UNL A   1      34.202  22.094  26.724  1.00  0.00     0.226 C 
ATOM      4  O   UNL A   1      34.030  22.203  27.941  1.00  0.00    -0.274 OA
ATOM      5  H   UNL A   1      35.306  20.484  27.081  1.00  0.00     0.163 HD
BRANCH   3   6
ATOM      6  C   UNL A   1      33.596  23.144  25.710  1.00  0.00     0.059 C 
ATOM      7  C   UNL A   1      33.738  25.803  23.588  1.00  0.00     0.008 C 
ATOM      8  C   UNL A   1      34.391  24.429  23.520  1.00  0.00    -0.013 C 
ATOM      9  C   UNL A   1      33.631  23.462  22.633  1.00  0.00     0.009 C 
ATOM     10  C   UNL A   1      34.735  23.746  24.847  1.00  0.00     0.020 C 
ATOM     11  C   UNL A   1      32.435  22.748  23.294  1.00  0.00    -0.034 C 
ATOM     12  C   UNL A   1      31.164  23.612  23.270  1.00  0.00     0.011 C 
ATOM     13  C   UNL A   1      32.154  21.510  22.399  1.00  0.00     0.011 C 
ATOM     14  C   UNL A   1      32.708  22.270  24.753  1.00  0.00     0.024 C 
BRANCH   6  15
ATOM     15  C   UNL A   1      32.882  24.149  26.654  1.00  0.00     0.117 C 
BRANCH  15  16
ATOM     16  C   UNL A   1      31.415  24.467  26.761  1.00  0.00     0.225 C 
ATOM     17  O   UNL A   1      30.667  23.604  27.248  1.00  0.00    -0.275 OA
ATOM     18  N   UNL A   1      30.812  25.645  26.475  1.00  0.00    -0.326 N 
ATOM     19  H   UNL A   1      29.902  25.671  26.850  1.00  0.00     0.169 HD
BRANCH  18  20
ATOM     20  C   UNL A   1      31.104  26.843  25.801  1.00  0.00     0.041 A 
ATOM     21  C   UNL A   1      31.896  27.741  26.539  1.00  0.00     0.026 A 
ATOM     22  C   UNL A   1      30.590  27.271  24.580  1.00  0.00     0.039 A 
ATOM     23  C   UNL A   1      32.053  29.069  26.147  1.00  0.00     0.003 A 
ATOM     24  C   UNL A   1      30.655  28.638  24.221  1.00  0.00     0.058 A 
ATOM     25  C   UNL A   1      31.403  29.525  25.010  1.00  0.00     0.013 A 
BRANCH  24  26
ATOM     26  C   UNL A   1      29.870  29.185  23.047  1.00  0.00     0.416 C 
ATOM     27  F   UNL A   1      30.679  29.739  22.094  1.00  0.00    -0.166 F 
ATOM     28  F   UNL A   1      29.144  28.231  22.406  1.00  0.00    -0.166 F 
ATOM     29  F   UNL A   1      29.006  30.171  23.393  1.00  0.00    -0.166 F 
ENDBRANCH  24  26
ENDBRANCH  18  20
ENDBRANCH  15  16
ENDBRANCH   6  15
ENDBRANCH   3   6
ENDBRANCH   1   2
BRANCH   1  30
ATOM     30  C   UNL A   1      36.779  20.785  24.614  1.00  0.00     0.042 C 
BRANCH  30  31
ATOM     31  C   UNL A   1      37.630  21.454  25.699  1.00  0.00     0.118 C 
BRANCH  31  32
ATOM     32  N   UNL A   1      38.809  20.687  26.085  1.00  0.00    -0.352 N 
ATOM     33  C   UNL A   1      40.020  21.075  26.624  1.00  0.00     0.251 C 
ATOM     34  H   UNL A   1      38.725  19.717  25.937  1.00  0.00     0.163 HD
ATOM     35  O   UNL A   1      40.893  20.230  26.772  1.00  0.00    -0.269 OA
BRANCH  33  36
ATOM     36  C   UNL A   1      40.296  22.490  26.986  1.00  0.00     0.039 A 
ATOM     37  C   UNL A   1      41.190  22.754  28.032  1.00  0.00     0.014 A 
ATOM     38  C   UNL A   1      39.670  23.556  26.340  1.00  0.00     0.014 A 
ATOM     39  C   UNL A   1      41.528  24.074  28.355  1.00  0.00     0.010 A 
ATOM     40  C   UNL A   1      40.066  24.868  26.610  1.00  0.00     0.010 A 
ATOM     41  C   UNL A   1      41.011  25.145  27.609  1.00  0.00    -0.014 A 
BRANCH  41  42
ATOM     42  C   UNL A   1      41.456  26.550  27.839  1.00  0.00     0.031 A 
ATOM     43  C   UNL A   1      42.839  26.989  27.435  1.00  0.00     0.074 A 
ATOM     44  C   UNL A   1      40.652  27.408  28.498  1.00  0.00     0.049 A 
ATOM     45  N   UNL A   1      43.456  28.119  27.672  1.00  0.00    -0.248 NA
ATOM     46  C   UNL A   1      43.647  26.008  26.698  1.00  0.00     0.031 C 
ATOM     47  C   UNL A   1      39.302  27.105  28.978  1.00  0.00     0.029 A 
ATOM     48  N   UNL A   1      40.856  28.709  28.893  1.00  0.00    -0.354 N 
ATOM     49  C   UNL A   1      44.734  27.976  27.140  1.00  0.00     0.074 A 
ATOM     50  C   UNL A   1      44.815  26.627  26.618  1.00  0.00     0.031 C 
ATOM     51  C   UNL A   1      38.793  28.191  29.581  1.00  0.00     0.029 A 
ATOM     52  C   UNL A   1      39.794  29.253  29.578  1.00  0.00     0.049 A 
ATOM     53  H   UNL A   1      41.685  29.205  28.705  1.00  0.00     0.167 HD
ATOM     54  C   UNL A   1      45.739  28.888  27.075  1.00  0.00     0.034 A 
ATOM     55  C   UNL A   1      39.644  30.463  30.156  1.00  0.00     0.034 A 
ATOM     56  C   UNL A   1      45.635  30.237  27.579  1.00  0.00     0.049 A 
ATOM     57  C   UNL A   1      40.777  31.454  30.089  1.00  0.00     0.074 A 
ATOM     58  C   UNL A   1      46.565  31.261  27.502  1.00  0.00     0.029 A 
ATOM     59  N   UNL A   1      44.541  30.753  28.263  1.00  0.00    -0.354 N 
ATOM     60  N   UNL A   1      41.964  31.317  29.545  1.00  0.00    -0.248 NA
ATOM     61  C   UNL A   1      40.545  32.764  30.710  1.00  0.00     0.031 C 
ATOM     62  C   UNL A   1      46.062  32.369  28.193  1.00  0.00     0.029 A 
ATOM     63  C   UNL A   1      44.785  32.065  28.638  1.00  0.00     0.049 A 
ATOM     64  H   UNL A   1      43.711  30.258  28.452  1.00  0.00     0.167 HD
ATOM     65  C   UNL A   1      42.607  32.538  29.731  1.00  0.00     0.074 A 
ATOM     66  C   UNL A   1      41.674  33.398  30.428  1.00  0.00     0.031 C 
ATOM     67  C   UNL A   1      43.855  32.914  29.348  1.00  0.00     0.034 A 
BRANCH  54  68
ATOM     68  C   UNL A   1      47.046  28.435  26.463  1.00  0.00     0.023 A 
ATOM     69  C   UNL A   1      47.231  28.381  25.070  1.00  0.00     0.031 A 
ATOM     70  C   UNL A   1      48.106  28.005  27.281  1.00  0.00     0.131 A 
ATOM     71  C   UNL A   1      48.400  27.817  24.538  1.00  0.00     0.055 A 
ATOM     72  C   UNL A   1      49.306  27.532  26.744  1.00  0.00     0.041 A 
ATOM     73  F   UNL A   1      47.987  28.018  28.618  1.00  0.00    -0.206 F 
ATOM     74  C   UNL A   1      49.450  27.415  25.365  1.00  0.00     0.022 A 
BRANCH  71  75
ATOM     75  S   UNL A   1      48.451  27.453  22.762  1.00  0.00     0.124 S 
ATOM     76  O   UNL A   1      49.762  27.979  22.391  1.00  0.00    -0.237 OA
ATOM     77  O   UNL A   1      48.312  26.002  22.735  1.00  0.00    -0.237 OA
ATOM     78  O   UNL A   1      47.315  28.200  22.226  1.00  0.00    -0.744 OA
ENDBRANCH  71  75
ENDBRANCH  54  68
BRANCH  55  79
ATOM     79  C   UNL A   1      38.373  30.810  30.854  1.00  0.00     0.023 A 
ATOM     80  C   UNL A   1      37.357  31.513  30.188  1.00  0.00     0.031 A 
ATOM     81  C   UNL A   1      38.167  30.468  32.202  1.00  0.00     0.131 A 
ATOM     82  C   UNL A   1      36.194  31.885  30.880  1.00  0.00     0.055 A 
ATOM     83  C   UNL A   1      36.988  30.800  32.873  1.00  0.00     0.041 A 
ATOM     84  F   UNL A   1      39.105  29.790  32.882  1.00  0.00    -0.206 F 
ATOM     85  C   UNL A   1      35.998  31.522  32.214  1.00  0.00     0.022 A 
BRANCH  82  86
ATOM     86  S   UNL A   1      34.964  32.906  30.024  1.00  0.00     0.124 S 
ATOM     87  O   UNL A   1      35.795  33.962  29.459  1.00  0.00    -0.237 OA
ATOM     88  O   UNL A   1      34.392  31.959  29.073  1.00  0.00    -0.237 OA
ATOM     89  O   UNL A   1      34.065  33.325  31.098  1.00  0.00    -0.744 OA
ENDBRANCH  82  86
ENDBRANCH  55  79
BRANCH  67  90
ATOM     90  C   UNL A   1      44.260  34.340  29.636  1.00  0.00     0.023 A 
ATOM     91  C   UNL A   1      44.024  35.379  28.719  1.00  0.00     0.031 A 
ATOM     92  C   UNL A   1      44.905  34.657  30.844  1.00  0.00     0.131 A 
ATOM     93  C   UNL A   1      44.476  36.677  29.004  1.00  0.00     0.055 A 
ATOM     94  C   UNL A   1      45.301  35.960  31.146  1.00  0.00     0.041 A 
ATOM     95  F   UNL A   1      45.159  33.703  31.754  1.00  0.00    -0.206 F 
ATOM     96  C   UNL A   1      45.097  36.977  30.218  1.00  0.00     0.022 A 
BRANCH  93  97
ATOM     97  S   UNL A   1      44.316  37.957  27.727  1.00  0.00     0.124 S 
ATOM     98  O   UNL A   1      43.151  37.496  26.980  1.00  0.00    -0.237 OA
ATOM     99  O   UNL A   1      44.126  39.167  28.520  1.00  0.00    -0.237 OA
ATOM    100  O   UNL A   1      45.585  37.883  27.005  1.00  0.00    -0.744 OA
ENDBRANCH  93  97
ENDBRANCH  67  90
ENDBRANCH  41  42
ENDBRANCH  33  36
ENDBRANCH  31  32
ENDBRANCH  30  31
ENDBRANCH   1  30
TORSDOF 17
ENDMDL
MODEL 3
REMARK VINA RESULT:     -13.0      1.586      7.447
REMARK SMILES C[C@@H]1CC(C)(C)C[C@@](CC(=O)Nc2cccc(C(F)(F)F)c2)(C(=O)NCCCNC(=O)c2ccc(-c3c4nc(c(-c5cc(S(=O)(=O)[O-])ccc5F)c5ccc([nH]5)c(-c5cc(S(=O)(=O)[O-])ccc5F)c5nc(c(-c6cc(S(=O)(=O)[O-])ccc6F)c6ccc3[nH]6)C=C5)C=C4)cc2)C1
REMARK SMILES IDX 26 1 25 2 23 3 24 4 8 6 1 7 2 8 3 9 95 10 4 11 5 12 6 13
REMARK SMILES IDX 7 14 9 15 10 16 11 17 12 18 13 20 14 21 22 22 15 23 17 24
REMARK SMILES IDX 16 25 18 26 19 27 20 28 21 29 27 30 28 31 29 32 30 33 31 35
REMARK SMILES IDX 32 36 33 37 94 38 34 39 93 40 35 41 36 42 37 43 87 44 38 45
REMARK SMILES IDX 92 46 86 47 88 48 39 49 91 50 85 51 84 52 40 54 72 55 52 56
REMARK SMILES IDX 71 57 53 58 56 59 70 60 89 61 54 62 55 63 69 65 90 66 57 67
REMARK SMILES IDX 41 68 42 69 50 70 43 71 49 72 51 73 48 74 44 75 45 76 46 77
REMARK SMILES IDX 47 78 73 79 74 80 82 81 75 82 81 83 83 84 80 85 76 86 77 87
REMARK SMILES IDX 78 88 79 89 58 90 59 91 67 92 60 93 66 94 68 95 65 96 61 97
REMARK SMILES IDX 62 98 63 99 64 100
REMARK H PARENT 25 5 12 19 29 34 88 53 56 64
REMARK Flexibility Score: inf
ROOT
ATOM      1  C   UNL A   1      35.468  20.487  24.868  1.00  0.00     0.117 C 
ENDROOT
BRANCH   1   2
ATOM      2  N   UNL A   1      35.061  20.965  26.193  1.00  0.00    -0.356 N 
ATOM      3  C   UNL A   1      34.238  21.982  26.611  1.00  0.00     0.226 C 
ATOM      4  O   UNL A   1      34.069  22.061  27.830  1.00  0.00    -0.274 OA
ATOM      5  H   UNL A   1      35.460  20.452  26.934  1.00  0.00     0.163 HD
BRANCH   3   6
ATOM      6  C   UNL A   1      33.546  22.999  25.618  1.00  0.00     0.059 C 
ATOM      7  C   UNL A   1      33.482  25.668  23.505  1.00  0.00     0.008 C 
ATOM      8  C   UNL A   1      34.210  24.334  23.414  1.00  0.00    -0.013 C 
ATOM      9  C   UNL A   1      33.482  23.328  22.543  1.00  0.00     0.009 C 
ATOM     10  C   UNL A   1      34.626  23.667  24.728  1.00  0.00     0.020 C 
ATOM     11  C   UNL A   1      32.346  22.546  23.232  1.00  0.00    -0.034 C 
ATOM     12  C   UNL A   1      31.028  23.337  23.245  1.00  0.00     0.011 C 
ATOM     13  C   UNL A   1      32.110  21.297  22.338  1.00  0.00     0.011 C 
ATOM     14  C   UNL A   1      32.684  22.080  24.681  1.00  0.00     0.024 C 
BRANCH   6  15
ATOM     15  C   UNL A   1      32.803  23.960  26.585  1.00  0.00     0.117 C 
BRANCH  15  16
ATOM     16  C   UNL A   1      31.329  24.056  26.874  1.00  0.00     0.225 C 
ATOM     17  O   UNL A   1      30.798  23.125  27.500  1.00  0.00    -0.275 OA
ATOM     18  N   UNL A   1      30.513  25.105  26.614  1.00  0.00    -0.326 N 
ATOM     19  H   UNL A   1      29.665  25.017  27.107  1.00  0.00     0.169 HD
BRANCH  18  20
ATOM     20  C   UNL A   1      30.521  26.283  25.847  1.00  0.00     0.041 A 
ATOM     21  C   UNL A   1      29.670  26.247  24.729  1.00  0.00     0.026 A 
ATOM     22  C   UNL A   1      31.362  27.382  26.000  1.00  0.00     0.039 A 
ATOM     23  C   UNL A   1      29.753  27.202  23.718  1.00  0.00     0.003 A 
ATOM     24  C   UNL A   1      31.529  28.301  24.937  1.00  0.00     0.058 A 
ATOM     25  C   UNL A   1      30.706  28.206  23.805  1.00  0.00     0.013 A 
BRANCH  24  26
ATOM     26  C   UNL A   1      32.631  29.340  24.957  1.00  0.00     0.416 C 
ATOM     27  F   UNL A   1      33.696  28.953  25.721  1.00  0.00    -0.166 F 
ATOM     28  F   UNL A   1      33.135  29.601  23.722  1.00  0.00    -0.166 F 
ATOM     29  F   UNL A   1      32.235  30.529  25.479  1.00  0.00    -0.166 F 
ENDBRANCH  24  26
ENDBRANCH  18  20
ENDBRANCH  15  16
ENDBRANCH   6  15
ENDBRANCH   3   6
ENDBRANCH   1   2
BRANCH   1  30
ATOM     30  C   UNL A   1      36.868  20.931  24.442  1.00  0.00     0.042 C 
BRANCH  30  31
ATOM     31  C   UNL A   1      37.695  21.615  25.537  1.00  0.00     0.118 C 
BRANCH  31  32
ATOM     32  N   UNL A   1      38.813  20.814  26.023  1.00  0.00    -0.352 N 
ATOM     33  C   UNL A   1      39.983  21.168  26.665  1.00  0.00     0.251 C 
ATOM     34  H   UNL A   1      38.715  19.847  25.867  1.00  0.00     0.163 HD
ATOM     35  O   UNL A   1      40.816  20.299  26.887  1.00  0.00    -0.269 OA
BRANCH  33  36
ATOM     36  C   UNL A   1      40.268  22.575  27.051  1.00  0.00     0.039 A 
ATOM     37  C   UNL A   1      41.187  22.817  28.080  1.00  0.00     0.014 A 
ATOM     38  C   UNL A   1      39.625  23.655  26.445  1.00  0.00     0.014 A 
ATOM     39  C   UNL A   1      41.533  24.130  28.424  1.00  0.00     0.010 A 
ATOM     40  C   UNL A   1      40.027  24.960  26.733  1.00  0.00     0.010 A 
ATOM     41  C   UNL A   1      40.997  25.216  27.715  1.00  0.00    -0.014 A 
BRANCH  41  42
ATOM     42  C   UNL A   1      41.447  26.616  27.964  1.00  0.00     0.031 A 
ATOM     43  C   UNL A   1      42.845  27.045  27.603  1.00  0.00     0.074 A 
ATOM     44  C   UNL A   1      40.631  27.478  28.605  1.00  0.00     0.049 A 
ATOM     45  N   UNL A   1      43.463  28.170  27.863  1.00  0.00    -0.248 NA
ATOM     46  C   UNL A   1      43.665  26.062  26.884  1.00  0.00     0.031 C 
ATOM     47  C   UNL A   1      39.266  27.184  29.044  1.00  0.00     0.029 A 
ATOM     48  N   UNL A   1      40.834  28.775  29.012  1.00  0.00    -0.354 N 
ATOM     49  C   UNL A   1      44.755  28.018  27.368  1.00  0.00     0.074 A 
ATOM     50  C   UNL A   1      44.840  26.671  26.841  1.00  0.00     0.031 C 
ATOM     51  C   UNL A   1      38.748  28.272  29.637  1.00  0.00     0.029 A 
ATOM     52  C   UNL A   1      39.758  29.325  29.669  1.00  0.00     0.049 A 
ATOM     53  H   UNL A   1      41.673  29.265  28.850  1.00  0.00     0.167 HD
ATOM     54  C   UNL A   1      45.769  28.922  27.337  1.00  0.00     0.034 A 
ATOM     55  C   UNL A   1      39.601  30.533  30.248  1.00  0.00     0.034 A 
ATOM     56  C   UNL A   1      45.662  30.270  27.843  1.00  0.00     0.049 A 
ATOM     57  C   UNL A   1      40.744  31.515  30.219  1.00  0.00     0.074 A 
ATOM     58  C   UNL A   1      46.603  31.286  27.799  1.00  0.00     0.029 A 
ATOM     59  N   UNL A   1      44.553  30.791  28.498  1.00  0.00    -0.354 N 
ATOM     60  N   UNL A   1      41.945  31.371  29.709  1.00  0.00    -0.248 NA
ATOM     61  C   UNL A   1      40.505  32.824  30.839  1.00  0.00     0.031 C 
ATOM     62  C   UNL A   1      46.089  32.395  28.481  1.00  0.00     0.029 A 
ATOM     63  C   UNL A   1      44.797  32.100  28.888  1.00  0.00     0.049 A 
ATOM     64  H   UNL A   1      43.714  30.302  28.661  1.00  0.00     0.167 HD
ATOM     65  C   UNL A   1      42.593  32.585  29.919  1.00  0.00     0.074 A 
ATOM     66  C   UNL A   1      41.647  33.450  30.594  1.00  0.00     0.031 C 
ATOM     67  C   UNL A   1      43.854  32.953  29.574  1.00  0.00     0.034 A 
BRANCH  54  68
ATOM     68  C   UNL A   1      47.089  28.461  26.760  1.00  0.00     0.023 A 
ATOM     69  C   UNL A   1      47.306  28.387  25.372  1.00  0.00     0.031 A 
ATOM     70  C   UNL A   1      48.132  28.044  27.607  1.00  0.00     0.131 A 
ATOM     71  C   UNL A   1      48.486  27.816  24.875  1.00  0.00     0.055 A 
ATOM     72  C   UNL A   1      49.343  27.563  27.104  1.00  0.00     0.041 A 
ATOM     73  F   UNL A   1      47.983  28.076  28.941  1.00  0.00    -0.206 F 
ATOM     74  C   UNL A   1      49.518  27.426  25.730  1.00  0.00     0.022 A 
BRANCH  71  75
ATOM     75  S   UNL A   1      48.576  27.425  23.105  1.00  0.00     0.124 S 
ATOM     76  O   UNL A   1      47.411  28.137  22.587  1.00  0.00    -0.237 OA
ATOM     77  O   UNL A   1      49.877  27.967  22.730  1.00  0.00    -0.237 OA
ATOM     78  O   UNL A   1      48.472  25.968  23.070  1.00  0.00    -0.744 OA
ENDBRANCH  71  75
ENDBRANCH  54  68
BRANCH  55  79
ATOM     79  C   UNL A   1      38.314  30.887  30.911  1.00  0.00     0.023 A 
ATOM     80  C   UNL A   1      37.317  31.589  30.215  1.00  0.00     0.031 A 
ATOM     81  C   UNL A   1      38.072  30.555  32.255  1.00  0.00     0.131 A 
ATOM     82  C   UNL A   1      36.138  31.968  30.874  1.00  0.00     0.055 A 
ATOM     83  C   UNL A   1      36.877  30.893  32.893  1.00  0.00     0.041 A 
ATOM     84  F   UNL A   1      38.990  29.878  32.963  1.00  0.00    -0.206 F 
ATOM     85  C   UNL A   1      35.906  31.614  32.205  1.00  0.00     0.022 A 
BRANCH  82  86
ATOM     86  S   UNL A   1      34.933  32.987  29.981  1.00  0.00     0.124 S 
ATOM     87  O   UNL A   1      34.368  32.025  29.043  1.00  0.00    -0.237 OA
ATOM     88  O   UNL A   1      34.052  33.429  31.057  1.00  0.00    -0.237 OA
ATOM     89  O   UNL A   1      35.754  34.037  29.381  1.00  0.00    -0.744 OA
ENDBRANCH  82  86
ENDBRANCH  55  79
BRANCH  67  90
ATOM     90  C   UNL A   1      44.263  34.373  29.881  1.00  0.00     0.023 A 
ATOM     91  C   UNL A   1      44.901  34.720  31.084  1.00  0.00     0.031 A 
ATOM     92  C   UNL A   1      43.995  35.398  28.955  1.00  0.00     0.131 A 
ATOM     93  C   UNL A   1      45.205  36.064  31.353  1.00  0.00     0.055 A 
ATOM     94  C   UNL A   1      44.351  36.724  29.203  1.00  0.00     0.041 A 
ATOM     95  F   UNL A   1      43.385  35.125  27.792  1.00  0.00    -0.206 F 
ATOM     96  C   UNL A   1      44.949  37.065  30.413  1.00  0.00     0.022 A 
BRANCH  93  97
ATOM     97  S   UNL A   1      45.863  36.501  32.986  1.00  0.00     0.124 S 
ATOM     98  O   UNL A   1      44.711  37.138  33.617  1.00  0.00    -0.237 OA
ATOM     99  O   UNL A   1      46.249  35.202  33.526  1.00  0.00    -0.237 OA
ATOM    100  O   UNL A   1      46.976  37.399  32.678  1.00  0.00    -0.744 OA
ENDBRANCH  93  97
ENDBRANCH  67  90
ENDBRANCH  41  42
ENDBRANCH  33  36
ENDBRANCH  31  32
ENDBRANCH  30  31
ENDBRANCH   1  30
TORSDOF 17
ENDMDL
