MODEL 1
REMARK VINA RESULT:     -12.1      0.000      0.000
REMARK SMILES C[C@@H]1CN(C(=O)C[NH+]2CCC(CC(=O)NCCCNC(=O)c3ccc(-c4c5nc(c(-c6cc(S(=O)(=O)[O-])ccc6F)c6ccc([nH]6)c(-c6cc(S(=O)(=O)[O-])ccc6F)c6nc(c(-c7cc(S(=O)(=O)[O-])ccc7F)c7ccc4[nH]7)C=C6)C=C5)cc3)CC2)C[C@@H](C)O1
REMARK SMILES IDX 17 1 16 2 15 3 13 4 14 5 12 7 11 8 8 9 9 10 86 11 10 13
REMARK SMILES IDX 85 14 7 15 5 16 1 17 2 18 3 19 90 20 4 21 88 22 87 23 89 24
REMARK SMILES IDX 6 25 18 26 19 27 20 28 21 30 22 31 23 32 84 33 24 34 83 35
REMARK SMILES IDX 25 36 26 37 27 38 77 39 28 40 82 41 76 42 78 43 29 44 81 45
REMARK SMILES IDX 75 46 74 47 30 49 62 50 42 51 61 52 43 53 46 54 60 55 79 56
REMARK SMILES IDX 44 57 45 58 59 60 80 61 47 62 31 63 32 64 40 65 33 66 39 67
REMARK SMILES IDX 41 68 38 69 34 70 35 71 36 72 37 73 63 74 64 75 72 76 65 77
REMARK SMILES IDX 71 78 73 79 70 80 66 81 67 82 68 83 69 84 48 85 49 86 57 87
REMARK SMILES IDX 50 88 56 89 58 90 55 91 51 92 52 93 53 94 54 95
REMARK H PARENT 15 6 8 12 19 29 78 48 46 59
REMARK Flexibility Score: inf
ROOT
ATOM      1  C   UNL A   1      31.529  32.174  26.647  1.00  0.00     0.042 C 
ENDROOT
BRANCH   1   2
ATOM      2  C   UNL A   1      31.661  30.757  26.102  1.00  0.00     0.117 C 
BRANCH   2   3
ATOM      3  N   UNL A   1      31.620  29.762  27.162  1.00  0.00    -0.356 N 
ATOM      4  C   UNL A   1      31.722  28.407  27.125  1.00  0.00     0.220 C 
ATOM      5  O   UNL A   1      31.513  27.778  28.163  1.00  0.00    -0.275 OA
ATOM      6  H   UNL A   1      31.496  30.135  28.064  1.00  0.00     0.163 HD
BRANCH   4   7
ATOM      7  C   UNL A   1      32.162  27.692  25.867  1.00  0.00     0.104 C 
BRANCH   7   8
ATOM      8  C   UNL A   1      31.023  27.278  24.890  1.00  0.00     0.009 C 
ATOM      9  N   UNL A   1      31.617  25.699  22.461  1.00  0.00    -0.327 N 
ATOM     10  C   UNL A   1      30.833  25.052  23.502  1.00  0.00     0.262 C 
ATOM     11  C   UNL A   1      31.059  27.039  22.276  1.00  0.00     0.262 C 
ATOM     12  H   UNL A   1      31.536  25.134  21.615  1.00  0.00     0.348 HD
ATOM     13  C   UNL A   1      30.919  25.741  24.859  1.00  0.00     0.066 C 
ATOM     14  C   UNL A   1      31.226  27.923  23.507  1.00  0.00     0.066 C 
BRANCH   9  15
ATOM     15  C   UNL A   1      33.084  25.720  22.664  1.00  0.00     0.363 C 
BRANCH  15  16
ATOM     16  C   UNL A   1      33.733  24.320  22.689  1.00  0.00     0.277 C 
ATOM     17  C   UNL A   1      32.885  23.197  26.417  1.00  0.00     0.040 C 
ATOM     18  C   UNL A   1      34.337  23.654  26.262  1.00  0.00     0.135 C 
ATOM     19  C   UNL A   1      34.630  24.611  25.081  1.00  0.00     0.151 C 
ATOM     20  O   UNL A   1      35.188  22.497  26.167  1.00  0.00    -0.372 OA
ATOM     21  N   UNL A   1      34.490  23.930  23.792  1.00  0.00    -0.333 N 
ATOM     22  C   UNL A   1      35.016  21.787  24.925  1.00  0.00     0.135 C 
ATOM     23  C   UNL A   1      35.290  22.700  23.717  1.00  0.00     0.151 C 
ATOM     24  C   UNL A   1      35.978  20.612  24.976  1.00  0.00     0.040 C 
ATOM     25  O   UNL A   1      33.627  23.577  21.708  1.00  0.00    -0.268 OA
ENDBRANCH  15  16
ENDBRANCH   9  15
ENDBRANCH   7   8
ENDBRANCH   4   7
ENDBRANCH   2   3
ENDBRANCH   1   2
BRANCH   1  26
ATOM     26  C   UNL A   1      32.766  32.687  27.367  1.00  0.00     0.118 C 
BRANCH  26  27
ATOM     27  N   UNL A   1      32.620  34.082  27.721  1.00  0.00    -0.352 N 
ATOM     28  C   UNL A   1      33.200  34.778  28.751  1.00  0.00     0.251 C 
ATOM     29  H   UNL A   1      32.020  34.605  27.141  1.00  0.00     0.163 HD
ATOM     30  O   UNL A   1      32.684  35.846  29.092  1.00  0.00    -0.269 OA
BRANCH  28  31
ATOM     31  C   UNL A   1      34.410  34.277  29.454  1.00  0.00     0.039 A 
ATOM     32  C   UNL A   1      35.663  34.583  28.914  1.00  0.00     0.014 A 
ATOM     33  C   UNL A   1      34.337  33.439  30.571  1.00  0.00     0.014 A 
ATOM     34  C   UNL A   1      36.822  34.046  29.481  1.00  0.00     0.010 A 
ATOM     35  C   UNL A   1      35.500  32.991  31.201  1.00  0.00     0.010 A 
ATOM     36  C   UNL A   1      36.754  33.244  30.633  1.00  0.00    -0.014 A 
BRANCH  36  37
ATOM     37  C   UNL A   1      37.982  32.604  31.179  1.00  0.00     0.031 A 
ATOM     38  C   UNL A   1      38.613  33.131  32.446  1.00  0.00     0.074 A 
ATOM     39  C   UNL A   1      38.523  31.543  30.549  1.00  0.00     0.049 A 
ATOM     40  N   UNL A   1      39.645  32.675  33.113  1.00  0.00    -0.248 NA
ATOM     41  C   UNL A   1      38.028  34.351  33.025  1.00  0.00     0.031 C 
ATOM     42  C   UNL A   1      38.044  30.979  29.285  1.00  0.00     0.029 A 
ATOM     43  N   UNL A   1      39.582  30.739  30.889  1.00  0.00    -0.354 N 
ATOM     44  C   UNL A   1      39.836  33.556  34.174  1.00  0.00     0.074 A 
ATOM     45  C   UNL A   1      38.862  34.612  34.019  1.00  0.00     0.031 C 
ATOM     46  C   UNL A   1      38.775  29.894  28.982  1.00  0.00     0.029 A 
ATOM     47  C   UNL A   1      39.792  29.701  30.010  1.00  0.00     0.049 A 
ATOM     48  H   UNL A   1      40.139  30.890  31.686  1.00  0.00     0.167 HD
ATOM     49  C   UNL A   1      40.720  33.477  35.202  1.00  0.00     0.034 A 
ATOM     50  C   UNL A   1      40.693  28.699  30.037  1.00  0.00     0.034 A 
ATOM     51  C   UNL A   1      41.669  32.402  35.356  1.00  0.00     0.049 A 
ATOM     52  C   UNL A   1      41.639  28.609  31.207  1.00  0.00     0.074 A 
ATOM     53  C   UNL A   1      42.572  32.187  36.383  1.00  0.00     0.029 A 
ATOM     54  N   UNL A   1      41.842  31.359  34.454  1.00  0.00    -0.354 N 
ATOM     55  N   UNL A   1      41.758  29.413  32.241  1.00  0.00    -0.248 NA
ATOM     56  C   UNL A   1      42.553  27.461  31.227  1.00  0.00     0.031 C 
ATOM     57  C   UNL A   1      43.330  31.052  36.071  1.00  0.00     0.029 A 
ATOM     58  C   UNL A   1      42.851  30.512  34.888  1.00  0.00     0.049 A 
ATOM     59  H   UNL A   1      41.322  31.238  33.626  1.00  0.00     0.167 HD
ATOM     60  C   UNL A   1      42.747  28.852  33.045  1.00  0.00     0.074 A 
ATOM     61  C   UNL A   1      43.162  27.626  32.392  1.00  0.00     0.031 C 
ATOM     62  C   UNL A   1      43.269  29.306  34.213  1.00  0.00     0.034 A 
BRANCH  49  63
ATOM     63  C   UNL A   1      40.707  34.595  36.220  1.00  0.00     0.023 A 
ATOM     64  C   UNL A   1      41.785  35.489  36.355  1.00  0.00     0.031 A 
ATOM     65  C   UNL A   1      39.616  34.752  37.094  1.00  0.00     0.131 A 
ATOM     66  C   UNL A   1      41.785  36.443  37.385  1.00  0.00     0.055 A 
ATOM     67  C   UNL A   1      39.584  35.758  38.062  1.00  0.00     0.041 A 
ATOM     68  F   UNL A   1      38.566  33.919  37.031  1.00  0.00    -0.206 F 
ATOM     69  C   UNL A   1      40.680  36.601  38.224  1.00  0.00     0.022 A 
BRANCH  66  70
ATOM     70  S   UNL A   1      43.308  37.374  37.712  1.00  0.00     0.124 S 
ATOM     71  O   UNL A   1      42.891  38.242  38.812  1.00  0.00    -0.237 OA
ATOM     72  O   UNL A   1      44.254  36.315  38.060  1.00  0.00    -0.237 OA
ATOM     73  O   UNL A   1      43.572  38.056  36.453  1.00  0.00    -0.744 OA
ENDBRANCH  66  70
ENDBRANCH  49  63
BRANCH  50  74
ATOM     74  C   UNL A   1      40.737  27.691  28.938  1.00  0.00     0.023 A 
ATOM     75  C   UNL A   1      41.684  27.780  27.905  1.00  0.00     0.031 A 
ATOM     76  C   UNL A   1      39.803  26.641  28.886  1.00  0.00     0.131 A 
ATOM     77  C   UNL A   1      41.646  26.870  26.838  1.00  0.00     0.055 A 
ATOM     78  C   UNL A   1      39.802  25.706  27.849  1.00  0.00     0.041 A 
ATOM     79  F   UNL A   1      38.882  26.504  29.852  1.00  0.00    -0.206 F 
ATOM     80  C   UNL A   1      40.718  25.826  26.810  1.00  0.00     0.022 A 
BRANCH  77  81
ATOM     81  S   UNL A   1      42.774  27.119  25.439  1.00  0.00     0.124 S 
ATOM     82  O   UNL A   1      42.168  28.264  24.769  1.00  0.00    -0.237 OA
ATOM     83  O   UNL A   1      44.042  27.369  26.115  1.00  0.00    -0.237 OA
ATOM     84  O   UNL A   1      42.697  25.855  24.710  1.00  0.00    -0.744 OA
ENDBRANCH  77  81
ENDBRANCH  50  74
BRANCH  62  85
ATOM     85  C   UNL A   1      44.328  28.446  34.861  1.00  0.00     0.023 A 
ATOM     86  C   UNL A   1      43.996  27.455  35.802  1.00  0.00     0.031 A 
ATOM     87  C   UNL A   1      45.688  28.654  34.572  1.00  0.00     0.131 A 
ATOM     88  C   UNL A   1      45.013  26.772  36.486  1.00  0.00     0.055 A 
ATOM     89  C   UNL A   1      46.693  27.919  35.203  1.00  0.00     0.041 A 
ATOM     90  F   UNL A   1      46.065  29.585  33.681  1.00  0.00    -0.206 F 
ATOM     91  C   UNL A   1      46.359  26.986  36.182  1.00  0.00     0.022 A 
BRANCH  88  92
ATOM     92  S   UNL A   1      44.554  25.704  37.878  1.00  0.00     0.124 S 
ATOM     93  O   UNL A   1      44.103  26.675  38.871  1.00  0.00    -0.237 OA
ATOM     94  O   UNL A   1      43.516  24.860  37.294  1.00  0.00    -0.237 OA
ATOM     95  O   UNL A   1      45.801  25.015  38.207  1.00  0.00    -0.744 OA
ENDBRANCH  88  92
ENDBRANCH  62  85
ENDBRANCH  36  37
ENDBRANCH  28  31
ENDBRANCH  26  27
ENDBRANCH   1  26
TORSDOF 16
ENDMDL
MODEL 2
REMARK VINA RESULT:     -12.0      2.601      8.420
REMARK SMILES C[C@@H]1CN(C(=O)C[NH+]2CCC(CC(=O)NCCCNC(=O)c3ccc(-c4c5nc(c(-c6cc(S(=O)(=O)[O-])ccc6F)c6ccc([nH]6)c(-c6cc(S(=O)(=O)[O-])ccc6F)c6nc(c(-c7cc(S(=O)(=O)[O-])ccc7F)c7ccc4[nH]7)C=C6)C=C5)cc3)CC2)C[C@@H](C)O1
REMARK SMILES IDX 17 1 16 2 15 3 13 4 14 5 12 7 11 8 8 9 9 10 86 11 10 13
REMARK SMILES IDX 85 14 7 15 5 16 1 17 2 18 3 19 90 20 4 21 88 22 87 23 89 24
REMARK SMILES IDX 6 25 18 26 19 27 20 28 21 30 22 31 23 32 84 33 24 34 83 35
REMARK SMILES IDX 25 36 26 37 27 38 77 39 28 40 82 41 76 42 78 43 29 44 81 45
REMARK SMILES IDX 75 46 74 47 30 49 62 50 42 51 61 52 43 53 46 54 60 55 79 56
REMARK SMILES IDX 44 57 45 58 59 60 80 61 47 62 31 63 32 64 40 65 33 66 39 67
REMARK SMILES IDX 41 68 38 69 34 70 35 71 36 72 37 73 63 74 64 75 72 76 65 77
REMARK SMILES IDX 71 78 73 79 70 80 66 81 67 82 68 83 69 84 48 85 49 86 57 87
REMARK SMILES IDX 50 88 56 89 58 90 55 91 51 92 52 93 53 94 54 95
REMARK H PARENT 15 6 8 12 19 29 78 48 46 59
REMARK Flexibility Score: inf
ROOT
ATOM      1  C   UNL A   1      31.526  32.220  26.882  1.00  0.00     0.042 C 
ENDROOT
BRANCH   1   2
ATOM      2  C   UNL A   1      31.645  30.887  26.155  1.00  0.00     0.117 C 
BRANCH   2   3
ATOM      3  N   UNL A   1      32.856  30.172  26.529  1.00  0.00    -0.356 N 
ATOM      4  C   UNL A   1      33.037  28.972  27.142  1.00  0.00     0.220 C 
ATOM      5  O   UNL A   1      34.179  28.653  27.474  1.00  0.00    -0.275 OA
ATOM      6  H   UNL A   1      33.690  30.639  26.298  1.00  0.00     0.163 HD
BRANCH   4   7
ATOM      7  C   UNL A   1      31.882  28.015  27.339  1.00  0.00     0.104 C 
BRANCH   7   8
ATOM      8  C   UNL A   1      31.902  26.737  26.450  1.00  0.00     0.009 C 
ATOM      9  N   UNL A   1      30.590  26.719  23.799  1.00  0.00    -0.327 N 
ATOM     10  C   UNL A   1      32.042  26.610  23.827  1.00  0.00     0.262 C 
ATOM     11  C   UNL A   1      30.074  25.802  24.815  1.00  0.00     0.262 C 
ATOM     12  H   UNL A   1      30.278  26.464  22.862  1.00  0.00     0.348 HD
ATOM     13  C   UNL A   1      32.669  27.039  25.148  1.00  0.00     0.066 C 
ATOM     14  C   UNL A   1      30.476  26.200  26.231  1.00  0.00     0.066 C 
BRANCH   9  15
ATOM     15  C   UNL A   1      30.034  28.085  23.936  1.00  0.00     0.363 C 
BRANCH  15  16
ATOM     16  C   UNL A   1      29.789  28.798  22.590  1.00  0.00     0.277 C 
ATOM     17  C   UNL A   1      29.290  32.549  23.839  1.00  0.00     0.040 C 
ATOM     18  C   UNL A   1      27.963  31.867  23.498  1.00  0.00     0.135 C 
ATOM     19  C   UNL A   1      27.955  30.320  23.557  1.00  0.00     0.151 C 
ATOM     20  O   UNL A   1      27.530  32.303  22.198  1.00  0.00    -0.372 OA
ATOM     21  N   UNL A   1      28.767  29.740  22.484  1.00  0.00    -0.333 N 
ATOM     22  C   UNL A   1      28.357  31.783  21.138  1.00  0.00     0.135 C 
ATOM     23  C   UNL A   1      28.387  30.245  21.158  1.00  0.00     0.151 C 
ATOM     24  C   UNL A   1      27.770  32.321  19.844  1.00  0.00     0.040 C 
ATOM     25  O   UNL A   1      30.459  28.489  21.599  1.00  0.00    -0.268 OA
ENDBRANCH  15  16
ENDBRANCH   9  15
ENDBRANCH   7   8
ENDBRANCH   4   7
ENDBRANCH   2   3
ENDBRANCH   1   2
BRANCH   1  26
ATOM     26  C   UNL A   1      32.855  32.829  27.300  1.00  0.00     0.118 C 
BRANCH  26  27
ATOM     27  N   UNL A   1      32.701  34.224  27.649  1.00  0.00    -0.352 N 
ATOM     28  C   UNL A   1      33.148  34.891  28.761  1.00  0.00     0.251 C 
ATOM     29  H   UNL A   1      32.206  34.771  26.997  1.00  0.00     0.163 HD
ATOM     30  O   UNL A   1      32.620  35.972  29.040  1.00  0.00    -0.269 OA
BRANCH  28  31
ATOM     31  C   UNL A   1      34.229  34.346  29.622  1.00  0.00     0.039 A 
ATOM     32  C   UNL A   1      35.548  34.436  29.165  1.00  0.00     0.014 A 
ATOM     33  C   UNL A   1      33.968  33.668  30.817  1.00  0.00     0.014 A 
ATOM     34  C   UNL A   1      36.585  33.844  29.892  1.00  0.00     0.010 A 
ATOM     35  C   UNL A   1      35.016  33.171  31.596  1.00  0.00     0.010 A 
ATOM     36  C   UNL A   1      36.331  33.205  31.117  1.00  0.00    -0.014 A 
BRANCH  36  37
ATOM     37  C   UNL A   1      37.425  32.502  31.841  1.00  0.00     0.031 A 
ATOM     38  C   UNL A   1      38.176  31.376  31.171  1.00  0.00     0.074 A 
ATOM     39  C   UNL A   1      37.755  32.882  33.091  1.00  0.00     0.049 A 
ATOM     40  N   UNL A   1      39.198  30.682  31.610  1.00  0.00    -0.248 NA
ATOM     41  C   UNL A   1      37.698  30.950  29.847  1.00  0.00     0.031 C 
ATOM     42  C   UNL A   1      37.064  33.913  33.870  1.00  0.00     0.029 A 
ATOM     43  N   UNL A   1      38.760  32.458  33.923  1.00  0.00    -0.354 N 
ATOM     44  C   UNL A   1      39.471  29.737  30.625  1.00  0.00     0.074 A 
ATOM     45  C   UNL A   1      38.462  29.898  29.602  1.00  0.00     0.031 C 
ATOM     46  C   UNL A   1      37.695  34.075  35.043  1.00  0.00     0.029 A 
ATOM     47  C   UNL A   1      38.815  33.141  35.117  1.00  0.00     0.049 A 
ATOM     48  H   UNL A   1      39.384  31.734  33.689  1.00  0.00     0.167 HD
ATOM     49  C   UNL A   1      40.487  28.838  30.561  1.00  0.00     0.034 A 
ATOM     50  C   UNL A   1      39.677  33.038  36.147  1.00  0.00     0.034 A 
ATOM     51  C   UNL A   1      41.501  28.707  31.578  1.00  0.00     0.049 A 
ATOM     52  C   UNL A   1      40.820  32.061  36.038  1.00  0.00     0.074 A 
ATOM     53  C   UNL A   1      42.607  27.875  31.594  1.00  0.00     0.029 A 
ATOM     54  N   UNL A   1      41.533  29.429  32.766  1.00  0.00    -0.354 N 
ATOM     55  N   UNL A   1      41.105  31.224  35.065  1.00  0.00    -0.248 NA
ATOM     56  C   UNL A   1      41.773  32.036  37.154  1.00  0.00     0.031 C 
ATOM     57  C   UNL A   1      43.270  28.048  32.816  1.00  0.00     0.029 A 
ATOM     58  C   UNL A   1      42.623  29.044  33.531  1.00  0.00     0.049 A 
ATOM     59  H   UNL A   1      40.876  30.114  33.026  1.00  0.00     0.167 HD
ATOM     60  C   UNL A   1      42.284  30.589  35.445  1.00  0.00     0.074 A 
ATOM     61  C   UNL A   1      42.672  31.167  36.717  1.00  0.00     0.031 C 
ATOM     62  C   UNL A   1      42.983  29.615  34.808  1.00  0.00     0.034 A 
BRANCH  49  63
ATOM     63  C   UNL A   1      40.531  27.920  29.359  1.00  0.00     0.023 A 
ATOM     64  C   UNL A   1      41.447  28.115  28.309  1.00  0.00     0.031 A 
ATOM     65  C   UNL A   1      39.623  26.852  29.244  1.00  0.00     0.131 A 
ATOM     66  C   UNL A   1      41.383  27.310  27.160  1.00  0.00     0.055 A 
ATOM     67  C   UNL A   1      39.620  26.002  28.136  1.00  0.00     0.041 A 
ATOM     68  F   UNL A   1      38.710  26.626  30.202  1.00  0.00    -0.206 F 
ATOM     69  C   UNL A   1      40.492  26.237  27.078  1.00  0.00     0.022 A 
BRANCH  66  70
ATOM     70  S   UNL A   1      42.374  27.775  25.714  1.00  0.00     0.124 S 
ATOM     71  O   UNL A   1      41.764  29.050  25.337  1.00  0.00    -0.237 OA
ATOM     72  O   UNL A   1      43.724  27.855  26.270  1.00  0.00    -0.237 OA
ATOM     73  O   UNL A   1      42.150  26.683  24.776  1.00  0.00    -0.744 OA
ENDBRANCH  66  70
ENDBRANCH  49  63
BRANCH  50  74
ATOM     74  C   UNL A   1      39.512  33.889  37.362  1.00  0.00     0.023 A 
ATOM     75  C   UNL A   1      38.850  33.408  38.503  1.00  0.00     0.031 A 
ATOM     76  C   UNL A   1      39.981  35.213  37.382  1.00  0.00     0.131 A 
ATOM     77  C   UNL A   1      38.630  34.258  39.596  1.00  0.00     0.055 A 
ATOM     78  C   UNL A   1      39.807  36.040  38.494  1.00  0.00     0.041 A 
ATOM     79  F   UNL A   1      40.629  35.721  36.322  1.00  0.00    -0.206 F 
ATOM     80  C   UNL A   1      39.115  35.569  39.605  1.00  0.00     0.022 A 
BRANCH  77  81
ATOM     81  S   UNL A   1      37.624  33.656  40.982  1.00  0.00     0.124 S 
ATOM     82  O   UNL A   1      38.556  32.759  41.657  1.00  0.00    -0.237 OA
ATOM     83  O   UNL A   1      37.303  34.895  41.682  1.00  0.00    -0.237 OA
ATOM     84  O   UNL A   1      36.495  33.003  40.323  1.00  0.00    -0.744 OA
ENDBRANCH  77  81
ENDBRANCH  50  74
BRANCH  62  85
ATOM     85  C   UNL A   1      44.252  29.143  35.478  1.00  0.00     0.023 A 
ATOM     86  C   UNL A   1      44.258  28.039  36.348  1.00  0.00     0.031 A 
ATOM     87  C   UNL A   1      45.459  29.838  35.285  1.00  0.00     0.131 A 
ATOM     88  C   UNL A   1      45.422  27.716  37.060  1.00  0.00     0.055 A 
ATOM     89  C   UNL A   1      46.633  29.466  35.941  1.00  0.00     0.041 A 
ATOM     90  F   UNL A   1      45.514  30.900  34.465  1.00  0.00    -0.206 F 
ATOM     91  C   UNL A   1      46.615  28.412  36.851  1.00  0.00     0.022 A 
BRANCH  88  92
ATOM     92  S   UNL A   1      45.318  26.463  38.368  1.00  0.00     0.124 S 
ATOM     93  O   UNL A   1      44.156  26.912  39.128  1.00  0.00    -0.237 OA
ATOM     94  O   UNL A   1      45.144  25.231  37.606  1.00  0.00    -0.237 OA
ATOM     95  O   UNL A   1      46.599  26.586  39.063  1.00  0.00    -0.744 OA
ENDBRANCH  88  92
ENDBRANCH  62  85
ENDBRANCH  36  37
ENDBRANCH  28  31
ENDBRANCH  26  27
ENDBRANCH   1  26
TORSDOF 16
ENDMDL
MODEL 3
REMARK VINA RESULT:     -12.0      1.877      7.595
REMARK SMILES C[C@@H]1CN(C(=O)C[NH+]2CCC(CC(=O)NCCCNC(=O)c3ccc(-c4c5nc(c(-c6cc(S(=O)(=O)[O-])ccc6F)c6ccc([nH]6)c(-c6cc(S(=O)(=O)[O-])ccc6F)c6nc(c(-c7cc(S(=O)(=O)[O-])ccc7F)c7ccc4[nH]7)C=C6)C=C5)cc3)CC2)C[C@@H](C)O1
REMARK SMILES IDX 17 1 16 2 15 3 13 4 14 5 12 7 11 8 8 9 9 10 86 11 10 13
REMARK SMILES IDX 85 14 7 15 5 16 1 17 2 18 3 19 90 20 4 21 88 22 87 23 89 24
REMARK SMILES IDX 6 25 18 26 19 27 20 28 21 30 22 31 23 32 84 33 24 34 83 35
REMARK SMILES IDX 25 36 26 37 27 38 77 39 28 40 82 41 76 42 78 43 29 44 81 45
REMARK SMILES IDX 75 46 74 47 30 49 62 50 42 51 61 52 43 53 46 54 60 55 79 56
REMARK SMILES IDX 44 57 45 58 59 60 80 61 47 62 31 63 32 64 40 65 33 66 39 67
REMARK SMILES IDX 41 68 38 69 34 70 35 71 36 72 37 73 63 74 64 75 72 76 65 77
REMARK SMILES IDX 71 78 73 79 70 80 66 81 67 82 68 83 69 84 48 85 49 86 57 87
REMARK SMILES IDX 50 88 56 89 58 90 55 91 51 92 52 93 53 94 54 95
REMARK H PARENT 15 6 8 12 19 29 78 48 46 59
REMARK Flexibility Score: inf
ROOT
ATOM      1  C   UNL A   1      31.511  32.330  26.858  1.00  0.00     0.042 C 
ENDROOT
BRANCH   1   2
ATOM      2  C   UNL A   1      31.595  30.960  26.199  1.00  0.00     0.117 C 
BRANCH   2   3
ATOM      3  N   UNL A   1      31.630  29.887  27.180  1.00  0.00    -0.356 N 
ATOM      4  C   UNL A   1      31.779  28.543  27.037  1.00  0.00     0.220 C 
ATOM      5  O   UNL A   1      31.632  27.830  28.030  1.00  0.00    -0.275 OA
ATOM      6  H   UNL A   1      31.528  30.185  28.112  1.00  0.00     0.163 HD
BRANCH   4   7
ATOM      7  C   UNL A   1      32.195  27.942  25.713  1.00  0.00     0.104 C 
BRANCH   7   8
ATOM      8  C   UNL A   1      31.041  27.386  24.828  1.00  0.00     0.009 C 
ATOM      9  N   UNL A   1      31.611  25.556  22.576  1.00  0.00    -0.327 N 
ATOM     10  C   UNL A   1      30.879  25.011  23.711  1.00  0.00     0.262 C 
ATOM     11  C   UNL A   1      31.005  26.849  22.259  1.00  0.00     0.262 C 
ATOM     12  H   UNL A   1      31.522  24.895  21.804  1.00  0.00     0.348 HD
ATOM     13  C   UNL A   1      30.985  25.853  24.976  1.00  0.00     0.066 C 
ATOM     14  C   UNL A   1      31.180  27.874  23.375  1.00  0.00     0.066 C 
BRANCH   9  15
ATOM     15  C   UNL A   1      33.082  25.642  22.726  1.00  0.00     0.363 C 
BRANCH  15  16
ATOM     16  C   UNL A   1      33.788  24.270  22.765  1.00  0.00     0.277 C 
ATOM     17  C   UNL A   1      32.874  23.093  26.461  1.00  0.00     0.040 C 
ATOM     18  C   UNL A   1      34.309  23.611  26.353  1.00  0.00     0.135 C 
ATOM     19  C   UNL A   1      34.598  24.586  25.185  1.00  0.00     0.151 C 
ATOM     20  O   UNL A   1      35.211  22.492  26.280  1.00  0.00    -0.372 OA
ATOM     21  N   UNL A   1      34.527  23.906  23.890  1.00  0.00    -0.333 N 
ATOM     22  C   UNL A   1      35.107  21.781  25.030  1.00  0.00     0.135 C 
ATOM     23  C   UNL A   1      35.379  22.712  23.835  1.00  0.00     0.151 C 
ATOM     24  C   UNL A   1      36.116  20.647  25.107  1.00  0.00     0.040 C 
ATOM     25  O   UNL A   1      33.744  23.527  21.778  1.00  0.00    -0.268 OA
ENDBRANCH  15  16
ENDBRANCH   9  15
ENDBRANCH   7   8
ENDBRANCH   4   7
ENDBRANCH   2   3
ENDBRANCH   1   2
BRANCH   1  26
ATOM     26  C   UNL A   1      32.842  32.873  27.352  1.00  0.00     0.118 C 
BRANCH  26  27
ATOM     27  N   UNL A   1      32.747  34.283  27.660  1.00  0.00    -0.352 N 
ATOM     28  C   UNL A   1      33.235  34.967  28.744  1.00  0.00     0.251 C 
ATOM     29  H   UNL A   1      32.263  34.829  26.998  1.00  0.00     0.163 HD
ATOM     30  O   UNL A   1      32.753  36.074  28.997  1.00  0.00    -0.269 OA
BRANCH  28  31
ATOM     31  C   UNL A   1      34.309  34.407  29.606  1.00  0.00     0.039 A 
ATOM     32  C   UNL A   1      35.631  34.498  29.160  1.00  0.00     0.014 A 
ATOM     33  C   UNL A   1      34.037  33.714  30.790  1.00  0.00     0.014 A 
ATOM     34  C   UNL A   1      36.660  33.893  29.887  1.00  0.00     0.010 A 
ATOM     35  C   UNL A   1      35.076  33.204  31.571  1.00  0.00     0.010 A 
ATOM     36  C   UNL A   1      36.395  33.240  31.102  1.00  0.00    -0.014 A 
BRANCH  36  37
ATOM     37  C   UNL A   1      37.482  32.523  31.826  1.00  0.00     0.031 A 
ATOM     38  C   UNL A   1      38.236  31.405  31.146  1.00  0.00     0.074 A 
ATOM     39  C   UNL A   1      37.801  32.884  33.084  1.00  0.00     0.049 A 
ATOM     40  N   UNL A   1      39.252  30.702  31.583  1.00  0.00    -0.248 NA
ATOM     41  C   UNL A   1      37.768  30.999  29.811  1.00  0.00     0.031 C 
ATOM     42  C   UNL A   1      37.106  33.905  33.871  1.00  0.00     0.029 A 
ATOM     43  N   UNL A   1      38.799  32.446  33.918  1.00  0.00    -0.354 N 
ATOM     44  C   UNL A   1      39.532  29.771  30.587  1.00  0.00     0.074 A 
ATOM     45  C   UNL A   1      38.532  29.949  29.558  1.00  0.00     0.031 C 
ATOM     46  C   UNL A   1      37.728  34.048  35.052  1.00  0.00     0.029 A 
ATOM     47  C   UNL A   1      38.845  33.112  35.122  1.00  0.00     0.049 A 
ATOM     48  H   UNL A   1      39.423  31.724  33.679  1.00  0.00     0.167 HD
ATOM     49  C   UNL A   1      40.547  28.871  30.518  1.00  0.00     0.034 A 
ATOM     50  C   UNL A   1      39.698  32.991  36.158  1.00  0.00     0.034 A 
ATOM     51  C   UNL A   1      41.552  28.723  31.542  1.00  0.00     0.049 A 
ATOM     52  C   UNL A   1      40.839  32.013  36.044  1.00  0.00     0.074 A 
ATOM     53  C   UNL A   1      42.656  27.888  31.556  1.00  0.00     0.029 A 
ATOM     54  N   UNL A   1      41.575  29.427  32.741  1.00  0.00    -0.354 N 
ATOM     55  N   UNL A   1      41.131  31.190  35.062  1.00  0.00    -0.248 NA
ATOM     56  C   UNL A   1      41.782  31.970  37.168  1.00  0.00     0.031 C 
ATOM     57  C   UNL A   1      43.308  28.042  32.785  1.00  0.00     0.029 A 
ATOM     58  C   UNL A   1      42.657  29.029  33.510  1.00  0.00     0.049 A 
ATOM     59  H   UNL A   1      40.917  30.111  33.005  1.00  0.00     0.167 HD
ATOM     60  C   UNL A   1      42.305  30.546  35.443  1.00  0.00     0.074 A 
ATOM     61  C   UNL A   1      42.683  31.106  36.726  1.00  0.00     0.031 C 
ATOM     62  C   UNL A   1      43.007  29.580  34.797  1.00  0.00     0.034 A 
BRANCH  49  63
ATOM     63  C   UNL A   1      40.599  27.970  29.304  1.00  0.00     0.023 A 
ATOM     64  C   UNL A   1      41.528  28.175  28.267  1.00  0.00     0.031 A 
ATOM     65  C   UNL A   1      39.686  26.910  29.163  1.00  0.00     0.131 A 
ATOM     66  C   UNL A   1      41.473  27.388  27.106  1.00  0.00     0.055 A 
ATOM     67  C   UNL A   1      39.690  26.077  28.042  1.00  0.00     0.041 A 
ATOM     68  F   UNL A   1      38.760  26.676  30.106  1.00  0.00    -0.206 F 
ATOM     69  C   UNL A   1      40.576  26.322  26.998  1.00  0.00     0.022 A 
BRANCH  66  70
ATOM     70  S   UNL A   1      42.484  27.867  25.678  1.00  0.00     0.124 S 
ATOM     71  O   UNL A   1      41.762  29.041  25.188  1.00  0.00    -0.237 OA
ATOM     72  O   UNL A   1      43.786  28.130  26.289  1.00  0.00    -0.237 OA
ATOM     73  O   UNL A   1      42.429  26.700  24.808  1.00  0.00    -0.744 OA
ENDBRANCH  66  70
ENDBRANCH  49  63
BRANCH  50  74
ATOM     74  C   UNL A   1      39.524  33.825  37.383  1.00  0.00     0.023 A 
ATOM     75  C   UNL A   1      38.821  33.341  38.499  1.00  0.00     0.031 A 
ATOM     76  C   UNL A   1      40.026  35.136  37.439  1.00  0.00     0.131 A 
ATOM     77  C   UNL A   1      38.596  34.178  39.602  1.00  0.00     0.055 A 
ATOM     78  C   UNL A   1      39.845  35.948  38.561  1.00  0.00     0.041 A 
ATOM     79  F   UNL A   1      40.712  35.646  36.404  1.00  0.00    -0.206 F 
ATOM     80  C   UNL A   1      39.114  35.475  39.646  1.00  0.00     0.022 A 
BRANCH  77  81
ATOM     81  S   UNL A   1      37.542  33.577  40.951  1.00  0.00     0.124 S 
ATOM     82  O   UNL A   1      36.464  32.924  40.217  1.00  0.00    -0.237 OA
ATOM     83  O   UNL A   1      38.452  32.696  41.675  1.00  0.00    -0.237 OA
ATOM     84  O   UNL A   1      37.165  34.799  41.659  1.00  0.00    -0.744 OA
ENDBRANCH  77  81
ENDBRANCH  50  74
BRANCH  62  85
ATOM     85  C   UNL A   1      44.270  29.096  35.471  1.00  0.00     0.023 A 
ATOM     86  C   UNL A   1      44.250  28.035  36.394  1.00  0.00     0.031 A 
ATOM     87  C   UNL A   1      45.497  29.738  35.228  1.00  0.00     0.131 A 
ATOM     88  C   UNL A   1      45.414  27.705  37.104  1.00  0.00     0.055 A 
ATOM     89  C   UNL A   1      46.668  29.356  35.885  1.00  0.00     0.041 A 
ATOM     90  F   UNL A   1      45.576  30.757  34.358  1.00  0.00    -0.206 F 
ATOM     91  C   UNL A   1      46.626  28.347  36.844  1.00  0.00     0.022 A 
BRANCH  88  92
ATOM     92  S   UNL A   1      45.287  26.520  38.472  1.00  0.00     0.124 S 
ATOM     93  O   UNL A   1      43.894  26.675  38.880  1.00  0.00    -0.237 OA
ATOM     94  O   UNL A   1      45.624  25.257  37.822  1.00  0.00    -0.237 OA
ATOM     95  O   UNL A   1      46.273  27.004  39.437  1.00  0.00    -0.744 OA
ENDBRANCH  88  92
ENDBRANCH  62  85
ENDBRANCH  36  37
ENDBRANCH  28  31
ENDBRANCH  26  27
ENDBRANCH   1  26
TORSDOF 16
ENDMDL
