MODEL 1
REMARK VINA RESULT:     -12.4      0.000      0.000
REMARK SMILES Cc1cccc(CS[C@@H]2CC[C@]([NH3+])(C(=O)NCCCNC(=O)c3ccc(-c4c5nc(c(-c6cc(S(=O)(=O)[O-])ccc6F)c6ccc([nH]6)c(-c6cc(S(=O)(=O)[O-])ccc6F)c6nc(c(-c7cc(S(=O)(=O)[O-])ccc7F)c7ccc4[nH]7)C=C6)C=C5)cc3)C2)c1
REMARK SMILES IDX 18 1 17 2 16 3 14 4 15 5 12 7 9 8 10 9 86 10 11 11 8 12 7 13
REMARK SMILES IDX 6 14 1 15 2 16 3 17 87 18 4 19 5 20 13 21 19 25 20 26 21 27
REMARK SMILES IDX 22 29 23 30 24 31 85 32 25 33 84 34 26 35 27 36 28 37 78 38
REMARK SMILES IDX 29 39 83 40 77 41 79 42 30 43 82 44 76 45 75 46 31 48 63 49
REMARK SMILES IDX 43 50 62 51 44 52 47 53 61 54 80 55 45 56 46 57 60 59 81 60
REMARK SMILES IDX 48 61 32 62 33 63 41 64 34 65 40 66 42 67 39 68 35 69 36 70
REMARK SMILES IDX 37 71 38 72 64 73 65 74 73 75 66 76 72 77 74 78 71 79 67 80
REMARK SMILES IDX 68 81 69 82 70 83 49 84 50 85 58 86 51 87 57 88 59 89 56 90
REMARK SMILES IDX 52 91 53 92 54 93 55 94
REMARK H PARENT 16 6 13 22 13 23 13 24 20 28 79 47 47 58
REMARK Flexibility Score: inf
ROOT
ATOM      1  C   UNL A   1      38.477  21.527  25.704  1.00  0.00     0.042 C 
ENDROOT
BRANCH   1   2
ATOM      2  C   UNL A   1      37.009  21.468  25.314  1.00  0.00     0.118 C 
BRANCH   2   3
ATOM      3  N   UNL A   1      36.131  21.828  26.414  1.00  0.00    -0.351 N 
ATOM      4  C   UNL A   1      34.786  22.012  26.472  1.00  0.00     0.281 C 
ATOM      5  O   UNL A   1      34.309  22.413  27.543  1.00  0.00    -0.268 OA
ATOM      6  H   UNL A   1      36.594  21.962  27.272  1.00  0.00     0.163 HD
BRANCH   4   7
ATOM      7  C   UNL A   1      33.855  21.851  25.228  1.00  0.00     0.175 C 
ATOM      8  C   UNL A   1      32.954  23.129  23.330  1.00  0.00     0.054 C 
ATOM      9  C   UNL A   1      31.784  22.559  24.122  1.00  0.00     0.022 C 
ATOM     10  C   UNL A   1      34.194  22.977  24.210  1.00  0.00     0.093 C 
ATOM     11  C   UNL A   1      32.362  22.101  25.454  1.00  0.00     0.080 C 
BRANCH   8  12
ATOM     12  S   UNL A   1      32.609  24.765  22.575  1.00  0.00    -0.154 SA
BRANCH  12  13
ATOM     13  C   UNL A   1      33.672  25.923  23.504  1.00  0.00     0.105 C 
BRANCH  13  14
ATOM     14  C   UNL A   1      33.082  26.543  24.743  1.00  0.00    -0.038 A 
ATOM     15  C   UNL A   1      34.035  29.221  27.293  1.00  0.00     0.044 C 
ATOM     16  C   UNL A   1      33.257  28.170  26.555  1.00  0.00    -0.051 A 
ATOM     17  C   UNL A   1      32.021  27.745  27.051  1.00  0.00     0.003 A 
ATOM     18  C   UNL A   1      33.778  27.570  25.402  1.00  0.00     0.008 A 
ATOM     19  C   UNL A   1      31.306  26.748  26.391  1.00  0.00     0.001 A 
ATOM     20  C   UNL A   1      31.825  26.160  25.237  1.00  0.00     0.004 A 
ENDBRANCH  13  14
ENDBRANCH  12  13
ENDBRANCH   8  12
BRANCH   7  21
ATOM     21  N   UNL A   1      34.075  20.512  24.631  1.00  0.00    -0.345 N 
ATOM     22  H   UNL A   1      33.258  19.925  24.800  1.00  0.00     0.345 HD
ATOM     23  H   UNL A   1      34.897  20.080  25.055  1.00  0.00     0.345 HD
ATOM     24  H   UNL A   1      34.222  20.607  23.626  1.00  0.00     0.345 HD
ENDBRANCH   7  21
ENDBRANCH   4   7
ENDBRANCH   2   3
ENDBRANCH   1   2
BRANCH   1  25
ATOM     25  C   UNL A   1      38.900  22.928  26.125  1.00  0.00     0.118 C 
BRANCH  25  26
ATOM     26  N   UNL A   1      40.330  23.047  26.387  1.00  0.00    -0.352 N 
ATOM     27  C   UNL A   1      41.058  24.199  26.721  1.00  0.00     0.251 C 
ATOM     28  H   UNL A   1      40.850  22.214  26.318  1.00  0.00     0.163 HD
ATOM     29  O   UNL A   1      42.246  24.191  26.924  1.00  0.00    -0.269 OA
BRANCH  27  30
ATOM     30  C   UNL A   1      40.266  25.432  26.915  1.00  0.00     0.039 A 
ATOM     31  C   UNL A   1      40.728  26.580  26.268  1.00  0.00     0.014 A 
ATOM     32  C   UNL A   1      39.377  25.505  27.978  1.00  0.00     0.014 A 
ATOM     33  C   UNL A   1      40.502  27.818  26.861  1.00  0.00     0.010 A 
ATOM     34  C   UNL A   1      39.242  26.722  28.622  1.00  0.00     0.010 A 
ATOM     35  C   UNL A   1      39.872  27.864  28.106  1.00  0.00    -0.014 A 
BRANCH  35  36
ATOM     36  C   UNL A   1      39.995  29.019  28.998  1.00  0.00     0.031 A 
ATOM     37  C   UNL A   1      38.973  30.084  29.004  1.00  0.00     0.074 A 
ATOM     38  C   UNL A   1      41.042  29.120  29.848  1.00  0.00     0.049 A 
ATOM     39  N   UNL A   1      39.174  31.295  29.407  1.00  0.00    -0.248 NA
ATOM     40  C   UNL A   1      37.631  29.870  28.483  1.00  0.00     0.031 C 
ATOM     41  C   UNL A   1      41.207  30.070  30.944  1.00  0.00     0.029 A 
ATOM     42  N   UNL A   1      42.307  28.550  29.690  1.00  0.00    -0.354 N 
ATOM     43  C   UNL A   1      37.953  31.925  29.476  1.00  0.00     0.074 A 
ATOM     44  C   UNL A   1      37.043  31.021  28.813  1.00  0.00     0.031 C 
ATOM     45  C   UNL A   1      42.517  30.245  31.169  1.00  0.00     0.029 A 
ATOM     46  C   UNL A   1      43.238  29.505  30.150  1.00  0.00     0.049 A 
ATOM     47  H   UNL A   1      42.509  27.657  29.329  1.00  0.00     0.167 HD
ATOM     48  C   UNL A   1      37.830  33.077  30.200  1.00  0.00     0.034 A 
ATOM     49  C   UNL A   1      44.192  30.009  29.314  1.00  0.00     0.034 A 
ATOM     50  C   UNL A   1      39.133  33.589  30.645  1.00  0.00     0.049 A 
ATOM     51  C   UNL A   1      44.107  31.505  29.101  1.00  0.00     0.074 A 
ATOM     52  C   UNL A   1      39.815  33.619  31.851  1.00  0.00     0.029 A 
ATOM     53  N   UNL A   1      40.052  33.984  29.685  1.00  0.00    -0.354 N 
ATOM     54  N   UNL A   1      43.213  32.284  29.645  1.00  0.00    -0.248 NA
ATOM     55  C   UNL A   1      44.972  32.222  28.161  1.00  0.00     0.031 C 
ATOM     56  C   UNL A   1      41.167  33.997  31.589  1.00  0.00     0.029 A 
ATOM     57  C   UNL A   1      41.301  34.213  30.229  1.00  0.00     0.049 A 
ATOM     58  H   UNL A   1      39.841  34.088  28.730  1.00  0.00     0.167 HD
ATOM     59  C   UNL A   1      43.298  33.530  29.080  1.00  0.00     0.074 A 
ATOM     60  C   UNL A   1      44.423  33.447  28.166  1.00  0.00     0.031 C 
ATOM     61  C   UNL A   1      42.409  34.532  29.341  1.00  0.00     0.034 A 
BRANCH  48  62
ATOM     62  C   UNL A   1      36.507  33.600  30.729  1.00  0.00     0.023 A 
ATOM     63  C   UNL A   1      35.609  34.224  29.836  1.00  0.00     0.031 A 
ATOM     64  C   UNL A   1      36.088  33.586  32.074  1.00  0.00     0.131 A 
ATOM     65  C   UNL A   1      34.452  34.885  30.294  1.00  0.00     0.055 A 
ATOM     66  C   UNL A   1      34.977  34.302  32.541  1.00  0.00     0.041 A 
ATOM     67  F   UNL A   1      36.683  32.822  32.996  1.00  0.00    -0.206 F 
ATOM     68  C   UNL A   1      34.157  34.970  31.650  1.00  0.00     0.022 A 
BRANCH  65  69
ATOM     69  S   UNL A   1      33.319  35.625  29.087  1.00  0.00     0.124 S 
ATOM     70  O   UNL A   1      34.232  36.333  28.197  1.00  0.00    -0.237 OA
ATOM     71  O   UNL A   1      32.654  34.450  28.533  1.00  0.00    -0.237 OA
ATOM     72  O   UNL A   1      32.465  36.484  29.907  1.00  0.00    -0.744 OA
ENDBRANCH  65  69
ENDBRANCH  48  62
BRANCH  49  73
ATOM     73  C   UNL A   1      44.668  29.012  28.310  1.00  0.00     0.023 A 
ATOM     74  C   UNL A   1      45.469  27.958  28.795  1.00  0.00     0.031 A 
ATOM     75  C   UNL A   1      44.072  28.856  27.052  1.00  0.00     0.131 A 
ATOM     76  C   UNL A   1      45.494  26.728  28.125  1.00  0.00     0.055 A 
ATOM     77  C   UNL A   1      44.184  27.657  26.337  1.00  0.00     0.041 A 
ATOM     78  F   UNL A   1      43.264  29.802  26.551  1.00  0.00    -0.206 F 
ATOM     79  C   UNL A   1      44.854  26.570  26.896  1.00  0.00     0.022 A 
BRANCH  76  80
ATOM     80  S   UNL A   1      46.091  25.268  29.018  1.00  0.00     0.124 S 
ATOM     81  O   UNL A   1      46.967  25.860  30.022  1.00  0.00    -0.237 OA
ATOM     82  O   UNL A   1      44.858  24.662  29.522  1.00  0.00    -0.237 OA
ATOM     83  O   UNL A   1      46.754  24.481  27.982  1.00  0.00    -0.744 OA
ENDBRANCH  76  80
ENDBRANCH  49  73
BRANCH  61  84
ATOM     84  C   UNL A   1      42.533  35.890  28.707  1.00  0.00     0.023 A 
ATOM     85  C   UNL A   1      42.899  37.020  29.459  1.00  0.00     0.031 A 
ATOM     86  C   UNL A   1      42.240  36.107  27.344  1.00  0.00     0.131 A 
ATOM     87  C   UNL A   1      43.040  38.275  28.845  1.00  0.00     0.055 A 
ATOM     88  C   UNL A   1      42.296  37.373  26.757  1.00  0.00     0.041 A 
ATOM     89  F   UNL A   1      41.938  35.092  26.521  1.00  0.00    -0.206 F 
ATOM     90  C   UNL A   1      42.713  38.467  27.504  1.00  0.00     0.022 A 
BRANCH  87  91
ATOM     91  S   UNL A   1      43.752  39.634  29.807  1.00  0.00     0.124 S 
ATOM     92  O   UNL A   1      42.628  40.552  29.949  1.00  0.00    -0.237 OA
ATOM     93  O   UNL A   1      44.169  38.946  31.027  1.00  0.00    -0.237 OA
ATOM     94  O   UNL A   1      44.847  40.116  28.966  1.00  0.00    -0.744 OA
ENDBRANCH  87  91
ENDBRANCH  61  84
ENDBRANCH  35  36
ENDBRANCH  27  30
ENDBRANCH  25  26
ENDBRANCH   1  25
TORSDOF 17
ENDMDL
MODEL 2
REMARK VINA RESULT:     -12.2      4.356     10.708
REMARK SMILES Cc1cccc(CS[C@@H]2CC[C@]([NH3+])(C(=O)NCCCNC(=O)c3ccc(-c4c5nc(c(-c6cc(S(=O)(=O)[O-])ccc6F)c6ccc([nH]6)c(-c6cc(S(=O)(=O)[O-])ccc6F)c6nc(c(-c7cc(S(=O)(=O)[O-])ccc7F)c7ccc4[nH]7)C=C6)C=C5)cc3)C2)c1
REMARK SMILES IDX 18 1 17 2 16 3 14 4 15 5 12 7 9 8 10 9 86 10 11 11 8 12 7 13
REMARK SMILES IDX 6 14 1 15 2 16 3 17 87 18 4 19 5 20 13 21 19 25 20 26 21 27
REMARK SMILES IDX 22 29 23 30 24 31 85 32 25 33 84 34 26 35 27 36 28 37 78 38
REMARK SMILES IDX 29 39 83 40 77 41 79 42 30 43 82 44 76 45 75 46 31 48 63 49
REMARK SMILES IDX 43 50 62 51 44 52 47 53 61 54 80 55 45 56 46 57 60 59 81 60
REMARK SMILES IDX 48 61 32 62 33 63 41 64 34 65 40 66 42 67 39 68 35 69 36 70
REMARK SMILES IDX 37 71 38 72 64 73 65 74 73 75 66 76 72 77 74 78 71 79 67 80
REMARK SMILES IDX 68 81 69 82 70 83 49 84 50 85 58 86 51 87 57 88 59 89 56 90
REMARK SMILES IDX 52 91 53 92 54 93 55 94
REMARK H PARENT 16 6 13 22 13 23 13 24 20 28 79 47 47 58
REMARK Flexibility Score: inf
ROOT
ATOM      1  C   UNL A   1      32.936  30.825  26.892  1.00  0.00     0.042 C 
ENDROOT
BRANCH   1   2
ATOM      2  C   UNL A   1      32.401  29.860  25.847  1.00  0.00     0.118 C 
BRANCH   2   3
ATOM      3  N   UNL A   1      31.144  30.308  25.273  1.00  0.00    -0.351 N 
ATOM      4  C   UNL A   1      30.560  30.058  24.072  1.00  0.00     0.281 C 
ATOM      5  O   UNL A   1      29.508  30.660  23.811  1.00  0.00    -0.268 OA
ATOM      6  H   UNL A   1      30.620  30.897  25.862  1.00  0.00     0.163 HD
BRANCH   4   7
ATOM      7  C   UNL A   1      31.216  29.149  22.984  1.00  0.00     0.175 C 
ATOM      8  C   UNL A   1      31.575  26.781  22.428  1.00  0.00     0.054 C 
ATOM      9  C   UNL A   1      32.933  27.470  22.492  1.00  0.00     0.022 C 
ATOM     10  C   UNL A   1      30.569  27.738  23.066  1.00  0.00     0.093 C 
ATOM     11  C   UNL A   1      32.695  28.805  23.182  1.00  0.00     0.080 C 
BRANCH   8  12
ATOM     12  S   UNL A   1      31.604  25.035  22.988  1.00  0.00    -0.154 SA
BRANCH  12  13
ATOM     13  C   UNL A   1      33.213  24.402  22.402  1.00  0.00     0.105 C 
BRANCH  13  14
ATOM     14  C   UNL A   1      33.974  23.504  23.342  1.00  0.00    -0.038 A 
ATOM     15  C   UNL A   1      37.134  23.676  25.479  1.00  0.00     0.044 C 
ATOM     16  C   UNL A   1      35.861  23.180  24.856  1.00  0.00    -0.051 A 
ATOM     17  C   UNL A   1      35.424  21.878  25.117  1.00  0.00     0.003 A 
ATOM     18  C   UNL A   1      35.132  23.986  23.975  1.00  0.00     0.008 A 
ATOM     19  C   UNL A   1      34.261  21.396  24.520  1.00  0.00     0.001 A 
ATOM     20  C   UNL A   1      33.532  22.208  23.649  1.00  0.00     0.004 A 
ENDBRANCH  13  14
ENDBRANCH  12  13
ENDBRANCH   8  12
BRANCH   7  21
ATOM     21  N   UNL A   1      30.996  29.758  21.650  1.00  0.00    -0.345 N 
ATOM     22  H   UNL A   1      31.312  30.728  21.662  1.00  0.00     0.345 HD
ATOM     23  H   UNL A   1      30.002  29.727  21.421  1.00  0.00     0.345 HD
ATOM     24  H   UNL A   1      31.522  29.238  20.948  1.00  0.00     0.345 HD
ENDBRANCH   7  21
ENDBRANCH   4   7
ENDBRANCH   2   3
ENDBRANCH   1   2
BRANCH   1  25
ATOM     25  C   UNL A   1      34.077  30.219  27.698  1.00  0.00     0.118 C 
BRANCH  25  26
ATOM     26  N   UNL A   1      34.800  31.196  28.504  1.00  0.00    -0.352 N 
ATOM     27  C   UNL A   1      35.997  31.020  29.214  1.00  0.00     0.251 C 
ATOM     28  H   UNL A   1      34.395  32.092  28.558  1.00  0.00     0.163 HD
ATOM     29  O   UNL A   1      36.521  31.900  29.850  1.00  0.00    -0.269 OA
BRANCH  27  30
ATOM     30  C   UNL A   1      36.654  29.705  29.059  1.00  0.00     0.039 A 
ATOM     31  C   UNL A   1      37.070  29.073  30.232  1.00  0.00     0.014 A 
ATOM     32  C   UNL A   1      37.163  29.344  27.818  1.00  0.00     0.014 A 
ATOM     33  C   UNL A   1      38.195  28.255  30.188  1.00  0.00     0.010 A 
ATOM     34  C   UNL A   1      38.341  28.619  27.793  1.00  0.00     0.010 A 
ATOM     35  C   UNL A   1      38.900  28.142  28.988  1.00  0.00    -0.014 A 
BRANCH  35  36
ATOM     36  C   UNL A   1      40.297  27.705  28.944  1.00  0.00     0.031 A 
ATOM     37  C   UNL A   1      40.647  26.326  28.548  1.00  0.00     0.074 A 
ATOM     38  C   UNL A   1      41.294  28.566  29.248  1.00  0.00     0.049 A 
ATOM     39  N   UNL A   1      41.745  25.725  28.868  1.00  0.00    -0.248 NA
ATOM     40  C   UNL A   1      39.731  25.482  27.795  1.00  0.00     0.031 C 
ATOM     41  C   UNL A   1      42.727  28.372  29.046  1.00  0.00     0.029 A 
ATOM     42  N   UNL A   1      41.210  29.685  30.079  1.00  0.00    -0.354 N 
ATOM     43  C   UNL A   1      41.815  24.559  28.142  1.00  0.00     0.074 A 
ATOM     44  C   UNL A   1      40.502  24.420  27.557  1.00  0.00     0.031 C 
ATOM     45  C   UNL A   1      43.393  29.121  29.936  1.00  0.00     0.029 A 
ATOM     46  C   UNL A   1      42.412  29.729  30.816  1.00  0.00     0.049 A 
ATOM     47  H   UNL A   1      40.459  30.319  30.138  1.00  0.00     0.167 HD
ATOM     48  C   UNL A   1      43.013  23.916  28.015  1.00  0.00     0.034 A 
ATOM     49  C   UNL A   1      42.399  29.657  32.179  1.00  0.00     0.034 A 
ATOM     50  C   UNL A   1      44.045  24.497  28.884  1.00  0.00     0.049 A 
ATOM     51  C   UNL A   1      43.137  28.464  32.746  1.00  0.00     0.074 A 
ATOM     52  C   UNL A   1      45.148  25.311  28.687  1.00  0.00     0.029 A 
ATOM     53  N   UNL A   1      43.864  24.438  30.257  1.00  0.00    -0.354 N 
ATOM     54  N   UNL A   1      43.743  27.555  32.032  1.00  0.00    -0.248 NA
ATOM     55  C   UNL A   1      43.152  28.148  34.176  1.00  0.00     0.031 C 
ATOM     56  C   UNL A   1      45.597  25.771  29.963  1.00  0.00     0.029 A 
ATOM     57  C   UNL A   1      44.778  25.223  30.933  1.00  0.00     0.049 A 
ATOM     58  H   UNL A   1      43.167  23.901  30.698  1.00  0.00     0.167 HD
ATOM     59  C   UNL A   1      44.122  26.521  32.847  1.00  0.00     0.074 A 
ATOM     60  C   UNL A   1      43.743  26.943  34.183  1.00  0.00     0.031 C 
ATOM     61  C   UNL A   1      44.660  25.357  32.378  1.00  0.00     0.034 A 
BRANCH  48  62
ATOM     62  C   UNL A   1      43.322  22.925  26.907  1.00  0.00     0.023 A 
ATOM     63  C   UNL A   1      42.800  21.616  26.993  1.00  0.00     0.031 A 
ATOM     64  C   UNL A   1      44.154  23.157  25.794  1.00  0.00     0.131 A 
ATOM     65  C   UNL A   1      43.194  20.604  26.095  1.00  0.00     0.055 A 
ATOM     66  C   UNL A   1      44.603  22.139  24.943  1.00  0.00     0.041 A 
ATOM     67  F   UNL A   1      44.517  24.390  25.424  1.00  0.00    -0.206 F 
ATOM     68  C   UNL A   1      44.133  20.847  25.099  1.00  0.00     0.022 A 
BRANCH  65  69
ATOM     69  S   UNL A   1      42.448  18.957  26.235  1.00  0.00     0.124 S 
ATOM     70  O   UNL A   1      42.580  18.676  27.659  1.00  0.00    -0.237 OA
ATOM     71  O   UNL A   1      41.095  19.192  25.742  1.00  0.00    -0.237 OA
ATOM     72  O   UNL A   1      43.285  18.132  25.363  1.00  0.00    -0.744 OA
ENDBRANCH  65  69
ENDBRANCH  48  62
BRANCH  49  73
ATOM     73  C   UNL A   1      41.197  30.306  32.782  1.00  0.00     0.023 A 
ATOM     74  C   UNL A   1      41.156  31.715  32.751  1.00  0.00     0.031 A 
ATOM     75  C   UNL A   1      39.998  29.620  33.011  1.00  0.00     0.131 A 
ATOM     76  C   UNL A   1      39.925  32.382  32.748  1.00  0.00     0.055 A 
ATOM     77  C   UNL A   1      38.778  30.301  33.110  1.00  0.00     0.041 A 
ATOM     78  F   UNL A   1      39.960  28.280  33.011  1.00  0.00    -0.206 F 
ATOM     79  C   UNL A   1      38.732  31.682  32.927  1.00  0.00     0.022 A 
BRANCH  76  80
ATOM     80  S   UNL A   1      39.877  34.107  32.194  1.00  0.00     0.124 S 
ATOM     81  O   UNL A   1      38.445  34.378  32.158  1.00  0.00    -0.237 OA
ATOM     82  O   UNL A   1      40.634  34.807  33.232  1.00  0.00    -0.237 OA
ATOM     83  O   UNL A   1      40.549  34.069  30.898  1.00  0.00    -0.744 OA
ENDBRANCH  76  80
ENDBRANCH  49  73
BRANCH  61  84
ATOM     84  C   UNL A   1      45.069  24.241  33.300  1.00  0.00     0.023 A 
ATOM     85  C   UNL A   1      46.321  24.239  33.936  1.00  0.00     0.031 A 
ATOM     86  C   UNL A   1      44.241  23.123  33.530  1.00  0.00     0.131 A 
ATOM     87  C   UNL A   1      46.675  23.204  34.819  1.00  0.00     0.055 A 
ATOM     88  C   UNL A   1      44.632  22.053  34.339  1.00  0.00     0.041 A 
ATOM     89  F   UNL A   1      43.002  23.049  33.021  1.00  0.00    -0.206 F 
ATOM     90  C   UNL A   1      45.851  22.095  35.002  1.00  0.00     0.022 A 
BRANCH  87  91
ATOM     91  S   UNL A   1      48.189  23.381  35.797  1.00  0.00     0.124 S 
ATOM     92  O   UNL A   1      48.578  21.997  36.042  1.00  0.00    -0.237 OA
ATOM     93  O   UNL A   1      49.046  24.130  34.881  1.00  0.00    -0.237 OA
ATOM     94  O   UNL A   1      47.752  24.122  36.979  1.00  0.00    -0.744 OA
ENDBRANCH  87  91
ENDBRANCH  61  84
ENDBRANCH  35  36
ENDBRANCH  27  30
ENDBRANCH  25  26
ENDBRANCH   1  25
TORSDOF 17
ENDMDL
MODEL 3
REMARK VINA RESULT:     -11.9      4.175     10.409
REMARK SMILES Cc1cccc(CS[C@@H]2CC[C@]([NH3+])(C(=O)NCCCNC(=O)c3ccc(-c4c5nc(c(-c6cc(S(=O)(=O)[O-])ccc6F)c6ccc([nH]6)c(-c6cc(S(=O)(=O)[O-])ccc6F)c6nc(c(-c7cc(S(=O)(=O)[O-])ccc7F)c7ccc4[nH]7)C=C6)C=C5)cc3)C2)c1
REMARK SMILES IDX 18 1 17 2 16 3 14 4 15 5 12 7 9 8 10 9 86 10 11 11 8 12 7 13
REMARK SMILES IDX 6 14 1 15 2 16 3 17 87 18 4 19 5 20 13 21 19 25 20 26 21 27
REMARK SMILES IDX 22 29 23 30 24 31 85 32 25 33 84 34 26 35 27 36 28 37 78 38
REMARK SMILES IDX 29 39 83 40 77 41 79 42 30 43 82 44 76 45 75 46 31 48 63 49
REMARK SMILES IDX 43 50 62 51 44 52 47 53 61 54 80 55 45 56 46 57 60 59 81 60
REMARK SMILES IDX 48 61 32 62 33 63 41 64 34 65 40 66 42 67 39 68 35 69 36 70
REMARK SMILES IDX 37 71 38 72 64 73 65 74 73 75 66 76 72 77 74 78 71 79 67 80
REMARK SMILES IDX 68 81 69 82 70 83 49 84 50 85 58 86 51 87 57 88 59 89 56 90
REMARK SMILES IDX 52 91 53 92 54 93 55 94
REMARK H PARENT 16 6 13 22 13 23 13 24 20 28 79 47 47 58
REMARK Flexibility Score: inf
ROOT
ATOM      1  C   UNL A   1      32.752  30.275  26.179  1.00  0.00     0.042 C 
ENDROOT
BRANCH   1   2
ATOM      2  C   UNL A   1      32.356  29.070  25.342  1.00  0.00     0.118 C 
BRANCH   2   3
ATOM      3  N   UNL A   1      31.476  28.164  26.059  1.00  0.00    -0.351 N 
ATOM      4  C   UNL A   1      31.452  26.808  26.146  1.00  0.00     0.281 C 
ATOM      5  O   UNL A   1      30.513  26.291  26.769  1.00  0.00    -0.268 OA
ATOM      6  H   UNL A   1      30.770  28.614  26.577  1.00  0.00     0.163 HD
BRANCH   4   7
ATOM      7  C   UNL A   1      32.479  25.894  25.404  1.00  0.00     0.175 C 
ATOM      8  C   UNL A   1      33.605  23.718  25.609  1.00  0.00     0.054 C 
ATOM      9  C   UNL A   1      34.671  24.799  25.490  1.00  0.00     0.022 C 
ATOM     10  C   UNL A   1      32.286  24.433  25.900  1.00  0.00     0.093 C 
ATOM     11  C   UNL A   1      33.957  26.122  25.732  1.00  0.00     0.080 C 
BRANCH   8  12
ATOM     12  S   UNL A   1      34.095  22.309  26.677  1.00  0.00    -0.154 SA
BRANCH  12  13
ATOM     13  C   UNL A   1      34.972  21.173  25.549  1.00  0.00     0.105 C 
BRANCH  13  14
ATOM     14  C   UNL A   1      34.122  20.239  24.729  1.00  0.00    -0.038 A 
ATOM     15  C   UNL A   1      34.104  16.544  23.764  1.00  0.00     0.044 C 
ATOM     16  C   UNL A   1      33.696  17.983  23.899  1.00  0.00    -0.051 A 
ATOM     17  C   UNL A   1      32.564  18.449  23.225  1.00  0.00     0.003 A 
ATOM     18  C   UNL A   1      34.465  18.879  24.650  1.00  0.00     0.008 A 
ATOM     19  C   UNL A   1      32.194  19.789  23.317  1.00  0.00     0.001 A 
ATOM     20  C   UNL A   1      32.960  20.676  24.075  1.00  0.00     0.004 A 
ENDBRANCH  13  14
ENDBRANCH  12  13
ENDBRANCH   8  12
BRANCH   7  21
ATOM     21  N   UNL A   1      32.247  25.994  23.943  1.00  0.00    -0.345 N 
ATOM     22  H   UNL A   1      31.253  25.873  23.748  1.00  0.00     0.345 HD
ATOM     23  H   UNL A   1      32.779  25.269  23.463  1.00  0.00     0.345 HD
ATOM     24  H   UNL A   1      32.548  26.911  23.613  1.00  0.00     0.345 HD
ENDBRANCH   7  21
ENDBRANCH   4   7
ENDBRANCH   2   3
ENDBRANCH   1   2
BRANCH   1  25
ATOM     25  C   UNL A   1      33.636  29.886  27.357  1.00  0.00     0.118 C 
BRANCH  25  26
ATOM     26  N   UNL A   1      34.109  31.030  28.128  1.00  0.00    -0.352 N 
ATOM     27  C   UNL A   1      35.325  31.171  28.814  1.00  0.00     0.251 C 
ATOM     28  H   UNL A   1      33.496  31.800  28.174  1.00  0.00     0.163 HD
ATOM     29  O   UNL A   1      35.625  32.168  29.422  1.00  0.00    -0.269 OA
BRANCH  27  30
ATOM     30  C   UNL A   1      36.284  30.055  28.668  1.00  0.00     0.039 A 
ATOM     31  C   UNL A   1      36.511  29.275  29.804  1.00  0.00     0.014 A 
ATOM     32  C   UNL A   1      37.169  30.058  27.599  1.00  0.00     0.014 A 
ATOM     33  C   UNL A   1      37.765  28.698  29.978  1.00  0.00     0.010 A 
ATOM     34  C   UNL A   1      38.446  29.575  27.820  1.00  0.00     0.010 A 
ATOM     35  C   UNL A   1      38.766  28.965  29.042  1.00  0.00    -0.014 A 
BRANCH  35  36
ATOM     36  C   UNL A   1      40.187  28.802  29.355  1.00  0.00     0.031 A 
ATOM     37  C   UNL A   1      40.916  27.583  28.951  1.00  0.00     0.074 A 
ATOM     38  C   UNL A   1      40.862  29.776  30.005  1.00  0.00     0.049 A 
ATOM     39  N   UNL A   1      41.997  27.152  29.512  1.00  0.00    -0.248 NA
ATOM     40  C   UNL A   1      40.430  26.705  27.897  1.00  0.00     0.031 C 
ATOM     41  C   UNL A   1      42.305  29.879  30.198  1.00  0.00     0.029 A 
ATOM     42  N   UNL A   1      40.327  30.727  30.876  1.00  0.00    -0.354 N 
ATOM     43  C   UNL A   1      42.502  26.137  28.732  1.00  0.00     0.074 A 
ATOM     44  C   UNL A   1      41.446  25.848  27.791  1.00  0.00     0.031 C 
ATOM     45  C   UNL A   1      42.541  30.598  31.305  1.00  0.00     0.029 A 
ATOM     46  C   UNL A   1      41.260  30.882  31.923  1.00  0.00     0.049 A 
ATOM     47  H   UNL A   1      39.468  31.198  30.778  1.00  0.00     0.167 HD
ATOM     48  C   UNL A   1      43.802  25.750  28.891  1.00  0.00     0.034 A 
ATOM     49  C   UNL A   1      40.912  30.611  33.214  1.00  0.00     0.034 A 
ATOM     50  C   UNL A   1      44.424  26.375  30.065  1.00  0.00     0.049 A 
ATOM     51  C   UNL A   1      41.717  29.502  33.857  1.00  0.00     0.074 A 
ATOM     52  C   UNL A   1      45.338  27.397  30.263  1.00  0.00     0.029 A 
ATOM     53  N   UNL A   1      43.912  26.084  31.320  1.00  0.00    -0.354 N 
ATOM     54  N   UNL A   1      42.668  28.834  33.263  1.00  0.00    -0.248 NA
ATOM     55  C   UNL A   1      41.431  28.989  35.198  1.00  0.00     0.031 C 
ATOM     56  C   UNL A   1      45.333  27.740  31.649  1.00  0.00     0.029 A 
ATOM     57  C   UNL A   1      44.429  26.916  32.295  1.00  0.00     0.049 A 
ATOM     58  H   UNL A   1      43.258  25.371  31.496  1.00  0.00     0.167 HD
ATOM     59  C   UNL A   1      43.037  27.778  34.055  1.00  0.00     0.074 A 
ATOM     60  C   UNL A   1      42.245  27.924  35.262  1.00  0.00     0.031 C 
ATOM     61  C   UNL A   1      43.916  26.813  33.654  1.00  0.00     0.034 A 
BRANCH  48  62
ATOM     62  C   UNL A   1      44.592  25.004  27.831  1.00  0.00     0.023 A 
ATOM     63  C   UNL A   1      45.456  25.728  26.982  1.00  0.00     0.031 A 
ATOM     64  C   UNL A   1      44.506  23.626  27.550  1.00  0.00     0.131 A 
ATOM     65  C   UNL A   1      46.076  25.124  25.871  1.00  0.00     0.055 A 
ATOM     66  C   UNL A   1      45.063  23.038  26.406  1.00  0.00     0.041 A 
ATOM     67  F   UNL A   1      43.945  22.760  28.401  1.00  0.00    -0.206 F 
ATOM     68  C   UNL A   1      45.844  23.792  25.549  1.00  0.00     0.022 A 
BRANCH  65  69
ATOM     69  S   UNL A   1      47.211  26.103  24.851  1.00  0.00     0.124 S 
ATOM     70  O   UNL A   1      48.176  26.583  25.832  1.00  0.00    -0.237 OA
ATOM     71  O   UNL A   1      47.695  25.112  23.895  1.00  0.00    -0.237 OA
ATOM     72  O   UNL A   1      46.346  27.136  24.279  1.00  0.00    -0.744 OA
ENDBRANCH  65  69
ENDBRANCH  48  62
BRANCH  49  73
ATOM     73  C   UNL A   1      39.484  30.934  33.510  1.00  0.00     0.023 A 
ATOM     74  C   UNL A   1      39.172  32.294  33.714  1.00  0.00     0.031 A 
ATOM     75  C   UNL A   1      38.431  30.055  33.225  1.00  0.00     0.131 A 
ATOM     76  C   UNL A   1      37.884  32.768  33.437  1.00  0.00     0.055 A 
ATOM     77  C   UNL A   1      37.122  30.522  33.050  1.00  0.00     0.041 A 
ATOM     78  F   UNL A   1      38.664  28.758  32.979  1.00  0.00    -0.206 F 
ATOM     79  C   UNL A   1      36.854  31.889  33.105  1.00  0.00     0.022 A 
BRANCH  76  80
ATOM     80  S   UNL A   1      37.649  34.551  33.207  1.00  0.00     0.124 S 
ATOM     81  O   UNL A   1      38.041  34.734  31.815  1.00  0.00    -0.237 OA
ATOM     82  O   UNL A   1      36.228  34.736  33.501  1.00  0.00    -0.237 OA
ATOM     83  O   UNL A   1      38.539  35.144  34.201  1.00  0.00    -0.744 OA
ENDBRANCH  76  80
ENDBRANCH  49  73
BRANCH  61  84
ATOM     84  C   UNL A   1      44.304  25.669  34.549  1.00  0.00     0.023 A 
ATOM     85  C   UNL A   1      45.612  25.536  35.044  1.00  0.00     0.031 A 
ATOM     86  C   UNL A   1      43.393  24.648  34.892  1.00  0.00     0.131 A 
ATOM     87  C   UNL A   1      45.949  24.478  35.904  1.00  0.00     0.055 A 
ATOM     88  C   UNL A   1      43.755  23.550  35.676  1.00  0.00     0.041 A 
ATOM     89  F   UNL A   1      42.104  24.704  34.523  1.00  0.00    -0.206 F 
ATOM     90  C   UNL A   1      45.038  23.466  36.200  1.00  0.00     0.022 A 
BRANCH  87  91
ATOM     91  S   UNL A   1      47.573  24.498  36.706  1.00  0.00     0.124 S 
ATOM     92  O   UNL A   1      48.081  23.157  36.440  1.00  0.00    -0.237 OA
ATOM     93  O   UNL A   1      48.241  25.584  35.992  1.00  0.00    -0.237 OA
ATOM     94  O   UNL A   1      47.263  24.779  38.107  1.00  0.00    -0.744 OA
ENDBRANCH  87  91
ENDBRANCH  61  84
ENDBRANCH  35  36
ENDBRANCH  27  30
ENDBRANCH  25  26
ENDBRANCH   1  25
TORSDOF 17
ENDMDL
