MODEL 1
REMARK VINA RESULT:     -11.5      0.000      0.000
REMARK SMILES O=C(CCCCc1nc(-c2ccccc2)no1)NCCCNC(=O)c1ccc(-c2c3nc(c(-c4cc(S(=O)(=O)[O-])ccc4F)c4ccc([nH]4)c(-c4cc(S(=O)(=O)[O-])ccc4F)c4nc(c(-c5cc(S(=O)(=O)[O-])ccc5F)c5ccc2[nH]5)C=C4)C=C3)cc1
REMARK SMILES IDX 19 1 18 2 1 3 2 4 3 6 4 7 5 8 6 9 7 10 8 11 17 12 9 13 16 14
REMARK SMILES IDX 10 15 11 16 15 17 12 18 14 19 13 20 20 21 21 22 22 23 23 24
REMARK SMILES IDX 24 26 25 27 26 28 87 29 27 30 86 31 28 32 29 33 30 34 80 35
REMARK SMILES IDX 31 36 85 37 79 38 81 39 32 40 84 41 78 42 77 43 33 45 65 46
REMARK SMILES IDX 45 47 64 48 46 49 49 50 63 51 82 52 47 53 48 54 62 56 83 57
REMARK SMILES IDX 50 58 34 59 35 60 43 61 36 62 42 63 44 64 41 65 37 66 38 67
REMARK SMILES IDX 39 68 40 69 66 70 67 71 75 72 68 73 74 74 76 75 73 76 69 77
REMARK SMILES IDX 70 78 71 79 72 80 51 81 52 82 60 83 53 84 59 85 61 86 58 87
REMARK SMILES IDX 54 88 55 89 56 90 57 91
REMARK H PARENT 18 5 22 25 81 44 49 55
REMARK Flexibility Score: inf
ROOT
ATOM      1  C   UNL A   1      35.118  23.489  25.987  1.00  0.00     0.117 C 
ENDROOT
BRANCH   1   2
ATOM      2  N   UNL A   1      34.484  24.033  24.804  1.00  0.00    -0.356 N 
ATOM      3  O   UNL A   1      34.011  26.097  25.700  1.00  0.00    -0.275 OA
ATOM      4  C   UNL A   1      34.023  25.328  24.746  1.00  0.00     0.219 C 
ATOM      5  H   UNL A   1      34.381  23.456  24.012  1.00  0.00     0.163 HD
BRANCH   4   6
ATOM      6  C   UNL A   1      33.586  25.751  23.359  1.00  0.00     0.100 C 
BRANCH   6   7
ATOM      7  C   UNL A   1      32.077  25.996  23.308  1.00  0.00     0.010 C 
BRANCH   7   8
ATOM      8  C   UNL A   1      31.212  25.036  24.144  1.00  0.00     0.010 C 
BRANCH   8   9
ATOM      9  C   UNL A   1      30.808  23.730  23.445  1.00  0.00     0.100 C 
BRANCH   9  10
ATOM     10  C   UNL A   1      31.610  22.591  23.941  1.00  0.00     0.226 A 
ATOM     11  N   UNL A   1      32.148  21.603  23.268  1.00  0.00    -0.191 NA
ATOM     12  O   UNL A   1      31.707  22.444  25.291  1.00  0.00    -0.339 OA
ATOM     13  C   UNL A   1      32.555  20.753  24.270  1.00  0.00     0.202 A 
ATOM     14  N   UNL A   1      32.322  21.213  25.510  1.00  0.00    -0.057 NA
BRANCH  13  15
ATOM     15  C   UNL A   1      33.098  19.438  23.978  1.00  0.00     0.023 A 
ATOM     16  C   UNL A   1      34.256  18.986  24.624  1.00  0.00     0.012 A 
ATOM     17  C   UNL A   1      32.437  18.586  23.082  1.00  0.00     0.012 A 
ATOM     18  C   UNL A   1      34.740  17.698  24.387  1.00  0.00     0.001 A 
ATOM     19  C   UNL A   1      32.930  17.304  22.834  1.00  0.00     0.001 A 
ATOM     20  C   UNL A   1      34.078  16.860  23.490  1.00  0.00     0.000 A 
ENDBRANCH  13  15
ENDBRANCH   9  10
ENDBRANCH   8   9
ENDBRANCH   7   8
ENDBRANCH   6   7
ENDBRANCH   4   6
ENDBRANCH   1   2
BRANCH   1  21
ATOM     21  C   UNL A   1      35.738  22.120  25.740  1.00  0.00     0.042 C 
BRANCH  21  22
ATOM     22  C   UNL A   1      37.090  22.141  25.035  1.00  0.00     0.118 C 
BRANCH  22  23
ATOM     23  N   UNL A   1      37.941  21.008  25.368  1.00  0.00    -0.352 N 
ATOM     24  C   UNL A   1      39.149  21.003  26.028  1.00  0.00     0.251 C 
ATOM     25  H   UNL A   1      37.607  20.127  25.082  1.00  0.00     0.163 HD
ATOM     26  O   UNL A   1      39.792  19.961  26.123  1.00  0.00    -0.269 OA
BRANCH  24  27
ATOM     27  C   UNL A   1      39.686  22.267  26.583  1.00  0.00     0.039 A 
ATOM     28  C   UNL A   1      40.699  22.210  27.543  1.00  0.00     0.014 A 
ATOM     29  C   UNL A   1      39.222  23.501  26.121  1.00  0.00     0.014 A 
ATOM     30  C   UNL A   1      41.314  23.391  27.971  1.00  0.00     0.010 A 
ATOM     31  C   UNL A   1      39.879  24.670  26.501  1.00  0.00     0.010 A 
ATOM     32  C   UNL A   1      40.944  24.626  27.416  1.00  0.00    -0.014 A 
BRANCH  32  33
ATOM     33  C   UNL A   1      41.664  25.885  27.750  1.00  0.00     0.031 A 
ATOM     34  C   UNL A   1      40.960  26.974  28.510  1.00  0.00     0.074 A 
ATOM     35  C   UNL A   1      42.911  26.090  27.278  1.00  0.00     0.049 A 
ATOM     36  N   UNL A   1      41.344  28.201  28.748  1.00  0.00    -0.248 NA
ATOM     37  C   UNL A   1      39.631  26.642  29.046  1.00  0.00     0.031 C 
ATOM     38  C   UNL A   1      43.694  25.122  26.506  1.00  0.00     0.029 A 
ATOM     39  N   UNL A   1      43.731  27.189  27.358  1.00  0.00    -0.354 N 
ATOM     40  C   UNL A   1      40.296  28.798  29.442  1.00  0.00     0.074 A 
ATOM     41  C   UNL A   1      39.244  27.808  29.542  1.00  0.00     0.031 C 
ATOM     42  C   UNL A   1      44.879  25.668  26.190  1.00  0.00     0.029 A 
ATOM     43  C   UNL A   1      44.923  27.039  26.687  1.00  0.00     0.049 A 
ATOM     44  H   UNL A   1      43.488  28.007  27.849  1.00  0.00     0.167 HD
ATOM     45  C   UNL A   1      40.226  30.050  29.960  1.00  0.00     0.034 A 
ATOM     46  C   UNL A   1      45.926  27.914  26.471  1.00  0.00     0.034 A 
ATOM     47  C   UNL A   1      41.289  31.020  29.867  1.00  0.00     0.049 A 
ATOM     48  C   UNL A   1      45.816  29.309  27.032  1.00  0.00     0.074 A 
ATOM     49  C   UNL A   1      41.341  32.298  30.399  1.00  0.00     0.029 A 
ATOM     50  N   UNL A   1      42.489  30.824  29.195  1.00  0.00    -0.354 N 
ATOM     51  N   UNL A   1      44.829  29.850  27.707  1.00  0.00    -0.248 NA
ATOM     52  C   UNL A   1      46.955  30.210  26.805  1.00  0.00     0.031 C 
ATOM     53  C   UNL A   1      42.542  32.894  29.999  1.00  0.00     0.029 A 
ATOM     54  C   UNL A   1      43.274  31.964  29.278  1.00  0.00     0.049 A 
ATOM     55  H   UNL A   1      42.745  29.996  28.728  1.00  0.00     0.167 HD
ATOM     56  C   UNL A   1      45.246  31.142  28.019  1.00  0.00     0.074 A 
ATOM     57  C   UNL A   1      46.572  31.298  27.457  1.00  0.00     0.031 C 
ATOM     58  C   UNL A   1      44.595  32.107  28.716  1.00  0.00     0.034 A 
BRANCH  45  59
ATOM     59  C   UNL A   1      38.939  30.444  30.644  1.00  0.00     0.023 A 
ATOM     60  C   UNL A   1      37.892  31.067  29.944  1.00  0.00     0.031 A 
ATOM     61  C   UNL A   1      38.767  30.220  32.022  1.00  0.00     0.131 A 
ATOM     62  C   UNL A   1      36.757  31.516  30.635  1.00  0.00     0.055 A 
ATOM     63  C   UNL A   1      37.598  30.594  32.688  1.00  0.00     0.041 A 
ATOM     64  F   UNL A   1      39.740  29.647  32.748  1.00  0.00    -0.206 F 
ATOM     65  C   UNL A   1      36.591  31.261  31.998  1.00  0.00     0.022 A 
BRANCH  62  66
ATOM     66  S   UNL A   1      35.570  32.568  29.755  1.00  0.00     0.124 S 
ATOM     67  O   UNL A   1      36.301  33.831  29.675  1.00  0.00    -0.237 OA
ATOM     68  O   UNL A   1      35.388  31.854  28.497  1.00  0.00    -0.237 OA
ATOM     69  O   UNL A   1      34.406  32.585  30.639  1.00  0.00    -0.744 OA
ENDBRANCH  62  66
ENDBRANCH  45  59
BRANCH  46  70
ATOM     70  C   UNL A   1      47.118  27.511  25.670  1.00  0.00     0.023 A 
ATOM     71  C   UNL A   1      47.223  27.853  24.313  1.00  0.00     0.031 A 
ATOM     72  C   UNL A   1      48.151  26.747  26.241  1.00  0.00     0.131 A 
ATOM     73  C   UNL A   1      48.315  27.394  23.560  1.00  0.00     0.055 A 
ATOM     74  C   UNL A   1      49.259  26.335  25.499  1.00  0.00     0.041 A 
ATOM     75  F   UNL A   1      48.100  26.399  27.537  1.00  0.00    -0.206 F 
ATOM     76  C   UNL A   1      49.340  26.648  24.146  1.00  0.00     0.022 A 
BRANCH  73  77
ATOM     77  S   UNL A   1      48.337  27.723  21.776  1.00  0.00     0.124 S 
ATOM     78  O   UNL A   1      48.625  26.400  21.234  1.00  0.00    -0.237 OA
ATOM     79  O   UNL A   1      46.990  28.233  21.546  1.00  0.00    -0.237 OA
ATOM     80  O   UNL A   1      49.408  28.707  21.626  1.00  0.00    -0.744 OA
ENDBRANCH  73  77
ENDBRANCH  46  70
BRANCH  58  81
ATOM     81  C   UNL A   1      45.338  33.394  28.969  1.00  0.00     0.023 A 
ATOM     82  C   UNL A   1      45.418  34.410  28.001  1.00  0.00     0.031 A 
ATOM     83  C   UNL A   1      45.964  33.607  30.211  1.00  0.00     0.131 A 
ATOM     84  C   UNL A   1      46.143  35.580  28.279  1.00  0.00     0.055 A 
ATOM     85  C   UNL A   1      46.642  34.791  30.498  1.00  0.00     0.041 A 
ATOM     86  F   UNL A   1      45.917  32.667  31.168  1.00  0.00    -0.206 F 
ATOM     87  C   UNL A   1      46.741  35.783  29.526  1.00  0.00     0.022 A 
BRANCH  84  88
ATOM     88  S   UNL A   1      46.343  36.816  26.967  1.00  0.00     0.124 S 
ATOM     89  O   UNL A   1      47.647  37.389  27.286  1.00  0.00    -0.237 OA
ATOM     90  O   UNL A   1      46.285  36.002  25.757  1.00  0.00    -0.237 OA
ATOM     91  O   UNL A   1      45.206  37.713  27.164  1.00  0.00    -0.744 OA
ENDBRANCH  84  88
ENDBRANCH  58  81
ENDBRANCH  32  33
ENDBRANCH  24  27
ENDBRANCH  22  23
ENDBRANCH  21  22
ENDBRANCH   1  21
TORSDOF 18
ENDMDL
MODEL 2
REMARK VINA RESULT:     -11.4      6.188      9.399
REMARK SMILES O=C(CCCCc1nc(-c2ccccc2)no1)NCCCNC(=O)c1ccc(-c2c3nc(c(-c4cc(S(=O)(=O)[O-])ccc4F)c4ccc([nH]4)c(-c4cc(S(=O)(=O)[O-])ccc4F)c4nc(c(-c5cc(S(=O)(=O)[O-])ccc5F)c5ccc2[nH]5)C=C4)C=C3)cc1
REMARK SMILES IDX 19 1 18 2 1 3 2 4 3 6 4 7 5 8 6 9 7 10 8 11 17 12 9 13 16 14
REMARK SMILES IDX 10 15 11 16 15 17 12 18 14 19 13 20 20 21 21 22 22 23 23 24
REMARK SMILES IDX 24 26 25 27 26 28 87 29 27 30 86 31 28 32 29 33 30 34 80 35
REMARK SMILES IDX 31 36 85 37 79 38 81 39 32 40 84 41 78 42 77 43 33 45 65 46
REMARK SMILES IDX 45 47 64 48 46 49 49 50 63 51 82 52 47 53 48 54 62 56 83 57
REMARK SMILES IDX 50 58 34 59 35 60 43 61 36 62 42 63 44 64 41 65 37 66 38 67
REMARK SMILES IDX 39 68 40 69 66 70 67 71 75 72 68 73 74 74 76 75 73 76 69 77
REMARK SMILES IDX 70 78 71 79 72 80 51 81 52 82 60 83 53 84 59 85 61 86 58 87
REMARK SMILES IDX 54 88 55 89 56 90 57 91
REMARK H PARENT 18 5 22 25 81 44 49 55
REMARK Flexibility Score: inf
ROOT
ATOM      1  C   UNL A   1      31.715  30.183  26.338  1.00  0.00     0.117 C 
ENDROOT
BRANCH   1   2
ATOM      2  N   UNL A   1      32.306  29.814  25.068  1.00  0.00    -0.356 N 
ATOM      3  O   UNL A   1      34.197  28.844  25.945  1.00  0.00    -0.275 OA
ATOM      4  C   UNL A   1      33.491  29.120  24.983  1.00  0.00     0.219 C 
ATOM      5  H   UNL A   1      31.842  30.067  24.237  1.00  0.00     0.163 HD
BRANCH   4   6
ATOM      6  C   UNL A   1      33.821  28.661  23.578  1.00  0.00     0.100 C 
BRANCH   6   7
ATOM      7  C   UNL A   1      33.757  27.137  23.467  1.00  0.00     0.010 C 
BRANCH   7   8
ATOM      8  C   UNL A   1      33.235  26.583  22.129  1.00  0.00     0.010 C 
BRANCH   8   9
ATOM      9  C   UNL A   1      31.791  26.066  22.144  1.00  0.00     0.100 C 
BRANCH   9  10
ATOM     10  C   UNL A   1      30.851  27.120  22.583  1.00  0.00     0.226 A 
ATOM     11  N   UNL A   1      30.364  28.129  21.903  1.00  0.00    -0.191 NA
ATOM     12  O   UNL A   1      30.538  27.156  23.908  1.00  0.00    -0.339 OA
ATOM     13  C   UNL A   1      29.754  28.876  22.884  1.00  0.00     0.202 A 
ATOM     14  N   UNL A   1      29.820  28.333  24.111  1.00  0.00    -0.057 NA
BRANCH  13  15
ATOM     15  C   UNL A   1      29.181  30.180  22.601  1.00  0.00     0.023 A 
ATOM     16  C   UNL A   1      29.035  31.130  23.621  1.00  0.00     0.012 A 
ATOM     17  C   UNL A   1      28.815  30.519  21.291  1.00  0.00     0.012 A 
ATOM     18  C   UNL A   1      28.541  32.404  23.333  1.00  0.00     0.001 A 
ATOM     19  C   UNL A   1      28.306  31.788  21.007  1.00  0.00     0.001 A 
ATOM     20  C   UNL A   1      28.174  32.731  22.027  1.00  0.00     0.000 A 
ENDBRANCH  13  15
ENDBRANCH   9  10
ENDBRANCH   8   9
ENDBRANCH   7   8
ENDBRANCH   6   7
ENDBRANCH   4   6
ENDBRANCH   1   2
BRANCH   1  21
ATOM     21  C   UNL A   1      31.629  31.692  26.524  1.00  0.00     0.042 C 
BRANCH  21  22
ATOM     22  C   UNL A   1      32.834  32.328  27.210  1.00  0.00     0.118 C 
BRANCH  22  23
ATOM     23  N   UNL A   1      32.640  33.728  27.555  1.00  0.00    -0.352 N 
ATOM     24  C   UNL A   1      33.284  34.475  28.516  1.00  0.00     0.251 C 
ATOM     25  H   UNL A   1      31.958  34.205  27.029  1.00  0.00     0.163 HD
ATOM     26  O   UNL A   1      32.912  35.622  28.751  1.00  0.00    -0.269 OA
BRANCH  24  27
ATOM     27  C   UNL A   1      34.393  33.874  29.290  1.00  0.00     0.039 A 
ATOM     28  C   UNL A   1      34.095  32.972  30.313  1.00  0.00     0.014 A 
ATOM     29  C   UNL A   1      35.722  34.165  28.974  1.00  0.00     0.014 A 
ATOM     30  C   UNL A   1      35.131  32.288  30.958  1.00  0.00     0.010 A 
ATOM     31  C   UNL A   1      36.748  33.436  29.572  1.00  0.00     0.010 A 
ATOM     32  C   UNL A   1      36.463  32.477  30.557  1.00  0.00    -0.014 A 
BRANCH  32  33
ATOM     33  C   UNL A   1      37.576  31.671  31.129  1.00  0.00     0.031 A 
ATOM     34  C   UNL A   1      38.112  31.995  32.496  1.00  0.00     0.074 A 
ATOM     35  C   UNL A   1      38.173  30.723  30.378  1.00  0.00     0.049 A 
ATOM     36  N   UNL A   1      39.178  31.536  33.099  1.00  0.00    -0.248 NA
ATOM     37  C   UNL A   1      37.361  32.993  33.272  1.00  0.00     0.031 C 
ATOM     38  C   UNL A   1      37.764  30.332  29.027  1.00  0.00     0.029 A 
ATOM     39  N   UNL A   1      39.266  29.932  30.634  1.00  0.00    -0.354 N 
ATOM     40  C   UNL A   1      39.241  32.205  34.317  1.00  0.00     0.074 A 
ATOM     41  C   UNL A   1      38.131  33.134  34.341  1.00  0.00     0.031 C 
ATOM     42  C   UNL A   1      38.591  29.373  28.578  1.00  0.00     0.029 A 
ATOM     43  C   UNL A   1      39.618  29.118  29.581  1.00  0.00     0.049 A 
ATOM     44  H   UNL A   1      39.752  29.946  31.490  1.00  0.00     0.167 HD
ATOM     45  C   UNL A   1      40.134  32.046  35.326  1.00  0.00     0.034 A 
ATOM     46  C   UNL A   1      40.665  28.281  29.430  1.00  0.00     0.034 A 
ATOM     47  C   UNL A   1      41.226  31.105  35.295  1.00  0.00     0.049 A 
ATOM     48  C   UNL A   1      41.661  28.141  30.552  1.00  0.00     0.074 A 
ATOM     49  C   UNL A   1      42.157  30.829  36.282  1.00  0.00     0.029 A 
ATOM     50  N   UNL A   1      41.539  30.285  34.218  1.00  0.00    -0.354 N 
ATOM     51  N   UNL A   1      41.692  28.763  31.708  1.00  0.00    -0.248 NA
ATOM     52  C   UNL A   1      42.759  27.185  30.353  1.00  0.00     0.031 C 
ATOM     53  C   UNL A   1      43.066  29.889  35.782  1.00  0.00     0.029 A 
ATOM     54  C   UNL A   1      42.661  29.524  34.508  1.00  0.00     0.049 A 
ATOM     55  H   UNL A   1      41.036  30.249  33.372  1.00  0.00     0.167 HD
ATOM     56  C   UNL A   1      42.792  28.243  32.388  1.00  0.00     0.074 A 
ATOM     57  C   UNL A   1      43.396  27.259  31.513  1.00  0.00     0.031 C 
ATOM     58  C   UNL A   1      43.252  28.544  33.628  1.00  0.00     0.034 A 
BRANCH  45  59
ATOM     59  C   UNL A   1      39.979  32.939  36.534  1.00  0.00     0.023 A 
ATOM     60  C   UNL A   1      39.222  32.544  37.650  1.00  0.00     0.031 A 
ATOM     61  C   UNL A   1      40.573  34.214  36.560  1.00  0.00     0.131 A 
ATOM     62  C   UNL A   1      39.011  33.443  38.707  1.00  0.00     0.055 A 
ATOM     63  C   UNL A   1      40.429  35.071  37.652  1.00  0.00     0.041 A 
ATOM     64  F   UNL A   1      41.291  34.654  35.514  1.00  0.00    -0.206 F 
ATOM     65  C   UNL A   1      39.630  34.695  38.727  1.00  0.00     0.022 A 
BRANCH  62  66
ATOM     66  S   UNL A   1      37.797  33.008  39.981  1.00  0.00     0.124 S 
ATOM     67  O   UNL A   1      36.585  32.829  39.184  1.00  0.00    -0.237 OA
ATOM     68  O   UNL A   1      38.366  31.796  40.559  1.00  0.00    -0.237 OA
ATOM     69  O   UNL A   1      37.788  34.176  40.860  1.00  0.00    -0.744 OA
ENDBRANCH  62  66
ENDBRANCH  45  59
BRANCH  46  70
ATOM     70  C   UNL A   1      40.845  27.523  28.158  1.00  0.00     0.023 A 
ATOM     71  C   UNL A   1      40.537  26.156  28.084  1.00  0.00     0.031 A 
ATOM     72  C   UNL A   1      41.363  28.147  27.010  1.00  0.00     0.131 A 
ATOM     73  C   UNL A   1      40.790  25.446  26.899  1.00  0.00     0.055 A 
ATOM     74  C   UNL A   1      41.568  27.447  25.819  1.00  0.00     0.041 A 
ATOM     75  F   UNL A   1      41.669  29.455  27.027  1.00  0.00    -0.206 F 
ATOM     76  C   UNL A   1      41.291  26.085  25.763  1.00  0.00     0.022 A 
BRANCH  73  77
ATOM     77  S   UNL A   1      40.525  23.652  26.891  1.00  0.00     0.124 S 
ATOM     78  O   UNL A   1      41.511  23.211  25.910  1.00  0.00    -0.237 OA
ATOM     79  O   UNL A   1      40.799  23.299  28.280  1.00  0.00    -0.237 OA
ATOM     80  O   UNL A   1      39.130  23.517  26.479  1.00  0.00    -0.744 OA
ENDBRANCH  73  77
ENDBRANCH  46  70
BRANCH  58  81
ATOM     81  C   UNL A   1      44.428  27.751  34.139  1.00  0.00     0.023 A 
ATOM     82  C   UNL A   1      44.263  26.554  34.856  1.00  0.00     0.031 A 
ATOM     83  C   UNL A   1      45.737  28.202  33.889  1.00  0.00     0.131 A 
ATOM     84  C   UNL A   1      45.391  25.866  35.332  1.00  0.00     0.055 A 
ATOM     85  C   UNL A   1      46.854  27.489  34.322  1.00  0.00     0.041 A 
ATOM     86  F   UNL A   1      45.948  29.341  33.209  1.00  0.00    -0.206 F 
ATOM     87  C   UNL A   1      46.685  26.318  35.055  1.00  0.00     0.022 A 
BRANCH  84  88
ATOM     88  S   UNL A   1      45.147  24.397  36.367  1.00  0.00     0.124 S 
ATOM     89  O   UNL A   1      46.507  23.884  36.491  1.00  0.00    -0.237 OA
ATOM     90  O   UNL A   1      44.566  24.961  37.581  1.00  0.00    -0.237 OA
ATOM     91  O   UNL A   1      44.240  23.566  35.576  1.00  0.00    -0.744 OA
ENDBRANCH  84  88
ENDBRANCH  58  81
ENDBRANCH  32  33
ENDBRANCH  24  27
ENDBRANCH  22  23
ENDBRANCH  21  22
ENDBRANCH   1  21
TORSDOF 18
ENDMDL
MODEL 3
REMARK VINA RESULT:     -11.3      6.122     11.456
REMARK SMILES O=C(CCCCc1nc(-c2ccccc2)no1)NCCCNC(=O)c1ccc(-c2c3nc(c(-c4cc(S(=O)(=O)[O-])ccc4F)c4ccc([nH]4)c(-c4cc(S(=O)(=O)[O-])ccc4F)c4nc(c(-c5cc(S(=O)(=O)[O-])ccc5F)c5ccc2[nH]5)C=C4)C=C3)cc1
REMARK SMILES IDX 19 1 18 2 1 3 2 4 3 6 4 7 5 8 6 9 7 10 8 11 17 12 9 13 16 14
REMARK SMILES IDX 10 15 11 16 15 17 12 18 14 19 13 20 20 21 21 22 22 23 23 24
REMARK SMILES IDX 24 26 25 27 26 28 87 29 27 30 86 31 28 32 29 33 30 34 80 35
REMARK SMILES IDX 31 36 85 37 79 38 81 39 32 40 84 41 78 42 77 43 33 45 65 46
REMARK SMILES IDX 45 47 64 48 46 49 49 50 63 51 82 52 47 53 48 54 62 56 83 57
REMARK SMILES IDX 50 58 34 59 35 60 43 61 36 62 42 63 44 64 41 65 37 66 38 67
REMARK SMILES IDX 39 68 40 69 66 70 67 71 75 72 68 73 74 74 76 75 73 76 69 77
REMARK SMILES IDX 70 78 71 79 72 80 51 81 52 82 60 83 53 84 59 85 61 86 58 87
REMARK SMILES IDX 54 88 55 89 56 90 57 91
REMARK H PARENT 18 5 22 25 81 44 49 55
REMARK Flexibility Score: inf
ROOT
ATOM      1  C   UNL A   1      32.653  29.855  25.841  1.00  0.00     0.117 C 
ENDROOT
BRANCH   1   2
ATOM      2  N   UNL A   1      32.057  28.557  26.082  1.00  0.00    -0.356 N 
ATOM      3  O   UNL A   1      34.037  27.399  26.247  1.00  0.00    -0.275 OA
ATOM      4  C   UNL A   1      32.815  27.432  26.318  1.00  0.00     0.219 C 
ATOM      5  H   UNL A   1      31.076  28.476  26.078  1.00  0.00     0.163 HD
BRANCH   4   6
ATOM      6  C   UNL A   1      31.996  26.232  26.745  1.00  0.00     0.100 C 
BRANCH   6   7
ATOM      7  C   UNL A   1      31.806  25.253  25.586  1.00  0.00     0.010 C 
BRANCH   7   8
ATOM      8  C   UNL A   1      30.376  25.137  25.031  1.00  0.00     0.010 C 
BRANCH   8   9
ATOM      9  C   UNL A   1      30.203  25.528  23.557  1.00  0.00     0.100 C 
BRANCH   9  10
ATOM     10  C   UNL A   1      30.323  26.990  23.376  1.00  0.00     0.226 A 
ATOM     11  N   UNL A   1      29.378  27.895  23.308  1.00  0.00    -0.191 NA
ATOM     12  O   UNL A   1      31.565  27.479  23.101  1.00  0.00    -0.339 OA
ATOM     13  C   UNL A   1      30.071  29.014  22.905  1.00  0.00     0.202 A 
ATOM     14  N   UNL A   1      31.394  28.823  22.773  1.00  0.00    -0.057 NA
BRANCH  13  15
ATOM     15  C   UNL A   1      29.389  30.251  22.568  1.00  0.00     0.023 A 
ATOM     16  C   UNL A   1      28.864  30.447  21.284  1.00  0.00     0.012 A 
ATOM     17  C   UNL A   1      29.206  31.242  23.541  1.00  0.00     0.012 A 
ATOM     18  C   UNL A   1      28.156  31.611  20.981  1.00  0.00     0.001 A 
ATOM     19  C   UNL A   1      28.512  32.413  23.233  1.00  0.00     0.001 A 
ATOM     20  C   UNL A   1      27.983  32.594  21.955  1.00  0.00     0.000 A 
ENDBRANCH  13  15
ENDBRANCH   9  10
ENDBRANCH   8   9
ENDBRANCH   7   8
ENDBRANCH   6   7
ENDBRANCH   4   6
ENDBRANCH   1   2
BRANCH   1  21
ATOM     21  C   UNL A   1      32.233  30.890  26.876  1.00  0.00     0.042 C 
BRANCH  21  22
ATOM     22  C   UNL A   1      33.329  31.864  27.297  1.00  0.00     0.118 C 
BRANCH  22  23
ATOM     23  N   UNL A   1      32.846  33.211  27.561  1.00  0.00    -0.352 N 
ATOM     24  C   UNL A   1      33.286  34.115  28.503  1.00  0.00     0.251 C 
ATOM     25  H   UNL A   1      32.105  33.517  26.989  1.00  0.00     0.163 HD
ATOM     26  O   UNL A   1      32.683  35.172  28.666  1.00  0.00    -0.269 OA
BRANCH  24  27
ATOM     27  C   UNL A   1      34.459  33.783  29.343  1.00  0.00     0.039 A 
ATOM     28  C   UNL A   1      34.280  32.977  30.470  1.00  0.00     0.014 A 
ATOM     29  C   UNL A   1      35.735  34.230  28.993  1.00  0.00     0.014 A 
ATOM     30  C   UNL A   1      35.395  32.538  31.192  1.00  0.00     0.010 A 
ATOM     31  C   UNL A   1      36.848  33.740  29.674  1.00  0.00     0.010 A 
ATOM     32  C   UNL A   1      36.691  32.875  30.770  1.00  0.00    -0.014 A 
BRANCH  32  33
ATOM     33  C   UNL A   1      37.902  32.320  31.434  1.00  0.00     0.031 A 
ATOM     34  C   UNL A   1      38.675  31.210  30.778  1.00  0.00     0.074 A 
ATOM     35  C   UNL A   1      38.241  32.739  32.670  1.00  0.00     0.049 A 
ATOM     36  N   UNL A   1      39.644  30.476  31.261  1.00  0.00    -0.248 NA
ATOM     37  C   UNL A   1      38.281  30.862  29.405  1.00  0.00     0.031 C 
ATOM     38  C   UNL A   1      37.557  33.792  33.424  1.00  0.00     0.029 A 
ATOM     39  N   UNL A   1      39.233  32.315  33.520  1.00  0.00    -0.354 N 
ATOM     40  C   UNL A   1      39.962  29.562  30.261  1.00  0.00     0.074 A 
ATOM     41  C   UNL A   1      39.047  29.808  29.165  1.00  0.00     0.031 C 
ATOM     42  C   UNL A   1      38.153  33.934  34.620  1.00  0.00     0.029 A 
ATOM     43  C   UNL A   1      39.224  32.951  34.741  1.00  0.00     0.049 A 
ATOM     44  H   UNL A   1      39.889  31.622  33.279  1.00  0.00     0.167 HD
ATOM     45  C   UNL A   1      40.935  28.618  30.253  1.00  0.00     0.034 A 
ATOM     46  C   UNL A   1      39.973  32.748  35.843  1.00  0.00     0.034 A 
ATOM     47  C   UNL A   1      41.850  28.396  31.346  1.00  0.00     0.049 A 
ATOM     48  C   UNL A   1      41.031  31.674  35.823  1.00  0.00     0.074 A 
ATOM     49  C   UNL A   1      42.904  27.500  31.422  1.00  0.00     0.029 A 
ATOM     50  N   UNL A   1      41.820  29.072  32.559  1.00  0.00    -0.354 N 
ATOM     51  N   UNL A   1      41.336  30.835  34.860  1.00  0.00    -0.248 NA
ATOM     52  C   UNL A   1      41.849  31.522  37.035  1.00  0.00     0.031 C 
ATOM     53  C   UNL A   1      43.471  27.593  32.698  1.00  0.00     0.029 A 
ATOM     54  C   UNL A   1      42.818  28.597  33.395  1.00  0.00     0.049 A 
ATOM     55  H   UNL A   1      41.183  29.786  32.790  1.00  0.00     0.167 HD
ATOM     56  C   UNL A   1      42.406  30.083  35.338  1.00  0.00     0.074 A 
ATOM     57  C   UNL A   1      42.692  30.566  36.673  1.00  0.00     0.031 C 
ATOM     58  C   UNL A   1      43.096  29.089  34.724  1.00  0.00     0.034 A 
BRANCH  45  59
ATOM     59  C   UNL A   1      41.034  27.735  29.033  1.00  0.00     0.023 A 
ATOM     60  C   UNL A   1      42.027  27.931  28.058  1.00  0.00     0.031 A 
ATOM     61  C   UNL A   1      40.105  26.699  28.825  1.00  0.00     0.131 A 
ATOM     62  C   UNL A   1      42.020  27.161  26.886  1.00  0.00     0.055 A 
ATOM     63  C   UNL A   1      40.155  25.880  27.696  1.00  0.00     0.041 A 
ATOM     64  F   UNL A   1      39.121  26.476  29.712  1.00  0.00    -0.206 F 
ATOM     65  C   UNL A   1      41.107  26.119  26.709  1.00  0.00     0.022 A 
BRANCH  62  66
ATOM     66  S   UNL A   1      43.129  27.638  25.532  1.00  0.00     0.124 S 
ATOM     67  O   UNL A   1      42.202  28.289  24.610  1.00  0.00    -0.237 OA
ATOM     68  O   UNL A   1      44.085  28.513  26.201  1.00  0.00    -0.237 OA
ATOM     69  O   UNL A   1      43.668  26.363  25.065  1.00  0.00    -0.744 OA
ENDBRANCH  62  66
ENDBRANCH  45  59
BRANCH  46  70
ATOM     70  C   UNL A   1      39.742  33.561  37.072  1.00  0.00     0.023 A 
ATOM     71  C   UNL A   1      39.140  32.996  38.207  1.00  0.00     0.031 A 
ATOM     72  C   UNL A   1      40.085  34.923  37.115  1.00  0.00     0.131 A 
ATOM     73  C   UNL A   1      38.859  33.801  39.322  1.00  0.00     0.055 A 
ATOM     74  C   UNL A   1      39.848  35.708  38.245  1.00  0.00     0.041 A 
ATOM     75  F   UNL A   1      40.669  35.509  36.057  1.00  0.00    -0.206 F 
ATOM     76  C   UNL A   1      39.220  35.150  39.354  1.00  0.00     0.022 A 
BRANCH  73  77
ATOM     77  S   UNL A   1      37.940  33.074  40.707  1.00  0.00     0.124 S 
ATOM     78  O   UNL A   1      38.452  31.707  40.717  1.00  0.00    -0.237 OA
ATOM     79  O   UNL A   1      38.350  33.922  41.821  1.00  0.00    -0.237 OA
ATOM     80  O   UNL A   1      36.544  33.215  40.299  1.00  0.00    -0.744 OA
ENDBRANCH  73  77
ENDBRANCH  46  70
BRANCH  58  81
ATOM     81  C   UNL A   1      44.273  28.506  35.463  1.00  0.00     0.023 A 
ATOM     82  C   UNL A   1      44.121  27.484  36.416  1.00  0.00     0.031 A 
ATOM     83  C   UNL A   1      45.570  28.979  35.196  1.00  0.00     0.131 A 
ATOM     84  C   UNL A   1      45.247  26.993  37.096  1.00  0.00     0.055 A 
ATOM     85  C   UNL A   1      46.690  28.454  35.839  1.00  0.00     0.041 A 
ATOM     86  F   UNL A   1      45.768  29.955  34.296  1.00  0.00    -0.206 F 
ATOM     87  C   UNL A   1      46.531  27.460  36.801  1.00  0.00     0.022 A 
BRANCH  84  88
ATOM     88  S   UNL A   1      45.009  25.770  38.414  1.00  0.00     0.124 S 
ATOM     89  O   UNL A   1      46.349  25.671  38.982  1.00  0.00    -0.237 OA
ATOM     90  O   UNL A   1      44.005  26.410  39.258  1.00  0.00    -0.237 OA
ATOM     91  O   UNL A   1      44.547  24.581  37.699  1.00  0.00    -0.744 OA
ENDBRANCH  84  88
ENDBRANCH  58  81
ENDBRANCH  32  33
ENDBRANCH  24  27
ENDBRANCH  22  23
ENDBRANCH  21  22
ENDBRANCH   1  21
TORSDOF 18
ENDMDL
