MODEL 1
REMARK VINA RESULT:     -12.2      0.000      0.000
REMARK SMILES O=C(NCCCNC(=O)[C@@H]1CS[C@H](Cc2cccc(F)c2)C(=O)N1)c1ccc(-c2c3nc(c(-c4cc(S(=O)(=O)[O-])ccc4F)c4ccc([nH]4)c(-c4cc(S(=O)(=O)[O-])ccc4F)c4nc(c(-c5cc(S(=O)(=O)[O-])ccc5F)c5ccc2[nH]5)C=C4)C=C3)cc1
REMARK SMILES IDX 4 1 3 2 1 3 2 4 25 6 26 7 87 8 27 9 86 10 28 11 29 12 30 13
REMARK SMILES IDX 80 14 31 15 85 16 79 17 81 18 32 19 84 20 78 21 77 22 33 24
REMARK SMILES IDX 65 25 45 26 64 27 46 28 49 29 63 30 82 31 47 32 48 33 62 35
REMARK SMILES IDX 83 36 50 37 34 38 35 39 43 40 36 41 42 42 44 43 41 44 37 45
REMARK SMILES IDX 38 46 39 47 40 48 66 49 67 50 75 51 68 52 74 53 76 54 73 55
REMARK SMILES IDX 69 56 70 57 71 58 72 59 51 60 52 61 60 62 53 63 59 64 61 65
REMARK SMILES IDX 58 66 54 67 55 68 56 69 57 70 5 71 6 72 7 73 8 74 9 76 10 77
REMARK SMILES IDX 11 78 24 79 12 80 22 81 13 83 23 84 14 85 15 86 16 87 21 88
REMARK SMILES IDX 17 89 19 90 18 91 20 92
REMARK H PARENT 3 5 81 23 49 34 7 75 24 82
REMARK Flexibility Score: inf
ROOT
ATOM      1  C   UNL A   1      32.855  32.102  27.169  1.00  0.00     0.118 C 
ENDROOT
BRANCH   1   2
ATOM      2  N   UNL A   1      32.659  33.506  27.500  1.00  0.00    -0.352 N 
ATOM      3  O   UNL A   1      32.817  35.371  28.752  1.00  0.00    -0.269 OA
ATOM      4  C   UNL A   1      33.259  34.258  28.479  1.00  0.00     0.251 C 
ATOM      5  H   UNL A   1      32.002  33.985  26.943  1.00  0.00     0.163 HD
BRANCH   4   6
ATOM      6  C   UNL A   1      34.427  33.717  29.205  1.00  0.00     0.039 A 
ATOM      7  C   UNL A   1      34.259  32.701  30.150  1.00  0.00     0.014 A 
ATOM      8  C   UNL A   1      35.702  34.212  28.921  1.00  0.00     0.014 A 
ATOM      9  C   UNL A   1      35.342  32.272  30.900  1.00  0.00     0.010 A 
ATOM     10  C   UNL A   1      36.808  33.705  29.605  1.00  0.00     0.010 A 
ATOM     11  C   UNL A   1      36.633  32.737  30.606  1.00  0.00    -0.014 A 
BRANCH  11  12
ATOM     12  C   UNL A   1      37.792  32.089  31.262  1.00  0.00     0.031 A 
ATOM     13  C   UNL A   1      38.198  32.437  32.662  1.00  0.00     0.074 A 
ATOM     14  C   UNL A   1      38.454  31.142  30.570  1.00  0.00     0.049 A 
ATOM     15  N   UNL A   1      39.189  31.961  33.370  1.00  0.00    -0.248 NA
ATOM     16  C   UNL A   1      37.393  33.453  33.354  1.00  0.00     0.031 C 
ATOM     17  C   UNL A   1      38.124  30.716  29.207  1.00  0.00     0.029 A 
ATOM     18  N   UNL A   1      39.511  30.346  30.920  1.00  0.00    -0.354 N 
ATOM     19  C   UNL A   1      39.135  32.617  34.593  1.00  0.00     0.074 A 
ATOM     20  C   UNL A   1      38.030  33.551  34.515  1.00  0.00     0.031 C 
ATOM     21  C   UNL A   1      38.911  29.687  28.865  1.00  0.00     0.029 A 
ATOM     22  C   UNL A   1      39.853  29.438  29.948  1.00  0.00     0.049 A 
ATOM     23  H   UNL A   1      39.979  30.416  31.783  1.00  0.00     0.167 HD
ATOM     24  C   UNL A   1      39.935  32.448  35.676  1.00  0.00     0.034 A 
ATOM     25  C   UNL A   1      40.830  28.513  29.918  1.00  0.00     0.034 A 
ATOM     26  C   UNL A   1      41.043  31.523  35.719  1.00  0.00     0.049 A 
ATOM     27  C   UNL A   1      41.745  28.395  31.097  1.00  0.00     0.074 A 
ATOM     28  C   UNL A   1      41.935  31.290  36.752  1.00  0.00     0.029 A 
ATOM     29  N   UNL A   1      41.418  30.678  34.680  1.00  0.00    -0.354 N 
ATOM     30  N   UNL A   1      41.725  29.069  32.222  1.00  0.00    -0.248 NA
ATOM     31  C   UNL A   1      42.819  27.402  31.000  1.00  0.00     0.031 C 
ATOM     32  C   UNL A   1      42.877  30.349  36.320  1.00  0.00     0.029 A 
ATOM     33  C   UNL A   1      42.536  29.939  35.042  1.00  0.00     0.049 A 
ATOM     34  H   UNL A   1      40.957  30.612  33.812  1.00  0.00     0.167 HD
ATOM     35  C   UNL A   1      42.778  28.572  32.978  1.00  0.00     0.074 A 
ATOM     36  C   UNL A   1      43.410  27.539  32.179  1.00  0.00     0.031 C 
ATOM     37  C   UNL A   1      43.175  28.932  34.225  1.00  0.00     0.034 A 
BRANCH  24  38
ATOM     38  C   UNL A   1      39.663  33.319  36.878  1.00  0.00     0.023 A 
ATOM     39  C   UNL A   1      38.987  32.828  38.008  1.00  0.00     0.031 A 
ATOM     40  C   UNL A   1      40.069  34.665  36.888  1.00  0.00     0.131 A 
ATOM     41  C   UNL A   1      38.683  33.690  39.073  1.00  0.00     0.055 A 
ATOM     42  C   UNL A   1      39.828  35.500  37.981  1.00  0.00     0.041 A 
ATOM     43  F   UNL A   1      40.700  35.197  35.829  1.00  0.00    -0.206 F 
ATOM     44  C   UNL A   1      39.120  35.017  39.078  1.00  0.00     0.022 A 
BRANCH  41  45
ATOM     45  S   UNL A   1      37.603  33.087  40.400  1.00  0.00     0.124 S 
ATOM     46  O   UNL A   1      36.372  32.793  39.669  1.00  0.00    -0.237 OA
ATOM     47  O   UNL A   1      38.336  31.932  40.905  1.00  0.00    -0.237 OA
ATOM     48  O   UNL A   1      37.519  34.222  41.317  1.00  0.00    -0.744 OA
ENDBRANCH  41  45
ENDBRANCH  24  38
BRANCH  25  49
ATOM     49  C   UNL A   1      40.972  27.653  28.715  1.00  0.00     0.023 A 
ATOM     50  C   UNL A   1      41.947  27.930  27.748  1.00  0.00     0.031 A 
ATOM     51  C   UNL A   1      40.193  26.491  28.567  1.00  0.00     0.131 A 
ATOM     52  C   UNL A   1      42.123  27.050  26.670  1.00  0.00     0.055 A 
ATOM     53  C   UNL A   1      40.394  25.603  27.511  1.00  0.00     0.041 A 
ATOM     54  F   UNL A   1      39.265  26.176  29.485  1.00  0.00    -0.206 F 
ATOM     55  C   UNL A   1      41.365  25.882  26.554  1.00  0.00     0.022 A 
BRANCH  52  56
ATOM     56  S   UNL A   1      43.383  27.438  25.426  1.00  0.00     0.124 S 
ATOM     57  O   UNL A   1      44.014  26.138  25.226  1.00  0.00    -0.237 OA
ATOM     58  O   UNL A   1      42.578  27.937  24.316  1.00  0.00    -0.237 OA
ATOM     59  O   UNL A   1      44.215  28.443  26.086  1.00  0.00    -0.744 OA
ENDBRANCH  52  56
ENDBRANCH  25  49
BRANCH  37  60
ATOM     60  C   UNL A   1      44.331  28.170  34.814  1.00  0.00     0.023 A 
ATOM     61  C   UNL A   1      44.150  26.944  35.475  1.00  0.00     0.031 A 
ATOM     62  C   UNL A   1      45.636  28.682  34.703  1.00  0.00     0.131 A 
ATOM     63  C   UNL A   1      45.255  26.289  36.038  1.00  0.00     0.055 A 
ATOM     64  C   UNL A   1      46.737  28.002  35.223  1.00  0.00     0.041 A 
ATOM     65  F   UNL A   1      45.859  29.853  34.083  1.00  0.00    -0.206 F 
ATOM     66  C   UNL A   1      46.548  26.802  35.902  1.00  0.00     0.022 A 
BRANCH  63  67
ATOM     67  S   UNL A   1      44.977  24.778  37.002  1.00  0.00     0.124 S 
ATOM     68  O   UNL A   1      44.446  25.313  38.253  1.00  0.00    -0.237 OA
ATOM     69  O   UNL A   1      44.029  24.043  36.171  1.00  0.00    -0.237 OA
ATOM     70  O   UNL A   1      46.307  24.182  37.098  1.00  0.00    -0.744 OA
ENDBRANCH  63  67
ENDBRANCH  37  60
ENDBRANCH  11  12
ENDBRANCH   4   6
ENDBRANCH   1   2
BRANCH   1  71
ATOM     71  C   UNL A   1      31.648  31.501  26.468  1.00  0.00     0.042 C 
BRANCH  71  72
ATOM     72  C   UNL A   1      31.828  30.041  26.087  1.00  0.00     0.117 C 
BRANCH  72  73
ATOM     73  N   UNL A   1      32.866  29.876  25.089  1.00  0.00    -0.354 N 
ATOM     74  C   UNL A   1      33.137  28.820  24.270  1.00  0.00     0.243 C 
ATOM     75  H   UNL A   1      33.469  30.647  24.985  1.00  0.00     0.163 HD
ATOM     76  O   UNL A   1      34.297  28.721  23.867  1.00  0.00    -0.273 OA
BRANCH  74  77
ATOM     77  C   UNL A   1      32.059  27.743  24.001  1.00  0.00     0.181 C 
ATOM     78  C   UNL A   1      31.958  26.759  25.165  1.00  0.00     0.105 C 
ATOM     79  N   UNL A   1      32.276  27.081  22.709  1.00  0.00    -0.343 N 
ATOM     80  S   UNL A   1      33.427  25.687  25.241  1.00  0.00    -0.146 SA
ATOM     81  C   UNL A   1      33.090  26.016  22.470  1.00  0.00     0.234 C 
ATOM     82  H   UNL A   1      31.781  27.443  21.938  1.00  0.00     0.164 HD
ATOM     83  C   UNL A   1      33.317  24.977  23.561  1.00  0.00     0.140 C 
ATOM     84  O   UNL A   1      33.471  25.852  21.309  1.00  0.00    -0.274 OA
BRANCH  83  85
ATOM     85  C   UNL A   1      34.558  24.127  23.231  1.00  0.00     0.060 C 
BRANCH  85  86
ATOM     86  C   UNL A   1      34.461  22.709  23.745  1.00  0.00    -0.043 A 
ATOM     87  C   UNL A   1      33.235  22.023  23.707  1.00  0.00     0.004 A 
ATOM     88  C   UNL A   1      35.576  22.081  24.313  1.00  0.00     0.043 A 
ATOM     89  C   UNL A   1      33.117  20.751  24.266  1.00  0.00     0.003 A 
ATOM     90  C   UNL A   1      35.447  20.809  24.857  1.00  0.00     0.123 A 
ATOM     91  C   UNL A   1      34.228  20.143  24.847  1.00  0.00     0.039 A 
ATOM     92  F   UNL A   1      36.514  20.217  25.411  1.00  0.00    -0.207 F 
ENDBRANCH  85  86
ENDBRANCH  83  85
ENDBRANCH  74  77
ENDBRANCH  72  73
ENDBRANCH  71  72
ENDBRANCH   1  71
TORSDOF 15
ENDMDL
MODEL 2
REMARK VINA RESULT:     -12.2      0.838      7.905
REMARK SMILES O=C(NCCCNC(=O)[C@@H]1CS[C@H](Cc2cccc(F)c2)C(=O)N1)c1ccc(-c2c3nc(c(-c4cc(S(=O)(=O)[O-])ccc4F)c4ccc([nH]4)c(-c4cc(S(=O)(=O)[O-])ccc4F)c4nc(c(-c5cc(S(=O)(=O)[O-])ccc5F)c5ccc2[nH]5)C=C4)C=C3)cc1
REMARK SMILES IDX 4 1 3 2 1 3 2 4 25 6 26 7 87 8 27 9 86 10 28 11 29 12 30 13
REMARK SMILES IDX 80 14 31 15 85 16 79 17 81 18 32 19 84 20 78 21 77 22 33 24
REMARK SMILES IDX 65 25 45 26 64 27 46 28 49 29 63 30 82 31 47 32 48 33 62 35
REMARK SMILES IDX 83 36 50 37 34 38 35 39 43 40 36 41 42 42 44 43 41 44 37 45
REMARK SMILES IDX 38 46 39 47 40 48 66 49 67 50 75 51 68 52 74 53 76 54 73 55
REMARK SMILES IDX 69 56 70 57 71 58 72 59 51 60 52 61 60 62 53 63 59 64 61 65
REMARK SMILES IDX 58 66 54 67 55 68 56 69 57 70 5 71 6 72 7 73 8 74 9 76 10 77
REMARK SMILES IDX 11 78 24 79 12 80 22 81 13 83 23 84 14 85 15 86 16 87 21 88
REMARK SMILES IDX 17 89 19 90 18 91 20 92
REMARK H PARENT 3 5 81 23 49 34 7 75 24 82
REMARK Flexibility Score: inf
ROOT
ATOM      1  C   UNL A   1      32.823  32.089  27.098  1.00  0.00     0.118 C 
ENDROOT
BRANCH   1   2
ATOM      2  N   UNL A   1      32.618  33.498  27.399  1.00  0.00    -0.352 N 
ATOM      3  O   UNL A   1      32.740  35.385  28.621  1.00  0.00    -0.269 OA
ATOM      4  C   UNL A   1      33.190  34.268  28.380  1.00  0.00     0.251 C 
ATOM      5  H   UNL A   1      31.976  33.966  26.815  1.00  0.00     0.163 HD
BRANCH   4   6
ATOM      6  C   UNL A   1      34.338  33.741  29.147  1.00  0.00     0.039 A 
ATOM      7  C   UNL A   1      34.140  32.766  30.130  1.00  0.00     0.014 A 
ATOM      8  C   UNL A   1      35.625  34.205  28.863  1.00  0.00     0.014 A 
ATOM      9  C   UNL A   1      35.205  32.353  30.915  1.00  0.00     0.010 A 
ATOM     10  C   UNL A   1      36.712  33.711  29.587  1.00  0.00     0.010 A 
ATOM     11  C   UNL A   1      36.507  32.788  30.623  1.00  0.00    -0.014 A 
BRANCH  11  12
ATOM     12  C   UNL A   1      37.646  32.151  31.325  1.00  0.00     0.031 A 
ATOM     13  C   UNL A   1      38.447  31.056  30.690  1.00  0.00     0.074 A 
ATOM     14  C   UNL A   1      37.965  32.615  32.548  1.00  0.00     0.049 A 
ATOM     15  N   UNL A   1      39.467  30.399  31.179  1.00  0.00    -0.248 NA
ATOM     16  C   UNL A   1      38.052  30.642  29.337  1.00  0.00     0.031 C 
ATOM     17  C   UNL A   1      37.258  33.695  33.246  1.00  0.00     0.029 A 
ATOM     18  N   UNL A   1      38.974  32.272  33.406  1.00  0.00    -0.354 N 
ATOM     19  C   UNL A   1      39.838  29.487  30.198  1.00  0.00     0.074 A 
ATOM     20  C   UNL A   1      38.909  29.657  29.099  1.00  0.00     0.031 C 
ATOM     21  C   UNL A   1      37.900  33.975  34.387  1.00  0.00     0.029 A 
ATOM     22  C   UNL A   1      39.009  33.043  34.542  1.00  0.00     0.049 A 
ATOM     23  H   UNL A   1      39.613  31.546  33.226  1.00  0.00     0.167 HD
ATOM     24  C   UNL A   1      40.863  28.598  30.219  1.00  0.00     0.034 A 
ATOM     25  C   UNL A   1      39.831  32.998  35.606  1.00  0.00     0.034 A 
ATOM     26  C   UNL A   1      41.762  28.436  31.338  1.00  0.00     0.049 A 
ATOM     27  C   UNL A   1      40.910  31.960  35.639  1.00  0.00     0.074 A 
ATOM     28  C   UNL A   1      42.815  27.549  31.478  1.00  0.00     0.029 A 
ATOM     29  N   UNL A   1      41.714  29.176  32.515  1.00  0.00    -0.354 N 
ATOM     30  N   UNL A   1      41.208  31.058  34.734  1.00  0.00    -0.248 NA
ATOM     31  C   UNL A   1      41.753  31.924  36.838  1.00  0.00     0.031 C 
ATOM     32  C   UNL A   1      43.365  27.713  32.756  1.00  0.00     0.029 A 
ATOM     33  C   UNL A   1      42.704  28.752  33.389  1.00  0.00     0.049 A 
ATOM     34  H   UNL A   1      41.069  29.897  32.701  1.00  0.00     0.167 HD
ATOM     35  C   UNL A   1      42.288  30.353  35.247  1.00  0.00     0.074 A 
ATOM     36  C   UNL A   1      42.588  30.937  36.541  1.00  0.00     0.031 C 
ATOM     37  C   UNL A   1      42.974  29.323  34.689  1.00  0.00     0.034 A 
BRANCH  24  38
ATOM     38  C   UNL A   1      41.026  27.703  29.015  1.00  0.00     0.023 A 
ATOM     39  C   UNL A   1      42.016  27.944  28.046  1.00  0.00     0.031 A 
ATOM     40  C   UNL A   1      40.169  26.606  28.822  1.00  0.00     0.131 A 
ATOM     41  C   UNL A   1      42.085  27.136  26.900  1.00  0.00     0.055 A 
ATOM     42  C   UNL A   1      40.289  25.762  27.716  1.00  0.00     0.041 A 
ATOM     43  F   UNL A   1      39.192  26.339  29.702  1.00  0.00    -0.206 F 
ATOM     44  C   UNL A   1      41.244  26.032  26.740  1.00  0.00     0.022 A 
BRANCH  41  45
ATOM     45  S   UNL A   1      43.210  27.621  25.562  1.00  0.00     0.124 S 
ATOM     46  O   UNL A   1      44.094  28.564  26.245  1.00  0.00    -0.237 OA
ATOM     47  O   UNL A   1      43.811  26.350  25.176  1.00  0.00    -0.237 OA
ATOM     48  O   UNL A   1      42.323  28.219  24.566  1.00  0.00    -0.744 OA
ENDBRANCH  41  45
ENDBRANCH  24  38
BRANCH  25  49
ATOM     49  C   UNL A   1      39.634  33.970  36.712  1.00  0.00     0.023 A 
ATOM     50  C   UNL A   1      39.078  33.563  37.932  1.00  0.00     0.031 A 
ATOM     51  C   UNL A   1      40.083  35.297  36.590  1.00  0.00     0.131 A 
ATOM     52  C   UNL A   1      38.989  34.477  38.992  1.00  0.00     0.055 A 
ATOM     53  C   UNL A   1      40.020  36.193  37.657  1.00  0.00     0.041 A 
ATOM     54  F   UNL A   1      40.644  35.720  35.446  1.00  0.00    -0.206 F 
ATOM     55  C   UNL A   1      39.470  35.784  38.867  1.00  0.00     0.022 A 
BRANCH  52  56
ATOM     56  S   UNL A   1      38.254  33.928  40.556  1.00  0.00     0.124 S 
ATOM     57  O   UNL A   1      37.091  33.180  40.091  1.00  0.00    -0.237 OA
ATOM     58  O   UNL A   1      39.332  33.139  41.143  1.00  0.00    -0.237 OA
ATOM     59  O   UNL A   1      37.958  35.180  41.250  1.00  0.00    -0.744 OA
ENDBRANCH  52  56
ENDBRANCH  25  49
BRANCH  37  60
ATOM     60  C   UNL A   1      44.145  28.788  35.470  1.00  0.00     0.023 A 
ATOM     61  C   UNL A   1      44.003  27.731  36.384  1.00  0.00     0.031 A 
ATOM     62  C   UNL A   1      45.422  29.346  35.287  1.00  0.00     0.131 A 
ATOM     63  C   UNL A   1      45.117  27.291  37.114  1.00  0.00     0.055 A 
ATOM     64  C   UNL A   1      46.535  28.872  35.980  1.00  0.00     0.041 A 
ATOM     65  F   UNL A   1      45.607  30.361  34.426  1.00  0.00    -0.206 F 
ATOM     66  C   UNL A   1      46.385  27.843  36.906  1.00  0.00     0.022 A 
BRANCH  63  67
ATOM     67  S   UNL A   1      44.881  26.018  38.385  1.00  0.00     0.124 S 
ATOM     68  O   UNL A   1      44.371  24.899  37.597  1.00  0.00    -0.237 OA
ATOM     69  O   UNL A   1      46.228  25.856  38.923  1.00  0.00    -0.237 OA
ATOM     70  O   UNL A   1      43.917  26.622  39.301  1.00  0.00    -0.744 OA
ENDBRANCH  63  67
ENDBRANCH  37  60
ENDBRANCH  11  12
ENDBRANCH   4   6
ENDBRANCH   1   2
BRANCH   1  71
ATOM     71  C   UNL A   1      31.626  31.468  26.396  1.00  0.00     0.042 C 
BRANCH  71  72
ATOM     72  C   UNL A   1      31.835  30.016  26.003  1.00  0.00     0.117 C 
BRANCH  72  73
ATOM     73  N   UNL A   1      32.888  29.878  25.015  1.00  0.00    -0.354 N 
ATOM     74  C   UNL A   1      33.098  28.903  24.085  1.00  0.00     0.243 C 
ATOM     75  H   UNL A   1      33.556  30.600  25.016  1.00  0.00     0.163 HD
ATOM     76  O   UNL A   1      34.259  28.752  23.700  1.00  0.00    -0.273 OA
BRANCH  74  77
ATOM     77  C   UNL A   1      31.945  27.961  23.667  1.00  0.00     0.181 C 
ATOM     78  C   UNL A   1      31.678  26.904  24.738  1.00  0.00     0.105 C 
ATOM     79  N   UNL A   1      32.181  27.382  22.340  1.00  0.00    -0.343 N 
ATOM     80  S   UNL A   1      33.033  25.691  24.808  1.00  0.00    -0.146 SA
ATOM     81  C   UNL A   1      32.907  26.265  22.059  1.00  0.00     0.234 C 
ATOM     82  H   UNL A   1      31.773  27.849  21.574  1.00  0.00     0.164 HD
ATOM     83  C   UNL A   1      32.967  25.127  23.072  1.00  0.00     0.140 C 
ATOM     84  O   UNL A   1      33.345  26.154  20.912  1.00  0.00    -0.274 OA
BRANCH  83  85
ATOM     85  C   UNL A   1      34.141  24.188  22.743  1.00  0.00     0.060 C 
BRANCH  85  86
ATOM     86  C   UNL A   1      34.126  22.910  23.551  1.00  0.00    -0.043 A 
ATOM     87  C   UNL A   1      35.258  22.525  24.288  1.00  0.00     0.004 A 
ATOM     88  C   UNL A   1      33.005  22.072  23.534  1.00  0.00     0.043 A 
ATOM     89  C   UNL A   1      35.285  21.302  24.959  1.00  0.00     0.003 A 
ATOM     90  C   UNL A   1      33.041  20.861  24.215  1.00  0.00     0.123 A 
ATOM     91  C   UNL A   1      34.172  20.465  24.918  1.00  0.00     0.039 A 
ATOM     92  F   UNL A   1      31.970  20.056  24.184  1.00  0.00    -0.207 F 
ENDBRANCH  85  86
ENDBRANCH  83  85
ENDBRANCH  74  77
ENDBRANCH  72  73
ENDBRANCH  71  72
ENDBRANCH   1  71
TORSDOF 15
ENDMDL
MODEL 3
REMARK VINA RESULT:     -12.1      1.298      1.591
REMARK SMILES O=C(NCCCNC(=O)[C@@H]1CS[C@H](Cc2cccc(F)c2)C(=O)N1)c1ccc(-c2c3nc(c(-c4cc(S(=O)(=O)[O-])ccc4F)c4ccc([nH]4)c(-c4cc(S(=O)(=O)[O-])ccc4F)c4nc(c(-c5cc(S(=O)(=O)[O-])ccc5F)c5ccc2[nH]5)C=C4)C=C3)cc1
REMARK SMILES IDX 4 1 3 2 1 3 2 4 25 6 26 7 87 8 27 9 86 10 28 11 29 12 30 13
REMARK SMILES IDX 80 14 31 15 85 16 79 17 81 18 32 19 84 20 78 21 77 22 33 24
REMARK SMILES IDX 65 25 45 26 64 27 46 28 49 29 63 30 82 31 47 32 48 33 62 35
REMARK SMILES IDX 83 36 50 37 34 38 35 39 43 40 36 41 42 42 44 43 41 44 37 45
REMARK SMILES IDX 38 46 39 47 40 48 66 49 67 50 75 51 68 52 74 53 76 54 73 55
REMARK SMILES IDX 69 56 70 57 71 58 72 59 51 60 52 61 60 62 53 63 59 64 61 65
REMARK SMILES IDX 58 66 54 67 55 68 56 69 57 70 5 71 6 72 7 73 8 74 9 76 10 77
REMARK SMILES IDX 11 78 24 79 12 80 22 81 13 83 23 84 14 85 15 86 16 87 21 88
REMARK SMILES IDX 17 89 19 90 18 91 20 92
REMARK H PARENT 3 5 81 23 49 34 7 75 24 82
REMARK Flexibility Score: inf
ROOT
ATOM      1  C   UNL A   1      32.869  32.111  27.169  1.00  0.00     0.118 C 
ENDROOT
BRANCH   1   2
ATOM      2  N   UNL A   1      32.669  33.514  27.505  1.00  0.00    -0.352 N 
ATOM      3  O   UNL A   1      32.816  35.372  28.767  1.00  0.00    -0.269 OA
ATOM      4  C   UNL A   1      33.262  34.261  28.492  1.00  0.00     0.251 C 
ATOM      5  H   UNL A   1      32.015  33.994  26.946  1.00  0.00     0.163 HD
BRANCH   4   6
ATOM      6  C   UNL A   1      34.426  33.718  29.222  1.00  0.00     0.039 A 
ATOM      7  C   UNL A   1      34.251  32.712  30.177  1.00  0.00     0.014 A 
ATOM      8  C   UNL A   1      35.705  34.200  28.932  1.00  0.00     0.014 A 
ATOM      9  C   UNL A   1      35.332  32.282  30.931  1.00  0.00     0.010 A 
ATOM     10  C   UNL A   1      36.807  33.691  29.621  1.00  0.00     0.010 A 
ATOM     11  C   UNL A   1      36.626  32.735  30.630  1.00  0.00    -0.014 A 
BRANCH  11  12
ATOM     12  C   UNL A   1      37.780  32.084  31.293  1.00  0.00     0.031 A 
ATOM     13  C   UNL A   1      38.176  32.426  32.697  1.00  0.00     0.074 A 
ATOM     14  C   UNL A   1      38.448  31.140  30.601  1.00  0.00     0.049 A 
ATOM     15  N   UNL A   1      39.162  31.947  33.409  1.00  0.00    -0.248 NA
ATOM     16  C   UNL A   1      37.366  33.438  33.387  1.00  0.00     0.031 C 
ATOM     17  C   UNL A   1      38.127  30.719  29.233  1.00  0.00     0.029 A 
ATOM     18  N   UNL A   1      39.502  30.342  30.954  1.00  0.00    -0.354 N 
ATOM     19  C   UNL A   1      39.100  32.598  34.634  1.00  0.00     0.074 A 
ATOM     20  C   UNL A   1      37.995  33.532  34.553  1.00  0.00     0.031 C 
ATOM     21  C   UNL A   1      38.917  29.692  28.893  1.00  0.00     0.029 A 
ATOM     22  C   UNL A   1      39.851  29.439  29.981  1.00  0.00     0.049 A 
ATOM     23  H   UNL A   1      39.964  30.409  31.821  1.00  0.00     0.167 HD
ATOM     24  C   UNL A   1      39.892  32.424  35.722  1.00  0.00     0.034 A 
ATOM     25  C   UNL A   1      40.828  28.514  29.954  1.00  0.00     0.034 A 
ATOM     26  C   UNL A   1      41.000  31.500  35.769  1.00  0.00     0.049 A 
ATOM     27  C   UNL A   1      41.735  28.391  31.139  1.00  0.00     0.074 A 
ATOM     28  C   UNL A   1      41.884  31.262  36.808  1.00  0.00     0.029 A 
ATOM     29  N   UNL A   1      41.383  30.659  34.730  1.00  0.00    -0.354 N 
ATOM     30  N   UNL A   1      41.707  29.061  32.267  1.00  0.00    -0.248 NA
ATOM     31  C   UNL A   1      42.810  27.399  31.045  1.00  0.00     0.031 C 
ATOM     32  C   UNL A   1      42.830  30.323  36.378  1.00  0.00     0.029 A 
ATOM     33  C   UNL A   1      42.498  29.918  35.096  1.00  0.00     0.049 A 
ATOM     34  H   UNL A   1      40.928  30.597  33.858  1.00  0.00     0.167 HD
ATOM     35  C   UNL A   1      42.754  28.560  33.028  1.00  0.00     0.074 A 
ATOM     36  C   UNL A   1      43.393  27.531  32.229  1.00  0.00     0.031 C 
ATOM     37  C   UNL A   1      43.142  28.915  34.279  1.00  0.00     0.034 A 
BRANCH  24  38
ATOM     38  C   UNL A   1      39.612  33.290  36.926  1.00  0.00     0.023 A 
ATOM     39  C   UNL A   1      40.327  34.477  37.165  1.00  0.00     0.031 A 
ATOM     40  C   UNL A   1      38.630  32.916  37.860  1.00  0.00     0.131 A 
ATOM     41  C   UNL A   1      40.093  35.213  38.336  1.00  0.00     0.055 A 
ATOM     42  C   UNL A   1      38.351  33.691  38.988  1.00  0.00     0.041 A 
ATOM     43  F   UNL A   1      37.930  31.782  37.698  1.00  0.00    -0.206 F 
ATOM     44  C   UNL A   1      39.093  34.841  39.238  1.00  0.00     0.022 A 
BRANCH  41  45
ATOM     45  S   UNL A   1      41.197  36.599  38.728  1.00  0.00     0.124 S 
ATOM     46  O   UNL A   1      40.242  37.644  39.095  1.00  0.00    -0.237 OA
ATOM     47  O   UNL A   1      42.006  36.063  39.815  1.00  0.00    -0.237 OA
ATOM     48  O   UNL A   1      41.912  36.832  37.474  1.00  0.00    -0.744 OA
ENDBRANCH  41  45
ENDBRANCH  24  38
BRANCH  25  49
ATOM     49  C   UNL A   1      40.979  27.659  28.749  1.00  0.00     0.023 A 
ATOM     50  C   UNL A   1      41.958  27.943  27.788  1.00  0.00     0.031 A 
ATOM     51  C   UNL A   1      40.204  26.496  28.592  1.00  0.00     0.131 A 
ATOM     52  C   UNL A   1      42.143  27.068  26.707  1.00  0.00     0.055 A 
ATOM     53  C   UNL A   1      40.413  25.613  27.534  1.00  0.00     0.041 A 
ATOM     54  F   UNL A   1      39.273  26.175  29.504  1.00  0.00    -0.206 F 
ATOM     55  C   UNL A   1      41.388  25.898  26.583  1.00  0.00     0.022 A 
BRANCH  52  56
ATOM     56  S   UNL A   1      43.408  27.464  25.471  1.00  0.00     0.124 S 
ATOM     57  O   UNL A   1      42.592  27.883  24.336  1.00  0.00    -0.237 OA
ATOM     58  O   UNL A   1      44.170  28.516  26.136  1.00  0.00    -0.237 OA
ATOM     59  O   UNL A   1      44.121  26.201  25.297  1.00  0.00    -0.744 OA
ENDBRANCH  52  56
ENDBRANCH  25  49
BRANCH  37  60
ATOM     60  C   UNL A   1      44.295  28.151  34.873  1.00  0.00     0.023 A 
ATOM     61  C   UNL A   1      44.114  26.905  35.497  1.00  0.00     0.031 A 
ATOM     62  C   UNL A   1      45.595  28.681  34.806  1.00  0.00     0.131 A 
ATOM     63  C   UNL A   1      45.215  26.248  36.067  1.00  0.00     0.055 A 
ATOM     64  C   UNL A   1      46.693  28.000  35.331  1.00  0.00     0.041 A 
ATOM     65  F   UNL A   1      45.818  29.870  34.222  1.00  0.00    -0.206 F 
ATOM     66  C   UNL A   1      46.504  26.779  35.973  1.00  0.00     0.022 A 
BRANCH  63  67
ATOM     67  S   UNL A   1      44.934  24.708  36.983  1.00  0.00     0.124 S 
ATOM     68  O   UNL A   1      43.879  24.078  36.194  1.00  0.00    -0.237 OA
ATOM     69  O   UNL A   1      46.242  24.064  36.928  1.00  0.00    -0.237 OA
ATOM     70  O   UNL A   1      44.526  25.167  38.309  1.00  0.00    -0.744 OA
ENDBRANCH  63  67
ENDBRANCH  37  60
ENDBRANCH  11  12
ENDBRANCH   4   6
ENDBRANCH   1   2
BRANCH   1  71
ATOM     71  C   UNL A   1      31.652  31.502  26.493  1.00  0.00     0.042 C 
BRANCH  71  72
ATOM     72  C   UNL A   1      31.837  30.045  26.102  1.00  0.00     0.117 C 
BRANCH  72  73
ATOM     73  N   UNL A   1      32.869  29.891  25.095  1.00  0.00    -0.354 N 
ATOM     74  C   UNL A   1      33.145  28.837  24.274  1.00  0.00     0.243 C 
ATOM     75  H   UNL A   1      33.463  30.668  24.987  1.00  0.00     0.163 HD
ATOM     76  O   UNL A   1      34.303  28.751  23.862  1.00  0.00    -0.273 OA
BRANCH  74  77
ATOM     77  C   UNL A   1      32.077  27.749  24.014  1.00  0.00     0.181 C 
ATOM     78  C   UNL A   1      31.970  26.786  25.195  1.00  0.00     0.105 C 
ATOM     79  N   UNL A   1      32.311  27.065  22.737  1.00  0.00    -0.343 N 
ATOM     80  S   UNL A   1      33.444  25.725  25.306  1.00  0.00    -0.146 SA
ATOM     81  C   UNL A   1      33.134  26.001  22.526  1.00  0.00     0.234 C 
ATOM     82  H   UNL A   1      31.823  27.409  21.954  1.00  0.00     0.164 HD
ATOM     83  C   UNL A   1      33.357  24.984  23.638  1.00  0.00     0.140 C 
ATOM     84  O   UNL A   1      33.529  25.818  21.373  1.00  0.00    -0.274 OA
BRANCH  83  85
ATOM     85  C   UNL A   1      34.606  24.136  23.337  1.00  0.00     0.060 C 
BRANCH  85  86
ATOM     86  C   UNL A   1      34.487  22.708  23.822  1.00  0.00    -0.043 A 
ATOM     87  C   UNL A   1      33.240  22.062  23.823  1.00  0.00     0.004 A 
ATOM     88  C   UNL A   1      35.606  22.033  24.324  1.00  0.00     0.043 A 
ATOM     89  C   UNL A   1      33.107  20.780  24.357  1.00  0.00     0.003 A 
ATOM     90  C   UNL A   1      35.461  20.753  24.843  1.00  0.00     0.123 A 
ATOM     91  C   UNL A   1      34.222  20.125  24.873  1.00  0.00     0.039 A 
ATOM     92  F   UNL A   1      36.533  20.116  25.335  1.00  0.00    -0.207 F 
ENDBRANCH  85  86
ENDBRANCH  83  85
ENDBRANCH  74  77
ENDBRANCH  72  73
ENDBRANCH  71  72
ENDBRANCH   1  71
TORSDOF 15
ENDMDL
