MODEL 1
REMARK VINA RESULT:     -12.6      0.000      0.000
REMARK SMILES CCc1cc(/C=C/C(=O)NCCCNC(=O)c2ccc(-c3c4nc(c(-c5cc(S(=O)(=O)[O-])ccc5F)c5ccc([nH]5)c(-c5cc(S(=O)(=O)[O-])ccc5F)c5nc(c(-c6cc(S(=O)(=O)[O-])ccc6F)c6ccc3[nH]6)C=C5)C=C4)cc2)cc(C(=O)c2ccccc2)c1
REMARK SMILES IDX 12 1 11 2 10 3 8 4 9 5 7 7 6 8 5 9 3 10 4 11 90 12 81 13
REMARK SMILES IDX 80 14 2 15 1 16 82 17 83 18 84 19 85 20 89 21 86 22 88 23
REMARK SMILES IDX 87 24 13 25 14 26 15 27 16 29 17 30 18 31 79 32 19 33 78 34
REMARK SMILES IDX 20 35 21 36 22 37 72 38 23 39 77 40 71 41 73 42 24 43 76 44
REMARK SMILES IDX 70 45 69 46 25 48 57 49 37 50 56 51 38 52 41 53 55 54 74 55
REMARK SMILES IDX 39 56 40 57 54 59 75 60 42 61 26 62 27 63 35 64 28 65 34 66
REMARK SMILES IDX 36 67 33 68 29 69 30 70 31 71 32 72 58 73 59 74 67 75 60 76
REMARK SMILES IDX 66 77 68 78 65 79 61 80 62 81 63 82 64 83 43 84 44 85 52 86
REMARK SMILES IDX 45 87 51 88 53 89 50 90 46 91 47 92 48 93 49 94
REMARK H PARENT 10 6 14 28 73 47 41 58
REMARK Flexibility Score: inf
ROOT
ATOM      1  C   UNL A   1      32.328  27.691  25.465  1.00  0.00     0.042 C 
ENDROOT
BRANCH   1   2
ATOM      2  C   UNL A   1      31.542  27.138  24.278  1.00  0.00     0.118 C 
BRANCH   2   3
ATOM      3  N   UNL A   1      32.296  27.230  23.040  1.00  0.00    -0.352 N 
ATOM      4  C   UNL A   1      33.073  26.315  22.404  1.00  0.00     0.244 C 
ATOM      5  O   UNL A   1      33.506  26.563  21.279  1.00  0.00    -0.270 OA
ATOM      6  H   UNL A   1      32.233  28.101  22.585  1.00  0.00     0.163 HD
BRANCH   4   7
ATOM      7  C   UNL A   1      33.352  24.989  22.998  1.00  0.00     0.072 C 
ATOM      8  C   UNL A   1      34.573  24.537  23.321  1.00  0.00     0.014 C 
BRANCH   8   9
ATOM      9  C   UNL A   1      34.847  23.188  23.830  1.00  0.00    -0.024 A 
ATOM     10  C   UNL A   1      36.393  21.515  24.726  1.00  0.00    -0.047 A 
ATOM     11  C   UNL A   1      36.146  22.777  24.163  1.00  0.00     0.011 A 
ATOM     12  C   UNL A   1      35.304  20.669  24.968  1.00  0.00     0.016 A 
ATOM     13  C   UNL A   1      33.995  21.076  24.673  1.00  0.00     0.023 A 
ATOM     14  C   UNL A   1      33.774  22.329  24.092  1.00  0.00     0.020 A 
BRANCH  10  15
ATOM     15  C   UNL A   1      37.802  21.169  25.149  1.00  0.00     0.032 C 
ATOM     16  C   UNL A   1      38.206  19.707  25.001  1.00  0.00     0.009 C 
ENDBRANCH  10  15
BRANCH  13  17
ATOM     17  C   UNL A   1      32.822  20.198  24.949  1.00  0.00     0.193 C 
ATOM     18  O   UNL A   1      31.743  20.694  25.262  1.00  0.00    -0.289 OA
BRANCH  17  19
ATOM     19  C   UNL A   1      32.920  18.727  24.801  1.00  0.00     0.022 A 
ATOM     20  C   UNL A   1      33.204  18.204  23.536  1.00  0.00     0.012 A 
ATOM     21  C   UNL A   1      32.760  17.874  25.898  1.00  0.00     0.012 A 
ATOM     22  C   UNL A   1      33.386  16.829  23.382  1.00  0.00     0.001 A 
ATOM     23  C   UNL A   1      32.945  16.499  25.738  1.00  0.00     0.001 A 
ATOM     24  C   UNL A   1      33.269  15.981  24.483  1.00  0.00     0.000 A 
ENDBRANCH  17  19
ENDBRANCH  13  17
ENDBRANCH   8   9
ENDBRANCH   4   7
ENDBRANCH   2   3
ENDBRANCH   1   2
BRANCH   1  25
ATOM     25  C   UNL A   1      33.239  28.864  25.105  1.00  0.00     0.118 C 
BRANCH  25  26
ATOM     26  N   UNL A   1      32.668  30.140  25.505  1.00  0.00    -0.352 N 
ATOM     27  C   UNL A   1      32.942  30.931  26.593  1.00  0.00     0.251 C 
ATOM     28  H   UNL A   1      31.976  30.493  24.899  1.00  0.00     0.163 HD
ATOM     29  O   UNL A   1      32.170  31.844  26.874  1.00  0.00    -0.269 OA
BRANCH  27  30
ATOM     30  C   UNL A   1      34.142  30.689  27.425  1.00  0.00     0.039 A 
ATOM     31  C   UNL A   1      34.417  29.386  27.849  1.00  0.00     0.014 A 
ATOM     32  C   UNL A   1      34.965  31.742  27.835  1.00  0.00     0.014 A 
ATOM     33  C   UNL A   1      35.540  29.133  28.642  1.00  0.00     0.010 A 
ATOM     34  C   UNL A   1      36.122  31.479  28.565  1.00  0.00     0.010 A 
ATOM     35  C   UNL A   1      36.417  30.174  28.984  1.00  0.00    -0.014 A 
BRANCH  35  36
ATOM     36  C   UNL A   1      37.641  29.917  29.788  1.00  0.00     0.031 A 
ATOM     37  C   UNL A   1      38.740  29.049  29.236  1.00  0.00     0.074 A 
ATOM     38  C   UNL A   1      37.731  30.413  31.037  1.00  0.00     0.049 A 
ATOM     39  N   UNL A   1      39.847  28.650  29.807  1.00  0.00    -0.248 NA
ATOM     40  C   UNL A   1      38.548  28.536  27.872  1.00  0.00     0.031 C 
ATOM     41  C   UNL A   1      36.712  31.237  31.693  1.00  0.00     0.029 A 
ATOM     42  N   UNL A   1      38.718  30.293  31.981  1.00  0.00    -0.354 N 
ATOM     43  C   UNL A   1      40.476  27.823  28.882  1.00  0.00     0.074 A 
ATOM     44  C   UNL A   1      39.593  27.733  27.738  1.00  0.00     0.031 C 
ATOM     45  C   UNL A   1      37.142  31.573  32.919  1.00  0.00     0.029 A 
ATOM     46  C   UNL A   1      38.440  30.952  33.157  1.00  0.00     0.049 A 
ATOM     47  H   UNL A   1      39.547  29.784  31.833  1.00  0.00     0.167 HD
ATOM     48  C   UNL A   1      41.685  27.213  28.970  1.00  0.00     0.034 A 
ATOM     49  C   UNL A   1      39.149  31.039  34.299  1.00  0.00     0.034 A 
ATOM     50  C   UNL A   1      42.555  27.328  30.117  1.00  0.00     0.049 A 
ATOM     51  C   UNL A   1      40.478  30.334  34.386  1.00  0.00     0.074 A 
ATOM     52  C   UNL A   1      43.830  26.815  30.289  1.00  0.00     0.029 A 
ATOM     53  N   UNL A   1      42.237  27.995  31.294  1.00  0.00    -0.354 N 
ATOM     54  N   UNL A   1      41.086  29.602  33.481  1.00  0.00    -0.248 NA
ATOM     55  C   UNL A   1      41.218  30.477  35.645  1.00  0.00     0.031 C 
ATOM     56  C   UNL A   1      44.249  27.107  31.592  1.00  0.00     0.029 A 
ATOM     57  C   UNL A   1      43.273  27.873  32.209  1.00  0.00     0.049 A 
ATOM     58  H   UNL A   1      41.398  28.484  31.456  1.00  0.00     0.167 HD
ATOM     59  C   UNL A   1      42.297  29.221  34.053  1.00  0.00     0.074 A 
ATOM     60  C   UNL A   1      42.336  29.816  35.374  1.00  0.00     0.031 C 
ATOM     61  C   UNL A   1      43.290  28.456  33.531  1.00  0.00     0.034 A 
BRANCH  48  62
ATOM     62  C   UNL A   1      42.110  26.340  27.810  1.00  0.00     0.023 A 
ATOM     63  C   UNL A   1      41.863  24.956  27.793  1.00  0.00     0.031 A 
ATOM     64  C   UNL A   1      42.814  26.892  26.724  1.00  0.00     0.131 A 
ATOM     65  C   UNL A   1      42.396  24.159  26.767  1.00  0.00     0.055 A 
ATOM     66  C   UNL A   1      43.262  26.105  25.660  1.00  0.00     0.041 A 
ATOM     67  F   UNL A   1      43.099  28.204  26.689  1.00  0.00    -0.206 F 
ATOM     68  C   UNL A   1      43.072  24.728  25.688  1.00  0.00     0.022 A 
BRANCH  65  69
ATOM     69  S   UNL A   1      42.339  22.355  26.956  1.00  0.00     0.124 S 
ATOM     70  O   UNL A   1      43.704  21.978  26.594  1.00  0.00    -0.237 OA
ATOM     71  O   UNL A   1      41.984  22.196  28.361  1.00  0.00    -0.237 OA
ATOM     72  O   UNL A   1      41.314  21.943  26.000  1.00  0.00    -0.744 OA
ENDBRANCH  65  69
ENDBRANCH  48  62
BRANCH  49  73
ATOM     73  C   UNL A   1      38.623  31.823  35.453  1.00  0.00     0.023 A 
ATOM     74  C   UNL A   1      38.117  31.175  36.591  1.00  0.00     0.031 A 
ATOM     75  C   UNL A   1      38.599  33.228  35.426  1.00  0.00     0.131 A 
ATOM     76  C   UNL A   1      37.573  31.930  37.641  1.00  0.00     0.055 A 
ATOM     77  C   UNL A   1      38.102  33.977  36.495  1.00  0.00     0.041 A 
ATOM     78  F   UNL A   1      39.077  33.897  34.365  1.00  0.00    -0.206 F 
ATOM     79  C   UNL A   1      37.575  33.327  37.607  1.00  0.00     0.022 A 
BRANCH  76  80
ATOM     80  S   UNL A   1      36.799  31.056  39.029  1.00  0.00     0.124 S 
ATOM     81  O   UNL A   1      36.679  29.704  38.498  1.00  0.00    -0.237 OA
ATOM     82  O   UNL A   1      37.783  31.244  40.091  1.00  0.00    -0.237 OA
ATOM     83  O   UNL A   1      35.537  31.767  39.219  1.00  0.00    -0.744 OA
ENDBRANCH  76  80
ENDBRANCH  49  73
BRANCH  61  84
ATOM     84  C   UNL A   1      44.518  28.257  34.387  1.00  0.00     0.023 A 
ATOM     85  C   UNL A   1      44.641  27.167  35.265  1.00  0.00     0.031 A 
ATOM     86  C   UNL A   1      45.572  29.186  34.334  1.00  0.00     0.131 A 
ATOM     87  C   UNL A   1      45.766  27.063  36.098  1.00  0.00     0.055 A 
ATOM     88  C   UNL A   1      46.717  29.044  35.119  1.00  0.00     0.041 A 
ATOM     89  F   UNL A   1      45.507  30.249  33.516  1.00  0.00    -0.206 F 
ATOM     90  C   UNL A   1      46.813  27.986  36.017  1.00  0.00     0.022 A 
BRANCH  87  91
ATOM     91  S   UNL A   1      45.800  25.760  37.359  1.00  0.00     0.124 S 
ATOM     92  O   UNL A   1      44.926  24.749  36.772  1.00  0.00    -0.237 OA
ATOM     93  O   UNL A   1      47.218  25.420  37.420  1.00  0.00    -0.237 OA
ATOM     94  O   UNL A   1      45.270  26.422  38.550  1.00  0.00    -0.744 OA
ENDBRANCH  87  91
ENDBRANCH  61  84
ENDBRANCH  35  36
ENDBRANCH  27  30
ENDBRANCH  25  26
ENDBRANCH   1  25
TORSDOF 17
ENDMDL
MODEL 2
REMARK VINA RESULT:     -12.5      1.579      7.629
REMARK SMILES CCc1cc(/C=C/C(=O)NCCCNC(=O)c2ccc(-c3c4nc(c(-c5cc(S(=O)(=O)[O-])ccc5F)c5ccc([nH]5)c(-c5cc(S(=O)(=O)[O-])ccc5F)c5nc(c(-c6cc(S(=O)(=O)[O-])ccc6F)c6ccc3[nH]6)C=C5)C=C4)cc2)cc(C(=O)c2ccccc2)c1
REMARK SMILES IDX 12 1 11 2 10 3 8 4 9 5 7 7 6 8 5 9 3 10 4 11 90 12 81 13
REMARK SMILES IDX 80 14 2 15 1 16 82 17 83 18 84 19 85 20 89 21 86 22 88 23
REMARK SMILES IDX 87 24 13 25 14 26 15 27 16 29 17 30 18 31 79 32 19 33 78 34
REMARK SMILES IDX 20 35 21 36 22 37 72 38 23 39 77 40 71 41 73 42 24 43 76 44
REMARK SMILES IDX 70 45 69 46 25 48 57 49 37 50 56 51 38 52 41 53 55 54 74 55
REMARK SMILES IDX 39 56 40 57 54 59 75 60 42 61 26 62 27 63 35 64 28 65 34 66
REMARK SMILES IDX 36 67 33 68 29 69 30 70 31 71 32 72 58 73 59 74 67 75 60 76
REMARK SMILES IDX 66 77 68 78 65 79 61 80 62 81 63 82 64 83 43 84 44 85 52 86
REMARK SMILES IDX 45 87 51 88 53 89 50 90 46 91 47 92 48 93 49 94
REMARK H PARENT 10 6 14 28 73 47 41 58
REMARK Flexibility Score: inf
ROOT
ATOM      1  C   UNL A   1      31.776  28.940  24.917  1.00  0.00     0.042 C 
ENDROOT
BRANCH   1   2
ATOM      2  C   UNL A   1      32.031  27.514  24.434  1.00  0.00     0.118 C 
BRANCH   2   3
ATOM      3  N   UNL A   1      32.610  27.491  23.101  1.00  0.00    -0.352 N 
ATOM      4  C   UNL A   1      33.412  26.577  22.497  1.00  0.00     0.244 C 
ATOM      5  O   UNL A   1      33.668  26.690  21.299  1.00  0.00    -0.270 OA
ATOM      6  H   UNL A   1      32.380  28.268  22.541  1.00  0.00     0.163 HD
BRANCH   4   7
ATOM      7  C   UNL A   1      33.929  25.398  23.227  1.00  0.00     0.072 C 
ATOM      8  C   UNL A   1      34.060  24.170  22.702  1.00  0.00     0.014 C 
BRANCH   8   9
ATOM      9  C   UNL A   1      34.493  22.989  23.459  1.00  0.00    -0.024 A 
ATOM     10  C   UNL A   1      36.190  21.773  24.735  1.00  0.00    -0.047 A 
ATOM     11  C   UNL A   1      35.803  22.865  23.943  1.00  0.00     0.011 A 
ATOM     12  C   UNL A   1      35.228  20.805  25.052  1.00  0.00     0.016 A 
ATOM     13  C   UNL A   1      33.905  20.931  24.605  1.00  0.00     0.023 A 
ATOM     14  C   UNL A   1      33.546  22.016  23.797  1.00  0.00     0.020 A 
BRANCH  10  15
ATOM     15  C   UNL A   1      37.590  21.744  25.304  1.00  0.00     0.032 C 
ATOM     16  C   UNL A   1      38.097  23.050  25.903  1.00  0.00     0.009 C 
ENDBRANCH  10  15
BRANCH  13  17
ATOM     17  C   UNL A   1      32.862  19.924  24.954  1.00  0.00     0.193 C 
ATOM     18  O   UNL A   1      31.749  20.293  25.316  1.00  0.00    -0.289 OA
BRANCH  17  19
ATOM     19  C   UNL A   1      33.131  18.473  24.822  1.00  0.00     0.022 A 
ATOM     20  C   UNL A   1      32.626  17.612  25.801  1.00  0.00     0.012 A 
ATOM     21  C   UNL A   1      33.851  17.962  23.736  1.00  0.00     0.012 A 
ATOM     22  C   UNL A   1      32.790  16.233  25.660  1.00  0.00     0.001 A 
ATOM     23  C   UNL A   1      34.010  16.582  23.600  1.00  0.00     0.001 A 
ATOM     24  C   UNL A   1      33.470  15.720  24.555  1.00  0.00     0.000 A 
ENDBRANCH  17  19
ENDBRANCH  13  17
ENDBRANCH   8   9
ENDBRANCH   4   7
ENDBRANCH   2   3
ENDBRANCH   1   2
BRANCH   1  25
ATOM     25  C   UNL A   1      32.958  29.558  25.661  1.00  0.00     0.118 C 
BRANCH  25  26
ATOM     26  N   UNL A   1      32.703  30.938  26.041  1.00  0.00    -0.352 N 
ATOM     27  C   UNL A   1      33.241  31.691  27.056  1.00  0.00     0.251 C 
ATOM     28  H   UNL A   1      32.040  31.406  25.484  1.00  0.00     0.163 HD
ATOM     29  O   UNL A   1      32.703  32.753  27.356  1.00  0.00    -0.269 OA
BRANCH  27  30
ATOM     30  C   UNL A   1      34.444  31.234  27.785  1.00  0.00     0.039 A 
ATOM     31  C   UNL A   1      35.504  32.129  27.964  1.00  0.00     0.014 A 
ATOM     32  C   UNL A   1      34.561  29.918  28.241  1.00  0.00     0.014 A 
ATOM     33  C   UNL A   1      36.655  31.719  28.642  1.00  0.00     0.010 A 
ATOM     34  C   UNL A   1      35.678  29.532  28.979  1.00  0.00     0.010 A 
ATOM     35  C   UNL A   1      36.741  30.425  29.179  1.00  0.00    -0.014 A 
BRANCH  35  36
ATOM     36  C   UNL A   1      37.938  29.985  29.943  1.00  0.00     0.031 A 
ATOM     37  C   UNL A   1      38.188  30.514  31.329  1.00  0.00     0.074 A 
ATOM     38  C   UNL A   1      38.831  29.161  29.360  1.00  0.00     0.049 A 
ATOM     39  N   UNL A   1      39.205  30.308  32.126  1.00  0.00    -0.248 NA
ATOM     40  C   UNL A   1      37.170  31.422  31.878  1.00  0.00     0.031 C 
ATOM     41  C   UNL A   1      38.716  28.613  28.007  1.00  0.00     0.029 A 
ATOM     42  N   UNL A   1      40.013  28.646  29.826  1.00  0.00    -0.354 N 
ATOM     43  C   UNL A   1      38.962  31.076  33.260  1.00  0.00     0.074 A 
ATOM     44  C   UNL A   1      37.729  31.796  33.018  1.00  0.00     0.031 C 
ATOM     45  C   UNL A   1      39.767  27.815  27.765  1.00  0.00     0.029 A 
ATOM     46  C   UNL A   1      40.655  27.831  28.922  1.00  0.00     0.049 A 
ATOM     47  H   UNL A   1      40.370  28.841  30.723  1.00  0.00     0.167 HD
ATOM     48  C   UNL A   1      39.688  31.157  34.403  1.00  0.00     0.034 A 
ATOM     49  C   UNL A   1      41.830  27.177  29.014  1.00  0.00     0.034 A 
ATOM     50  C   UNL A   1      40.909  30.418  34.628  1.00  0.00     0.049 A 
ATOM     51  C   UNL A   1      42.633  27.299  30.283  1.00  0.00     0.074 A 
ATOM     52  C   UNL A   1      41.689  30.365  35.770  1.00  0.00     0.029 A 
ATOM     53  N   UNL A   1      41.534  29.610  33.685  1.00  0.00    -0.354 N 
ATOM     54  N   UNL A   1      42.362  27.983  31.370  1.00  0.00    -0.248 NA
ATOM     55  C   UNL A   1      43.894  26.552  30.338  1.00  0.00     0.031 C 
ATOM     56  C   UNL A   1      42.820  29.588  35.495  1.00  0.00     0.029 A 
ATOM     57  C   UNL A   1      42.709  29.087  34.208  1.00  0.00     0.049 A 
ATOM     58  H   UNL A   1      41.194  29.433  32.779  1.00  0.00     0.167 HD
ATOM     59  C   UNL A   1      43.407  27.725  32.252  1.00  0.00     0.074 A 
ATOM     60  C   UNL A   1      44.304  26.811  31.572  1.00  0.00     0.031 C 
ATOM     61  C   UNL A   1      43.605  28.192  33.511  1.00  0.00     0.034 A 
BRANCH  48  62
ATOM     62  C   UNL A   1      39.196  32.104  35.475  1.00  0.00     0.023 A 
ATOM     63  C   UNL A   1      39.642  33.436  35.550  1.00  0.00     0.031 A 
ATOM     64  C   UNL A   1      38.302  31.658  36.465  1.00  0.00     0.131 A 
ATOM     65  C   UNL A   1      39.271  34.241  36.638  1.00  0.00     0.055 A 
ATOM     66  C   UNL A   1      37.865  32.493  37.495  1.00  0.00     0.041 A 
ATOM     67  F   UNL A   1      37.853  30.392  36.461  1.00  0.00    -0.206 F 
ATOM     68  C   UNL A   1      38.365  33.787  37.598  1.00  0.00     0.022 A 
BRANCH  65  69
ATOM     69  S   UNL A   1      40.124  35.826  36.872  1.00  0.00     0.124 S 
ATOM     70  O   UNL A   1      41.525  35.415  36.829  1.00  0.00    -0.237 OA
ATOM     71  O   UNL A   1      39.652  36.608  35.735  1.00  0.00    -0.237 OA
ATOM     72  O   UNL A   1      39.655  36.278  38.180  1.00  0.00    -0.744 OA
ENDBRANCH  65  69
ENDBRANCH  48  62
BRANCH  49  73
ATOM     73  C   UNL A   1      42.319  26.347  27.877  1.00  0.00     0.023 A 
ATOM     74  C   UNL A   1      42.000  24.982  27.795  1.00  0.00     0.031 A 
ATOM     75  C   UNL A   1      43.127  26.900  26.868  1.00  0.00     0.131 A 
ATOM     76  C   UNL A   1      42.519  24.205  26.747  1.00  0.00     0.055 A 
ATOM     77  C   UNL A   1      43.600  26.133  25.801  1.00  0.00     0.041 A 
ATOM     78  F   UNL A   1      43.456  28.200  26.896  1.00  0.00    -0.206 F 
ATOM     79  C   UNL A   1      43.305  24.775  25.743  1.00  0.00     0.022 A 
BRANCH  76  80
ATOM     80  S   UNL A   1      42.204  22.419  26.753  1.00  0.00     0.124 S 
ATOM     81  O   UNL A   1      43.478  21.895  27.231  1.00  0.00    -0.237 OA
ATOM     82  O   UNL A   1      41.079  22.313  27.677  1.00  0.00    -0.237 OA
ATOM     83  O   UNL A   1      41.891  22.124  25.357  1.00  0.00    -0.744 OA
ENDBRANCH  76  80
ENDBRANCH  49  73
BRANCH  61  84
ATOM     84  C   UNL A   1      44.824  27.685  34.243  1.00  0.00     0.023 A 
ATOM     85  C   UNL A   1      44.794  26.503  35.002  1.00  0.00     0.031 A 
ATOM     86  C   UNL A   1      46.029  28.408  34.192  1.00  0.00     0.131 A 
ATOM     87  C   UNL A   1      45.929  26.109  35.729  1.00  0.00     0.055 A 
ATOM     88  C   UNL A   1      47.173  27.979  34.866  1.00  0.00     0.041 A 
ATOM     89  F   UNL A   1      46.114  29.546  33.485  1.00  0.00    -0.206 F 
ATOM     90  C   UNL A   1      47.124  26.831  35.650  1.00  0.00     0.022 A 
BRANCH  87  91
ATOM     91  S   UNL A   1      45.796  24.694  36.856  1.00  0.00     0.124 S 
ATOM     92  O   UNL A   1      47.190  24.294  37.005  1.00  0.00    -0.237 OA
ATOM     93  O   UNL A   1      45.173  25.290  38.033  1.00  0.00    -0.237 OA
ATOM     94  O   UNL A   1      44.954  23.750  36.121  1.00  0.00    -0.744 OA
ENDBRANCH  87  91
ENDBRANCH  61  84
ENDBRANCH  35  36
ENDBRANCH  27  30
ENDBRANCH  25  26
ENDBRANCH   1  25
TORSDOF 17
ENDMDL
MODEL 3
REMARK VINA RESULT:     -12.4      5.360     10.873
REMARK SMILES CCc1cc(/C=C/C(=O)NCCCNC(=O)c2ccc(-c3c4nc(c(-c5cc(S(=O)(=O)[O-])ccc5F)c5ccc([nH]5)c(-c5cc(S(=O)(=O)[O-])ccc5F)c5nc(c(-c6cc(S(=O)(=O)[O-])ccc6F)c6ccc3[nH]6)C=C5)C=C4)cc2)cc(C(=O)c2ccccc2)c1
REMARK SMILES IDX 12 1 11 2 10 3 8 4 9 5 7 7 6 8 5 9 3 10 4 11 90 12 81 13
REMARK SMILES IDX 80 14 2 15 1 16 82 17 83 18 84 19 85 20 89 21 86 22 88 23
REMARK SMILES IDX 87 24 13 25 14 26 15 27 16 29 17 30 18 31 79 32 19 33 78 34
REMARK SMILES IDX 20 35 21 36 22 37 72 38 23 39 77 40 71 41 73 42 24 43 76 44
REMARK SMILES IDX 70 45 69 46 25 48 57 49 37 50 56 51 38 52 41 53 55 54 74 55
REMARK SMILES IDX 39 56 40 57 54 59 75 60 42 61 26 62 27 63 35 64 28 65 34 66
REMARK SMILES IDX 36 67 33 68 29 69 30 70 31 71 32 72 58 73 59 74 67 75 60 76
REMARK SMILES IDX 66 77 68 78 65 79 61 80 62 81 63 82 64 83 43 84 44 85 52 86
REMARK SMILES IDX 45 87 51 88 53 89 50 90 46 91 47 92 48 93 49 94
REMARK H PARENT 10 6 14 28 73 47 41 58
REMARK Flexibility Score: inf
ROOT
ATOM      1  C   UNL A   1      34.418  21.717  26.690  1.00  0.00     0.042 C 
ENDROOT
BRANCH   1   2
ATOM      2  C   UNL A   1      33.176  22.161  25.920  1.00  0.00     0.118 C 
BRANCH   2   3
ATOM      3  N   UNL A   1      32.000  22.211  26.772  1.00  0.00    -0.352 N 
ATOM      4  C   UNL A   1      31.043  23.165  26.910  1.00  0.00     0.244 C 
ATOM      5  O   UNL A   1      30.047  22.931  27.594  1.00  0.00    -0.270 OA
ATOM      6  H   UNL A   1      31.876  21.419  27.345  1.00  0.00     0.163 HD
BRANCH   4   7
ATOM      7  C   UNL A   1      31.129  24.457  26.195  1.00  0.00     0.072 C 
ATOM      8  C   UNL A   1      30.237  24.893  25.293  1.00  0.00     0.014 C 
BRANCH   8   9
ATOM      9  C   UNL A   1      30.376  26.137  24.526  1.00  0.00    -0.024 A 
ATOM     10  C   UNL A   1      31.729  27.701  23.217  1.00  0.00    -0.047 A 
ATOM     11  C   UNL A   1      31.614  26.554  24.018  1.00  0.00     0.011 A 
ATOM     12  C   UNL A   1      30.566  28.422  22.916  1.00  0.00     0.016 A 
ATOM     13  C   UNL A   1      29.314  28.000  23.388  1.00  0.00     0.023 A 
ATOM     14  C   UNL A   1      29.227  26.867  24.203  1.00  0.00     0.020 A 
BRANCH  10  15
ATOM     15  C   UNL A   1      33.075  28.045  22.623  1.00  0.00     0.032 C 
ATOM     16  C   UNL A   1      34.234  28.150  23.606  1.00  0.00     0.009 C 
ENDBRANCH  10  15
BRANCH  13  17
ATOM     17  C   UNL A   1      28.063  28.741  23.056  1.00  0.00     0.193 C 
ATOM     18  O   UNL A   1      26.971  28.204  23.215  1.00  0.00    -0.289 OA
BRANCH  17  19
ATOM     19  C   UNL A   1      28.112  30.143  22.580  1.00  0.00     0.022 A 
ATOM     20  C   UNL A   1      28.271  31.161  23.525  1.00  0.00     0.012 A 
ATOM     21  C   UNL A   1      28.028  30.452  21.217  1.00  0.00     0.012 A 
ATOM     22  C   UNL A   1      28.405  32.483  23.100  1.00  0.00     0.001 A 
ATOM     23  C   UNL A   1      28.165  31.777  20.798  1.00  0.00     0.001 A 
ATOM     24  C   UNL A   1      28.364  32.788  21.739  1.00  0.00     0.000 A 
ENDBRANCH  17  19
ENDBRANCH  13  17
ENDBRANCH   8   9
ENDBRANCH   4   7
ENDBRANCH   2   3
ENDBRANCH   1   2
BRANCH   1  25
ATOM     25  C   UNL A   1      35.730  22.181  26.060  1.00  0.00     0.118 C 
BRANCH  25  26
ATOM     26  N   UNL A   1      36.663  21.082  25.871  1.00  0.00    -0.352 N 
ATOM     27  C   UNL A   1      38.032  21.091  25.765  1.00  0.00     0.251 C 
ATOM     28  H   UNL A   1      36.248  20.191  25.810  1.00  0.00     0.163 HD
ATOM     29  O   UNL A   1      38.602  20.082  25.359  1.00  0.00    -0.269 OA
BRANCH  27  30
ATOM     30  C   UNL A   1      38.814  22.294  26.125  1.00  0.00     0.039 A 
ATOM     31  C   UNL A   1      38.360  23.546  25.698  1.00  0.00     0.014 A 
ATOM     32  C   UNL A   1      40.017  22.194  26.829  1.00  0.00     0.014 A 
ATOM     33  C   UNL A   1      39.084  24.697  26.018  1.00  0.00     0.010 A 
ATOM     34  C   UNL A   1      40.700  23.347  27.209  1.00  0.00     0.010 A 
ATOM     35  C   UNL A   1      40.247  24.610  26.800  1.00  0.00    -0.014 A 
BRANCH  35  36
ATOM     36  C   UNL A   1      41.006  25.827  27.189  1.00  0.00     0.031 A 
ATOM     37  C   UNL A   1      40.367  26.870  28.066  1.00  0.00     0.074 A 
ATOM     38  C   UNL A   1      42.246  26.021  26.699  1.00  0.00     0.049 A 
ATOM     39  N   UNL A   1      40.835  28.027  28.457  1.00  0.00    -0.248 NA
ATOM     40  C   UNL A   1      39.005  26.583  28.539  1.00  0.00     0.031 C 
ATOM     41  C   UNL A   1      42.956  25.098  25.810  1.00  0.00     0.029 A 
ATOM     42  N   UNL A   1      43.127  27.058  26.872  1.00  0.00    -0.354 N 
ATOM     43  C   UNL A   1      39.820  28.617  29.203  1.00  0.00     0.074 A 
ATOM     44  C   UNL A   1      38.692  27.711  29.158  1.00  0.00     0.031 C 
ATOM     45  C   UNL A   1      44.173  25.596  25.542  1.00  0.00     0.029 A 
ATOM     46  C   UNL A   1      44.315  26.891  26.197  1.00  0.00     0.049 A 
ATOM     47  H   UNL A   1      42.929  27.846  27.427  1.00  0.00     0.167 HD
ATOM     48  C   UNL A   1      39.836  29.793  29.878  1.00  0.00     0.034 A 
ATOM     49  C   UNL A   1      45.391  27.697  26.109  1.00  0.00     0.034 A 
ATOM     50  C   UNL A   1      40.979  30.675  29.921  1.00  0.00     0.049 A 
ATOM     51  C   UNL A   1      45.379  29.010  26.848  1.00  0.00     0.074 A 
ATOM     52  C   UNL A   1      41.135  31.854  30.629  1.00  0.00     0.029 A 
ATOM     53  N   UNL A   1      42.161  30.479  29.216  1.00  0.00    -0.354 N 
ATOM     54  N   UNL A   1      44.434  29.529  27.597  1.00  0.00    -0.248 NA
ATOM     55  C   UNL A   1      46.584  29.840  26.735  1.00  0.00     0.031 C 
ATOM     56  C   UNL A   1      42.377  32.407  30.295  1.00  0.00     0.029 A 
ATOM     57  C   UNL A   1      43.034  31.535  29.441  1.00  0.00     0.049 A 
ATOM     58  H   UNL A   1      42.352  29.704  28.640  1.00  0.00     0.167 HD
ATOM     59  C   UNL A   1      44.943  30.734  28.070  1.00  0.00     0.074 A 
ATOM     60  C   UNL A   1      46.283  30.856  27.531  1.00  0.00     0.031 C 
ATOM     61  C   UNL A   1      44.360  31.653  28.882  1.00  0.00     0.034 A 
BRANCH  48  62
ATOM     62  C   UNL A   1      38.566  30.204  30.591  1.00  0.00     0.023 A 
ATOM     63  C   UNL A   1      37.576  30.975  29.956  1.00  0.00     0.031 A 
ATOM     64  C   UNL A   1      38.361  29.857  31.939  1.00  0.00     0.131 A 
ATOM     65  C   UNL A   1      36.479  31.453  30.691  1.00  0.00     0.055 A 
ATOM     66  C   UNL A   1      37.222  30.261  32.639  1.00  0.00     0.041 A 
ATOM     67  F   UNL A   1      39.277  29.138  32.607  1.00  0.00    -0.206 F 
ATOM     68  C   UNL A   1      36.283  31.080  32.022  1.00  0.00     0.022 A 
BRANCH  65  69
ATOM     69  S   UNL A   1      35.410  32.708  29.931  1.00  0.00     0.124 S 
ATOM     70  O   UNL A   1      36.338  33.823  29.763  1.00  0.00    -0.237 OA
ATOM     71  O   UNL A   1      34.973  32.049  28.707  1.00  0.00    -0.237 OA
ATOM     72  O   UNL A   1      34.368  32.921  30.933  1.00  0.00    -0.744 OA
ENDBRANCH  65  69
ENDBRANCH  48  62
BRANCH  49  73
ATOM     73  C   UNL A   1      46.572  27.288  25.297  1.00  0.00     0.023 A 
ATOM     74  C   UNL A   1      46.845  27.903  24.065  1.00  0.00     0.031 A 
ATOM     75  C   UNL A   1      47.432  26.263  25.729  1.00  0.00     0.131 A 
ATOM     76  C   UNL A   1      47.927  27.462  23.288  1.00  0.00     0.055 A 
ATOM     77  C   UNL A   1      48.537  25.862  24.976  1.00  0.00     0.041 A 
ATOM     78  F   UNL A   1      47.220  25.646  26.902  1.00  0.00    -0.206 F 
ATOM     79  C   UNL A   1      48.784  26.456  23.742  1.00  0.00     0.022 A 
BRANCH  76  80
ATOM     80  S   UNL A   1      48.163  28.182  21.640  1.00  0.00     0.124 S 
ATOM     81  O   UNL A   1      47.903  27.037  20.776  1.00  0.00    -0.237 OA
ATOM     82  O   UNL A   1      47.158  29.240  21.625  1.00  0.00    -0.237 OA
ATOM     83  O   UNL A   1      49.549  28.643  21.665  1.00  0.00    -0.744 OA
ENDBRANCH  76  80
ENDBRANCH  49  73
BRANCH  61  84
ATOM     84  C   UNL A   1      45.195  32.853  29.263  1.00  0.00     0.023 A 
ATOM     85  C   UNL A   1      45.168  34.042  28.516  1.00  0.00     0.031 A 
ATOM     86  C   UNL A   1      46.044  32.793  30.382  1.00  0.00     0.131 A 
ATOM     87  C   UNL A   1      46.018  35.105  28.861  1.00  0.00     0.055 A 
ATOM     88  C   UNL A   1      46.841  33.875  30.758  1.00  0.00     0.041 A 
ATOM     89  F   UNL A   1      46.114  31.681  31.131  1.00  0.00    -0.206 F 
ATOM     90  C   UNL A   1      46.841  35.035  29.989  1.00  0.00     0.022 A 
BRANCH  87  91
ATOM     91  S   UNL A   1      46.105  36.544  27.761  1.00  0.00     0.124 S 
ATOM     92  O   UNL A   1      46.274  35.917  26.455  1.00  0.00    -0.237 OA
ATOM     93  O   UNL A   1      44.819  37.195  27.995  1.00  0.00    -0.237 OA
ATOM     94  O   UNL A   1      47.269  37.280  28.252  1.00  0.00    -0.744 OA
ENDBRANCH  87  91
ENDBRANCH  61  84
ENDBRANCH  35  36
ENDBRANCH  27  30
ENDBRANCH  25  26
ENDBRANCH   1  25
TORSDOF 17
ENDMDL
