MODEL 1
REMARK VINA RESULT:     -12.6      0.000      0.000
REMARK SMILES COC(=O)c1ccc(Cl)c(-c2ccc(F)cc2C(=O)NCCCNC(=O)c2ccc(-c3c4nc(c(-c5cc(S(=O)(=O)[O-])ccc5F)c5ccc([nH]5)c(-c5cc(S(=O)(=O)[O-])ccc5F)c5nc(c(-c6cc(S(=O)(=O)[O-])ccc6F)c6ccc3[nH]6)C=C5)C=C4)cc2)c1
REMARK SMILES IDX 22 1 21 2 20 3 18 4 19 5 17 7 11 8 12 9 13 10 16 11 14 12
REMARK SMILES IDX 15 13 10 14 5 15 6 16 90 17 7 18 8 19 9 20 3 21 4 22 2 23
REMARK SMILES IDX 1 24 23 25 24 26 25 27 26 29 27 30 28 31 89 32 29 33 88 34
REMARK SMILES IDX 30 35 31 36 32 37 82 38 33 39 87 40 81 41 83 42 34 43 86 44
REMARK SMILES IDX 80 45 79 46 35 48 67 49 47 50 66 51 48 52 51 53 65 54 84 55
REMARK SMILES IDX 49 56 50 57 64 59 85 60 52 61 36 62 37 63 45 64 38 65 44 66
REMARK SMILES IDX 46 67 43 68 39 69 40 70 41 71 42 72 68 73 69 74 77 75 70 76
REMARK SMILES IDX 76 77 78 78 75 79 71 80 72 81 73 82 74 83 53 84 54 85 62 86
REMARK SMILES IDX 55 87 61 88 63 89 60 90 56 91 57 92 58 93 59 94
REMARK H PARENT 20 6 24 28 83 47 51 58
REMARK Flexibility Score: inf
ROOT
ATOM      1  C   UNL A   1      32.528  27.526  25.428  1.00  0.00     0.042 C 
ENDROOT
BRANCH   1   2
ATOM      2  C   UNL A   1      33.432  26.307  25.486  1.00  0.00     0.118 C 
BRANCH   2   3
ATOM      3  N   UNL A   1      32.929  25.149  26.183  1.00  0.00    -0.352 N 
ATOM      4  C   UNL A   1      33.512  23.927  26.414  1.00  0.00     0.252 C 
ATOM      5  O   UNL A   1      32.904  23.154  27.159  1.00  0.00    -0.269 OA
ATOM      6  H   UNL A   1      32.021  25.250  26.551  1.00  0.00     0.163 HD
BRANCH   4   7
ATOM      7  C   UNL A   1      34.773  23.423  25.774  1.00  0.00     0.050 A 
ATOM      8  C   UNL A   1      34.921  22.495  24.709  1.00  0.00    -0.004 A 
ATOM      9  C   UNL A   1      36.221  22.279  24.186  1.00  0.00     0.012 A 
ATOM     10  C   UNL A   1      37.343  22.930  24.697  1.00  0.00     0.040 A 
ATOM     11  C   UNL A   1      35.925  24.081  26.266  1.00  0.00     0.053 A 
ATOM     12  C   UNL A   1      37.182  23.827  25.736  1.00  0.00     0.124 A 
ATOM     13  F   UNL A   1      38.251  24.468  26.224  1.00  0.00    -0.207 F 
BRANCH   8  14
ATOM     14  C   UNL A   1      33.825  21.732  24.078  1.00  0.00     0.002 A 
ATOM     15  C   UNL A   1      32.643  19.623  23.796  1.00  0.00     0.060 A 
ATOM     16  C   UNL A   1      31.950  20.129  22.691  1.00  0.00     0.017 A 
ATOM     17  C   UNL A   1      33.549  20.423  24.508  1.00  0.00     0.026 A 
ATOM     18  C   UNL A   1      32.148  21.452  22.304  1.00  0.00     0.022 A 
ATOM     19  C   UNL A   1      33.071  22.250  22.991  1.00  0.00     0.048 A 
ATOM     20  Cl  UNL A   1      33.339  23.844  22.358  1.00  0.00    -0.084 Cl
BRANCH  15  21
ATOM     21  C   UNL A   1      32.532  18.201  24.170  1.00  0.00     0.337 C 
ATOM     22  O   UNL A   1      32.102  17.801  25.236  1.00  0.00    -0.246 OA
BRANCH  21  23
ATOM     23  O   UNL A   1      33.102  17.478  23.181  1.00  0.00    -0.465 OA
ATOM     24  C   UNL A   1      34.093  16.546  23.611  1.00  0.00     0.282 C 
ENDBRANCH  21  23
ENDBRANCH  15  21
ENDBRANCH   8  14
ENDBRANCH   4   7
ENDBRANCH   2   3
ENDBRANCH   1   2
BRANCH   1  25
ATOM     25  C   UNL A   1      33.230  28.824  25.038  1.00  0.00     0.118 C 
BRANCH  25  26
ATOM     26  N   UNL A   1      32.737  30.023  25.712  1.00  0.00    -0.352 N 
ATOM     27  C   UNL A   1      33.207  30.827  26.724  1.00  0.00     0.251 C 
ATOM     28  H   UNL A   1      31.869  30.326  25.360  1.00  0.00     0.163 HD
ATOM     29  O   UNL A   1      32.513  31.785  27.067  1.00  0.00    -0.269 OA
BRANCH  27  30
ATOM     30  C   UNL A   1      34.464  30.579  27.468  1.00  0.00     0.039 A 
ATOM     31  C   UNL A   1      35.341  31.661  27.651  1.00  0.00     0.014 A 
ATOM     32  C   UNL A   1      34.845  29.327  27.937  1.00  0.00     0.014 A 
ATOM     33  C   UNL A   1      36.538  31.500  28.356  1.00  0.00     0.010 A 
ATOM     34  C   UNL A   1      35.973  29.190  28.740  1.00  0.00     0.010 A 
ATOM     35  C   UNL A   1      36.840  30.271  28.951  1.00  0.00    -0.014 A 
BRANCH  35  36
ATOM     36  C   UNL A   1      38.072  30.054  29.754  1.00  0.00     0.031 A 
ATOM     37  C   UNL A   1      39.162  29.171  29.207  1.00  0.00     0.074 A 
ATOM     38  C   UNL A   1      38.166  30.567  30.996  1.00  0.00     0.049 A 
ATOM     39  N   UNL A   1      40.190  28.645  29.819  1.00  0.00    -0.248 NA
ATOM     40  C   UNL A   1      39.045  28.780  27.792  1.00  0.00     0.031 C 
ATOM     41  C   UNL A   1      37.165  31.419  31.643  1.00  0.00     0.029 A 
ATOM     42  N   UNL A   1      39.150  30.439  31.944  1.00  0.00    -0.354 N 
ATOM     43  C   UNL A   1      40.805  27.818  28.885  1.00  0.00     0.074 A 
ATOM     44  C   UNL A   1      40.008  27.877  27.679  1.00  0.00     0.031 C 
ATOM     45  C   UNL A   1      37.605  31.769  32.862  1.00  0.00     0.029 A 
ATOM     46  C   UNL A   1      38.885  31.119  33.110  1.00  0.00     0.049 A 
ATOM     47  H   UNL A   1      39.969  29.911  31.802  1.00  0.00     0.167 HD
ATOM     48  C   UNL A   1      41.941  27.093  29.017  1.00  0.00     0.034 A 
ATOM     49  C   UNL A   1      39.589  31.193  34.257  1.00  0.00     0.034 A 
ATOM     50  C   UNL A   1      42.763  27.116  30.198  1.00  0.00     0.049 A 
ATOM     51  C   UNL A   1      40.871  30.414  34.367  1.00  0.00     0.074 A 
ATOM     52  C   UNL A   1      43.970  26.479  30.423  1.00  0.00     0.029 A 
ATOM     53  N   UNL A   1      42.470  27.840  31.348  1.00  0.00    -0.354 N 
ATOM     54  N   UNL A   1      41.422  29.612  33.486  1.00  0.00    -0.248 NA
ATOM     55  C   UNL A   1      41.620  30.541  35.624  1.00  0.00     0.031 C 
ATOM     56  C   UNL A   1      44.391  26.791  31.720  1.00  0.00     0.029 A 
ATOM     57  C   UNL A   1      43.471  27.660  32.287  1.00  0.00     0.049 A 
ATOM     58  H   UNL A   1      41.670  28.397  31.475  1.00  0.00     0.167 HD
ATOM     59  C   UNL A   1      42.590  29.145  34.078  1.00  0.00     0.074 A 
ATOM     60  C   UNL A   1      42.669  29.763  35.387  1.00  0.00     0.031 C 
ATOM     61  C   UNL A   1      43.514  28.284  33.585  1.00  0.00     0.034 A 
BRANCH  48  62
ATOM     62  C   UNL A   1      42.351  26.217  27.859  1.00  0.00     0.023 A 
ATOM     63  C   UNL A   1      41.844  24.916  27.705  1.00  0.00     0.031 A 
ATOM     64  C   UNL A   1      43.276  26.683  26.908  1.00  0.00     0.131 A 
ATOM     65  C   UNL A   1      42.316  24.101  26.666  1.00  0.00     0.055 A 
ATOM     66  C   UNL A   1      43.685  25.893  25.832  1.00  0.00     0.041 A 
ATOM     67  F   UNL A   1      43.807  27.912  27.016  1.00  0.00    -0.206 F 
ATOM     68  C   UNL A   1      43.213  24.589  25.712  1.00  0.00     0.022 A 
BRANCH  65  69
ATOM     69  S   UNL A   1      41.819  22.357  26.638  1.00  0.00     0.124 S 
ATOM     70  O   UNL A   1      42.463  21.852  27.847  1.00  0.00    -0.237 OA
ATOM     71  O   UNL A   1      40.364  22.440  26.677  1.00  0.00    -0.237 OA
ATOM     72  O   UNL A   1      42.381  21.862  25.382  1.00  0.00    -0.744 OA
ENDBRANCH  65  69
ENDBRANCH  48  62
BRANCH  49  73
ATOM     73  C   UNL A   1      39.091  32.029  35.382  1.00  0.00     0.023 A 
ATOM     74  C   UNL A   1      38.406  31.444  36.458  1.00  0.00     0.031 A 
ATOM     75  C   UNL A   1      39.318  33.416  35.416  1.00  0.00     0.131 A 
ATOM     76  C   UNL A   1      37.957  32.246  37.518  1.00  0.00     0.055 A 
ATOM     77  C   UNL A   1      38.898  34.205  36.487  1.00  0.00     0.041 A 
ATOM     78  F   UNL A   1      39.985  34.017  34.417  1.00  0.00    -0.206 F 
ATOM     79  C   UNL A   1      38.208  33.620  37.546  1.00  0.00     0.022 A 
BRANCH  76  80
ATOM     80  S   UNL A   1      37.026  31.466  38.866  1.00  0.00     0.124 S 
ATOM     81  O   UNL A   1      37.923  31.662  39.999  1.00  0.00    -0.237 OA
ATOM     82  O   UNL A   1      35.794  32.248  38.879  1.00  0.00    -0.237 OA
ATOM     83  O   UNL A   1      36.876  30.082  38.418  1.00  0.00    -0.744 OA
ENDBRANCH  76  80
ENDBRANCH  49  73
BRANCH  61  84
ATOM     84  C   UNL A   1      44.699  27.978  34.458  1.00  0.00     0.023 A 
ATOM     85  C   UNL A   1      44.688  26.886  35.338  1.00  0.00     0.031 A 
ATOM     86  C   UNL A   1      45.866  28.754  34.361  1.00  0.00     0.131 A 
ATOM     87  C   UNL A   1      45.823  26.609  36.112  1.00  0.00     0.055 A 
ATOM     88  C   UNL A   1      47.006  28.451  35.102  1.00  0.00     0.041 A 
ATOM     89  F   UNL A   1      45.920  29.805  33.526  1.00  0.00    -0.206 F 
ATOM     90  C   UNL A   1      46.988  27.374  35.986  1.00  0.00     0.022 A 
BRANCH  87  91
ATOM     91  S   UNL A   1      45.758  25.240  37.298  1.00  0.00     0.124 S 
ATOM     92  O   UNL A   1      47.033  24.573  37.056  1.00  0.00    -0.237 OA
ATOM     93  O   UNL A   1      45.633  25.933  38.576  1.00  0.00    -0.237 OA
ATOM     94  O   UNL A   1      44.575  24.487  36.886  1.00  0.00    -0.744 OA
ENDBRANCH  87  91
ENDBRANCH  61  84
ENDBRANCH  35  36
ENDBRANCH  27  30
ENDBRANCH  25  26
ENDBRANCH   1  25
TORSDOF 16
ENDMDL
MODEL 2
REMARK VINA RESULT:     -12.3      1.980      2.841
REMARK SMILES COC(=O)c1ccc(Cl)c(-c2ccc(F)cc2C(=O)NCCCNC(=O)c2ccc(-c3c4nc(c(-c5cc(S(=O)(=O)[O-])ccc5F)c5ccc([nH]5)c(-c5cc(S(=O)(=O)[O-])ccc5F)c5nc(c(-c6cc(S(=O)(=O)[O-])ccc6F)c6ccc3[nH]6)C=C5)C=C4)cc2)c1
REMARK SMILES IDX 22 1 21 2 20 3 18 4 19 5 17 7 11 8 12 9 13 10 16 11 14 12
REMARK SMILES IDX 15 13 10 14 5 15 6 16 90 17 7 18 8 19 9 20 3 21 4 22 2 23
REMARK SMILES IDX 1 24 23 25 24 26 25 27 26 29 27 30 28 31 89 32 29 33 88 34
REMARK SMILES IDX 30 35 31 36 32 37 82 38 33 39 87 40 81 41 83 42 34 43 86 44
REMARK SMILES IDX 80 45 79 46 35 48 67 49 47 50 66 51 48 52 51 53 65 54 84 55
REMARK SMILES IDX 49 56 50 57 64 59 85 60 52 61 36 62 37 63 45 64 38 65 44 66
REMARK SMILES IDX 46 67 43 68 39 69 40 70 41 71 42 72 68 73 69 74 77 75 70 76
REMARK SMILES IDX 76 77 78 78 75 79 71 80 72 81 73 82 74 83 53 84 54 85 62 86
REMARK SMILES IDX 55 87 61 88 63 89 60 90 56 91 57 92 58 93 59 94
REMARK H PARENT 20 6 24 28 83 47 51 58
REMARK Flexibility Score: inf
ROOT
ATOM      1  C   UNL A   1      33.229  29.200  24.298  1.00  0.00     0.042 C 
ENDROOT
BRANCH   1   2
ATOM      2  C   UNL A   1      34.106  27.967  24.169  1.00  0.00     0.118 C 
BRANCH   2   3
ATOM      3  N   UNL A   1      34.066  27.262  22.911  1.00  0.00    -0.352 N 
ATOM      4  C   UNL A   1      33.006  26.709  22.235  1.00  0.00     0.252 C 
ATOM      5  O   UNL A   1      33.236  26.274  21.103  1.00  0.00    -0.269 OA
ATOM      6  H   UNL A   1      34.938  27.161  22.466  1.00  0.00     0.163 HD
BRANCH   4   7
ATOM      7  C   UNL A   1      31.623  26.511  22.786  1.00  0.00     0.050 A 
ATOM      8  C   UNL A   1      31.139  25.470  23.622  1.00  0.00    -0.004 A 
ATOM      9  C   UNL A   1      29.817  25.576  24.124  1.00  0.00     0.012 A 
ATOM     10  C   UNL A   1      28.986  26.649  23.803  1.00  0.00     0.040 A 
ATOM     11  C   UNL A   1      30.766  27.596  22.486  1.00  0.00     0.053 A 
ATOM     12  C   UNL A   1      29.471  27.651  22.985  1.00  0.00     0.124 A 
ATOM     13  F   UNL A   1      28.687  28.693  22.683  1.00  0.00    -0.207 F 
BRANCH   8  14
ATOM     14  C   UNL A   1      31.904  24.277  24.035  1.00  0.00     0.002 A 
ATOM     15  C   UNL A   1      32.442  21.926  23.705  1.00  0.00     0.060 A 
ATOM     16  C   UNL A   1      33.094  21.874  24.943  1.00  0.00     0.017 A 
ATOM     17  C   UNL A   1      31.880  23.121  23.235  1.00  0.00     0.026 A 
ATOM     18  C   UNL A   1      33.202  23.032  25.710  1.00  0.00     0.022 A 
ATOM     19  C   UNL A   1      32.619  24.223  25.262  1.00  0.00     0.048 A 
ATOM     20  Cl  UNL A   1      32.699  25.579  26.343  1.00  0.00    -0.084 Cl
BRANCH  15  21
ATOM     21  C   UNL A   1      32.223  20.699  22.917  1.00  0.00     0.337 C 
ATOM     22  O   UNL A   1      31.861  20.683  21.755  1.00  0.00    -0.246 OA
BRANCH  21  23
ATOM     23  O   UNL A   1      32.375  19.649  23.753  1.00  0.00    -0.465 OA
ATOM     24  C   UNL A   1      32.406  18.372  23.116  1.00  0.00     0.282 C 
ENDBRANCH  21  23
ENDBRANCH  15  21
ENDBRANCH   8  14
ENDBRANCH   4   7
ENDBRANCH   2   3
ENDBRANCH   1   2
BRANCH   1  25
ATOM     25  C   UNL A   1      32.388  29.255  25.571  1.00  0.00     0.118 C 
BRANCH  25  26
ATOM     26  N   UNL A   1      32.109  30.598  26.073  1.00  0.00    -0.352 N 
ATOM     27  C   UNL A   1      32.760  31.472  26.912  1.00  0.00     0.251 C 
ATOM     28  H   UNL A   1      31.259  30.961  25.733  1.00  0.00     0.163 HD
ATOM     29  O   UNL A   1      32.224  32.558  27.140  1.00  0.00    -0.269 OA
BRANCH  27  30
ATOM     30  C   UNL A   1      34.035  31.168  27.604  1.00  0.00     0.039 A 
ATOM     31  C   UNL A   1      34.884  32.243  27.915  1.00  0.00     0.014 A 
ATOM     32  C   UNL A   1      34.456  29.878  27.905  1.00  0.00     0.014 A 
ATOM     33  C   UNL A   1      36.095  32.028  28.579  1.00  0.00     0.010 A 
ATOM     34  C   UNL A   1      35.599  29.672  28.672  1.00  0.00     0.010 A 
ATOM     35  C   UNL A   1      36.439  30.742  29.009  1.00  0.00    -0.014 A 
BRANCH  35  36
ATOM     36  C   UNL A   1      37.688  30.460  29.765  1.00  0.00     0.031 A 
ATOM     37  C   UNL A   1      38.756  29.609  29.131  1.00  0.00     0.074 A 
ATOM     38  C   UNL A   1      37.817  30.885  31.037  1.00  0.00     0.049 A 
ATOM     39  N   UNL A   1      39.793  29.034  29.679  1.00  0.00    -0.248 NA
ATOM     40  C   UNL A   1      38.601  29.318  27.696  1.00  0.00     0.031 C 
ATOM     41  C   UNL A   1      36.840  31.697  31.766  1.00  0.00     0.029 A 
ATOM     42  N   UNL A   1      38.822  30.683  31.949  1.00  0.00    -0.354 N 
ATOM     43  C   UNL A   1      40.377  28.268  28.675  1.00  0.00     0.074 A 
ATOM     44  C   UNL A   1      39.552  28.418  27.496  1.00  0.00     0.031 C 
ATOM     45  C   UNL A   1      37.312  31.958  32.995  1.00  0.00     0.029 A 
ATOM     46  C   UNL A   1      38.592  31.282  33.166  1.00  0.00     0.049 A 
ATOM     47  H   UNL A   1      39.632  30.160  31.750  1.00  0.00     0.167 HD
ATOM     48  C   UNL A   1      41.509  27.527  28.728  1.00  0.00     0.034 A 
ATOM     49  C   UNL A   1      39.324  31.270  34.297  1.00  0.00     0.034 A 
ATOM     50  C   UNL A   1      42.360  27.462  29.887  1.00  0.00     0.049 A 
ATOM     51  C   UNL A   1      40.601  30.476  34.321  1.00  0.00     0.074 A 
ATOM     52  C   UNL A   1      43.566  26.801  30.037  1.00  0.00     0.029 A 
ATOM     53  N   UNL A   1      42.102  28.106  31.091  1.00  0.00    -0.354 N 
ATOM     54  N   UNL A   1      41.123  29.733  33.373  1.00  0.00    -0.248 NA
ATOM     55  C   UNL A   1      41.381  30.509  35.564  1.00  0.00     0.031 C 
ATOM     56  C   UNL A   1      44.021  27.019  31.342  1.00  0.00     0.029 A 
ATOM     57  C   UNL A   1      43.124  27.854  31.991  1.00  0.00     0.049 A 
ATOM     58  H   UNL A   1      41.311  28.659  31.277  1.00  0.00     0.167 HD
ATOM     59  C   UNL A   1      42.300  29.217  33.902  1.00  0.00     0.074 A 
ATOM     60  C   UNL A   1      42.416  29.741  35.248  1.00  0.00     0.031 C 
ATOM     61  C   UNL A   1      43.204  28.385  33.328  1.00  0.00     0.034 A 
BRANCH  48  62
ATOM     62  C   UNL A   1      41.883  26.731  27.503  1.00  0.00     0.023 A 
ATOM     63  C   UNL A   1      41.622  25.354  27.412  1.00  0.00     0.031 A 
ATOM     64  C   UNL A   1      42.525  27.355  26.418  1.00  0.00     0.131 A 
ATOM     65  C   UNL A   1      42.064  24.631  26.294  1.00  0.00     0.055 A 
ATOM     66  C   UNL A   1      42.895  26.644  25.274  1.00  0.00     0.041 A 
ATOM     67  F   UNL A   1      42.815  28.665  26.457  1.00  0.00    -0.206 F 
ATOM     68  C   UNL A   1      42.675  25.271  25.213  1.00  0.00     0.022 A 
BRANCH  65  69
ATOM     69  S   UNL A   1      41.921  22.824  26.318  1.00  0.00     0.124 S 
ATOM     70  O   UNL A   1      40.472  22.647  26.289  1.00  0.00    -0.237 OA
ATOM     71  O   UNL A   1      42.635  22.431  25.109  1.00  0.00    -0.237 OA
ATOM     72  O   UNL A   1      42.567  22.446  27.574  1.00  0.00    -0.744 OA
ENDBRANCH  65  69
ENDBRANCH  48  62
BRANCH  49  73
ATOM     73  C   UNL A   1      38.862  32.029  35.490  1.00  0.00     0.023 A 
ATOM     74  C   UNL A   1      38.207  31.374  36.543  1.00  0.00     0.031 A 
ATOM     75  C   UNL A   1      39.094  33.411  35.609  1.00  0.00     0.131 A 
ATOM     76  C   UNL A   1      37.790  32.105  37.668  1.00  0.00     0.055 A 
ATOM     77  C   UNL A   1      38.706  34.127  36.743  1.00  0.00     0.041 A 
ATOM     78  F   UNL A   1      39.732  34.077  34.634  1.00  0.00    -0.206 F 
ATOM     79  C   UNL A   1      38.046  33.474  37.779  1.00  0.00     0.022 A 
BRANCH  76  80
ATOM     80  S   UNL A   1      36.897  31.237  38.987  1.00  0.00     0.124 S 
ATOM     81  O   UNL A   1      37.811  31.386  40.113  1.00  0.00    -0.237 OA
ATOM     82  O   UNL A   1      35.654  31.996  39.064  1.00  0.00    -0.237 OA
ATOM     83  O   UNL A   1      36.761  29.877  38.467  1.00  0.00    -0.744 OA
ENDBRANCH  76  80
ENDBRANCH  49  73
BRANCH  61  84
ATOM     84  C   UNL A   1      44.407  28.009  34.147  1.00  0.00     0.023 A 
ATOM     85  C   UNL A   1      44.415  26.846  34.931  1.00  0.00     0.031 A 
ATOM     86  C   UNL A   1      45.570  28.795  34.094  1.00  0.00     0.131 A 
ATOM     87  C   UNL A   1      45.566  26.508  35.655  1.00  0.00     0.055 A 
ATOM     88  C   UNL A   1      46.726  28.433  34.784  1.00  0.00     0.041 A 
ATOM     89  F   UNL A   1      45.606  29.913  33.351  1.00  0.00    -0.206 F 
ATOM     90  C   UNL A   1      46.727  27.285  35.573  1.00  0.00     0.022 A 
BRANCH  87  91
ATOM     91  S   UNL A   1      45.527  25.042  36.721  1.00  0.00     0.124 S 
ATOM     92  O   UNL A   1      44.371  24.322  36.198  1.00  0.00    -0.237 OA
ATOM     93  O   UNL A   1      46.827  24.431  36.468  1.00  0.00    -0.237 OA
ATOM     94  O   UNL A   1      45.357  25.599  38.062  1.00  0.00    -0.744 OA
ENDBRANCH  87  91
ENDBRANCH  61  84
ENDBRANCH  35  36
ENDBRANCH  27  30
ENDBRANCH  25  26
ENDBRANCH   1  25
TORSDOF 16
ENDMDL
MODEL 3
REMARK VINA RESULT:     -12.2      2.932      4.526
REMARK SMILES COC(=O)c1ccc(Cl)c(-c2ccc(F)cc2C(=O)NCCCNC(=O)c2ccc(-c3c4nc(c(-c5cc(S(=O)(=O)[O-])ccc5F)c5ccc([nH]5)c(-c5cc(S(=O)(=O)[O-])ccc5F)c5nc(c(-c6cc(S(=O)(=O)[O-])ccc6F)c6ccc3[nH]6)C=C5)C=C4)cc2)c1
REMARK SMILES IDX 22 1 21 2 20 3 18 4 19 5 17 7 11 8 12 9 13 10 16 11 14 12
REMARK SMILES IDX 15 13 10 14 5 15 6 16 90 17 7 18 8 19 9 20 3 21 4 22 2 23
REMARK SMILES IDX 1 24 23 25 24 26 25 27 26 29 27 30 28 31 89 32 29 33 88 34
REMARK SMILES IDX 30 35 31 36 32 37 82 38 33 39 87 40 81 41 83 42 34 43 86 44
REMARK SMILES IDX 80 45 79 46 35 48 67 49 47 50 66 51 48 52 51 53 65 54 84 55
REMARK SMILES IDX 49 56 50 57 64 59 85 60 52 61 36 62 37 63 45 64 38 65 44 66
REMARK SMILES IDX 46 67 43 68 39 69 40 70 41 71 42 72 68 73 69 74 77 75 70 76
REMARK SMILES IDX 76 77 78 78 75 79 71 80 72 81 73 82 74 83 53 84 54 85 62 86
REMARK SMILES IDX 55 87 61 88 63 89 60 90 56 91 57 92 58 93 59 94
REMARK H PARENT 20 6 24 28 83 47 51 58
REMARK Flexibility Score: inf
ROOT
ATOM      1  C   UNL A   1      31.400  31.346  26.512  1.00  0.00     0.042 C 
ENDROOT
BRANCH   1   2
ATOM      2  C   UNL A   1      31.651  29.857  26.348  1.00  0.00     0.118 C 
BRANCH   2   3
ATOM      3  N   UNL A   1      32.338  29.435  25.152  1.00  0.00    -0.352 N 
ATOM      4  C   UNL A   1      31.844  29.097  23.916  1.00  0.00     0.252 C 
ATOM      5  O   UNL A   1      32.673  28.897  23.023  1.00  0.00    -0.269 OA
ATOM      6  H   UNL A   1      33.317  29.382  25.234  1.00  0.00     0.163 HD
BRANCH   4   7
ATOM      7  C   UNL A   1      30.399  28.864  23.583  1.00  0.00     0.050 A 
ATOM      8  C   UNL A   1      29.671  27.645  23.583  1.00  0.00    -0.004 A 
ATOM      9  C   UNL A   1      28.271  27.702  23.362  1.00  0.00     0.012 A 
ATOM     10  C   UNL A   1      27.606  28.905  23.128  1.00  0.00     0.040 A 
ATOM     11  C   UNL A   1      29.699  30.073  23.357  1.00  0.00     0.053 A 
ATOM     12  C   UNL A   1      28.330  30.081  23.128  1.00  0.00     0.124 A 
ATOM     13  F   UNL A   1      27.699  31.244  22.920  1.00  0.00    -0.207 F 
BRANCH   8  14
ATOM     14  C   UNL A   1      30.245  26.303  23.809  1.00  0.00     0.002 A 
ATOM     15  C   UNL A   1      30.736  24.474  25.337  1.00  0.00     0.060 A 
ATOM     16  C   UNL A   1      31.583  23.880  24.396  1.00  0.00     0.017 A 
ATOM     17  C   UNL A   1      30.044  25.657  25.040  1.00  0.00     0.026 A 
ATOM     18  C   UNL A   1      31.727  24.461  23.139  1.00  0.00     0.022 A 
ATOM     19  C   UNL A   1      31.063  25.657  22.842  1.00  0.00     0.048 A 
ATOM     20  Cl  UNL A   1      31.402  26.370  21.297  1.00  0.00    -0.084 Cl
BRANCH  15  21
ATOM     21  C   UNL A   1      30.639  23.940  26.709  1.00  0.00     0.337 C 
ATOM     22  O   UNL A   1      29.598  23.618  27.251  1.00  0.00    -0.246 OA
BRANCH  21  23
ATOM     23  O   UNL A   1      31.873  24.005  27.255  1.00  0.00    -0.465 OA
ATOM     24  C   UNL A   1      32.434  22.747  27.627  1.00  0.00     0.282 C 
ENDBRANCH  21  23
ENDBRANCH  15  21
ENDBRANCH   8  14
ENDBRANCH   4   7
ENDBRANCH   2   3
ENDBRANCH   1   2
BRANCH   1  25
ATOM     25  C   UNL A   1      32.647  32.176  26.805  1.00  0.00     0.118 C 
BRANCH  25  26
ATOM     26  N   UNL A   1      32.396  33.476  27.423  1.00  0.00    -0.352 N 
ATOM     27  C   UNL A   1      33.030  34.230  28.382  1.00  0.00     0.251 C 
ATOM     28  H   UNL A   1      31.587  33.913  27.071  1.00  0.00     0.163 HD
ATOM     29  O   UNL A   1      32.530  35.314  28.686  1.00  0.00    -0.269 OA
BRANCH  27  30
ATOM     30  C   UNL A   1      34.243  33.796  29.114  1.00  0.00     0.039 A 
ATOM     31  C   UNL A   1      34.094  32.806  30.100  1.00  0.00     0.014 A 
ATOM     32  C   UNL A   1      35.500  34.356  28.918  1.00  0.00     0.014 A 
ATOM     33  C   UNL A   1      35.199  32.340  30.818  1.00  0.00     0.010 A 
ATOM     34  C   UNL A   1      36.618  33.811  29.543  1.00  0.00     0.010 A 
ATOM     35  C   UNL A   1      36.482  32.805  30.509  1.00  0.00    -0.014 A 
BRANCH  35  36
ATOM     36  C   UNL A   1      37.699  32.310  31.203  1.00  0.00     0.031 A 
ATOM     37  C   UNL A   1      38.502  31.199  30.579  1.00  0.00     0.074 A 
ATOM     38  C   UNL A   1      38.024  32.788  32.420  1.00  0.00     0.049 A 
ATOM     39  N   UNL A   1      39.434  30.450  31.108  1.00  0.00    -0.248 NA
ATOM     40  C   UNL A   1      38.168  30.845  29.189  1.00  0.00     0.031 C 
ATOM     41  C   UNL A   1      37.309  33.848  33.136  1.00  0.00     0.029 A 
ATOM     42  N   UNL A   1      39.035  32.437  33.278  1.00  0.00    -0.354 N 
ATOM     43  C   UNL A   1      39.753  29.503  30.140  1.00  0.00     0.074 A 
ATOM     44  C   UNL A   1      38.883  29.745  29.010  1.00  0.00     0.031 C 
ATOM     45  C   UNL A   1      37.928  34.088  34.303  1.00  0.00     0.029 A 
ATOM     46  C   UNL A   1      39.042  33.159  34.449  1.00  0.00     0.049 A 
ATOM     47  H   UNL A   1      39.693  31.733  33.075  1.00  0.00     0.167 HD
ATOM     48  C   UNL A   1      40.699  28.535  30.185  1.00  0.00     0.034 A 
ATOM     49  C   UNL A   1      39.846  33.069  35.526  1.00  0.00     0.034 A 
ATOM     50  C   UNL A   1      41.610  28.369  31.288  1.00  0.00     0.049 A 
ATOM     51  C   UNL A   1      40.920  32.015  35.537  1.00  0.00     0.074 A 
ATOM     52  C   UNL A   1      42.653  27.470  31.417  1.00  0.00     0.029 A 
ATOM     53  N   UNL A   1      41.599  29.140  32.443  1.00  0.00    -0.354 N 
ATOM     54  N   UNL A   1      41.189  31.107  34.628  1.00  0.00    -0.248 NA
ATOM     55  C   UNL A   1      41.791  31.966  36.718  1.00  0.00     0.031 C 
ATOM     56  C   UNL A   1      43.253  27.677  32.664  1.00  0.00     0.029 A 
ATOM     57  C   UNL A   1      42.614  28.735  33.292  1.00  0.00     0.049 A 
ATOM     58  H   UNL A   1      40.963  29.868  32.629  1.00  0.00     0.167 HD
ATOM     59  C   UNL A   1      42.266  30.384  35.122  1.00  0.00     0.074 A 
ATOM     60  C   UNL A   1      42.606  30.967  36.405  1.00  0.00     0.031 C 
ATOM     61  C   UNL A   1      42.919  29.332  34.568  1.00  0.00     0.034 A 
BRANCH  48  62
ATOM     62  C   UNL A   1      40.788  27.588  29.015  1.00  0.00     0.023 A 
ATOM     63  C   UNL A   1      41.743  27.761  27.999  1.00  0.00     0.031 A 
ATOM     64  C   UNL A   1      39.895  26.507  28.905  1.00  0.00     0.131 A 
ATOM     65  C   UNL A   1      41.738  26.912  26.883  1.00  0.00     0.055 A 
ATOM     66  C   UNL A   1      39.945  25.619  27.829  1.00  0.00     0.041 A 
ATOM     67  F   UNL A   1      38.951  26.304  29.838  1.00  0.00    -0.206 F 
ATOM     68  C   UNL A   1      40.862  25.826  26.803  1.00  0.00     0.022 A 
BRANCH  65  69
ATOM     69  S   UNL A   1      42.824  27.308  25.487  1.00  0.00     0.124 S 
ATOM     70  O   UNL A   1      44.116  27.449  26.155  1.00  0.00    -0.237 OA
ATOM     71  O   UNL A   1      42.677  26.140  24.627  1.00  0.00    -0.237 OA
ATOM     72  O   UNL A   1      42.261  28.548  24.957  1.00  0.00    -0.744 OA
ENDBRANCH  65  69
ENDBRANCH  48  62
BRANCH  49  73
ATOM     73  C   UNL A   1      39.661  33.998  36.673  1.00  0.00     0.023 A 
ATOM     74  C   UNL A   1      39.096  33.544  37.874  1.00  0.00     0.031 A 
ATOM     75  C   UNL A   1      40.071  35.340  36.598  1.00  0.00     0.131 A 
ATOM     76  C   UNL A   1      38.942  34.431  38.952  1.00  0.00     0.055 A 
ATOM     77  C   UNL A   1      39.945  36.210  37.682  1.00  0.00     0.041 A 
ATOM     78  F   UNL A   1      40.633  35.815  35.474  1.00  0.00    -0.206 F 
ATOM     79  C   UNL A   1      39.373  35.757  38.867  1.00  0.00     0.022 A 
BRANCH  76  80
ATOM     80  S   UNL A   1      38.156  33.826  40.471  1.00  0.00     0.124 S 
ATOM     81  O   UNL A   1      37.823  35.073  41.150  1.00  0.00    -0.237 OA
ATOM     82  O   UNL A   1      37.031  33.058  39.949  1.00  0.00    -0.237 OA
ATOM     83  O   UNL A   1      39.208  33.031  41.104  1.00  0.00    -0.744 OA
ENDBRANCH  76  80
ENDBRANCH  49  73
BRANCH  61  84
ATOM     84  C   UNL A   1      44.077  28.761  35.336  1.00  0.00     0.023 A 
ATOM     85  C   UNL A   1      43.887  27.742  36.282  1.00  0.00     0.031 A 
ATOM     86  C   UNL A   1      45.385  29.203  35.075  1.00  0.00     0.131 A 
ATOM     87  C   UNL A   1      44.994  27.209  36.955  1.00  0.00     0.055 A 
ATOM     88  C   UNL A   1      46.486  28.641  35.718  1.00  0.00     0.041 A 
ATOM     89  F   UNL A   1      45.610  30.173  34.173  1.00  0.00    -0.206 F 
ATOM     90  C   UNL A   1      46.293  27.639  36.667  1.00  0.00     0.022 A 
BRANCH  87  91
ATOM     91  S   UNL A   1      44.716  25.948  38.228  1.00  0.00     0.124 S 
ATOM     92  O   UNL A   1      43.779  26.623  39.119  1.00  0.00    -0.237 OA
ATOM     93  O   UNL A   1      44.173  24.834  37.458  1.00  0.00    -0.237 OA
ATOM     94  O   UNL A   1      46.049  25.722  38.783  1.00  0.00    -0.744 OA
ENDBRANCH  87  91
ENDBRANCH  61  84
ENDBRANCH  35  36
ENDBRANCH  27  30
ENDBRANCH  25  26
ENDBRANCH   1  25
TORSDOF 16
ENDMDL
