MODEL 1
REMARK VINA RESULT:     -13.4      0.000      0.000
REMARK SMILES Cc1cccc(-c2ccc(Cl)c(C(=O)NCCCNC(=O)c3ccc(-c4c5nc(c(-c6cc(S(=O)(=O)[O-])ccc6F)c6ccc([nH]6)c(-c6cc(S(=O)(=O)[O-])ccc6F)c6nc(c(-c7cc(S(=O)(=O)[O-])ccc7F)c7ccc4[nH]7)C=C6)C=C5)cc3)c2)c1
REMARK SMILES IDX 18 1 17 2 16 3 15 4 13 5 14 6 12 8 7 9 8 10 85 11 9 12 10 13
REMARK SMILES IDX 11 14 6 15 1 16 2 17 3 18 86 19 4 20 5 21 19 22 20 23 21 25
REMARK SMILES IDX 22 26 23 27 84 28 24 29 83 30 25 31 26 32 27 33 77 34 28 35
REMARK SMILES IDX 82 36 76 37 78 38 29 39 81 40 75 41 74 42 30 44 62 45 42 46
REMARK SMILES IDX 61 47 43 48 46 49 60 50 79 51 44 52 45 53 59 55 80 56 47 57
REMARK SMILES IDX 31 58 32 59 40 60 33 61 39 62 41 63 38 64 34 65 35 66 36 67
REMARK SMILES IDX 37 68 63 69 64 70 72 71 65 72 71 73 73 74 70 75 66 76 67 77
REMARK SMILES IDX 68 78 69 79 48 80 49 81 57 82 50 83 56 84 58 85 55 86 51 87
REMARK SMILES IDX 52 88 53 89 54 90
REMARK H PARENT 15 7 19 24 78 43 46 54
REMARK Flexibility Score: inf
ROOT
ATOM      1  C   UNL A   1      34.445  30.625  27.631  1.00  0.00     0.118 C 
ENDROOT
BRANCH   1   2
ATOM      2  C   UNL A   1      33.079  31.201  27.303  1.00  0.00     0.042 C 
BRANCH   2   3
ATOM      3  C   UNL A   1      32.294  30.350  26.326  1.00  0.00     0.118 C 
BRANCH   3   4
ATOM      4  N   UNL A   1      33.069  29.913  25.172  1.00  0.00    -0.352 N 
ATOM      5  C   UNL A   1      33.246  28.675  24.598  1.00  0.00     0.252 C 
ATOM      6  O   UNL A   1      34.024  28.556  23.650  1.00  0.00    -0.269 OA
ATOM      7  H   UNL A   1      33.558  30.637  24.719  1.00  0.00     0.163 HD
BRANCH   5   8
ATOM      8  C   UNL A   1      32.604  27.438  25.123  1.00  0.00     0.059 A 
ATOM      9  C   UNL A   1      32.966  25.228  26.132  1.00  0.00    -0.017 A 
ATOM     10  C   UNL A   1      31.578  25.099  26.279  1.00  0.00     0.010 A 
ATOM     11  C   UNL A   1      33.467  26.451  25.654  1.00  0.00     0.024 A 
ATOM     12  C   UNL A   1      30.723  26.026  25.695  1.00  0.00     0.022 A 
ATOM     13  C   UNL A   1      31.248  27.120  25.004  1.00  0.00     0.053 A 
ATOM     14  Cl  UNL A   1      30.188  27.828  23.827  1.00  0.00    -0.083 Cl
BRANCH   9  15
ATOM     15  C   UNL A   1      33.804  24.019  26.221  1.00  0.00    -0.018 A 
ATOM     16  C   UNL A   1      37.400  23.166  25.223  1.00  0.00     0.044 C 
ATOM     17  C   UNL A   1      36.014  23.024  25.776  1.00  0.00    -0.051 A 
ATOM     18  C   UNL A   1      35.580  21.832  26.353  1.00  0.00     0.003 A 
ATOM     19  C   UNL A   1      35.121  24.098  25.716  1.00  0.00     0.012 A 
ATOM     20  C   UNL A   1      34.285  21.732  26.874  1.00  0.00     0.001 A 
ATOM     21  C   UNL A   1      33.401  22.820  26.814  1.00  0.00     0.009 A 
ENDBRANCH   9  15
ENDBRANCH   5   8
ENDBRANCH   3   4
ENDBRANCH   2   3
ENDBRANCH   1   2
BRANCH   1  22
ATOM     22  N   UNL A   1      35.231  31.486  28.527  1.00  0.00    -0.352 N 
ATOM     23  C   UNL A   1      36.429  31.215  29.177  1.00  0.00     0.251 C 
ATOM     24  H   UNL A   1      34.855  32.382  28.689  1.00  0.00     0.163 HD
ATOM     25  O   UNL A   1      36.994  32.032  29.880  1.00  0.00    -0.269 OA
BRANCH  23  26
ATOM     26  C   UNL A   1      37.061  29.908  28.906  1.00  0.00     0.039 A 
ATOM     27  C   UNL A   1      37.256  29.055  29.998  1.00  0.00     0.014 A 
ATOM     28  C   UNL A   1      37.759  29.737  27.719  1.00  0.00     0.014 A 
ATOM     29  C   UNL A   1      38.354  28.203  29.992  1.00  0.00     0.010 A 
ATOM     30  C   UNL A   1      38.921  28.996  27.770  1.00  0.00     0.010 A 
ATOM     31  C   UNL A   1      39.253  28.280  28.930  1.00  0.00    -0.014 A 
BRANCH  31  32
ATOM     32  C   UNL A   1      40.611  27.749  28.996  1.00  0.00     0.031 A 
ATOM     33  C   UNL A   1      40.876  26.358  28.581  1.00  0.00     0.074 A 
ATOM     34  C   UNL A   1      41.639  28.540  29.380  1.00  0.00     0.049 A 
ATOM     35  N   UNL A   1      41.892  25.658  28.954  1.00  0.00    -0.248 NA
ATOM     36  C   UNL A   1      39.952  25.613  27.734  1.00  0.00     0.031 C 
ATOM     37  C   UNL A   1      43.069  28.258  29.259  1.00  0.00     0.029 A 
ATOM     38  N   UNL A   1      41.578  29.664  30.204  1.00  0.00    -0.354 N 
ATOM     39  C   UNL A   1      41.919  24.515  28.188  1.00  0.00     0.074 A 
ATOM     40  C   UNL A   1      40.655  24.503  27.496  1.00  0.00     0.031 C 
ATOM     41  C   UNL A   1      43.732  28.981  30.173  1.00  0.00     0.029 A 
ATOM     42  C   UNL A   1      42.743  29.651  30.996  1.00  0.00     0.049 A 
ATOM     43  H   UNL A   1      40.859  30.336  30.227  1.00  0.00     0.167 HD
ATOM     44  C   UNL A   1      43.069  23.781  28.125  1.00  0.00     0.034 A 
ATOM     45  C   UNL A   1      42.671  29.588  32.358  1.00  0.00     0.034 A 
ATOM     46  C   UNL A   1      44.075  24.291  29.058  1.00  0.00     0.049 A 
ATOM     47  C   UNL A   1      43.340  28.361  32.935  1.00  0.00     0.074 A 
ATOM     48  C   UNL A   1      45.192  25.095  28.898  1.00  0.00     0.029 A 
ATOM     49  N   UNL A   1      43.835  24.225  30.428  1.00  0.00    -0.354 N 
ATOM     50  N   UNL A   1      43.676  27.314  32.231  1.00  0.00    -0.248 NA
ATOM     51  C   UNL A   1      43.675  28.209  34.348  1.00  0.00     0.031 C 
ATOM     52  C   UNL A   1      45.571  25.580  30.177  1.00  0.00     0.029 A 
ATOM     53  C   UNL A   1      44.711  25.040  31.120  1.00  0.00     0.049 A 
ATOM     54  H   UNL A   1      43.135  23.673  30.847  1.00  0.00     0.167 HD
ATOM     55  C   UNL A   1      44.234  26.365  33.049  1.00  0.00     0.074 A 
ATOM     56  C   UNL A   1      44.233  26.986  34.363  1.00  0.00     0.031 C 
ATOM     57  C   UNL A   1      44.640  25.147  32.572  1.00  0.00     0.034 A 
BRANCH  44  58
ATOM     58  C   UNL A   1      43.385  22.818  26.997  1.00  0.00     0.023 A 
ATOM     59  C   UNL A   1      42.834  21.519  27.029  1.00  0.00     0.031 A 
ATOM     60  C   UNL A   1      44.255  23.069  25.918  1.00  0.00     0.131 A 
ATOM     61  C   UNL A   1      43.233  20.525  26.115  1.00  0.00     0.055 A 
ATOM     62  C   UNL A   1      44.706  22.065  25.049  1.00  0.00     0.041 A 
ATOM     63  F   UNL A   1      44.660  24.306  25.610  1.00  0.00    -0.206 F 
ATOM     64  C   UNL A   1      44.206  20.779  25.153  1.00  0.00     0.022 A 
BRANCH  61  65
ATOM     65  S   UNL A   1      42.454  18.889  26.190  1.00  0.00     0.124 S 
ATOM     66  O   UNL A   1      41.097  19.170  25.733  1.00  0.00    -0.237 OA
ATOM     67  O   UNL A   1      43.293  18.107  25.289  1.00  0.00    -0.237 OA
ATOM     68  O   UNL A   1      42.565  18.526  27.602  1.00  0.00    -0.744 OA
ENDBRANCH  61  65
ENDBRANCH  44  58
BRANCH  45  69
ATOM     69  C   UNL A   1      41.472  30.291  32.903  1.00  0.00     0.023 A 
ATOM     70  C   UNL A   1      41.450  31.696  32.755  1.00  0.00     0.031 A 
ATOM     71  C   UNL A   1      40.254  29.636  33.120  1.00  0.00     0.131 A 
ATOM     72  C   UNL A   1      40.232  32.369  32.598  1.00  0.00     0.055 A 
ATOM     73  C   UNL A   1      39.038  30.333  33.071  1.00  0.00     0.041 A 
ATOM     74  F   UNL A   1      40.205  28.301  33.237  1.00  0.00    -0.206 F 
ATOM     75  C   UNL A   1      39.021  31.695  32.756  1.00  0.00     0.022 A 
BRANCH  72  76
ATOM     76  S   UNL A   1      40.258  34.033  31.855  1.00  0.00     0.124 S 
ATOM     77  O   UNL A   1      41.566  34.528  32.267  1.00  0.00    -0.237 OA
ATOM     78  O   UNL A   1      40.094  33.754  30.428  1.00  0.00    -0.237 OA
ATOM     79  O   UNL A   1      39.107  34.699  32.460  1.00  0.00    -0.744 OA
ENDBRANCH  72  76
ENDBRANCH  45  69
BRANCH  57  80
ATOM     80  C   UNL A   1      45.087  23.974  33.418  1.00  0.00     0.023 A 
ATOM     81  C   UNL A   1      46.402  23.805  33.877  1.00  0.00     0.031 A 
ATOM     82  C   UNL A   1      44.155  23.005  33.867  1.00  0.00     0.131 A 
ATOM     83  C   UNL A   1      46.767  22.688  34.653  1.00  0.00     0.055 A 
ATOM     84  C   UNL A   1      44.501  21.942  34.707  1.00  0.00     0.041 A 
ATOM     85  F   UNL A   1      42.861  23.052  33.514  1.00  0.00    -0.206 F 
ATOM     86  C   UNL A   1      45.820  21.767  35.092  1.00  0.00     0.022 A 
BRANCH  83  87
ATOM     87  S   UNL A   1      48.523  22.431  35.019  1.00  0.00     0.124 S 
ATOM     88  O   UNL A   1      48.671  20.997  34.781  1.00  0.00    -0.237 OA
ATOM     89  O   UNL A   1      49.177  23.305  34.050  1.00  0.00    -0.237 OA
ATOM     90  O   UNL A   1      48.650  22.844  36.414  1.00  0.00    -0.744 OA
ENDBRANCH  83  87
ENDBRANCH  57  80
ENDBRANCH  31  32
ENDBRANCH  23  26
ENDBRANCH   1  22
TORSDOF 14
ENDMDL
MODEL 2
REMARK VINA RESULT:     -13.3      4.252     10.754
REMARK SMILES Cc1cccc(-c2ccc(Cl)c(C(=O)NCCCNC(=O)c3ccc(-c4c5nc(c(-c6cc(S(=O)(=O)[O-])ccc6F)c6ccc([nH]6)c(-c6cc(S(=O)(=O)[O-])ccc6F)c6nc(c(-c7cc(S(=O)(=O)[O-])ccc7F)c7ccc4[nH]7)C=C6)C=C5)cc3)c2)c1
REMARK SMILES IDX 18 1 17 2 16 3 15 4 13 5 14 6 12 8 7 9 8 10 85 11 9 12 10 13
REMARK SMILES IDX 11 14 6 15 1 16 2 17 3 18 86 19 4 20 5 21 19 22 20 23 21 25
REMARK SMILES IDX 22 26 23 27 84 28 24 29 83 30 25 31 26 32 27 33 77 34 28 35
REMARK SMILES IDX 82 36 76 37 78 38 29 39 81 40 75 41 74 42 30 44 62 45 42 46
REMARK SMILES IDX 61 47 43 48 46 49 60 50 79 51 44 52 45 53 59 55 80 56 47 57
REMARK SMILES IDX 31 58 32 59 40 60 33 61 39 62 41 63 38 64 34 65 35 66 36 67
REMARK SMILES IDX 37 68 63 69 64 70 72 71 65 72 71 73 73 74 70 75 66 76 67 77
REMARK SMILES IDX 68 78 69 79 48 80 49 81 57 82 50 83 56 84 58 85 55 86 51 87
REMARK SMILES IDX 52 88 53 89 54 90
REMARK H PARENT 15 7 19 24 78 43 46 54
REMARK Flexibility Score: inf
ROOT
ATOM      1  C   UNL A   1      38.850  22.810  26.098  1.00  0.00     0.118 C 
ENDROOT
BRANCH   1   2
ATOM      2  C   UNL A   1      38.496  21.422  25.594  1.00  0.00     0.042 C 
BRANCH   2   3
ATOM      3  C   UNL A   1      37.071  21.319  25.087  1.00  0.00     0.118 C 
BRANCH   3   4
ATOM      4  N   UNL A   1      36.063  21.496  26.125  1.00  0.00    -0.352 N 
ATOM      5  C   UNL A   1      34.874  22.189  26.144  1.00  0.00     0.252 C 
ATOM      6  O   UNL A   1      34.225  22.241  27.190  1.00  0.00    -0.269 OA
ATOM      7  H   UNL A   1      36.272  21.036  26.970  1.00  0.00     0.163 HD
BRANCH   5   8
ATOM      8  C   UNL A   1      34.366  22.960  24.976  1.00  0.00     0.059 A 
ATOM      9  C   UNL A   1      34.030  25.188  24.000  1.00  0.00    -0.017 A 
ATOM     10  C   UNL A   1      33.593  24.574  22.818  1.00  0.00     0.010 A 
ATOM     11  C   UNL A   1      34.518  24.365  25.029  1.00  0.00     0.024 A 
ATOM     12  C   UNL A   1      33.369  23.203  22.784  1.00  0.00     0.022 A 
ATOM     13  C   UNL A   1      33.633  22.425  23.913  1.00  0.00     0.053 A 
ATOM     14  Cl  UNL A   1      32.769  20.923  23.993  1.00  0.00    -0.083 Cl
BRANCH   9  15
ATOM     15  C   UNL A   1      33.716  26.612  24.217  1.00  0.00    -0.018 A 
ATOM     16  C   UNL A   1      33.796  28.946  27.251  1.00  0.00     0.044 C 
ATOM     17  C   UNL A   1      33.623  28.461  25.842  1.00  0.00    -0.051 A 
ATOM     18  C   UNL A   1      33.220  29.321  24.823  1.00  0.00     0.003 A 
ATOM     19  C   UNL A   1      33.864  27.121  25.527  1.00  0.00     0.012 A 
ATOM     20  C   UNL A   1      33.080  28.845  23.515  1.00  0.00     0.001 A 
ATOM     21  C   UNL A   1      33.331  27.499  23.209  1.00  0.00     0.009 A 
ENDBRANCH   9  15
ENDBRANCH   5   8
ENDBRANCH   3   4
ENDBRANCH   2   3
ENDBRANCH   1   2
BRANCH   1  22
ATOM     22  N   UNL A   1      40.269  22.944  26.459  1.00  0.00    -0.352 N 
ATOM     23  C   UNL A   1      40.962  24.069  26.888  1.00  0.00     0.251 C 
ATOM     24  H   UNL A   1      40.803  22.120  26.388  1.00  0.00     0.163 HD
ATOM     25  O   UNL A   1      42.144  24.041  27.180  1.00  0.00    -0.269 OA
BRANCH  23  26
ATOM     26  C   UNL A   1      40.183  25.310  27.073  1.00  0.00     0.039 A 
ATOM     27  C   UNL A   1      40.585  26.432  26.340  1.00  0.00     0.014 A 
ATOM     28  C   UNL A   1      39.375  25.429  28.195  1.00  0.00     0.014 A 
ATOM     29  C   UNL A   1      40.404  27.693  26.894  1.00  0.00     0.010 A 
ATOM     30  C   UNL A   1      39.319  26.664  28.806  1.00  0.00     0.010 A 
ATOM     31  C   UNL A   1      39.892  27.786  28.187  1.00  0.00    -0.014 A 
BRANCH  31  32
ATOM     32  C   UNL A   1      40.025  28.983  29.012  1.00  0.00     0.031 A 
ATOM     33  C   UNL A   1      38.966  30.011  28.990  1.00  0.00     0.074 A 
ATOM     34  C   UNL A   1      41.084  29.130  29.841  1.00  0.00     0.049 A 
ATOM     35  N   UNL A   1      39.129  31.244  29.328  1.00  0.00    -0.248 NA
ATOM     36  C   UNL A   1      37.618  29.725  28.513  1.00  0.00     0.031 C 
ATOM     37  C   UNL A   1      41.245  30.119  30.907  1.00  0.00     0.029 A 
ATOM     38  N   UNL A   1      42.349  28.562  29.703  1.00  0.00    -0.354 N 
ATOM     39  C   UNL A   1      37.885  31.828  29.401  1.00  0.00     0.074 A 
ATOM     40  C   UNL A   1      36.988  30.861  28.819  1.00  0.00     0.031 C 
ATOM     41  C   UNL A   1      42.554  30.294  31.140  1.00  0.00     0.029 A 
ATOM     42  C   UNL A   1      43.278  29.524  30.146  1.00  0.00     0.049 A 
ATOM     43  H   UNL A   1      42.554  27.661  29.362  1.00  0.00     0.167 HD
ATOM     44  C   UNL A   1      37.740  33.007  30.073  1.00  0.00     0.034 A 
ATOM     45  C   UNL A   1      44.241  30.014  29.311  1.00  0.00     0.034 A 
ATOM     46  C   UNL A   1      39.037  33.545  30.488  1.00  0.00     0.049 A 
ATOM     47  C   UNL A   1      44.142  31.509  29.098  1.00  0.00     0.074 A 
ATOM     48  C   UNL A   1      39.721  33.540  31.692  1.00  0.00     0.029 A 
ATOM     49  N   UNL A   1      39.955  33.942  29.519  1.00  0.00    -0.354 N 
ATOM     50  N   UNL A   1      43.092  32.221  29.404  1.00  0.00    -0.248 NA
ATOM     51  C   UNL A   1      45.209  32.317  28.515  1.00  0.00     0.031 C 
ATOM     52  C   UNL A   1      41.079  33.857  31.426  1.00  0.00     0.029 A 
ATOM     53  C   UNL A   1      41.214  34.094  30.068  1.00  0.00     0.049 A 
ATOM     54  H   UNL A   1      39.736  34.095  28.571  1.00  0.00     0.167 HD
ATOM     55  C   UNL A   1      43.306  33.532  29.062  1.00  0.00     0.074 A 
ATOM     56  C   UNL A   1      44.659  33.543  28.532  1.00  0.00     0.031 C 
ATOM     57  C   UNL A   1      42.346  34.492  29.239  1.00  0.00     0.034 A 
BRANCH  44  58
ATOM     58  C   UNL A   1      36.416  33.496  30.628  1.00  0.00     0.023 A 
ATOM     59  C   UNL A   1      35.536  34.203  29.781  1.00  0.00     0.031 A 
ATOM     60  C   UNL A   1      35.986  33.374  31.964  1.00  0.00     0.131 A 
ATOM     61  C   UNL A   1      34.382  34.838  30.279  1.00  0.00     0.055 A 
ATOM     62  C   UNL A   1      34.876  34.061  32.477  1.00  0.00     0.041 A 
ATOM     63  F   UNL A   1      36.576  32.535  32.822  1.00  0.00    -0.206 F 
ATOM     64  C   UNL A   1      34.073  34.811  31.636  1.00  0.00     0.022 A 
BRANCH  61  65
ATOM     65  S   UNL A   1      33.275  35.696  29.127  1.00  0.00     0.124 S 
ATOM     66  O   UNL A   1      32.530  34.592  28.532  1.00  0.00    -0.237 OA
ATOM     67  O   UNL A   1      32.528  36.579  30.015  1.00  0.00    -0.237 OA
ATOM     68  O   UNL A   1      34.196  36.377  28.217  1.00  0.00    -0.744 OA
ENDBRANCH  61  65
ENDBRANCH  44  58
BRANCH  45  69
ATOM     69  C   UNL A   1      44.714  29.001  28.323  1.00  0.00     0.023 A 
ATOM     70  C   UNL A   1      45.531  27.966  28.831  1.00  0.00     0.031 A 
ATOM     71  C   UNL A   1      44.061  28.781  27.104  1.00  0.00     0.131 A 
ATOM     72  C   UNL A   1      45.496  26.692  28.251  1.00  0.00     0.055 A 
ATOM     73  C   UNL A   1      44.118  27.533  26.467  1.00  0.00     0.041 A 
ATOM     74  F   UNL A   1      43.248  29.713  26.584  1.00  0.00    -0.206 F 
ATOM     75  C   UNL A   1      44.792  26.467  27.068  1.00  0.00     0.022 A 
BRANCH  72  76
ATOM     76  S   UNL A   1      46.088  25.280  29.241  1.00  0.00     0.124 S 
ATOM     77  O   UNL A   1      45.241  25.365  30.425  1.00  0.00    -0.237 OA
ATOM     78  O   UNL A   1      45.848  24.140  28.357  1.00  0.00    -0.237 OA
ATOM     79  O   UNL A   1      47.503  25.575  29.451  1.00  0.00    -0.744 OA
ENDBRANCH  72  76
ENDBRANCH  45  69
BRANCH  57  80
ATOM     80  C   UNL A   1      42.415  35.915  28.724  1.00  0.00     0.023 A 
ATOM     81  C   UNL A   1      43.013  36.967  29.433  1.00  0.00     0.031 A 
ATOM     82  C   UNL A   1      41.938  36.242  27.430  1.00  0.00     0.131 A 
ATOM     83  C   UNL A   1      43.040  38.275  28.912  1.00  0.00     0.055 A 
ATOM     84  C   UNL A   1      42.042  37.524  26.879  1.00  0.00     0.041 A 
ATOM     85  F   UNL A   1      41.356  35.329  26.639  1.00  0.00    -0.206 F 
ATOM     86  C   UNL A   1      42.580  38.556  27.628  1.00  0.00     0.022 A 
BRANCH  83  87
ATOM     87  S   UNL A   1      43.631  39.614  29.980  1.00  0.00     0.124 S 
ATOM     88  O   UNL A   1      43.777  38.931  31.263  1.00  0.00    -0.237 OA
ATOM     89  O   UNL A   1      44.876  40.010  29.328  1.00  0.00    -0.237 OA
ATOM     90  O   UNL A   1      42.557  40.603  29.922  1.00  0.00    -0.744 OA
ENDBRANCH  83  87
ENDBRANCH  57  80
ENDBRANCH  31  32
ENDBRANCH  23  26
ENDBRANCH   1  22
TORSDOF 14
ENDMDL
MODEL 3
REMARK VINA RESULT:     -12.8      2.053      2.431
REMARK SMILES Cc1cccc(-c2ccc(Cl)c(C(=O)NCCCNC(=O)c3ccc(-c4c5nc(c(-c6cc(S(=O)(=O)[O-])ccc6F)c6ccc([nH]6)c(-c6cc(S(=O)(=O)[O-])ccc6F)c6nc(c(-c7cc(S(=O)(=O)[O-])ccc7F)c7ccc4[nH]7)C=C6)C=C5)cc3)c2)c1
REMARK SMILES IDX 18 1 17 2 16 3 15 4 13 5 14 6 12 8 7 9 8 10 85 11 9 12 10 13
REMARK SMILES IDX 11 14 6 15 1 16 2 17 3 18 86 19 4 20 5 21 19 22 20 23 21 25
REMARK SMILES IDX 22 26 23 27 84 28 24 29 83 30 25 31 26 32 27 33 77 34 28 35
REMARK SMILES IDX 82 36 76 37 78 38 29 39 81 40 75 41 74 42 30 44 62 45 42 46
REMARK SMILES IDX 61 47 43 48 46 49 60 50 79 51 44 52 45 53 59 55 80 56 47 57
REMARK SMILES IDX 31 58 32 59 40 60 33 61 39 62 41 63 38 64 34 65 35 66 36 67
REMARK SMILES IDX 37 68 63 69 64 70 72 71 65 72 71 73 73 74 70 75 66 76 67 77
REMARK SMILES IDX 68 78 69 79 48 80 49 81 57 82 50 83 56 84 58 85 55 86 51 87
REMARK SMILES IDX 52 88 53 89 54 90
REMARK H PARENT 15 7 19 24 78 43 46 54
REMARK Flexibility Score: inf
ROOT
ATOM      1  C   UNL A   1      33.488  30.435  27.706  1.00  0.00     0.118 C 
ENDROOT
BRANCH   1   2
ATOM      2  C   UNL A   1      32.373  31.021  26.858  1.00  0.00     0.042 C 
BRANCH   2   3
ATOM      3  C   UNL A   1      31.873  30.068  25.791  1.00  0.00     0.118 C 
BRANCH   3   4
ATOM      4  N   UNL A   1      32.847  29.797  24.741  1.00  0.00    -0.352 N 
ATOM      5  C   UNL A   1      33.336  28.620  24.221  1.00  0.00     0.252 C 
ATOM      6  O   UNL A   1      34.224  28.661  23.369  1.00  0.00    -0.269 OA
ATOM      7  H   UNL A   1      33.228  30.605  24.328  1.00  0.00     0.163 HD
BRANCH   5   8
ATOM      8  C   UNL A   1      32.901  27.279  24.701  1.00  0.00     0.059 A 
ATOM      9  C   UNL A   1      33.623  25.087  25.544  1.00  0.00    -0.017 A 
ATOM     10  C   UNL A   1      32.277  24.759  25.760  1.00  0.00     0.010 A 
ATOM     11  C   UNL A   1      33.922  26.393  25.118  1.00  0.00     0.024 A 
ATOM     12  C   UNL A   1      31.269  25.589  25.286  1.00  0.00     0.022 A 
ATOM     13  C   UNL A   1      31.596  26.782  24.638  1.00  0.00     0.053 A 
ATOM     14  Cl  UNL A   1      30.377  27.401  23.570  1.00  0.00    -0.083 Cl
BRANCH   9  15
ATOM     15  C   UNL A   1      34.620  24.003  25.509  1.00  0.00    -0.018 A 
ATOM     16  C   UNL A   1      34.454  20.220  24.943  1.00  0.00     0.044 C 
ATOM     17  C   UNL A   1      35.009  21.591  25.192  1.00  0.00    -0.051 A 
ATOM     18  C   UNL A   1      36.377  21.803  25.349  1.00  0.00     0.003 A 
ATOM     19  C   UNL A   1      34.151  22.691  25.276  1.00  0.00     0.012 A 
ATOM     20  C   UNL A   1      36.869  23.094  25.567  1.00  0.00     0.001 A 
ATOM     21  C   UNL A   1      35.997  24.192  25.642  1.00  0.00     0.009 A 
ENDBRANCH   9  15
ENDBRANCH   5   8
ENDBRANCH   3   4
ENDBRANCH   2   3
ENDBRANCH   1   2
BRANCH   1  22
ATOM     22  N   UNL A   1      34.232  31.454  28.460  1.00  0.00    -0.352 N 
ATOM     23  C   UNL A   1      35.482  31.364  29.059  1.00  0.00     0.251 C 
ATOM     24  H   UNL A   1      33.780  32.324  28.553  1.00  0.00     0.163 HD
ATOM     25  O   UNL A   1      36.001  32.299  29.640  1.00  0.00    -0.269 OA
BRANCH  23  26
ATOM     26  C   UNL A   1      36.223  30.098  28.885  1.00  0.00     0.039 A 
ATOM     27  C   UNL A   1      36.695  29.470  30.042  1.00  0.00     0.014 A 
ATOM     28  C   UNL A   1      36.739  29.794  27.633  1.00  0.00     0.014 A 
ATOM     29  C   UNL A   1      37.876  28.741  29.972  1.00  0.00     0.010 A 
ATOM     30  C   UNL A   1      37.978  29.191  27.590  1.00  0.00     0.010 A 
ATOM     31  C   UNL A   1      38.578  28.722  28.769  1.00  0.00    -0.014 A 
BRANCH  31  32
ATOM     32  C   UNL A   1      39.985  28.346  28.674  1.00  0.00     0.031 A 
ATOM     33  C   UNL A   1      40.353  26.942  28.405  1.00  0.00     0.074 A 
ATOM     34  C   UNL A   1      40.954  29.285  28.772  1.00  0.00     0.049 A 
ATOM     35  N   UNL A   1      41.493  26.412  28.689  1.00  0.00    -0.248 NA
ATOM     36  C   UNL A   1      39.410  25.990  27.832  1.00  0.00     0.031 C 
ATOM     37  C   UNL A   1      42.372  29.133  28.450  1.00  0.00     0.029 A 
ATOM     38  N   UNL A   1      40.881  30.506  29.440  1.00  0.00    -0.354 N 
ATOM     39  C   UNL A   1      41.544  25.175  28.087  1.00  0.00     0.074 A 
ATOM     40  C   UNL A   1      40.200  24.934  27.625  1.00  0.00     0.031 C 
ATOM     41  C   UNL A   1      43.073  30.047  29.136  1.00  0.00     0.029 A 
ATOM     42  C   UNL A   1      42.146  30.730  30.019  1.00  0.00     0.049 A 
ATOM     43  H   UNL A   1      40.097  31.099  29.496  1.00  0.00     0.167 HD
ATOM     44  C   UNL A   1      42.752  24.560  27.927  1.00  0.00     0.034 A 
ATOM     45  C   UNL A   1      42.291  30.863  31.370  1.00  0.00     0.034 A 
ATOM     46  C   UNL A   1      43.818  25.302  28.602  1.00  0.00     0.049 A 
ATOM     47  C   UNL A   1      43.188  29.809  31.981  1.00  0.00     0.074 A 
ATOM     48  C   UNL A   1      44.789  26.181  28.152  1.00  0.00     0.029 A 
ATOM     49  N   UNL A   1      43.800  25.417  29.990  1.00  0.00    -0.354 N 
ATOM     50  N   UNL A   1      43.538  28.709  31.374  1.00  0.00    -0.248 NA
ATOM     51  C   UNL A   1      43.750  29.904  33.326  1.00  0.00     0.031 C 
ATOM     52  C   UNL A   1      45.296  26.887  29.275  1.00  0.00     0.029 A 
ATOM     53  C   UNL A   1      44.664  26.410  30.411  1.00  0.00     0.049 A 
ATOM     54  H   UNL A   1      43.246  24.866  30.589  1.00  0.00     0.167 HD
ATOM     55  C   UNL A   1      44.327  27.953  32.203  1.00  0.00     0.074 A 
ATOM     56  C   UNL A   1      44.450  28.759  33.406  1.00  0.00     0.031 C 
ATOM     57  C   UNL A   1      44.803  26.725  31.828  1.00  0.00     0.034 A 
BRANCH  44  58
ATOM     58  C   UNL A   1      43.008  23.476  26.898  1.00  0.00     0.023 A 
ATOM     59  C   UNL A   1      42.461  22.192  27.102  1.00  0.00     0.031 A 
ATOM     60  C   UNL A   1      43.820  23.601  25.753  1.00  0.00     0.131 A 
ATOM     61  C   UNL A   1      42.811  21.100  26.284  1.00  0.00     0.055 A 
ATOM     62  C   UNL A   1      44.225  22.506  24.978  1.00  0.00     0.041 A 
ATOM     63  F   UNL A   1      44.208  24.794  25.289  1.00  0.00    -0.206 F 
ATOM     64  C   UNL A   1      43.731  21.241  25.250  1.00  0.00     0.022 A 
BRANCH  61  65
ATOM     65  S   UNL A   1      42.037  19.487  26.580  1.00  0.00     0.124 S 
ATOM     66  O   UNL A   1      41.328  19.708  27.836  1.00  0.00    -0.237 OA
ATOM     67  O   UNL A   1      41.211  19.318  25.390  1.00  0.00    -0.237 OA
ATOM     68  O   UNL A   1      43.178  18.576  26.669  1.00  0.00    -0.744 OA
ENDBRANCH  61  65
ENDBRANCH  44  58
BRANCH  45  69
ATOM     69  C   UNL A   1      41.112  31.515  32.013  1.00  0.00     0.023 A 
ATOM     70  C   UNL A   1      40.487  30.790  33.052  1.00  0.00     0.031 A 
ATOM     71  C   UNL A   1      40.896  32.897  31.956  1.00  0.00     0.131 A 
ATOM     72  C   UNL A   1      39.872  31.468  34.112  1.00  0.00     0.055 A 
ATOM     73  C   UNL A   1      40.183  33.560  32.965  1.00  0.00     0.041 A 
ATOM     74  F   UNL A   1      41.486  33.645  31.012  1.00  0.00    -0.206 F 
ATOM     75  C   UNL A   1      39.715  32.853  34.076  1.00  0.00     0.022 A 
BRANCH  72  76
ATOM     76  S   UNL A   1      39.597  30.560  35.669  1.00  0.00     0.124 S 
ATOM     77  O   UNL A   1      39.993  31.546  36.668  1.00  0.00    -0.237 OA
ATOM     78  O   UNL A   1      38.172  30.238  35.611  1.00  0.00    -0.237 OA
ATOM     79  O   UNL A   1      40.470  29.394  35.547  1.00  0.00    -0.744 OA
ENDBRANCH  72  76
ENDBRANCH  45  69
BRANCH  57  80
ATOM     80  C   UNL A   1      45.516  25.741  32.733  1.00  0.00     0.023 A 
ATOM     81  C   UNL A   1      44.863  24.708  33.421  1.00  0.00     0.031 A 
ATOM     82  C   UNL A   1      46.927  25.769  32.866  1.00  0.00     0.131 A 
ATOM     83  C   UNL A   1      45.573  23.827  34.258  1.00  0.00     0.055 A 
ATOM     84  C   UNL A   1      47.640  24.840  33.632  1.00  0.00     0.041 A 
ATOM     85  F   UNL A   1      47.678  26.696  32.252  1.00  0.00    -0.206 F 
ATOM     86  C   UNL A   1      46.961  23.870  34.350  1.00  0.00     0.022 A 
BRANCH  83  87
ATOM     87  S   UNL A   1      44.631  22.663  35.279  1.00  0.00     0.124 S 
ATOM     88  O   UNL A   1      43.253  23.038  34.966  1.00  0.00    -0.237 OA
ATOM     89  O   UNL A   1      45.067  21.369  34.764  1.00  0.00    -0.237 OA
ATOM     90  O   UNL A   1      45.062  22.969  36.641  1.00  0.00    -0.744 OA
ENDBRANCH  83  87
ENDBRANCH  57  80
ENDBRANCH  31  32
ENDBRANCH  23  26
ENDBRANCH   1  22
TORSDOF 14
ENDMDL
