MODEL 1
REMARK VINA RESULT:     -12.5      0.000      0.000
REMARK SMILES C[C@@H](C(=O)NCCCNC(=O)c1ccc(-c2c3nc(c(-c4cc(S(=O)(=O)[O-])ccc4F)c4ccc([nH]4)c(-c4cc(S(=O)(=O)[O-])ccc4F)c4nc(c(-c5cc(S(=O)(=O)[O-])ccc5F)c5ccc2[nH]5)C=C4)C=C3)cc1)c1ccccc1-c1ccn(C(F)F)c(=O)c1
REMARK SMILES IDX 7 1 6 2 5 3 3 4 4 5 2 7 1 8 75 9 76 10 80 11 77 12 79 13
REMARK SMILES IDX 78 14 81 15 82 16 90 17 83 18 88 19 84 20 89 21 85 22 86 23
REMARK SMILES IDX 87 24 8 25 9 26 10 27 11 29 12 30 13 31 74 32 14 33 73 34
REMARK SMILES IDX 15 35 16 36 17 37 67 38 18 39 72 40 66 41 68 42 19 43 71 44
REMARK SMILES IDX 65 45 64 46 20 48 52 49 32 50 51 51 33 52 36 53 50 54 69 55
REMARK SMILES IDX 34 56 35 57 49 59 70 60 37 61 21 62 22 63 30 64 23 65 29 66
REMARK SMILES IDX 31 67 28 68 24 69 25 70 26 71 27 72 53 73 54 74 62 75 55 76
REMARK SMILES IDX 61 77 63 78 60 79 56 80 57 81 58 82 59 83 38 84 39 85 47 86
REMARK SMILES IDX 40 87 46 88 48 89 45 90 41 91 42 92 43 93 44 94
REMARK H PARENT 5 6 9 28 68 47 36 58
REMARK Flexibility Score: inf
ROOT
ATOM      1  C   UNL A   1      31.366  31.694  26.867  1.00  0.00     0.042 C 
ENDROOT
BRANCH   1   2
ATOM      2  C   UNL A   1      31.225  31.000  25.514  1.00  0.00     0.117 C 
BRANCH   2   3
ATOM      3  N   UNL A   1      32.348  30.116  25.269  1.00  0.00    -0.356 N 
ATOM      4  C   UNL A   1      32.525  28.807  25.608  1.00  0.00     0.227 C 
ATOM      5  O   UNL A   1      33.655  28.342  25.443  1.00  0.00    -0.274 OA
ATOM      6  H   UNL A   1      33.100  30.524  24.782  1.00  0.00     0.163 HD
BRANCH   4   7
ATOM      7  C   UNL A   1      31.338  27.970  26.111  1.00  0.00     0.106 C 
ATOM      8  C   UNL A   1      31.379  27.861  27.640  1.00  0.00     0.023 C 
BRANCH   7   9
ATOM      9  C   UNL A   1      31.290  26.615  25.389  1.00  0.00    -0.028 A 
ATOM     10  C   UNL A   1      31.892  25.480  25.970  1.00  0.00     0.005 A 
ATOM     11  C   UNL A   1      30.705  26.479  24.103  1.00  0.00    -0.014 A 
ATOM     12  C   UNL A   1      31.903  24.247  25.319  1.00  0.00     0.000 A 
ATOM     13  C   UNL A   1      30.743  25.231  23.453  1.00  0.00     0.009 A 
ATOM     14  C   UNL A   1      31.332  24.122  24.059  1.00  0.00     0.001 A 
BRANCH  11  15
ATOM     15  C   UNL A   1      30.036  27.598  23.401  1.00  0.00    -0.011 A 
ATOM     16  C   UNL A   1      30.729  28.516  22.517  1.00  0.00     0.027 A 
ATOM     17  C   UNL A   1      28.719  27.772  23.614  1.00  0.00     0.080 A 
ATOM     18  C   UNL A   1      30.099  29.587  22.019  1.00  0.00     0.095 A 
ATOM     19  C   UNL A   1      27.987  28.914  23.003  1.00  0.00     0.255 A 
ATOM     20  N   UNL A   1      28.759  29.807  22.277  1.00  0.00    -0.258 N 
ATOM     21  O   UNL A   1      26.778  29.004  23.193  1.00  0.00    -0.269 OA
BRANCH  20  22
ATOM     22  C   UNL A   1      28.095  30.974  21.756  1.00  0.00     0.451 C 
ATOM     23  F   UNL A   1      28.920  32.049  21.765  1.00  0.00    -0.185 F 
ATOM     24  F   UNL A   1      27.684  30.771  20.480  1.00  0.00    -0.185 F 
ENDBRANCH  20  22
ENDBRANCH  11  15
ENDBRANCH   7   9
ENDBRANCH   4   7
ENDBRANCH   2   3
ENDBRANCH   1   2
BRANCH   1  25
ATOM     25  C   UNL A   1      32.733  32.335  27.090  1.00  0.00     0.118 C 
BRANCH  25  26
ATOM     26  N   UNL A   1      32.631  33.730  27.489  1.00  0.00    -0.352 N 
ATOM     27  C   UNL A   1      33.281  34.400  28.494  1.00  0.00     0.251 C 
ATOM     28  H   UNL A   1      32.003  34.273  26.960  1.00  0.00     0.163 HD
ATOM     29  O   UNL A   1      32.896  35.528  28.805  1.00  0.00    -0.269 OA
BRANCH  27  30
ATOM     30  C   UNL A   1      34.416  33.774  29.209  1.00  0.00     0.039 A 
ATOM     31  C   UNL A   1      35.710  34.241  28.963  1.00  0.00     0.014 A 
ATOM     32  C   UNL A   1      34.214  32.712  30.094  1.00  0.00     0.014 A 
ATOM     33  C   UNL A   1      36.793  33.674  29.641  1.00  0.00     0.010 A 
ATOM     34  C   UNL A   1      35.284  32.205  30.828  1.00  0.00     0.010 A 
ATOM     35  C   UNL A   1      36.588  32.669  30.599  1.00  0.00    -0.014 A 
BRANCH  35  36
ATOM     36  C   UNL A   1      37.726  32.067  31.344  1.00  0.00     0.031 A 
ATOM     37  C   UNL A   1      38.556  30.987  30.701  1.00  0.00     0.074 A 
ATOM     38  C   UNL A   1      37.981  32.453  32.609  1.00  0.00     0.049 A 
ATOM     39  N   UNL A   1      39.545  30.291  31.204  1.00  0.00    -0.248 NA
ATOM     40  C   UNL A   1      38.206  30.621  29.321  1.00  0.00     0.031 C 
ATOM     41  C   UNL A   1      37.229  33.467  33.350  1.00  0.00     0.029 A 
ATOM     42  N   UNL A   1      38.939  32.036  33.498  1.00  0.00    -0.354 N 
ATOM     43  C   UNL A   1      39.919  29.392  30.210  1.00  0.00     0.074 A 
ATOM     44  C   UNL A   1      39.007  29.590  29.104  1.00  0.00     0.031 C 
ATOM     45  C   UNL A   1      37.774  33.616  34.569  1.00  0.00     0.029 A 
ATOM     46  C   UNL A   1      38.881  32.676  34.715  1.00  0.00     0.049 A 
ATOM     47  H   UNL A   1      39.606  31.345  33.286  1.00  0.00     0.167 HD
ATOM     48  C   UNL A   1      40.942  28.500  30.210  1.00  0.00     0.034 A 
ATOM     49  C   UNL A   1      39.628  32.516  35.826  1.00  0.00     0.034 A 
ATOM     50  C   UNL A   1      41.850  28.326  31.319  1.00  0.00     0.049 A 
ATOM     51  C   UNL A   1      40.744  31.502  35.814  1.00  0.00     0.074 A 
ATOM     52  C   UNL A   1      42.953  27.494  31.408  1.00  0.00     0.029 A 
ATOM     53  N   UNL A   1      41.757  28.989  32.537  1.00  0.00    -0.354 N 
ATOM     54  N   UNL A   1      41.117  30.692  34.849  1.00  0.00    -0.248 NA
ATOM     55  C   UNL A   1      41.547  31.389  37.038  1.00  0.00     0.031 C 
ATOM     56  C   UNL A   1      43.477  27.596  32.701  1.00  0.00     0.029 A 
ATOM     57  C   UNL A   1      42.760  28.559  33.393  1.00  0.00     0.049 A 
ATOM     58  H   UNL A   1      41.077  29.664  32.760  1.00  0.00     0.167 HD
ATOM     59  C   UNL A   1      42.226  30.006  35.338  1.00  0.00     0.074 A 
ATOM     60  C   UNL A   1      42.464  30.504  36.677  1.00  0.00     0.031 C 
ATOM     61  C   UNL A   1      42.986  29.058  34.730  1.00  0.00     0.034 A 
BRANCH  48  62
ATOM     62  C   UNL A   1      41.104  27.626  28.986  1.00  0.00     0.023 A 
ATOM     63  C   UNL A   1      42.130  27.844  28.049  1.00  0.00     0.031 A 
ATOM     64  C   UNL A   1      40.193  26.586  28.728  1.00  0.00     0.131 A 
ATOM     65  C   UNL A   1      42.166  27.099  26.860  1.00  0.00     0.055 A 
ATOM     66  C   UNL A   1      40.291  25.785  27.587  1.00  0.00     0.041 A 
ATOM     67  F   UNL A   1      39.178  26.340  29.572  1.00  0.00    -0.206 F 
ATOM     68  C   UNL A   1      41.269  26.052  26.635  1.00  0.00     0.022 A 
BRANCH  65  69
ATOM     69  S   UNL A   1      43.288  27.633  25.539  1.00  0.00     0.124 S 
ATOM     70  O   UNL A   1      44.089  26.429  25.328  1.00  0.00    -0.237 OA
ATOM     71  O   UNL A   1      42.366  27.984  24.465  1.00  0.00    -0.237 OA
ATOM     72  O   UNL A   1      44.009  28.755  26.136  1.00  0.00    -0.744 OA
ENDBRANCH  65  69
ENDBRANCH  48  62
BRANCH  49  73
ATOM     73  C   UNL A   1      39.357  33.335  37.042  1.00  0.00     0.023 A 
ATOM     74  C   UNL A   1      40.024  34.553  37.256  1.00  0.00     0.031 A 
ATOM     75  C   UNL A   1      38.459  32.895  38.030  1.00  0.00     0.131 A 
ATOM     76  C   UNL A   1      39.820  35.264  38.448  1.00  0.00     0.055 A 
ATOM     77  C   UNL A   1      38.217  33.634  39.190  1.00  0.00     0.041 A 
ATOM     78  F   UNL A   1      37.791  31.742  37.876  1.00  0.00    -0.206 F 
ATOM     79  C   UNL A   1      38.910  34.820  39.410  1.00  0.00     0.022 A 
BRANCH  76  80
ATOM     80  S   UNL A   1      40.827  36.739  38.763  1.00  0.00     0.124 S 
ATOM     81  O   UNL A   1      39.803  37.752  38.993  1.00  0.00    -0.237 OA
ATOM     82  O   UNL A   1      41.602  36.333  39.931  1.00  0.00    -0.237 OA
ATOM     83  O   UNL A   1      41.597  36.895  37.531  1.00  0.00    -0.744 OA
ENDBRANCH  76  80
ENDBRANCH  49  73
BRANCH  61  84
ATOM     84  C   UNL A   1      44.187  28.546  35.490  1.00  0.00     0.023 A 
ATOM     85  C   UNL A   1      44.095  27.486  36.409  1.00  0.00     0.031 A 
ATOM     86  C   UNL A   1      45.446  29.146  35.300  1.00  0.00     0.131 A 
ATOM     87  C   UNL A   1      45.224  27.099  37.147  1.00  0.00     0.055 A 
ATOM     88  C   UNL A   1      46.581  28.712  35.987  1.00  0.00     0.041 A 
ATOM     89  F   UNL A   1      45.595  30.165  34.439  1.00  0.00    -0.206 F 
ATOM     90  C   UNL A   1      46.470  27.692  36.928  1.00  0.00     0.022 A 
BRANCH  87  91
ATOM     91  S   UNL A   1      45.021  25.884  38.478  1.00  0.00     0.124 S 
ATOM     92  O   UNL A   1      44.219  26.624  39.446  1.00  0.00    -0.237 OA
ATOM     93  O   UNL A   1      44.344  24.786  37.796  1.00  0.00    -0.237 OA
ATOM     94  O   UNL A   1      46.393  25.600  38.896  1.00  0.00    -0.744 OA
ENDBRANCH  87  91
ENDBRANCH  61  84
ENDBRANCH  35  36
ENDBRANCH  27  30
ENDBRANCH  25  26
ENDBRANCH   1  25
TORSDOF 16
ENDMDL
MODEL 2
REMARK VINA RESULT:     -12.5      1.275      1.561
REMARK SMILES C[C@@H](C(=O)NCCCNC(=O)c1ccc(-c2c3nc(c(-c4cc(S(=O)(=O)[O-])ccc4F)c4ccc([nH]4)c(-c4cc(S(=O)(=O)[O-])ccc4F)c4nc(c(-c5cc(S(=O)(=O)[O-])ccc5F)c5ccc2[nH]5)C=C4)C=C3)cc1)c1ccccc1-c1ccn(C(F)F)c(=O)c1
REMARK SMILES IDX 7 1 6 2 5 3 3 4 4 5 2 7 1 8 75 9 76 10 80 11 77 12 79 13
REMARK SMILES IDX 78 14 81 15 82 16 90 17 83 18 88 19 84 20 89 21 85 22 86 23
REMARK SMILES IDX 87 24 8 25 9 26 10 27 11 29 12 30 13 31 74 32 14 33 73 34
REMARK SMILES IDX 15 35 16 36 17 37 67 38 18 39 72 40 66 41 68 42 19 43 71 44
REMARK SMILES IDX 65 45 64 46 20 48 52 49 32 50 51 51 33 52 36 53 50 54 69 55
REMARK SMILES IDX 34 56 35 57 49 59 70 60 37 61 21 62 22 63 30 64 23 65 29 66
REMARK SMILES IDX 31 67 28 68 24 69 25 70 26 71 27 72 53 73 54 74 62 75 55 76
REMARK SMILES IDX 61 77 63 78 60 79 56 80 57 81 58 82 59 83 38 84 39 85 47 86
REMARK SMILES IDX 40 87 46 88 48 89 45 90 41 91 42 92 43 93 44 94
REMARK H PARENT 5 6 9 28 68 47 36 58
REMARK Flexibility Score: inf
ROOT
ATOM      1  C   UNL A   1      31.465  31.704  26.902  1.00  0.00     0.042 C 
ENDROOT
BRANCH   1   2
ATOM      2  C   UNL A   1      31.275  31.017  25.550  1.00  0.00     0.117 C 
BRANCH   2   3
ATOM      3  N   UNL A   1      32.392  30.141  25.257  1.00  0.00    -0.356 N 
ATOM      4  C   UNL A   1      32.571  28.821  25.547  1.00  0.00     0.227 C 
ATOM      5  O   UNL A   1      33.697  28.359  25.347  1.00  0.00    -0.274 OA
ATOM      6  H   UNL A   1      33.136  30.563  24.771  1.00  0.00     0.163 HD
BRANCH   4   7
ATOM      7  C   UNL A   1      31.390  27.969  26.042  1.00  0.00     0.106 C 
ATOM      8  C   UNL A   1      31.432  27.844  27.570  1.00  0.00     0.023 C 
BRANCH   7   9
ATOM      9  C   UNL A   1      31.352  26.621  25.305  1.00  0.00    -0.028 A 
ATOM     10  C   UNL A   1      32.007  25.498  25.850  1.00  0.00     0.005 A 
ATOM     11  C   UNL A   1      30.723  26.483  24.041  1.00  0.00    -0.014 A 
ATOM     12  C   UNL A   1      32.027  24.273  25.183  1.00  0.00     0.000 A 
ATOM     13  C   UNL A   1      30.771  25.245  23.375  1.00  0.00     0.009 A 
ATOM     14  C   UNL A   1      31.413  24.146  23.944  1.00  0.00     0.001 A 
BRANCH  11  15
ATOM     15  C   UNL A   1      29.996  27.591  23.378  1.00  0.00    -0.011 A 
ATOM     16  C   UNL A   1      30.644  28.585  22.544  1.00  0.00     0.027 A 
ATOM     17  C   UNL A   1      28.670  27.679  23.582  1.00  0.00     0.080 A 
ATOM     18  C   UNL A   1      29.958  29.638  22.084  1.00  0.00     0.095 A 
ATOM     19  C   UNL A   1      27.879  28.802  23.011  1.00  0.00     0.255 A 
ATOM     20  N   UNL A   1      28.604  29.769  22.333  1.00  0.00    -0.258 N 
ATOM     21  O   UNL A   1      26.664  28.813  23.188  1.00  0.00    -0.269 OA
BRANCH  20  22
ATOM     22  C   UNL A   1      27.878  30.917  21.854  1.00  0.00     0.451 C 
ATOM     23  F   UNL A   1      27.505  31.720  22.879  1.00  0.00    -0.185 F 
ATOM     24  F   UNL A   1      28.635  31.650  21.001  1.00  0.00    -0.185 F 
ENDBRANCH  20  22
ENDBRANCH  11  15
ENDBRANCH   7   9
ENDBRANCH   4   7
ENDBRANCH   2   3
ENDBRANCH   1   2
BRANCH   1  25
ATOM     25  C   UNL A   1      32.796  32.438  27.037  1.00  0.00     0.118 C 
BRANCH  25  26
ATOM     26  N   UNL A   1      32.629  33.805  27.503  1.00  0.00    -0.352 N 
ATOM     27  C   UNL A   1      33.235  34.451  28.550  1.00  0.00     0.251 C 
ATOM     28  H   UNL A   1      31.986  34.347  26.990  1.00  0.00     0.163 HD
ATOM     29  O   UNL A   1      32.797  35.545  28.910  1.00  0.00    -0.269 OA
BRANCH  27  30
ATOM     30  C   UNL A   1      34.384  33.839  29.253  1.00  0.00     0.039 A 
ATOM     31  C   UNL A   1      35.676  34.269  28.939  1.00  0.00     0.014 A 
ATOM     32  C   UNL A   1      34.197  32.824  30.195  1.00  0.00     0.014 A 
ATOM     33  C   UNL A   1      36.773  33.715  29.603  1.00  0.00     0.010 A 
ATOM     34  C   UNL A   1      35.285  32.332  30.913  1.00  0.00     0.010 A 
ATOM     35  C   UNL A   1      36.587  32.760  30.615  1.00  0.00    -0.014 A 
BRANCH  35  36
ATOM     36  C   UNL A   1      37.741  32.173  31.346  1.00  0.00     0.031 A 
ATOM     37  C   UNL A   1      38.547  31.068  30.714  1.00  0.00     0.074 A 
ATOM     38  C   UNL A   1      38.034  32.595  32.591  1.00  0.00     0.049 A 
ATOM     39  N   UNL A   1      39.544  30.380  31.210  1.00  0.00    -0.248 NA
ATOM     40  C   UNL A   1      38.156  30.662  29.356  1.00  0.00     0.031 C 
ATOM     41  C   UNL A   1      37.309  33.637  33.321  1.00  0.00     0.029 A 
ATOM     42  N   UNL A   1      39.014  32.198  33.466  1.00  0.00    -0.354 N 
ATOM     43  C   UNL A   1      39.885  29.448  30.234  1.00  0.00     0.074 A 
ATOM     44  C   UNL A   1      38.944  29.620  29.148  1.00  0.00     0.031 C 
ATOM     45  C   UNL A   1      37.889  33.818  34.520  1.00  0.00     0.029 A 
ATOM     46  C   UNL A   1      38.993  32.875  34.664  1.00  0.00     0.049 A 
ATOM     47  H   UNL A   1      39.670  31.496  33.257  1.00  0.00     0.167 HD
ATOM     48  C   UNL A   1      40.901  28.550  30.234  1.00  0.00     0.034 A 
ATOM     49  C   UNL A   1      39.770  32.744  35.758  1.00  0.00     0.034 A 
ATOM     50  C   UNL A   1      41.839  28.403  31.322  1.00  0.00     0.049 A 
ATOM     51  C   UNL A   1      40.879  31.722  35.747  1.00  0.00     0.074 A 
ATOM     52  C   UNL A   1      42.939  27.566  31.405  1.00  0.00     0.029 A 
ATOM     53  N   UNL A   1      41.785  29.103  32.521  1.00  0.00    -0.354 N 
ATOM     54  N   UNL A   1      41.220  30.880  34.797  1.00  0.00    -0.248 NA
ATOM     55  C   UNL A   1      41.715  31.640  36.951  1.00  0.00     0.031 C 
ATOM     56  C   UNL A   1      43.500  27.703  32.680  1.00  0.00     0.029 A 
ATOM     57  C   UNL A   1      42.808  28.692  33.362  1.00  0.00     0.049 A 
ATOM     58  H   UNL A   1      41.115  29.790  32.742  1.00  0.00     0.167 HD
ATOM     59  C   UNL A   1      42.338  30.201  35.276  1.00  0.00     0.074 A 
ATOM     60  C   UNL A   1      42.616  30.738  36.592  1.00  0.00     0.031 C 
ATOM     61  C   UNL A   1      43.074  29.230  34.677  1.00  0.00     0.034 A 
BRANCH  48  62
ATOM     62  C   UNL A   1      41.024  27.638  29.033  1.00  0.00     0.023 A 
ATOM     63  C   UNL A   1      42.020  27.825  28.058  1.00  0.00     0.031 A 
ATOM     64  C   UNL A   1      40.104  26.592  28.836  1.00  0.00     0.131 A 
ATOM     65  C   UNL A   1      42.018  27.043  26.892  1.00  0.00     0.055 A 
ATOM     66  C   UNL A   1      40.166  25.756  27.718  1.00  0.00     0.041 A 
ATOM     67  F   UNL A   1      39.116  26.375  29.719  1.00  0.00    -0.206 F 
ATOM     68  C   UNL A   1      41.114  25.991  26.728  1.00  0.00     0.022 A 
BRANCH  65  69
ATOM     69  S   UNL A   1      43.098  27.534  25.520  1.00  0.00     0.124 S 
ATOM     70  O   UNL A   1      44.075  28.380  26.202  1.00  0.00    -0.237 OA
ATOM     71  O   UNL A   1      43.593  26.251  25.034  1.00  0.00    -0.237 OA
ATOM     72  O   UNL A   1      42.199  28.242  24.612  1.00  0.00    -0.744 OA
ENDBRANCH  65  69
ENDBRANCH  48  62
BRANCH  49  73
ATOM     73  C   UNL A   1      39.539  33.601  36.956  1.00  0.00     0.023 A 
ATOM     74  C   UNL A   1      38.876  33.097  38.088  1.00  0.00     0.031 A 
ATOM     75  C   UNL A   1      39.940  34.949  36.975  1.00  0.00     0.131 A 
ATOM     76  C   UNL A   1      38.591  33.944  39.169  1.00  0.00     0.055 A 
ATOM     77  C   UNL A   1      39.703  35.774  38.076  1.00  0.00     0.041 A 
ATOM     78  F   UNL A   1      40.581  35.481  35.923  1.00  0.00    -0.206 F 
ATOM     79  C   UNL A   1      39.014  35.275  39.177  1.00  0.00     0.022 A 
BRANCH  76  80
ATOM     80  S   UNL A   1      37.584  33.303  40.534  1.00  0.00     0.124 S 
ATOM     81  O   UNL A   1      36.408  32.810  39.826  1.00  0.00    -0.237 OA
ATOM     82  O   UNL A   1      38.462  32.287  41.106  1.00  0.00    -0.237 OA
ATOM     83  O   UNL A   1      37.362  34.477  41.375  1.00  0.00    -0.744 OA
ENDBRANCH  76  80
ENDBRANCH  49  73
BRANCH  61  84
ATOM     84  C   UNL A   1      44.292  28.733  35.418  1.00  0.00     0.023 A 
ATOM     85  C   UNL A   1      44.223  27.686  36.355  1.00  0.00     0.031 A 
ATOM     86  C   UNL A   1      45.545  29.332  35.192  1.00  0.00     0.131 A 
ATOM     87  C   UNL A   1      45.369  27.314  37.074  1.00  0.00     0.055 A 
ATOM     88  C   UNL A   1      46.696  28.912  35.862  1.00  0.00     0.041 A 
ATOM     89  F   UNL A   1      45.673  30.339  34.313  1.00  0.00    -0.206 F 
ATOM     90  C   UNL A   1      46.608  27.907  36.820  1.00  0.00     0.022 A 
BRANCH  87  91
ATOM     91  S   UNL A   1      45.198  26.118  38.428  1.00  0.00     0.124 S 
ATOM     92  O   UNL A   1      46.590  25.814  38.743  1.00  0.00    -0.237 OA
ATOM     93  O   UNL A   1      44.471  26.887  39.432  1.00  0.00    -0.237 OA
ATOM     94  O   UNL A   1      44.444  25.021  37.824  1.00  0.00    -0.744 OA
ENDBRANCH  87  91
ENDBRANCH  61  84
ENDBRANCH  35  36
ENDBRANCH  27  30
ENDBRANCH  25  26
ENDBRANCH   1  25
TORSDOF 16
ENDMDL
MODEL 3
REMARK VINA RESULT:     -12.4      1.966      7.803
REMARK SMILES C[C@@H](C(=O)NCCCNC(=O)c1ccc(-c2c3nc(c(-c4cc(S(=O)(=O)[O-])ccc4F)c4ccc([nH]4)c(-c4cc(S(=O)(=O)[O-])ccc4F)c4nc(c(-c5cc(S(=O)(=O)[O-])ccc5F)c5ccc2[nH]5)C=C4)C=C3)cc1)c1ccccc1-c1ccn(C(F)F)c(=O)c1
REMARK SMILES IDX 7 1 6 2 5 3 3 4 4 5 2 7 1 8 75 9 76 10 80 11 77 12 79 13
REMARK SMILES IDX 78 14 81 15 82 16 90 17 83 18 88 19 84 20 89 21 85 22 86 23
REMARK SMILES IDX 87 24 8 25 9 26 10 27 11 29 12 30 13 31 74 32 14 33 73 34
REMARK SMILES IDX 15 35 16 36 17 37 67 38 18 39 72 40 66 41 68 42 19 43 71 44
REMARK SMILES IDX 65 45 64 46 20 48 52 49 32 50 51 51 33 52 36 53 50 54 69 55
REMARK SMILES IDX 34 56 35 57 49 59 70 60 37 61 21 62 22 63 30 64 23 65 29 66
REMARK SMILES IDX 31 67 28 68 24 69 25 70 26 71 27 72 53 73 54 74 62 75 55 76
REMARK SMILES IDX 61 77 63 78 60 79 56 80 57 81 58 82 59 83 38 84 39 85 47 86
REMARK SMILES IDX 40 87 46 88 48 89 45 90 41 91 42 92 43 93 44 94
REMARK H PARENT 5 6 9 28 68 47 36 58
REMARK Flexibility Score: inf
ROOT
ATOM      1  C   UNL A   1      31.241  31.695  26.720  1.00  0.00     0.042 C 
ENDROOT
BRANCH   1   2
ATOM      2  C   UNL A   1      31.052  30.965  25.392  1.00  0.00     0.117 C 
BRANCH   2   3
ATOM      3  N   UNL A   1      32.200  30.130  25.094  1.00  0.00    -0.356 N 
ATOM      4  C   UNL A   1      32.456  28.837  25.440  1.00  0.00     0.227 C 
ATOM      5  O   UNL A   1      33.596  28.421  25.216  1.00  0.00    -0.274 OA
ATOM      6  H   UNL A   1      32.902  30.564  24.559  1.00  0.00     0.163 HD
BRANCH   4   7
ATOM      7  C   UNL A   1      31.341  27.954  26.023  1.00  0.00     0.106 C 
ATOM      8  C   UNL A   1      31.489  27.851  27.545  1.00  0.00     0.023 C 
BRANCH   7   9
ATOM      9  C   UNL A   1      31.299  26.596  25.305  1.00  0.00    -0.028 A 
ATOM     10  C   UNL A   1      31.957  25.480  25.862  1.00  0.00     0.005 A 
ATOM     11  C   UNL A   1      30.662  26.440  24.047  1.00  0.00    -0.014 A 
ATOM     12  C   UNL A   1      31.973  24.246  25.213  1.00  0.00     0.000 A 
ATOM     13  C   UNL A   1      30.706  25.192  23.398  1.00  0.00     0.009 A 
ATOM     14  C   UNL A   1      31.352  24.102  23.980  1.00  0.00     0.001 A 
BRANCH  11  15
ATOM     15  C   UNL A   1      29.932  27.538  23.372  1.00  0.00    -0.011 A 
ATOM     16  C   UNL A   1      30.571  28.506  22.500  1.00  0.00     0.027 A 
ATOM     17  C   UNL A   1      28.611  27.643  23.601  1.00  0.00     0.080 A 
ATOM     18  C   UNL A   1      29.885  29.554  22.029  1.00  0.00     0.095 A 
ATOM     19  C   UNL A   1      27.818  28.760  23.019  1.00  0.00     0.255 A 
ATOM     20  N   UNL A   1      28.538  29.703  22.303  1.00  0.00    -0.258 N 
ATOM     21  O   UNL A   1      26.607  28.787  23.221  1.00  0.00    -0.269 OA
BRANCH  20  22
ATOM     22  C   UNL A   1      27.813  30.846  21.811  1.00  0.00     0.451 C 
ATOM     23  F   UNL A   1      27.631  31.766  22.789  1.00  0.00    -0.185 F 
ATOM     24  F   UNL A   1      28.479  31.443  20.793  1.00  0.00    -0.185 F 
ENDBRANCH  20  22
ENDBRANCH  11  15
ENDBRANCH   7   9
ENDBRANCH   4   7
ENDBRANCH   2   3
ENDBRANCH   1   2
BRANCH   1  25
ATOM     25  C   UNL A   1      32.626  32.313  26.891  1.00  0.00     0.118 C 
BRANCH  25  26
ATOM     26  N   UNL A   1      32.565  33.682  27.377  1.00  0.00    -0.352 N 
ATOM     27  C   UNL A   1      33.275  34.284  28.384  1.00  0.00     0.251 C 
ATOM     28  H   UNL A   1      31.918  34.263  26.914  1.00  0.00     0.163 HD
ATOM     29  O   UNL A   1      32.921  35.396  28.781  1.00  0.00    -0.269 OA
BRANCH  27  30
ATOM     30  C   UNL A   1      34.435  33.604  29.000  1.00  0.00     0.039 A 
ATOM     31  C   UNL A   1      34.208  32.596  29.941  1.00  0.00     0.014 A 
ATOM     32  C   UNL A   1      35.744  33.975  28.679  1.00  0.00     0.014 A 
ATOM     33  C   UNL A   1      35.290  31.931  30.523  1.00  0.00     0.010 A 
ATOM     34  C   UNL A   1      36.819  33.256  29.198  1.00  0.00     0.010 A 
ATOM     35  C   UNL A   1      36.606  32.237  30.137  1.00  0.00    -0.014 A 
BRANCH  35  36
ATOM     36  C   UNL A   1      37.769  31.526  30.731  1.00  0.00     0.031 A 
ATOM     37  C   UNL A   1      38.213  31.852  32.133  1.00  0.00     0.074 A 
ATOM     38  C   UNL A   1      38.456  30.629  29.997  1.00  0.00     0.049 A 
ATOM     39  N   UNL A   1      39.239  31.397  32.807  1.00  0.00    -0.248 NA
ATOM     40  C   UNL A   1      37.412  32.848  32.861  1.00  0.00     0.031 C 
ATOM     41  C   UNL A   1      38.142  30.250  28.618  1.00  0.00     0.029 A 
ATOM     42  N   UNL A   1      39.561  29.876  30.305  1.00  0.00    -0.354 N 
ATOM     43  C   UNL A   1      39.219  32.064  34.027  1.00  0.00     0.074 A 
ATOM     44  C   UNL A   1      38.117  33.002  33.971  1.00  0.00     0.031 C 
ATOM     45  C   UNL A   1      39.015  29.313  28.211  1.00  0.00     0.029 A 
ATOM     46  C   UNL A   1      39.978  29.060  29.277  1.00  0.00     0.049 A 
ATOM     47  H   UNL A   1      40.013  29.914  31.178  1.00  0.00     0.167 HD
ATOM     48  C   UNL A   1      40.028  31.897  35.103  1.00  0.00     0.034 A 
ATOM     49  C   UNL A   1      41.023  28.212  29.201  1.00  0.00     0.034 A 
ATOM     50  C   UNL A   1      41.114  30.946  35.145  1.00  0.00     0.049 A 
ATOM     51  C   UNL A   1      41.926  28.058  30.399  1.00  0.00     0.074 A 
ATOM     52  C   UNL A   1      41.962  30.652  36.199  1.00  0.00     0.029 A 
ATOM     53  N   UNL A   1      41.510  30.140  34.084  1.00  0.00    -0.354 N 
ATOM     54  N   UNL A   1      41.866  28.662  31.565  1.00  0.00    -0.248 NA
ATOM     55  C   UNL A   1      43.031  27.100  30.275  1.00  0.00     0.031 C 
ATOM     56  C   UNL A   1      42.915  29.730  35.752  1.00  0.00     0.029 A 
ATOM     57  C   UNL A   1      42.609  29.377  34.447  1.00  0.00     0.049 A 
ATOM     58  H   UNL A   1      41.074  30.117  33.202  1.00  0.00     0.167 HD
ATOM     59  C   UNL A   1      42.900  28.121  32.326  1.00  0.00     0.074 A 
ATOM     60  C   UNL A   1      43.559  27.140  31.489  1.00  0.00     0.031 C 
ATOM     61  C   UNL A   1      43.264  28.403  33.603  1.00  0.00     0.034 A 
BRANCH  48  62
ATOM     62  C   UNL A   1      39.786  32.785  36.303  1.00  0.00     0.023 A 
ATOM     63  C   UNL A   1      39.007  32.361  37.395  1.00  0.00     0.031 A 
ATOM     64  C   UNL A   1      40.303  34.092  36.337  1.00  0.00     0.131 A 
ATOM     65  C   UNL A   1      38.694  33.261  38.425  1.00  0.00     0.055 A 
ATOM     66  C   UNL A   1      40.066  34.952  37.413  1.00  0.00     0.041 A 
ATOM     67  F   UNL A   1      41.036  34.565  35.316  1.00  0.00    -0.206 F 
ATOM     68  C   UNL A   1      39.240  34.546  38.456  1.00  0.00     0.022 A 
BRANCH  65  69
ATOM     69  S   UNL A   1      37.423  32.786  39.631  1.00  0.00     0.124 S 
ATOM     70  O   UNL A   1      37.911  31.482  40.074  1.00  0.00    -0.237 OA
ATOM     71  O   UNL A   1      37.499  33.863  40.610  1.00  0.00    -0.237 OA
ATOM     72  O   UNL A   1      36.197  32.746  38.837  1.00  0.00    -0.744 OA
ENDBRANCH  65  69
ENDBRANCH  48  62
BRANCH  49  73
ATOM     73  C   UNL A   1      41.276  27.435  27.954  1.00  0.00     0.023 A 
ATOM     74  C   UNL A   1      41.017  26.056  27.897  1.00  0.00     0.031 A 
ATOM     75  C   UNL A   1      41.818  28.050  26.811  1.00  0.00     0.131 A 
ATOM     76  C   UNL A   1      41.345  25.328  26.743  1.00  0.00     0.055 A 
ATOM     77  C   UNL A   1      42.090  27.332  25.645  1.00  0.00     0.041 A 
ATOM     78  F   UNL A   1      42.080  29.366  26.808  1.00  0.00    -0.206 F 
ATOM     79  C   UNL A   1      41.865  25.959  25.612  1.00  0.00     0.022 A 
BRANCH  76  80
ATOM     80  S   UNL A   1      41.157  23.524  26.772  1.00  0.00     0.124 S 
ATOM     81  O   UNL A   1      41.554  23.208  28.139  1.00  0.00    -0.237 OA
ATOM     82  O   UNL A   1      39.740  23.362  26.461  1.00  0.00    -0.237 OA
ATOM     83  O   UNL A   1      42.077  23.070  25.731  1.00  0.00    -0.744 OA
ENDBRANCH  76  80
ENDBRANCH  49  73
BRANCH  61  84
ATOM     84  C   UNL A   1      44.391  27.589  34.194  1.00  0.00     0.023 A 
ATOM     85  C   UNL A   1      44.166  26.365  34.848  1.00  0.00     0.031 A 
ATOM     86  C   UNL A   1      45.715  28.059  34.113  1.00  0.00     0.131 A 
ATOM     87  C   UNL A   1      45.237  25.685  35.448  1.00  0.00     0.055 A 
ATOM     88  C   UNL A   1      46.785  27.345  34.653  1.00  0.00     0.041 A 
ATOM     89  F   UNL A   1      45.991  29.223  33.504  1.00  0.00    -0.206 F 
ATOM     90  C   UNL A   1      46.547  26.157  35.339  1.00  0.00     0.022 A 
BRANCH  87  91
ATOM     91  S   UNL A   1      44.882  24.230  36.471  1.00  0.00     0.124 S 
ATOM     92  O   UNL A   1      46.157  23.521  36.446  1.00  0.00    -0.237 OA
ATOM     93  O   UNL A   1      44.512  24.830  37.749  1.00  0.00    -0.237 OA
ATOM     94  O   UNL A   1      43.790  23.568  35.760  1.00  0.00    -0.744 OA
ENDBRANCH  87  91
ENDBRANCH  61  84
ENDBRANCH  35  36
ENDBRANCH  27  30
ENDBRANCH  25  26
ENDBRANCH   1  25
TORSDOF 16
ENDMDL
