MODEL 1
REMARK VINA RESULT:     -12.5      0.000      0.000
REMARK SMILES CC[C@]1(C(=O)NCCCNC(=O)c2ccc(-c3c4nc(c(-c5cc(S(=O)(=O)[O-])ccc5F)c5ccc([nH]5)c(-c5cc(S(=O)(=O)[O-])ccc5F)c5nc(c(-c6cc(S(=O)(=O)[O-])ccc6F)c6ccc3[nH]6)C=C5)C=C4)cc2)CCC[N@@H+](Cc2cc(OC)ccc2F)C1
REMARK SMILES IDX 8 1 7 2 6 3 4 4 5 5 3 7 76 8 90 9 77 10 79 11 78 12 2 14
REMARK SMILES IDX 1 15 80 16 81 17 82 18 88 19 83 20 87 21 89 22 86 23 84 24
REMARK SMILES IDX 85 25 9 26 10 27 11 28 12 30 13 31 14 32 75 33 15 34 74 35
REMARK SMILES IDX 16 36 17 37 18 38 68 39 19 40 73 41 67 42 69 43 20 44 72 45
REMARK SMILES IDX 66 46 65 47 21 49 53 50 33 51 52 52 34 53 37 54 51 55 70 56
REMARK SMILES IDX 35 57 36 58 50 60 71 61 38 62 22 63 23 64 31 65 24 66 30 67
REMARK SMILES IDX 32 68 29 69 25 70 26 71 27 72 28 73 54 74 55 75 63 76 56 77
REMARK SMILES IDX 62 78 64 79 61 80 57 81 58 82 59 83 60 84 39 85 40 86 48 87
REMARK SMILES IDX 41 88 47 89 49 90 46 91 42 92 43 93 44 94 45 95
REMARK H PARENT 6 6 79 13 10 29 69 48 37 59
REMARK Flexibility Score: inf
ROOT
ATOM      1  C   UNL A   1      31.492  32.075  26.598  1.00  0.00     0.042 C 
ENDROOT
BRANCH   1   2
ATOM      2  C   UNL A   1      31.637  30.639  26.100  1.00  0.00     0.117 C 
BRANCH   2   3
ATOM      3  N   UNL A   1      31.584  29.653  27.173  1.00  0.00    -0.355 N 
ATOM      4  C   UNL A   1      31.751  28.303  27.229  1.00  0.00     0.231 C 
ATOM      5  O   UNL A   1      31.619  27.819  28.359  1.00  0.00    -0.274 OA
ATOM      6  H   UNL A   1      31.382  30.052  28.049  1.00  0.00     0.163 HD
BRANCH   4   7
ATOM      7  C   UNL A   1      32.089  27.410  25.996  1.00  0.00     0.098 C 
ATOM      8  C   UNL A   1      31.838  25.927  26.363  1.00  0.00     0.028 C 
ATOM      9  C   UNL A   1      31.231  27.878  24.799  1.00  0.00     0.279 C 
ATOM     10  C   UNL A   1      31.553  24.999  25.186  1.00  0.00     0.063 C 
ATOM     11  N   UNL A   1      31.166  26.896  23.709  1.00  0.00    -0.330 N 
ATOM     12  C   UNL A   1      30.614  25.622  24.153  1.00  0.00     0.262 C 
ATOM     13  H   UNL A   1      32.131  26.699  23.445  1.00  0.00     0.348 HD
BRANCH   7  14
ATOM     14  C   UNL A   1      33.615  27.632  25.676  1.00  0.00     0.019 C 
ATOM     15  C   UNL A   1      34.435  28.518  26.606  1.00  0.00     0.005 C 
ENDBRANCH   7  14
BRANCH  11  16
ATOM     16  C   UNL A   1      30.588  27.417  22.465  1.00  0.00     0.302 C 
BRANCH  16  17
ATOM     17  C   UNL A   1      29.537  28.494  22.572  1.00  0.00     0.046 A 
ATOM     18  C   UNL A   1      29.824  29.818  22.207  1.00  0.00     0.059 A 
ATOM     19  C   UNL A   1      28.271  28.220  23.097  1.00  0.00     0.132 A 
ATOM     20  C   UNL A   1      28.872  30.832  22.371  1.00  0.00     0.119 A 
ATOM     21  C   UNL A   1      27.294  29.205  23.194  1.00  0.00     0.043 A 
ATOM     22  F   UNL A   1      27.970  26.989  23.534  1.00  0.00    -0.206 F 
ATOM     23  C   UNL A   1      27.592  30.515  22.826  1.00  0.00     0.049 A 
BRANCH  20  24
ATOM     24  O   UNL A   1      29.302  32.094  22.059  1.00  0.00    -0.497 OA
ATOM     25  C   UNL A   1      28.792  33.140  22.883  1.00  0.00     0.278 C 
ENDBRANCH  20  24
ENDBRANCH  16  17
ENDBRANCH  11  16
ENDBRANCH   4   7
ENDBRANCH   2   3
ENDBRANCH   1   2
BRANCH   1  26
ATOM     26  C   UNL A   1      32.751  32.671  27.215  1.00  0.00     0.118 C 
BRANCH  26  27
ATOM     27  N   UNL A   1      32.575  34.054  27.627  1.00  0.00    -0.352 N 
ATOM     28  C   UNL A   1      33.178  34.773  28.632  1.00  0.00     0.251 C 
ATOM     29  H   UNL A   1      31.915  34.559  27.098  1.00  0.00     0.163 HD
ATOM     30  O   UNL A   1      32.716  35.872  28.928  1.00  0.00    -0.269 OA
BRANCH  28  31
ATOM     31  C   UNL A   1      34.346  34.236  29.375  1.00  0.00     0.039 A 
ATOM     32  C   UNL A   1      34.114  33.444  30.507  1.00  0.00     0.014 A 
ATOM     33  C   UNL A   1      35.658  34.536  29.008  1.00  0.00     0.014 A 
ATOM     34  C   UNL A   1      35.192  32.904  31.218  1.00  0.00     0.010 A 
ATOM     35  C   UNL A   1      36.729  33.929  29.664  1.00  0.00     0.010 A 
ATOM     36  C   UNL A   1      36.509  33.109  30.782  1.00  0.00    -0.014 A 
BRANCH  36  37
ATOM     37  C   UNL A   1      37.667  32.490  31.486  1.00  0.00     0.031 A 
ATOM     38  C   UNL A   1      38.413  31.342  30.855  1.00  0.00     0.074 A 
ATOM     39  C   UNL A   1      38.011  32.919  32.717  1.00  0.00     0.049 A 
ATOM     40  N   UNL A   1      39.387  30.618  31.344  1.00  0.00    -0.248 NA
ATOM     41  C   UNL A   1      37.982  30.938  29.508  1.00  0.00     0.031 C 
ATOM     42  C   UNL A   1      37.346  33.999  33.451  1.00  0.00     0.029 A 
ATOM     43  N   UNL A   1      38.997  32.495  33.574  1.00  0.00    -0.354 N 
ATOM     44  C   UNL A   1      39.676  29.663  30.373  1.00  0.00     0.074 A 
ATOM     45  C   UNL A   1      38.731  29.867  29.296  1.00  0.00     0.031 C 
ATOM     46  C   UNL A   1      37.958  34.167  34.635  1.00  0.00     0.029 A 
ATOM     47  C   UNL A   1      39.023  33.179  34.770  1.00  0.00     0.049 A 
ATOM     48  H   UNL A   1      39.626  31.771  33.355  1.00  0.00     0.167 HD
ATOM     49  C   UNL A   1      40.652  28.721  30.369  1.00  0.00     0.034 A 
ATOM     50  C   UNL A   1      39.803  33.018  35.857  1.00  0.00     0.034 A 
ATOM     51  C   UNL A   1      41.598  28.539  31.446  1.00  0.00     0.049 A 
ATOM     52  C   UNL A   1      40.865  31.947  35.842  1.00  0.00     0.074 A 
ATOM     53  C   UNL A   1      42.658  27.653  31.522  1.00  0.00     0.029 A 
ATOM     54  N   UNL A   1      41.591  29.250  32.640  1.00  0.00    -0.354 N 
ATOM     55  N   UNL A   1      41.154  31.084  34.896  1.00  0.00    -0.248 NA
ATOM     56  C   UNL A   1      41.711  31.836  37.037  1.00  0.00     0.031 C 
ATOM     57  C   UNL A   1      43.248  27.779  32.784  1.00  0.00     0.029 A 
ATOM     58  C   UNL A   1      42.609  28.800  33.469  1.00  0.00     0.049 A 
ATOM     59  H   UNL A   1      40.957  29.969  32.865  1.00  0.00     0.167 HD
ATOM     60  C   UNL A   1      42.238  30.349  35.372  1.00  0.00     0.074 A 
ATOM     61  C   UNL A   1      42.557  30.881  36.680  1.00  0.00     0.031 C 
ATOM     62  C   UNL A   1      42.911  29.331  34.777  1.00  0.00     0.034 A 
BRANCH  49  63
ATOM     63  C   UNL A   1      40.727  27.800  29.173  1.00  0.00     0.023 A 
ATOM     64  C   UNL A   1      41.660  28.003  28.139  1.00  0.00     0.031 A 
ATOM     65  C   UNL A   1      39.838  26.718  29.048  1.00  0.00     0.131 A 
ATOM     66  C   UNL A   1      41.627  27.192  26.995  1.00  0.00     0.055 A 
ATOM     67  C   UNL A   1      39.868  25.861  27.946  1.00  0.00     0.041 A 
ATOM     68  F   UNL A   1      38.912  26.482  29.991  1.00  0.00    -0.206 F 
ATOM     69  C   UNL A   1      40.756  26.105  26.903  1.00  0.00     0.022 A 
BRANCH  66  70
ATOM     70  S   UNL A   1      42.638  27.670  25.567  1.00  0.00     0.124 S 
ATOM     71  O   UNL A   1      43.945  27.877  26.187  1.00  0.00    -0.237 OA
ATOM     72  O   UNL A   1      42.522  26.507  24.694  1.00  0.00    -0.237 OA
ATOM     73  O   UNL A   1      41.990  28.885  25.079  1.00  0.00    -0.744 OA
ENDBRANCH  66  70
ENDBRANCH  49  63
BRANCH  50  74
ATOM     74  C   UNL A   1      39.611  33.880  37.059  1.00  0.00     0.023 A 
ATOM     75  C   UNL A   1      38.964  33.392  38.204  1.00  0.00     0.031 A 
ATOM     76  C   UNL A   1      40.037  35.221  37.063  1.00  0.00     0.131 A 
ATOM     77  C   UNL A   1      38.719  34.248  39.289  1.00  0.00     0.055 A 
ATOM     78  C   UNL A   1      39.839  36.054  38.166  1.00  0.00     0.041 A 
ATOM     79  F   UNL A   1      40.665  35.738  35.995  1.00  0.00    -0.206 F 
ATOM     80  C   UNL A   1      39.165  35.572  39.283  1.00  0.00     0.022 A 
BRANCH  77  81
ATOM     81  S   UNL A   1      37.733  33.630  40.680  1.00  0.00     0.124 S 
ATOM     82  O   UNL A   1      37.450  34.859  41.413  1.00  0.00    -0.237 OA
ATOM     83  O   UNL A   1      36.600  33.014  39.997  1.00  0.00    -0.237 OA
ATOM     84  O   UNL A   1      38.637  32.697  41.350  1.00  0.00    -0.744 OA
ENDBRANCH  77  81
ENDBRANCH  50  74
BRANCH  62  85
ATOM     85  C   UNL A   1      44.094  28.761  35.525  1.00  0.00     0.023 A 
ATOM     86  C   UNL A   1      43.960  27.680  36.412  1.00  0.00     0.031 A 
ATOM     87  C   UNL A   1      45.373  29.321  35.353  1.00  0.00     0.131 A 
ATOM     88  C   UNL A   1      45.074  27.227  37.136  1.00  0.00     0.055 A 
ATOM     89  C   UNL A   1      46.488  28.827  36.028  1.00  0.00     0.041 A 
ATOM     90  F   UNL A   1      45.558  30.358  34.520  1.00  0.00    -0.206 F 
ATOM     91  C   UNL A   1      46.341  27.783  36.937  1.00  0.00     0.022 A 
BRANCH  88  92
ATOM     92  S   UNL A   1      44.830  25.963  38.414  1.00  0.00     0.124 S 
ATOM     93  O   UNL A   1      46.203  25.580  38.728  1.00  0.00    -0.237 OA
ATOM     94  O   UNL A   1      44.120  26.703  39.453  1.00  0.00    -0.237 OA
ATOM     95  O   UNL A   1      44.040  24.937  37.735  1.00  0.00    -0.744 OA
ENDBRANCH  88  92
ENDBRANCH  62  85
ENDBRANCH  36  37
ENDBRANCH  28  31
ENDBRANCH  26  27
ENDBRANCH   1  26
TORSDOF 17
ENDMDL
MODEL 2
REMARK VINA RESULT:     -12.1      1.882      3.508
REMARK SMILES CC[C@]1(C(=O)NCCCNC(=O)c2ccc(-c3c4nc(c(-c5cc(S(=O)(=O)[O-])ccc5F)c5ccc([nH]5)c(-c5cc(S(=O)(=O)[O-])ccc5F)c5nc(c(-c6cc(S(=O)(=O)[O-])ccc6F)c6ccc3[nH]6)C=C5)C=C4)cc2)CCC[N@@H+](Cc2cc(OC)ccc2F)C1
REMARK SMILES IDX 8 1 7 2 6 3 4 4 5 5 3 7 76 8 90 9 77 10 79 11 78 12 2 14
REMARK SMILES IDX 1 15 80 16 81 17 82 18 88 19 83 20 87 21 89 22 86 23 84 24
REMARK SMILES IDX 85 25 9 26 10 27 11 28 12 30 13 31 14 32 75 33 15 34 74 35
REMARK SMILES IDX 16 36 17 37 18 38 68 39 19 40 73 41 67 42 69 43 20 44 72 45
REMARK SMILES IDX 66 46 65 47 21 49 53 50 33 51 52 52 34 53 37 54 51 55 70 56
REMARK SMILES IDX 35 57 36 58 50 60 71 61 38 62 22 63 23 64 31 65 24 66 30 67
REMARK SMILES IDX 32 68 29 69 25 70 26 71 27 72 28 73 54 74 55 75 63 76 56 77
REMARK SMILES IDX 62 78 64 79 61 80 57 81 58 82 59 83 60 84 39 85 40 86 48 87
REMARK SMILES IDX 41 88 47 89 49 90 46 91 42 92 43 93 44 94 45 95
REMARK H PARENT 6 6 79 13 10 29 69 48 37 59
REMARK Flexibility Score: inf
ROOT
ATOM      1  C   UNL A   1      31.571  31.538  26.374  1.00  0.00     0.042 C 
ENDROOT
BRANCH   1   2
ATOM      2  C   UNL A   1      31.664  30.052  26.036  1.00  0.00     0.117 C 
BRANCH   2   3
ATOM      3  N   UNL A   1      32.287  29.796  24.743  1.00  0.00    -0.355 N 
ATOM      4  C   UNL A   1      32.488  28.679  23.992  1.00  0.00     0.231 C 
ATOM      5  O   UNL A   1      33.076  28.880  22.923  1.00  0.00    -0.274 OA
ATOM      6  H   UNL A   1      32.642  30.611  24.321  1.00  0.00     0.163 HD
BRANCH   4   7
ATOM      7  C   UNL A   1      32.022  27.249  24.406  1.00  0.00     0.098 C 
ATOM      8  C   UNL A   1      30.476  27.223  24.480  1.00  0.00     0.028 C 
ATOM      9  C   UNL A   1      32.585  26.233  23.384  1.00  0.00     0.279 C 
ATOM     10  C   UNL A   1      29.834  25.851  24.295  1.00  0.00     0.063 C 
ATOM     11  N   UNL A   1      31.915  24.927  23.433  1.00  0.00    -0.330 N 
ATOM     12  C   UNL A   1      30.484  25.036  23.178  1.00  0.00     0.262 C 
ATOM     13  H   UNL A   1      31.997  24.600  24.396  1.00  0.00     0.348 HD
BRANCH   7  14
ATOM     14  C   UNL A   1      32.632  26.965  25.830  1.00  0.00     0.019 C 
ATOM     15  C   UNL A   1      34.020  26.342  25.919  1.00  0.00     0.005 C 
ENDBRANCH   7  14
BRANCH  11  16
ATOM     16  C   UNL A   1      32.597  23.875  22.673  1.00  0.00     0.302 C 
BRANCH  16  17
ATOM     17  C   UNL A   1      32.969  22.606  23.399  1.00  0.00     0.046 A 
ATOM     18  C   UNL A   1      33.974  22.605  24.378  1.00  0.00     0.059 A 
ATOM     19  C   UNL A   1      32.370  21.385  23.075  1.00  0.00     0.132 A 
ATOM     20  C   UNL A   1      34.368  21.415  25.004  1.00  0.00     0.119 A 
ATOM     21  C   UNL A   1      32.701  20.211  23.743  1.00  0.00     0.043 A 
ATOM     22  F   UNL A   1      31.460  21.316  22.094  1.00  0.00    -0.206 F 
ATOM     23  C   UNL A   1      33.700  20.225  24.714  1.00  0.00     0.049 A 
BRANCH  20  24
ATOM     24  O   UNL A   1      35.417  21.532  25.876  1.00  0.00    -0.497 OA
ATOM     25  C   UNL A   1      35.927  22.851  26.053  1.00  0.00     0.278 C 
ENDBRANCH  20  24
ENDBRANCH  16  17
ENDBRANCH  11  16
ENDBRANCH   4   7
ENDBRANCH   2   3
ENDBRANCH   1   2
BRANCH   1  26
ATOM     26  C   UNL A   1      32.724  32.081  27.208  1.00  0.00     0.118 C 
BRANCH  26  27
ATOM     27  N   UNL A   1      32.583  33.495  27.511  1.00  0.00    -0.352 N 
ATOM     28  C   UNL A   1      33.220  34.280  28.443  1.00  0.00     0.251 C 
ATOM     29  H   UNL A   1      31.921  33.969  26.957  1.00  0.00     0.163 HD
ATOM     30  O   UNL A   1      32.785  35.408  28.660  1.00  0.00    -0.269 OA
BRANCH  28  31
ATOM     31  C   UNL A   1      34.394  33.780  29.203  1.00  0.00     0.039 A 
ATOM     32  C   UNL A   1      34.185  32.841  30.220  1.00  0.00     0.014 A 
ATOM     33  C   UNL A   1      35.685  34.255  28.966  1.00  0.00     0.014 A 
ATOM     34  C   UNL A   1      35.271  32.333  30.942  1.00  0.00     0.010 A 
ATOM     35  C   UNL A   1      36.775  33.686  29.625  1.00  0.00     0.010 A 
ATOM     36  C   UNL A   1      36.581  32.722  30.626  1.00  0.00    -0.014 A 
BRANCH  36  37
ATOM     37  C   UNL A   1      37.756  32.145  31.337  1.00  0.00     0.031 A 
ATOM     38  C   UNL A   1      38.555  31.034  30.706  1.00  0.00     0.074 A 
ATOM     39  C   UNL A   1      38.070  32.578  32.575  1.00  0.00     0.049 A 
ATOM     40  N   UNL A   1      39.553  30.346  31.199  1.00  0.00    -0.248 NA
ATOM     41  C   UNL A   1      38.155  30.623  29.352  1.00  0.00     0.031 C 
ATOM     42  C   UNL A   1      37.355  33.624  33.310  1.00  0.00     0.029 A 
ATOM     43  N   UNL A   1      39.064  32.188  33.439  1.00  0.00    -0.354 N 
ATOM     44  C   UNL A   1      39.891  29.411  30.224  1.00  0.00     0.074 A 
ATOM     45  C   UNL A   1      38.948  29.585  29.138  1.00  0.00     0.031 C 
ATOM     46  C   UNL A   1      37.946  33.807  34.501  1.00  0.00     0.029 A 
ATOM     47  C   UNL A   1      39.050  32.863  34.640  1.00  0.00     0.049 A 
ATOM     48  H   UNL A   1      39.725  31.492  33.221  1.00  0.00     0.167 HD
ATOM     49  C   UNL A   1      40.905  28.511  30.223  1.00  0.00     0.034 A 
ATOM     50  C   UNL A   1      39.825  32.726  35.734  1.00  0.00     0.034 A 
ATOM     51  C   UNL A   1      41.846  28.358  31.309  1.00  0.00     0.049 A 
ATOM     52  C   UNL A   1      40.931  31.699  35.721  1.00  0.00     0.074 A 
ATOM     53  C   UNL A   1      42.941  27.516  31.388  1.00  0.00     0.029 A 
ATOM     54  N   UNL A   1      41.799  29.059  32.507  1.00  0.00    -0.354 N 
ATOM     55  N   UNL A   1      41.264  30.856  34.772  1.00  0.00    -0.248 NA
ATOM     56  C   UNL A   1      41.768  31.613  36.924  1.00  0.00     0.031 C 
ATOM     57  C   UNL A   1      43.512  27.656  32.657  1.00  0.00     0.029 A 
ATOM     58  C   UNL A   1      42.825  28.645  33.343  1.00  0.00     0.049 A 
ATOM     59  H   UNL A   1      41.133  29.750  32.731  1.00  0.00     0.167 HD
ATOM     60  C   UNL A   1      42.372  30.162  35.254  1.00  0.00     0.074 A 
ATOM     61  C   UNL A   1      42.656  30.697  36.569  1.00  0.00     0.031 C 
ATOM     62  C   UNL A   1      43.093  29.178  34.659  1.00  0.00     0.034 A 
BRANCH  49  63
ATOM     63  C   UNL A   1      41.029  27.602  29.021  1.00  0.00     0.023 A 
ATOM     64  C   UNL A   1      42.009  27.812  28.033  1.00  0.00     0.031 A 
ATOM     65  C   UNL A   1      40.141  26.527  28.843  1.00  0.00     0.131 A 
ATOM     66  C   UNL A   1      42.025  27.014  26.879  1.00  0.00     0.055 A 
ATOM     67  C   UNL A   1      40.216  25.682  27.733  1.00  0.00     0.041 A 
ATOM     68  F   UNL A   1      39.171  26.286  29.740  1.00  0.00    -0.206 F 
ATOM     69  C   UNL A   1      41.152  25.934  26.734  1.00  0.00     0.022 A 
BRANCH  66  70
ATOM     70  S   UNL A   1      43.102  27.503  25.505  1.00  0.00     0.124 S 
ATOM     71  O   UNL A   1      43.553  26.205  25.007  1.00  0.00    -0.237 OA
ATOM     72  O   UNL A   1      42.191  28.238  24.635  1.00  0.00    -0.237 OA
ATOM     73  O   UNL A   1      44.137  28.308  26.149  1.00  0.00    -0.744 OA
ENDBRANCH  66  70
ENDBRANCH  49  63
BRANCH  50  74
ATOM     74  C   UNL A   1      39.586  33.570  36.940  1.00  0.00     0.023 A 
ATOM     75  C   UNL A   1      38.910  33.059  38.058  1.00  0.00     0.031 A 
ATOM     76  C   UNL A   1      39.995  34.915  36.975  1.00  0.00     0.131 A 
ATOM     77  C   UNL A   1      38.622  33.898  39.146  1.00  0.00     0.055 A 
ATOM     78  C   UNL A   1      39.754  35.731  38.081  1.00  0.00     0.041 A 
ATOM     79  F   UNL A   1      40.651  35.453  35.933  1.00  0.00    -0.206 F 
ATOM     80  C   UNL A   1      39.051  35.227  39.171  1.00  0.00     0.022 A 
BRANCH  77  81
ATOM     81  S   UNL A   1      37.600  33.250  40.498  1.00  0.00     0.124 S 
ATOM     82  O   UNL A   1      38.469  32.221  41.059  1.00  0.00    -0.237 OA
ATOM     83  O   UNL A   1      37.399  34.439  41.321  1.00  0.00    -0.237 OA
ATOM     84  O   UNL A   1      36.406  32.757  39.816  1.00  0.00    -0.744 OA
ENDBRANCH  77  81
ENDBRANCH  50  74
BRANCH  62  85
ATOM     85  C   UNL A   1      44.290  28.651  35.414  1.00  0.00     0.023 A 
ATOM     86  C   UNL A   1      44.176  27.613  36.355  1.00  0.00     0.031 A 
ATOM     87  C   UNL A   1      45.563  29.208  35.194  1.00  0.00     0.131 A 
ATOM     88  C   UNL A   1      45.304  27.202  37.083  1.00  0.00     0.055 A 
ATOM     89  C   UNL A   1      46.692  28.753  35.875  1.00  0.00     0.041 A 
ATOM     90  F   UNL A   1      45.729  30.204  34.309  1.00  0.00    -0.206 F 
ATOM     91  C   UNL A   1      46.564  27.754  36.836  1.00  0.00     0.022 A 
BRANCH  88  92
ATOM     92  S   UNL A   1      45.087  26.001  38.424  1.00  0.00     0.124 S 
ATOM     93  O   UNL A   1      44.178  26.708  39.320  1.00  0.00    -0.237 OA
ATOM     94  O   UNL A   1      44.526  24.849  37.724  1.00  0.00    -0.237 OA
ATOM     95  O   UNL A   1      46.443  25.812  38.939  1.00  0.00    -0.744 OA
ENDBRANCH  88  92
ENDBRANCH  62  85
ENDBRANCH  36  37
ENDBRANCH  28  31
ENDBRANCH  26  27
ENDBRANCH   1  26
TORSDOF 17
ENDMDL
MODEL 3
REMARK VINA RESULT:     -12.0      4.683      9.842
REMARK SMILES CC[C@]1(C(=O)NCCCNC(=O)c2ccc(-c3c4nc(c(-c5cc(S(=O)(=O)[O-])ccc5F)c5ccc([nH]5)c(-c5cc(S(=O)(=O)[O-])ccc5F)c5nc(c(-c6cc(S(=O)(=O)[O-])ccc6F)c6ccc3[nH]6)C=C5)C=C4)cc2)CCC[N@@H+](Cc2cc(OC)ccc2F)C1
REMARK SMILES IDX 8 1 7 2 6 3 4 4 5 5 3 7 76 8 90 9 77 10 79 11 78 12 2 14
REMARK SMILES IDX 1 15 80 16 81 17 82 18 88 19 83 20 87 21 89 22 86 23 84 24
REMARK SMILES IDX 85 25 9 26 10 27 11 28 12 30 13 31 14 32 75 33 15 34 74 35
REMARK SMILES IDX 16 36 17 37 18 38 68 39 19 40 73 41 67 42 69 43 20 44 72 45
REMARK SMILES IDX 66 46 65 47 21 49 53 50 33 51 52 52 34 53 37 54 51 55 70 56
REMARK SMILES IDX 35 57 36 58 50 60 71 61 38 62 22 63 23 64 31 65 24 66 30 67
REMARK SMILES IDX 32 68 29 69 25 70 26 71 27 72 28 73 54 74 55 75 63 76 56 77
REMARK SMILES IDX 62 78 64 79 61 80 57 81 58 82 59 83 60 84 39 85 40 86 48 87
REMARK SMILES IDX 41 88 47 89 49 90 46 91 42 92 43 93 44 94 45 95
REMARK H PARENT 6 6 79 13 10 29 69 48 37 59
REMARK Flexibility Score: inf
ROOT
ATOM      1  C   UNL A   1      35.310  23.776  25.168  1.00  0.00     0.042 C 
ENDROOT
BRANCH   1   2
ATOM      2  C   UNL A   1      33.862  23.732  24.684  1.00  0.00     0.117 C 
BRANCH   2   3
ATOM      3  N   UNL A   1      32.894  23.770  25.773  1.00  0.00    -0.355 N 
ATOM      4  C   UNL A   1      32.114  24.747  26.315  1.00  0.00     0.231 C 
ATOM      5  O   UNL A   1      31.408  24.372  27.258  1.00  0.00    -0.274 OA
ATOM      6  H   UNL A   1      32.778  22.899  26.214  1.00  0.00     0.163 HD
BRANCH   4   7
ATOM      7  C   UNL A   1      32.082  26.222  25.811  1.00  0.00     0.098 C 
ATOM      8  C   UNL A   1      33.522  26.792  25.825  1.00  0.00     0.028 C 
ATOM      9  C   UNL A   1      31.447  26.248  24.402  1.00  0.00     0.279 C 
ATOM     10  C   UNL A   1      33.778  27.950  24.864  1.00  0.00     0.063 C 
ATOM     11  N   UNL A   1      31.706  27.494  23.669  1.00  0.00    -0.330 N 
ATOM     12  C   UNL A   1      33.133  27.740  23.495  1.00  0.00     0.262 C 
ATOM     13  H   UNL A   1      31.369  28.250  24.264  1.00  0.00     0.348 HD
BRANCH   7  14
ATOM     14  C   UNL A   1      31.177  27.029  26.817  1.00  0.00     0.019 C 
ATOM     15  C   UNL A   1      31.813  28.145  27.637  1.00  0.00     0.005 C 
ENDBRANCH   7  14
BRANCH  11  16
ATOM     16  C   UNL A   1      30.902  27.652  22.452  1.00  0.00     0.302 C 
BRANCH  16  17
ATOM     17  C   UNL A   1      29.705  28.568  22.511  1.00  0.00     0.046 A 
ATOM     18  C   UNL A   1      29.783  29.887  22.035  1.00  0.00     0.059 A 
ATOM     19  C   UNL A   1      28.506  28.154  23.097  1.00  0.00     0.132 A 
ATOM     20  C   UNL A   1      28.694  30.759  22.153  1.00  0.00     0.119 A 
ATOM     21  C   UNL A   1      27.395  28.989  23.151  1.00  0.00     0.043 A 
ATOM     22  F   UNL A   1      28.402  26.932  23.636  1.00  0.00    -0.206 F 
ATOM     23  C   UNL A   1      27.486  30.294  22.674  1.00  0.00     0.049 A 
BRANCH  20  24
ATOM     24  O   UNL A   1      28.924  32.041  21.732  1.00  0.00    -0.497 OA
ATOM     25  C   UNL A   1      28.021  32.538  20.748  1.00  0.00     0.278 C 
ENDBRANCH  20  24
ENDBRANCH  16  17
ENDBRANCH  11  16
ENDBRANCH   4   7
ENDBRANCH   2   3
ENDBRANCH   1   2
BRANCH   1  26
ATOM     26  C   UNL A   1      35.633  22.827  26.315  1.00  0.00     0.118 C 
BRANCH  26  27
ATOM     27  N   UNL A   1      36.469  21.711  25.904  1.00  0.00    -0.352 N 
ATOM     28  C   UNL A   1      37.833  21.617  25.765  1.00  0.00     0.251 C 
ATOM     29  H   UNL A   1      35.975  20.886  25.691  1.00  0.00     0.163 HD
ATOM     30  O   UNL A   1      38.301  20.632  25.201  1.00  0.00    -0.269 OA
BRANCH  28  31
ATOM     31  C   UNL A   1      38.737  22.690  26.254  1.00  0.00     0.039 A 
ATOM     32  C   UNL A   1      38.524  24.000  25.810  1.00  0.00     0.014 A 
ATOM     33  C   UNL A   1      39.814  22.420  27.099  1.00  0.00     0.014 A 
ATOM     34  C   UNL A   1      39.345  25.038  26.267  1.00  0.00     0.010 A 
ATOM     35  C   UNL A   1      40.576  23.465  27.622  1.00  0.00     0.010 A 
ATOM     36  C   UNL A   1      40.355  24.787  27.207  1.00  0.00    -0.014 A 
BRANCH  36  37
ATOM     37  C   UNL A   1      41.196  25.887  27.757  1.00  0.00     0.031 A 
ATOM     38  C   UNL A   1      40.589  26.927  28.663  1.00  0.00     0.074 A 
ATOM     39  C   UNL A   1      42.492  25.985  27.395  1.00  0.00     0.049 A 
ATOM     40  N   UNL A   1      41.132  28.004  29.171  1.00  0.00    -0.248 NA
ATOM     41  C   UNL A   1      39.173  26.745  29.017  1.00  0.00     0.031 C 
ATOM     42  C   UNL A   1      43.190  25.062  26.497  1.00  0.00     0.029 A 
ATOM     43  N   UNL A   1      43.450  26.911  27.728  1.00  0.00    -0.354 N 
ATOM     44  C   UNL A   1      40.122  28.636  29.892  1.00  0.00     0.074 A 
ATOM     45  C   UNL A   1      38.922  27.851  29.701  1.00  0.00     0.031 C 
ATOM     46  C   UNL A   1      44.468  25.455  26.370  1.00  0.00     0.029 A 
ATOM     47  C   UNL A   1      44.671  26.681  27.134  1.00  0.00     0.049 A 
ATOM     48  H   UNL A   1      43.281  27.667  28.335  1.00  0.00     0.167 HD
ATOM     49  C   UNL A   1      40.196  29.752  30.659  1.00  0.00     0.034 A 
ATOM     50  C   UNL A   1      45.819  27.386  27.183  1.00  0.00     0.034 A 
ATOM     51  C   UNL A   1      41.406  30.518  30.851  1.00  0.00     0.049 A 
ATOM     52  C   UNL A   1      45.871  28.640  28.021  1.00  0.00     0.074 A 
ATOM     53  C   UNL A   1      41.604  31.632  31.648  1.00  0.00     0.029 A 
ATOM     54  N   UNL A   1      42.621  30.254  30.232  1.00  0.00    -0.354 N 
ATOM     55  N   UNL A   1      44.919  29.197  28.733  1.00  0.00    -0.248 NA
ATOM     56  C   UNL A   1      47.154  29.352  28.069  1.00  0.00     0.031 C 
ATOM     57  C   UNL A   1      42.915  32.082  31.458  1.00  0.00     0.029 A 
ATOM     58  C   UNL A   1      43.563  31.203  30.605  1.00  0.00     0.049 A 
ATOM     59  H   UNL A   1      42.790  29.504  29.617  1.00  0.00     0.167 HD
ATOM     60  C   UNL A   1      45.501  30.309  29.339  1.00  0.00     0.074 A 
ATOM     61  C   UNL A   1      46.886  30.331  28.920  1.00  0.00     0.031 C 
ATOM     62  C   UNL A   1      44.940  31.222  30.172  1.00  0.00     0.034 A 
BRANCH  49  63
ATOM     63  C   UNL A   1      38.923  30.225  31.325  1.00  0.00     0.023 A 
ATOM     64  C   UNL A   1      38.041  31.116  30.687  1.00  0.00     0.031 A 
ATOM     65  C   UNL A   1      38.598  29.800  32.625  1.00  0.00     0.131 A 
ATOM     66  C   UNL A   1      36.927  31.615  31.378  1.00  0.00     0.055 A 
ATOM     67  C   UNL A   1      37.441  30.234  33.276  1.00  0.00     0.041 A 
ATOM     68  F   UNL A   1      39.409  28.965  33.295  1.00  0.00    -0.206 F 
ATOM     69  C   UNL A   1      36.605  31.160  32.658  1.00  0.00     0.022 A 
BRANCH  66  70
ATOM     70  S   UNL A   1      35.989  32.978  30.637  1.00  0.00     0.124 S 
ATOM     71  O   UNL A   1      35.884  33.909  31.758  1.00  0.00    -0.237 OA
ATOM     72  O   UNL A   1      36.854  33.396  29.539  1.00  0.00    -0.237 OA
ATOM     73  O   UNL A   1      34.731  32.353  30.236  1.00  0.00    -0.744 OA
ENDBRANCH  66  70
ENDBRANCH  49  63
BRANCH  50  74
ATOM     74  C   UNL A   1      47.015  26.938  26.412  1.00  0.00     0.023 A 
ATOM     75  C   UNL A   1      47.273  27.432  25.124  1.00  0.00     0.031 A 
ATOM     76  C   UNL A   1      47.897  25.977  26.939  1.00  0.00     0.131 A 
ATOM     77  C   UNL A   1      48.357  26.931  24.386  1.00  0.00     0.055 A 
ATOM     78  C   UNL A   1      49.004  25.521  26.222  1.00  0.00     0.041 A 
ATOM     79  F   UNL A   1      47.699  25.475  28.169  1.00  0.00    -0.206 F 
ATOM     80  C   UNL A   1      49.232  25.988  24.932  1.00  0.00     0.022 A 
BRANCH  77  81
ATOM     81  S   UNL A   1      48.559  27.467  22.665  1.00  0.00     0.124 S 
ATOM     82  O   UNL A   1      49.795  28.238  22.738  1.00  0.00    -0.237 OA
ATOM     83  O   UNL A   1      48.638  26.192  21.959  1.00  0.00    -0.237 OA
ATOM     84  O   UNL A   1      47.351  28.246  22.407  1.00  0.00    -0.744 OA
ENDBRANCH  77  81
ENDBRANCH  50  74
BRANCH  62  85
ATOM     85  C   UNL A   1      45.848  32.298  30.721  1.00  0.00     0.023 A 
ATOM     86  C   UNL A   1      46.557  32.129  31.922  1.00  0.00     0.031 A 
ATOM     87  C   UNL A   1      45.992  33.517  30.033  1.00  0.00     0.131 A 
ATOM     88  C   UNL A   1      47.335  33.182  32.429  1.00  0.00     0.055 A 
ATOM     89  C   UNL A   1      46.816  34.536  30.510  1.00  0.00     0.041 A 
ATOM     90  F   UNL A   1      45.335  33.734  28.882  1.00  0.00    -0.206 F 
ATOM     91  C   UNL A   1      47.482  34.378  31.721  1.00  0.00     0.022 A 
BRANCH  88  92
ATOM     92  S   UNL A   1      48.079  33.004  34.074  1.00  0.00     0.124 S 
ATOM     93  O   UNL A   1      47.391  34.044  34.832  1.00  0.00    -0.237 OA
ATOM     94  O   UNL A   1      47.738  31.628  34.423  1.00  0.00    -0.237 OA
ATOM     95  O   UNL A   1      49.501  33.248  33.836  1.00  0.00    -0.744 OA
ENDBRANCH  88  92
ENDBRANCH  62  85
ENDBRANCH  36  37
ENDBRANCH  28  31
ENDBRANCH  26  27
ENDBRANCH   1  26
TORSDOF 17
ENDMDL
