MODEL 1
REMARK VINA RESULT:     -12.1      0.000      0.000
REMARK SMILES CC(C)(C)OC(=O)N1C[C@H](Cc2ccccc2)[C@H](C(=O)NCCCNC(=O)c2ccc(-c3c4nc(c(-c5cc(S(=O)(=O)[O-])ccc5F)c5ccc([nH]5)c(-c5cc(S(=O)(=O)[O-])ccc5F)c5nc(c(-c6cc(S(=O)(=O)[O-])ccc6F)c6ccc3[nH]6)C=C5)C=C4)cc2)C1
REMARK SMILES IDX 23 1 22 2 21 3 19 4 20 5 18 7 8 8 9 9 91 10 10 11 6 12 7 13
REMARK SMILES IDX 5 14 2 15 1 16 3 17 4 18 11 19 12 20 13 21 17 22 14 23 16 24
REMARK SMILES IDX 15 25 24 26 25 27 26 28 27 30 28 31 29 32 90 33 30 34 89 35
REMARK SMILES IDX 31 36 32 37 33 38 83 39 34 40 88 41 82 42 84 43 35 44 87 45
REMARK SMILES IDX 81 46 80 47 36 49 68 50 48 51 67 52 49 53 52 54 66 55 85 56
REMARK SMILES IDX 50 57 51 58 65 60 86 61 53 62 37 63 38 64 46 65 39 66 45 67
REMARK SMILES IDX 47 68 44 69 40 70 41 71 42 72 43 73 69 74 70 75 78 76 71 77
REMARK SMILES IDX 77 78 79 79 76 80 72 81 73 82 74 83 75 84 54 85 55 86 63 87
REMARK SMILES IDX 56 88 62 89 64 90 61 91 57 92 58 93 59 94 60 95
REMARK H PARENT 21 6 25 29 84 48 52 59
REMARK Flexibility Score: inf
ROOT
ATOM      1  C   UNL A   1      38.188  19.843  25.024  1.00  0.00     0.042 C 
ENDROOT
BRANCH   1   2
ATOM      2  C   UNL A   1      37.086  20.877  24.761  1.00  0.00     0.117 C 
BRANCH   2   3
ATOM      3  N   UNL A   1      36.232  21.099  25.925  1.00  0.00    -0.356 N 
ATOM      4  C   UNL A   1      35.072  21.772  26.139  1.00  0.00     0.225 C 
ATOM      5  O   UNL A   1      34.630  21.730  27.294  1.00  0.00    -0.275 OA
ATOM      6  H   UNL A   1      36.575  20.662  26.739  1.00  0.00     0.163 HD
BRANCH   4   7
ATOM      7  C   UNL A   1      34.298  22.574  25.092  1.00  0.00     0.103 C 
ATOM      8  N   UNL A   1      32.244  23.703  25.182  1.00  0.00    -0.307 N 
ATOM      9  C   UNL A   1      32.164  22.882  23.991  1.00  0.00     0.128 C 
ATOM     10  C   UNL A   1      33.606  23.821  25.641  1.00  0.00     0.137 C 
ATOM     11  C   UNL A   1      33.260  21.833  24.191  1.00  0.00     0.027 C 
BRANCH   8  12
ATOM     12  C   UNL A   1      31.198  24.268  25.862  1.00  0.00     0.410 C 
ATOM     13  O   UNL A   1      31.011  24.092  27.058  1.00  0.00    -0.224 OA
BRANCH  12  14
ATOM     14  O   UNL A   1      30.380  24.951  25.029  1.00  0.00    -0.444 OA
BRANCH  14  15
ATOM     15  C   UNL A   1      30.628  26.329  24.648  1.00  0.00     0.106 C 
ATOM     16  C   UNL A   1      30.938  27.051  25.968  1.00  0.00     0.056 C 
ATOM     17  C   UNL A   1      29.343  26.892  24.041  1.00  0.00     0.056 C 
ATOM     18  C   UNL A   1      31.827  26.528  23.710  1.00  0.00     0.056 C 
ENDBRANCH  14  15
ENDBRANCH  12  14
ENDBRANCH   8  12
BRANCH  11  19
ATOM     19  C   UNL A   1      32.684  20.568  24.816  1.00  0.00     0.041 C 
BRANCH  19  20
ATOM     20  C   UNL A   1      33.024  19.237  24.196  1.00  0.00    -0.048 A 
ATOM     21  C   UNL A   1      34.168  18.550  24.637  1.00  0.00     0.004 A 
ATOM     22  C   UNL A   1      32.300  18.730  23.115  1.00  0.00     0.004 A 
ATOM     23  C   UNL A   1      34.591  17.387  23.997  1.00  0.00     0.000 A 
ATOM     24  C   UNL A   1      32.727  17.563  22.474  1.00  0.00     0.000 A 
ATOM     25  C   UNL A   1      33.873  16.898  22.910  1.00  0.00     0.000 A 
ENDBRANCH  19  20
ENDBRANCH  11  19
ENDBRANCH   4   7
ENDBRANCH   2   3
ENDBRANCH   1   2
BRANCH   1  26
ATOM     26  C   UNL A   1      39.211  20.239  26.078  1.00  0.00     0.118 C 
BRANCH  26  27
ATOM     27  N   UNL A   1      40.370  19.366  26.070  1.00  0.00    -0.352 N 
ATOM     28  C   UNL A   1      41.712  19.665  26.094  1.00  0.00     0.251 C 
ATOM     29  H   UNL A   1      40.162  18.404  26.044  1.00  0.00     0.163 HD
ATOM     30  O   UNL A   1      42.510  18.770  25.824  1.00  0.00    -0.269 OA
BRANCH  28  31
ATOM     31  C   UNL A   1      42.214  21.029  26.409  1.00  0.00     0.039 A 
ATOM     32  C   UNL A   1      42.389  21.933  25.354  1.00  0.00     0.014 A 
ATOM     33  C   UNL A   1      42.590  21.414  27.699  1.00  0.00     0.014 A 
ATOM     34  C   UNL A   1      42.890  23.217  25.598  1.00  0.00     0.010 A 
ATOM     35  C   UNL A   1      43.006  22.723  27.955  1.00  0.00     0.010 A 
ATOM     36  C   UNL A   1      43.179  23.637  26.906  1.00  0.00    -0.014 A 
BRANCH  36  37
ATOM     37  C   UNL A   1      43.685  25.013  27.179  1.00  0.00     0.031 A 
ATOM     38  C   UNL A   1      42.776  26.057  27.776  1.00  0.00     0.074 A 
ATOM     39  C   UNL A   1      44.952  25.338  26.855  1.00  0.00     0.049 A 
ATOM     40  N   UNL A   1      43.021  27.315  28.047  1.00  0.00    -0.248 NA
ATOM     41  C   UNL A   1      41.400  25.637  28.081  1.00  0.00     0.031 C 
ATOM     42  C   UNL A   1      45.923  24.435  26.232  1.00  0.00     0.029 A 
ATOM     43  N   UNL A   1      45.645  26.515  26.999  1.00  0.00    -0.354 N 
ATOM     44  C   UNL A   1      41.829  27.839  28.539  1.00  0.00     0.074 A 
ATOM     45  C   UNL A   1      40.848  26.777  28.469  1.00  0.00     0.031 C 
ATOM     46  C   UNL A   1      47.089  25.081  26.075  1.00  0.00     0.029 A 
ATOM     47  C   UNL A   1      46.943  26.455  26.544  1.00  0.00     0.049 A 
ATOM     48  H   UNL A   1      45.250  27.327  27.393  1.00  0.00     0.167 HD
ATOM     49  C   UNL A   1      41.579  29.082  29.026  1.00  0.00     0.034 A 
ATOM     50  C   UNL A   1      47.904  27.399  26.500  1.00  0.00     0.034 A 
ATOM     51  C   UNL A   1      42.571  30.128  29.107  1.00  0.00     0.049 A 
ATOM     52  C   UNL A   1      47.603  28.775  27.036  1.00  0.00     0.074 A 
ATOM     53  C   UNL A   1      42.442  31.400  29.640  1.00  0.00     0.029 A 
ATOM     54  N   UNL A   1      43.873  30.029  28.634  1.00  0.00    -0.354 N 
ATOM     55  N   UNL A   1      46.486  29.237  27.548  1.00  0.00    -0.248 NA
ATOM     56  C   UNL A   1      48.698  29.753  26.998  1.00  0.00     0.031 C 
ATOM     57  C   UNL A   1      43.643  32.089  29.429  1.00  0.00     0.029 A 
ATOM     58  C   UNL A   1      44.547  31.226  28.832  1.00  0.00     0.049 A 
ATOM     59  H   UNL A   1      44.263  29.226  28.217  1.00  0.00     0.167 HD
ATOM     60  C   UNL A   1      46.752  30.552  27.915  1.00  0.00     0.074 A 
ATOM     61  C   UNL A   1      48.141  30.803  27.584  1.00  0.00     0.031 C 
ATOM     62  C   UNL A   1      45.926  31.471  28.479  1.00  0.00     0.034 A 
BRANCH  49  63
ATOM     63  C   UNL A   1      40.169  29.379  29.485  1.00  0.00     0.023 A 
ATOM     64  C   UNL A   1      39.840  29.477  30.849  1.00  0.00     0.031 A 
ATOM     65  C   UNL A   1      39.133  29.539  28.549  1.00  0.00     0.131 A 
ATOM     66  C   UNL A   1      38.503  29.643  31.239  1.00  0.00     0.055 A 
ATOM     67  C   UNL A   1      37.815  29.788  28.941  1.00  0.00     0.041 A 
ATOM     68  F   UNL A   1      39.378  29.439  27.233  1.00  0.00    -0.206 F 
ATOM     69  C   UNL A   1      37.490  29.825  30.295  1.00  0.00     0.022 A 
BRANCH  66  70
ATOM     70  S   UNL A   1      38.084  29.466  32.996  1.00  0.00     0.124 S 
ATOM     71  O   UNL A   1      39.409  29.442  33.613  1.00  0.00    -0.237 OA
ATOM     72  O   UNL A   1      37.283  30.658  33.250  1.00  0.00    -0.237 OA
ATOM     73  O   UNL A   1      37.357  28.201  33.050  1.00  0.00    -0.744 OA
ENDBRANCH  66  70
ENDBRANCH  49  63
BRANCH  50  74
ATOM     74  C   UNL A   1      49.241  27.084  25.921  1.00  0.00     0.023 A 
ATOM     75  C   UNL A   1      49.587  27.501  24.625  1.00  0.00     0.031 A 
ATOM     76  C   UNL A   1      50.183  26.331  26.644  1.00  0.00     0.131 A 
ATOM     77  C   UNL A   1      50.823  27.128  24.077  1.00  0.00     0.055 A 
ATOM     78  C   UNL A   1      51.432  26.005  26.113  1.00  0.00     0.041 A 
ATOM     79  F   UNL A   1      49.906  25.913  27.889  1.00  0.00    -0.206 F 
ATOM     80  C   UNL A   1      51.753  26.393  24.816  1.00  0.00     0.022 A 
BRANCH  77  81
ATOM     81  S   UNL A   1      51.174  27.555  22.349  1.00  0.00     0.124 S 
ATOM     82  O   UNL A   1      50.145  26.801  21.641  1.00  0.00    -0.237 OA
ATOM     83  O   UNL A   1      51.014  29.006  22.359  1.00  0.00    -0.237 OA
ATOM     84  O   UNL A   1      52.542  27.083  22.152  1.00  0.00    -0.744 OA
ENDBRANCH  77  81
ENDBRANCH  50  74
BRANCH  62  85
ATOM     85  C   UNL A   1      46.523  32.820  28.801  1.00  0.00     0.023 A 
ATOM     86  C   UNL A   1      46.466  33.889  27.889  1.00  0.00     0.031 A 
ATOM     87  C   UNL A   1      47.173  33.031  30.029  1.00  0.00     0.131 A 
ATOM     88  C   UNL A   1      47.103  35.101  28.194  1.00  0.00     0.055 A 
ATOM     89  C   UNL A   1      47.753  34.259  30.352  1.00  0.00     0.041 A 
ATOM     90  F   UNL A   1      47.259  32.045  30.936  1.00  0.00    -0.206 F 
ATOM     91  C   UNL A   1      47.732  35.299  29.426  1.00  0.00     0.022 A 
BRANCH  88  92
ATOM     92  S   UNL A   1      47.182  36.388  26.919  1.00  0.00     0.124 S 
ATOM     93  O   UNL A   1      46.292  37.408  27.462  1.00  0.00    -0.237 OA
ATOM     94  O   UNL A   1      48.603  36.724  26.901  1.00  0.00    -0.237 OA
ATOM     95  O   UNL A   1      46.692  35.713  25.718  1.00  0.00    -0.744 OA
ENDBRANCH  88  92
ENDBRANCH  62  85
ENDBRANCH  36  37
ENDBRANCH  28  31
ENDBRANCH  26  27
ENDBRANCH   1  26
TORSDOF 18
ENDMDL
MODEL 2
REMARK VINA RESULT:     -11.9      6.181     11.626
REMARK SMILES CC(C)(C)OC(=O)N1C[C@H](Cc2ccccc2)[C@H](C(=O)NCCCNC(=O)c2ccc(-c3c4nc(c(-c5cc(S(=O)(=O)[O-])ccc5F)c5ccc([nH]5)c(-c5cc(S(=O)(=O)[O-])ccc5F)c5nc(c(-c6cc(S(=O)(=O)[O-])ccc6F)c6ccc3[nH]6)C=C5)C=C4)cc2)C1
REMARK SMILES IDX 23 1 22 2 21 3 19 4 20 5 18 7 8 8 9 9 91 10 10 11 6 12 7 13
REMARK SMILES IDX 5 14 2 15 1 16 3 17 4 18 11 19 12 20 13 21 17 22 14 23 16 24
REMARK SMILES IDX 15 25 24 26 25 27 26 28 27 30 28 31 29 32 90 33 30 34 89 35
REMARK SMILES IDX 31 36 32 37 33 38 83 39 34 40 88 41 82 42 84 43 35 44 87 45
REMARK SMILES IDX 81 46 80 47 36 49 68 50 48 51 67 52 49 53 52 54 66 55 85 56
REMARK SMILES IDX 50 57 51 58 65 60 86 61 53 62 37 63 38 64 46 65 39 66 45 67
REMARK SMILES IDX 47 68 44 69 40 70 41 71 42 72 43 73 69 74 70 75 78 76 71 77
REMARK SMILES IDX 77 78 79 79 76 80 72 81 73 82 74 83 75 84 54 85 55 86 63 87
REMARK SMILES IDX 56 88 62 89 64 90 61 91 57 92 58 93 59 94 60 95
REMARK H PARENT 21 6 25 29 84 48 52 59
REMARK Flexibility Score: inf
ROOT
ATOM      1  C   UNL A   1      31.153  31.918  26.109  1.00  0.00     0.042 C 
ENDROOT
BRANCH   1   2
ATOM      2  C   UNL A   1      31.067  30.456  25.652  1.00  0.00     0.117 C 
BRANCH   2   3
ATOM      3  N   UNL A   1      32.202  30.056  24.825  1.00  0.00    -0.356 N 
ATOM      4  C   UNL A   1      32.754  28.865  24.478  1.00  0.00     0.225 C 
ATOM      5  O   UNL A   1      33.739  28.924  23.731  1.00  0.00    -0.275 OA
ATOM      6  H   UNL A   1      32.675  30.824  24.428  1.00  0.00     0.163 HD
BRANCH   4   7
ATOM      7  C   UNL A   1      32.276  27.489  24.944  1.00  0.00     0.103 C 
ATOM      8  N   UNL A   1      32.756  25.321  24.190  1.00  0.00    -0.307 N 
ATOM      9  C   UNL A   1      31.310  25.376  24.264  1.00  0.00     0.128 C 
ATOM     10  C   UNL A   1      33.355  26.409  24.924  1.00  0.00     0.137 C 
ATOM     11  C   UNL A   1      30.998  26.874  24.290  1.00  0.00     0.027 C 
BRANCH   8  12
ATOM     12  C   UNL A   1      33.509  24.420  23.485  1.00  0.00     0.410 C 
ATOM     13  O   UNL A   1      34.027  24.685  22.409  1.00  0.00    -0.224 OA
BRANCH  12  14
ATOM     14  O   UNL A   1      33.522  23.209  24.088  1.00  0.00    -0.444 OA
BRANCH  14  15
ATOM     15  C   UNL A   1      34.649  22.740  24.873  1.00  0.00     0.106 C 
ATOM     16  C   UNL A   1      34.212  22.922  26.334  1.00  0.00     0.056 C 
ATOM     17  C   UNL A   1      35.843  23.645  24.575  1.00  0.00     0.056 C 
ATOM     18  C   UNL A   1      35.000  21.260  24.667  1.00  0.00     0.056 C 
ENDBRANCH  14  15
ENDBRANCH  12  14
ENDBRANCH   8  12
BRANCH  11  19
ATOM     19  C   UNL A   1      30.711  27.387  22.884  1.00  0.00     0.041 C 
BRANCH  19  20
ATOM     20  C   UNL A   1      29.603  28.390  22.694  1.00  0.00    -0.048 A 
ATOM     21  C   UNL A   1      29.902  29.641  22.129  1.00  0.00     0.004 A 
ATOM     22  C   UNL A   1      28.313  28.152  23.175  1.00  0.00     0.004 A 
ATOM     23  C   UNL A   1      28.936  30.643  22.063  1.00  0.00     0.000 A 
ATOM     24  C   UNL A   1      27.346  29.158  23.107  1.00  0.00     0.000 A 
ATOM     25  C   UNL A   1      27.659  30.402  22.559  1.00  0.00     0.000 A 
ENDBRANCH  19  20
ENDBRANCH  11  19
ENDBRANCH   4   7
ENDBRANCH   2   3
ENDBRANCH   1   2
BRANCH   1  26
ATOM     26  C   UNL A   1      32.370  32.264  26.953  1.00  0.00     0.118 C 
BRANCH  26  27
ATOM     27  N   UNL A   1      32.393  33.663  27.333  1.00  0.00    -0.352 N 
ATOM     28  C   UNL A   1      33.155  34.321  28.269  1.00  0.00     0.251 C 
ATOM     29  H   UNL A   1      31.760  34.234  26.841  1.00  0.00     0.163 HD
ATOM     30  O   UNL A   1      32.820  35.459  28.593  1.00  0.00    -0.269 OA
BRANCH  28  31
ATOM     31  C   UNL A   1      34.342  33.693  28.909  1.00  0.00     0.039 A 
ATOM     32  C   UNL A   1      34.136  32.610  29.773  1.00  0.00     0.014 A 
ATOM     33  C   UNL A   1      35.638  34.189  28.743  1.00  0.00     0.014 A 
ATOM     34  C   UNL A   1      35.219  32.007  30.422  1.00  0.00     0.010 A 
ATOM     35  C   UNL A   1      36.727  33.532  29.321  1.00  0.00     0.010 A 
ATOM     36  C   UNL A   1      36.532  32.444  30.183  1.00  0.00    -0.014 A 
BRANCH  36  37
ATOM     37  C   UNL A   1      37.695  31.788  30.847  1.00  0.00     0.031 A 
ATOM     38  C   UNL A   1      38.501  30.743  30.119  1.00  0.00     0.074 A 
ATOM     39  C   UNL A   1      38.005  32.104  32.120  1.00  0.00     0.049 A 
ATOM     40  N   UNL A   1      39.518  30.034  30.543  1.00  0.00    -0.248 NA
ATOM     41  C   UNL A   1      38.089  30.432  28.742  1.00  0.00     0.031 C 
ATOM     42  C   UNL A   1      37.280  33.067  32.952  1.00  0.00     0.029 A 
ATOM     43  N   UNL A   1      39.007  31.649  32.942  1.00  0.00    -0.354 N 
ATOM     44  C   UNL A   1      39.857  29.186  29.493  1.00  0.00     0.074 A 
ATOM     45  C   UNL A   1      38.896  29.427  28.437  1.00  0.00     0.031 C 
ATOM     46  C   UNL A   1      37.877  33.151  34.151  1.00  0.00     0.029 A 
ATOM     47  C   UNL A   1      38.999  32.220  34.194  1.00  0.00     0.049 A 
ATOM     48  H   UNL A   1      39.670  30.977  32.661  1.00  0.00     0.167 HD
ATOM     49  C   UNL A   1      40.887  28.304  29.405  1.00  0.00     0.034 A 
ATOM     50  C   UNL A   1      39.799  32.012  35.260  1.00  0.00     0.034 A 
ATOM     51  C   UNL A   1      41.849  28.085  30.459  1.00  0.00     0.049 A 
ATOM     52  C   UNL A   1      40.929  31.023  35.146  1.00  0.00     0.074 A 
ATOM     53  C   UNL A   1      42.965  27.265  30.452  1.00  0.00     0.029 A 
ATOM     54  N   UNL A   1      41.807  28.681  31.713  1.00  0.00    -0.354 N 
ATOM     55  N   UNL A   1      41.268  30.269  34.126  1.00  0.00    -0.248 NA
ATOM     56  C   UNL A   1      41.791  30.865  36.324  1.00  0.00     0.031 C 
ATOM     57  C   UNL A   1      43.557  27.315  31.720  1.00  0.00     0.029 A 
ATOM     58  C   UNL A   1      42.856  28.222  32.497  1.00  0.00     0.049 A 
ATOM     59  H   UNL A   1      41.130  29.334  32.005  1.00  0.00     0.167 HD
ATOM     60  C   UNL A   1      42.398  29.566  34.532  1.00  0.00     0.074 A 
ATOM     61  C   UNL A   1      42.693  30.000  35.883  1.00  0.00     0.031 C 
ATOM     62  C   UNL A   1      43.128  28.646  33.850  1.00  0.00     0.034 A 
BRANCH  49  63
ATOM     63  C   UNL A   1      41.005  27.497  28.133  1.00  0.00     0.023 A 
ATOM     64  C   UNL A   1      40.582  26.157  28.064  1.00  0.00     0.031 A 
ATOM     65  C   UNL A   1      41.573  28.064  26.978  1.00  0.00     0.131 A 
ATOM     66  C   UNL A   1      40.810  25.407  26.900  1.00  0.00     0.055 A 
ATOM     67  C   UNL A   1      41.719  27.337  25.794  1.00  0.00     0.041 A 
ATOM     68  F   UNL A   1      42.011  29.332  26.984  1.00  0.00    -0.206 F 
ATOM     69  C   UNL A   1      41.353  25.994  25.755  1.00  0.00     0.022 A 
BRANCH  66  70
ATOM     70  S   UNL A   1      40.526  23.616  26.954  1.00  0.00     0.124 S 
ATOM     71  O   UNL A   1      41.531  23.129  26.011  1.00  0.00    -0.237 OA
ATOM     72  O   UNL A   1      40.763  23.301  28.358  1.00  0.00    -0.237 OA
ATOM     73  O   UNL A   1      39.143  23.474  26.507  1.00  0.00    -0.744 OA
ENDBRANCH  66  70
ENDBRANCH  49  63
BRANCH  50  74
ATOM     74  C   UNL A   1      39.559  32.749  36.535  1.00  0.00     0.023 A 
ATOM     75  C   UNL A   1      38.615  32.292  37.469  1.00  0.00     0.031 A 
ATOM     76  C   UNL A   1      40.247  33.941  36.821  1.00  0.00     0.131 A 
ATOM     77  C   UNL A   1      38.356  33.044  38.625  1.00  0.00     0.055 A 
ATOM     78  C   UNL A   1      40.022  34.659  37.997  1.00  0.00     0.041 A 
ATOM     79  F   UNL A   1      41.164  34.418  35.965  1.00  0.00    -0.206 F 
ATOM     80  C   UNL A   1      39.061  34.217  38.902  1.00  0.00     0.022 A 
BRANCH  77  81
ATOM     81  S   UNL A   1      37.027  32.504  39.735  1.00  0.00     0.124 S 
ATOM     82  O   UNL A   1      35.856  32.613  38.872  1.00  0.00    -0.237 OA
ATOM     83  O   UNL A   1      37.450  31.149  40.075  1.00  0.00    -0.237 OA
ATOM     84  O   UNL A   1      37.086  33.466  40.832  1.00  0.00    -0.744 OA
ENDBRANCH  77  81
ENDBRANCH  50  74
BRANCH  62  85
ATOM     85  C   UNL A   1      44.339  28.079  34.553  1.00  0.00     0.023 A 
ATOM     86  C   UNL A   1      44.235  26.994  35.441  1.00  0.00     0.031 A 
ATOM     87  C   UNL A   1      45.608  28.645  34.344  1.00  0.00     0.131 A 
ATOM     88  C   UNL A   1      45.371  26.549  36.135  1.00  0.00     0.055 A 
ATOM     89  C   UNL A   1      46.746  28.158  34.992  1.00  0.00     0.041 A 
ATOM     90  F   UNL A   1      45.765  29.684  33.509  1.00  0.00    -0.206 F 
ATOM     91  C   UNL A   1      46.628  27.113  35.904  1.00  0.00     0.022 A 
BRANCH  88  92
ATOM     92  S   UNL A   1      45.167  25.282  37.417  1.00  0.00     0.124 S 
ATOM     93  O   UNL A   1      45.820  24.128  36.810  1.00  0.00    -0.237 OA
ATOM     94  O   UNL A   1      45.855  25.879  38.558  1.00  0.00    -0.237 OA
ATOM     95  O   UNL A   1      43.716  25.168  37.561  1.00  0.00    -0.744 OA
ENDBRANCH  88  92
ENDBRANCH  62  85
ENDBRANCH  36  37
ENDBRANCH  28  31
ENDBRANCH  26  27
ENDBRANCH   1  26
TORSDOF 18
ENDMDL
MODEL 3
REMARK VINA RESULT:     -11.9      5.599      8.295
REMARK SMILES CC(C)(C)OC(=O)N1C[C@H](Cc2ccccc2)[C@H](C(=O)NCCCNC(=O)c2ccc(-c3c4nc(c(-c5cc(S(=O)(=O)[O-])ccc5F)c5ccc([nH]5)c(-c5cc(S(=O)(=O)[O-])ccc5F)c5nc(c(-c6cc(S(=O)(=O)[O-])ccc6F)c6ccc3[nH]6)C=C5)C=C4)cc2)C1
REMARK SMILES IDX 23 1 22 2 21 3 19 4 20 5 18 7 8 8 9 9 91 10 10 11 6 12 7 13
REMARK SMILES IDX 5 14 2 15 1 16 3 17 4 18 11 19 12 20 13 21 17 22 14 23 16 24
REMARK SMILES IDX 15 25 24 26 25 27 26 28 27 30 28 31 29 32 90 33 30 34 89 35
REMARK SMILES IDX 31 36 32 37 33 38 83 39 34 40 88 41 82 42 84 43 35 44 87 45
REMARK SMILES IDX 81 46 80 47 36 49 68 50 48 51 67 52 49 53 52 54 66 55 85 56
REMARK SMILES IDX 50 57 51 58 65 60 86 61 53 62 37 63 38 64 46 65 39 66 45 67
REMARK SMILES IDX 47 68 44 69 40 70 41 71 42 72 43 73 69 74 70 75 78 76 71 77
REMARK SMILES IDX 77 78 79 79 76 80 72 81 73 82 74 83 75 84 54 85 55 86 63 87
REMARK SMILES IDX 56 88 62 89 64 90 61 91 57 92 58 93 59 94 60 95
REMARK H PARENT 21 6 25 29 84 48 52 59
REMARK Flexibility Score: inf
ROOT
ATOM      1  C   UNL A   1      33.635  27.879  26.103  1.00  0.00     0.042 C 
ENDROOT
BRANCH   1   2
ATOM      2  C   UNL A   1      32.720  28.024  24.880  1.00  0.00     0.117 C 
BRANCH   2   3
ATOM      3  N   UNL A   1      33.459  28.311  23.653  1.00  0.00    -0.356 N 
ATOM      4  C   UNL A   1      33.600  27.681  22.458  1.00  0.00     0.225 C 
ATOM      5  O   UNL A   1      34.327  28.248  21.633  1.00  0.00    -0.275 OA
ATOM      6  H   UNL A   1      33.970  29.152  23.703  1.00  0.00     0.163 HD
BRANCH   4   7
ATOM      7  C   UNL A   1      32.960  26.348  22.070  1.00  0.00     0.103 C 
ATOM      8  N   UNL A   1      31.376  24.994  23.145  1.00  0.00    -0.307 N 
ATOM      9  C   UNL A   1      32.452  24.093  22.789  1.00  0.00     0.128 C 
ATOM     10  C   UNL A   1      31.478  26.237  22.420  1.00  0.00     0.137 C 
ATOM     11  C   UNL A   1      33.641  25.021  22.532  1.00  0.00     0.027 C 
BRANCH   8  12
ATOM     12  C   UNL A   1      30.398  24.778  24.081  1.00  0.00     0.410 C 
ATOM     13  O   UNL A   1      29.566  25.624  24.379  1.00  0.00    -0.224 OA
BRANCH  12  14
ATOM     14  O   UNL A   1      30.538  23.568  24.669  1.00  0.00    -0.444 OA
BRANCH  14  15
ATOM     15  C   UNL A   1      31.110  23.405  25.992  1.00  0.00     0.106 C 
ATOM     16  C   UNL A   1      32.129  22.265  25.840  1.00  0.00     0.056 C 
ATOM     17  C   UNL A   1      29.993  22.974  26.942  1.00  0.00     0.056 C 
ATOM     18  C   UNL A   1      31.857  24.636  26.524  1.00  0.00     0.056 C 
ENDBRANCH  14  15
ENDBRANCH  12  14
ENDBRANCH   8  12
BRANCH  11  19
ATOM     19  C   UNL A   1      34.492  25.164  23.789  1.00  0.00     0.041 C 
BRANCH  19  20
ATOM     20  C   UNL A   1      35.332  23.993  24.229  1.00  0.00    -0.048 A 
ATOM     21  C   UNL A   1      35.563  23.795  25.601  1.00  0.00     0.004 A 
ATOM     22  C   UNL A   1      35.983  23.173  23.304  1.00  0.00     0.004 A 
ATOM     23  C   UNL A   1      36.443  22.809  26.040  1.00  0.00     0.000 A 
ATOM     24  C   UNL A   1      36.864  22.184  23.747  1.00  0.00     0.000 A 
ATOM     25  C   UNL A   1      37.099  22.007  25.111  1.00  0.00     0.000 A 
ENDBRANCH  19  20
ENDBRANCH  11  19
ENDBRANCH   4   7
ENDBRANCH   2   3
ENDBRANCH   1   2
BRANCH   1  26
ATOM     26  C   UNL A   1      33.160  28.596  27.357  1.00  0.00     0.118 C 
BRANCH  26  27
ATOM     27  N   UNL A   1      33.305  30.035  27.252  1.00  0.00    -0.352 N 
ATOM     28  C   UNL A   1      34.288  30.870  27.729  1.00  0.00     0.251 C 
ATOM     29  H   UNL A   1      32.584  30.488  26.757  1.00  0.00     0.163 HD
ATOM     30  O   UNL A   1      34.068  32.080  27.736  1.00  0.00    -0.269 OA
BRANCH  28  31
ATOM     31  C   UNL A   1      35.582  30.353  28.252  1.00  0.00     0.039 A 
ATOM     32  C   UNL A   1      36.706  30.412  27.419  1.00  0.00     0.014 A 
ATOM     33  C   UNL A   1      35.698  29.743  29.503  1.00  0.00     0.014 A 
ATOM     34  C   UNL A   1      37.937  29.909  27.855  1.00  0.00     0.010 A 
ATOM     35  C   UNL A   1      36.944  29.320  29.973  1.00  0.00     0.010 A 
ATOM     36  C   UNL A   1      38.077  29.381  29.149  1.00  0.00    -0.014 A 
BRANCH  36  37
ATOM     37  C   UNL A   1      39.391  28.869  29.633  1.00  0.00     0.031 A 
ATOM     38  C   UNL A   1      40.117  29.568  30.755  1.00  0.00     0.074 A 
ATOM     39  C   UNL A   1      39.953  27.797  29.040  1.00  0.00     0.049 A 
ATOM     40  N   UNL A   1      41.284  29.297  31.284  1.00  0.00    -0.248 NA
ATOM     41  C   UNL A   1      39.455  30.744  31.338  1.00  0.00     0.031 C 
ATOM     42  C   UNL A   1      39.377  27.055  27.916  1.00  0.00     0.029 A 
ATOM     43  N   UNL A   1      41.135  27.145  29.293  1.00  0.00    -0.354 N 
ATOM     44  C   UNL A   1      41.502  30.276  32.250  1.00  0.00     0.074 A 
ATOM     45  C   UNL A   1      40.373  31.180  32.186  1.00  0.00     0.031 C 
ATOM     46  C   UNL A   1      40.190  26.036  27.597  1.00  0.00     0.029 A 
ATOM     47  C   UNL A   1      41.366  26.073  28.461  1.00  0.00     0.049 A 
ATOM     48  H   UNL A   1      41.759  27.417  30.004  1.00  0.00     0.167 HD
ATOM     49  C   UNL A   1      42.534  30.399  33.124  1.00  0.00     0.034 A 
ATOM     50  C   UNL A   1      42.409  25.221  28.393  1.00  0.00     0.034 A 
ATOM     51  C   UNL A   1      43.646  29.480  33.189  1.00  0.00     0.049 A 
ATOM     52  C   UNL A   1      43.548  25.380  29.365  1.00  0.00     0.074 A 
ATOM     53  C   UNL A   1      44.710  29.474  34.076  1.00  0.00     0.029 A 
ATOM     54  N   UNL A   1      43.845  28.408  32.329  1.00  0.00    -0.354 N 
ATOM     55  N   UNL A   1      43.711  26.279  30.308  1.00  0.00    -0.248 NA
ATOM     56  C   UNL A   1      44.639  24.401  29.271  1.00  0.00     0.031 C 
ATOM     57  C   UNL A   1      45.582  28.442  33.711  1.00  0.00     0.029 A 
ATOM     58  C   UNL A   1      45.029  27.756  32.642  1.00  0.00     0.049 A 
ATOM     59  H   UNL A   1      43.235  28.148  31.601  1.00  0.00     0.167 HD
ATOM     60  C   UNL A   1      44.911  25.959  30.935  1.00  0.00     0.074 A 
ATOM     61  C   UNL A   1      45.420  24.773  30.276  1.00  0.00     0.031 C 
ATOM     62  C   UNL A   1      45.537  26.586  31.964  1.00  0.00     0.034 A 
BRANCH  49  63
ATOM     63  C   UNL A   1      42.514  31.584  34.062  1.00  0.00     0.023 A 
ATOM     64  C   UNL A   1      41.868  31.530  35.310  1.00  0.00     0.031 A 
ATOM     65  C   UNL A   1      43.124  32.796  33.694  1.00  0.00     0.131 A 
ATOM     66  C   UNL A   1      41.774  32.683  36.105  1.00  0.00     0.055 A 
ATOM     67  C   UNL A   1      43.101  33.918  34.527  1.00  0.00     0.041 A 
ATOM     68  F   UNL A   1      43.742  32.918  32.508  1.00  0.00    -0.206 F 
ATOM     69  C   UNL A   1      42.408  33.871  35.734  1.00  0.00     0.022 A 
BRANCH  66  70
ATOM     70  S   UNL A   1      40.685  32.650  37.555  1.00  0.00     0.124 S 
ATOM     71  O   UNL A   1      39.580  31.824  37.075  1.00  0.00    -0.237 OA
ATOM     72  O   UNL A   1      41.536  32.047  38.574  1.00  0.00    -0.237 OA
ATOM     73  O   UNL A   1      40.355  34.057  37.769  1.00  0.00    -0.744 OA
ENDBRANCH  66  70
ENDBRANCH  49  63
BRANCH  50  74
ATOM     74  C   UNL A   1      42.433  24.142  27.363  1.00  0.00     0.023 A 
ATOM     75  C   UNL A   1      41.815  22.902  27.598  1.00  0.00     0.031 A 
ATOM     76  C   UNL A   1      43.103  24.325  26.140  1.00  0.00     0.131 A 
ATOM     77  C   UNL A   1      41.916  21.880  26.643  1.00  0.00     0.055 A 
ATOM     78  C   UNL A   1      43.157  23.321  25.172  1.00  0.00     0.041 A 
ATOM     79  F   UNL A   1      43.703  25.492  25.863  1.00  0.00    -0.206 F 
ATOM     80  C   UNL A   1      42.572  22.084  25.426  1.00  0.00     0.022 A 
BRANCH  77  81
ATOM     81  S   UNL A   1      41.238  20.246  27.042  1.00  0.00     0.124 S 
ATOM     82  O   UNL A   1      40.843  20.420  28.436  1.00  0.00    -0.237 OA
ATOM     83  O   UNL A   1      40.150  20.127  26.077  1.00  0.00    -0.237 OA
ATOM     84  O   UNL A   1      42.366  19.345  26.820  1.00  0.00    -0.744 OA
ENDBRANCH  77  81
ENDBRANCH  50  74
BRANCH  62  85
ATOM     85  C   UNL A   1      46.825  25.971  32.457  1.00  0.00     0.023 A 
ATOM     86  C   UNL A   1      46.840  25.022  33.495  1.00  0.00     0.031 A 
ATOM     87  C   UNL A   1      48.054  26.355  31.894  1.00  0.00     0.131 A 
ATOM     88  C   UNL A   1      48.064  24.535  33.978  1.00  0.00     0.055 A 
ATOM     89  C   UNL A   1      49.265  25.821  32.338  1.00  0.00     0.041 A 
ATOM     90  F   UNL A   1      48.098  27.259  30.902  1.00  0.00    -0.206 F 
ATOM     91  C   UNL A   1      49.276  24.916  33.395  1.00  0.00     0.022 A 
BRANCH  88  92
ATOM     92  S   UNL A   1      48.059  23.466  35.443  1.00  0.00     0.124 S 
ATOM     93  O   UNL A   1      49.438  23.577  35.904  1.00  0.00    -0.237 OA
ATOM     94  O   UNL A   1      47.050  24.099  36.288  1.00  0.00    -0.237 OA
ATOM     95  O   UNL A   1      47.686  22.156  34.912  1.00  0.00    -0.744 OA
ENDBRANCH  88  92
ENDBRANCH  62  85
ENDBRANCH  36  37
ENDBRANCH  28  31
ENDBRANCH  26  27
ENDBRANCH   1  26
TORSDOF 18
ENDMDL
