MODEL 1
REMARK VINA RESULT:     -12.2      0.000      0.000
REMARK SMILES CC(=O)Nc1cccc(NC(=O)N[C@H](C(=O)NCCCNC(=O)c2ccc(-c3c4nc(c(-c5cc(S(=O)(=O)[O-])ccc5F)c5ccc([nH]5)c(-c5cc(S(=O)(=O)[O-])ccc5F)c5nc(c(-c6cc(S(=O)(=O)[O-])ccc6F)c6ccc3[nH]6)C=C5)C=C4)cc2)C(C)C)c1
REMARK SMILES IDX 19 1 18 2 17 3 15 4 16 5 14 7 13 8 10 9 11 10 12 12 9 14
REMARK SMILES IDX 5 15 6 16 90 17 7 18 8 19 4 20 1 21 2 22 3 23 87 25 88 26
REMARK SMILES IDX 89 27 20 28 21 29 22 30 23 32 24 33 25 34 86 35 26 36 85 37
REMARK SMILES IDX 27 38 28 39 29 40 79 41 30 42 84 43 78 44 80 45 31 46 83 47
REMARK SMILES IDX 77 48 76 49 32 51 64 52 44 53 63 54 45 55 48 56 62 57 81 58
REMARK SMILES IDX 46 59 47 60 61 62 82 63 49 64 33 65 34 66 42 67 35 68 41 69
REMARK SMILES IDX 43 70 40 71 36 72 37 73 38 74 39 75 65 76 66 77 74 78 67 79
REMARK SMILES IDX 73 80 75 81 72 82 68 83 69 84 70 85 71 86 50 87 51 88 59 89
REMARK SMILES IDX 52 90 58 91 60 92 57 93 53 94 54 95 55 96 56 97
REMARK H PARENT 17 6 10 11 13 13 4 24 21 31 80 50 48 61
REMARK Flexibility Score: inf
ROOT
ATOM      1  C   UNL A   1      31.403  32.246  26.723  1.00  0.00     0.042 C 
ENDROOT
BRANCH   1   2
ATOM      2  C   UNL A   1      31.440  30.722  26.830  1.00  0.00     0.117 C 
BRANCH   2   3
ATOM      3  N   UNL A   1      32.771  30.160  27.006  1.00  0.00    -0.354 N 
ATOM      4  C   UNL A   1      33.445  29.244  26.239  1.00  0.00     0.242 C 
ATOM      5  O   UNL A   1      34.638  29.061  26.490  1.00  0.00    -0.273 OA
ATOM      6  H   UNL A   1      33.261  30.489  27.794  1.00  0.00     0.163 HD
BRANCH   4   7
ATOM      7  C   UNL A   1      32.686  28.420  25.162  1.00  0.00     0.175 C 
BRANCH   7   8
ATOM      8  N   UNL A   1      33.507  28.215  23.976  1.00  0.00    -0.326 N 
ATOM      9  N   UNL A   1      32.154  28.289  21.997  1.00  0.00    -0.308 N 
ATOM     10  C   UNL A   1      33.293  28.078  22.668  1.00  0.00     0.319 C 
ATOM     11  H   UNL A   1      32.320  28.245  21.028  1.00  0.00     0.171 HD
ATOM     12  O   UNL A   1      34.294  27.827  21.984  1.00  0.00    -0.248 OA
ATOM     13  H   UNL A   1      34.464  28.164  24.198  1.00  0.00     0.166 HD
BRANCH   9  14
ATOM     14  C   UNL A   1      30.797  28.551  22.240  1.00  0.00     0.044 A 
ATOM     15  C   UNL A   1      28.973  30.143  21.925  1.00  0.00     0.043 A 
ATOM     16  C   UNL A   1      28.187  29.440  22.830  1.00  0.00     0.026 A 
ATOM     17  C   UNL A   1      30.285  29.723  21.672  1.00  0.00     0.052 A 
ATOM     18  C   UNL A   1      28.641  28.211  23.300  1.00  0.00     0.004 A 
ATOM     19  C   UNL A   1      29.913  27.748  22.945  1.00  0.00     0.026 A 
BRANCH  15  20
ATOM     20  N   UNL A   1      28.418  31.264  21.296  1.00  0.00    -0.326 N 
ATOM     21  C   UNL A   1      28.877  32.871  23.134  1.00  0.00     0.114 C 
ATOM     22  C   UNL A   1      28.224  32.514  21.820  1.00  0.00     0.221 C 
ATOM     23  O   UNL A   1      27.582  33.352  21.187  1.00  0.00    -0.275 OA
ATOM     24  H   UNL A   1      28.133  31.138  20.361  1.00  0.00     0.169 HD
ENDBRANCH  15  20
ENDBRANCH   9  14
ENDBRANCH   7   8
BRANCH   7  25
ATOM     25  C   UNL A   1      32.217  27.034  25.711  1.00  0.00     0.015 C 
ATOM     26  C   UNL A   1      33.404  26.088  25.916  1.00  0.00     0.010 C 
ATOM     27  C   UNL A   1      31.404  27.107  27.018  1.00  0.00     0.010 C 
ENDBRANCH   7  25
ENDBRANCH   4   7
ENDBRANCH   2   3
ENDBRANCH   1   2
BRANCH   1  28
ATOM     28  C   UNL A   1      32.729  32.953  27.003  1.00  0.00     0.118 C 
BRANCH  28  29
ATOM     29  N   UNL A   1      32.552  34.247  27.650  1.00  0.00    -0.352 N 
ATOM     30  C   UNL A   1      33.127  34.808  28.764  1.00  0.00     0.251 C 
ATOM     31  H   UNL A   1      31.895  34.829  27.204  1.00  0.00     0.163 HD
ATOM     32  O   UNL A   1      32.658  35.872  29.170  1.00  0.00    -0.269 OA
BRANCH  30  33
ATOM     33  C   UNL A   1      34.263  34.186  29.497  1.00  0.00     0.039 A 
ATOM     34  C   UNL A   1      35.566  34.531  29.109  1.00  0.00     0.014 A 
ATOM     35  C   UNL A   1      34.092  33.215  30.485  1.00  0.00     0.014 A 
ATOM     36  C   UNL A   1      36.677  33.946  29.732  1.00  0.00     0.010 A 
ATOM     37  C   UNL A   1      35.201  32.682  31.155  1.00  0.00     0.010 A 
ATOM     38  C   UNL A   1      36.508  33.035  30.783  1.00  0.00    -0.014 A 
BRANCH  38  39
ATOM     39  C   UNL A   1      37.678  32.420  31.475  1.00  0.00     0.031 A 
ATOM     40  C   UNL A   1      38.430  31.280  30.832  1.00  0.00     0.074 A 
ATOM     41  C   UNL A   1      38.049  32.853  32.697  1.00  0.00     0.049 A 
ATOM     42  N   UNL A   1      39.404  30.548  31.315  1.00  0.00    -0.248 NA
ATOM     43  C   UNL A   1      38.017  30.905  29.472  1.00  0.00     0.031 C 
ATOM     44  C   UNL A   1      37.412  33.945  33.437  1.00  0.00     0.029 A 
ATOM     45  N   UNL A   1      39.047  32.425  33.540  1.00  0.00    -0.354 N 
ATOM     46  C   UNL A   1      39.712  29.620  30.324  1.00  0.00     0.074 A 
ATOM     47  C   UNL A   1      38.780  29.847  29.238  1.00  0.00     0.031 C 
ATOM     48  C   UNL A   1      38.048  34.114  34.607  1.00  0.00     0.029 A 
ATOM     49  C   UNL A   1      39.104  33.113  34.731  1.00  0.00     0.049 A 
ATOM     50  H   UNL A   1      39.666  31.693  33.311  1.00  0.00     0.167 HD
ATOM     51  C   UNL A   1      40.694  28.682  30.307  1.00  0.00     0.034 A 
ATOM     52  C   UNL A   1      39.904  32.950  35.805  1.00  0.00     0.034 A 
ATOM     53  C   UNL A   1      41.629  28.470  31.385  1.00  0.00     0.049 A 
ATOM     54  C   UNL A   1      40.952  31.864  35.784  1.00  0.00     0.074 A 
ATOM     55  C   UNL A   1      42.669  27.557  31.460  1.00  0.00     0.029 A 
ATOM     56  N   UNL A   1      41.644  29.179  32.579  1.00  0.00    -0.354 N 
ATOM     57  N   UNL A   1      41.231  31.001  34.834  1.00  0.00    -0.248 NA
ATOM     58  C   UNL A   1      41.799  31.736  36.978  1.00  0.00     0.031 C 
ATOM     59  C   UNL A   1      43.274  27.677  32.716  1.00  0.00     0.029 A 
ATOM     60  C   UNL A   1      42.660  28.712  33.400  1.00  0.00     0.049 A 
ATOM     61  H   UNL A   1      41.023  29.909  32.809  1.00  0.00     0.167 HD
ATOM     62  C   UNL A   1      42.314  30.260  35.303  1.00  0.00     0.074 A 
ATOM     63  C   UNL A   1      42.642  30.783  36.611  1.00  0.00     0.031 C 
ATOM     64  C   UNL A   1      42.981  29.243  34.703  1.00  0.00     0.034 A 
BRANCH  51  65
ATOM     65  C   UNL A   1      40.790  27.799  29.085  1.00  0.00     0.023 A 
ATOM     66  C   UNL A   1      41.709  28.067  28.055  1.00  0.00     0.031 A 
ATOM     67  C   UNL A   1      39.944  26.687  28.936  1.00  0.00     0.131 A 
ATOM     68  C   UNL A   1      41.711  27.278  26.895  1.00  0.00     0.055 A 
ATOM     69  C   UNL A   1      40.007  25.856  27.814  1.00  0.00     0.041 A 
ATOM     70  F   UNL A   1      39.032  26.390  29.877  1.00  0.00    -0.206 F 
ATOM     71  C   UNL A   1      40.885  26.160  26.779  1.00  0.00     0.022 A 
BRANCH  68  72
ATOM     72  S   UNL A   1      42.715  27.819  25.484  1.00  0.00     0.124 S 
ATOM     73  O   UNL A   1      42.775  26.599  24.683  1.00  0.00    -0.237 OA
ATOM     74  O   UNL A   1      41.921  28.909  24.929  1.00  0.00    -0.237 OA
ATOM     75  O   UNL A   1      43.980  28.217  26.096  1.00  0.00    -0.744 OA
ENDBRANCH  68  72
ENDBRANCH  51  65
BRANCH  52  76
ATOM     76  C   UNL A   1      39.748  33.818  37.010  1.00  0.00     0.023 A 
ATOM     77  C   UNL A   1      39.137  33.327  38.175  1.00  0.00     0.031 A 
ATOM     78  C   UNL A   1      40.138  35.169  36.989  1.00  0.00     0.131 A 
ATOM     79  C   UNL A   1      38.874  34.194  39.246  1.00  0.00     0.055 A 
ATOM     80  C   UNL A   1      39.930  36.012  38.082  1.00  0.00     0.041 A 
ATOM     81  F   UNL A   1      40.726  35.691  35.902  1.00  0.00    -0.206 F 
ATOM     82  C   UNL A   1      39.279  35.530  39.214  1.00  0.00     0.022 A 
BRANCH  79  83
ATOM     83  S   UNL A   1      37.885  33.578  40.637  1.00  0.00     0.124 S 
ATOM     84  O   UNL A   1      37.653  34.799  41.401  1.00  0.00    -0.237 OA
ATOM     85  O   UNL A   1      36.723  33.017  39.956  1.00  0.00    -0.237 OA
ATOM     86  O   UNL A   1      38.765  32.601  41.273  1.00  0.00    -0.744 OA
ENDBRANCH  79  83
ENDBRANCH  52  76
BRANCH  64  87
ATOM     87  C   UNL A   1      44.173  28.674  35.435  1.00  0.00     0.023 A 
ATOM     88  C   UNL A   1      44.045  27.624  36.361  1.00  0.00     0.031 A 
ATOM     89  C   UNL A   1      45.455  29.207  35.213  1.00  0.00     0.131 A 
ATOM     90  C   UNL A   1      45.170  27.178  37.071  1.00  0.00     0.055 A 
ATOM     91  C   UNL A   1      46.580  28.721  35.881  1.00  0.00     0.041 A 
ATOM     92  F   UNL A   1      45.635  30.211  34.339  1.00  0.00    -0.206 F 
ATOM     93  C   UNL A   1      46.438  27.710  36.826  1.00  0.00     0.022 A 
BRANCH  90  94
ATOM     94  S   UNL A   1      44.940  25.948  38.385  1.00  0.00     0.124 S 
ATOM     95  O   UNL A   1      44.178  26.700  39.377  1.00  0.00    -0.237 OA
ATOM     96  O   UNL A   1      44.214  24.887  37.695  1.00  0.00    -0.237 OA
ATOM     97  O   UNL A   1      46.306  25.607  38.779  1.00  0.00    -0.744 OA
ENDBRANCH  90  94
ENDBRANCH  64  87
ENDBRANCH  38  39
ENDBRANCH  30  33
ENDBRANCH  28  29
ENDBRANCH   1  28
TORSDOF 17
ENDMDL
MODEL 2
REMARK VINA RESULT:     -11.9      6.278     11.676
REMARK SMILES CC(=O)Nc1cccc(NC(=O)N[C@H](C(=O)NCCCNC(=O)c2ccc(-c3c4nc(c(-c5cc(S(=O)(=O)[O-])ccc5F)c5ccc([nH]5)c(-c5cc(S(=O)(=O)[O-])ccc5F)c5nc(c(-c6cc(S(=O)(=O)[O-])ccc6F)c6ccc3[nH]6)C=C5)C=C4)cc2)C(C)C)c1
REMARK SMILES IDX 19 1 18 2 17 3 15 4 16 5 14 7 13 8 10 9 11 10 12 12 9 14
REMARK SMILES IDX 5 15 6 16 90 17 7 18 8 19 4 20 1 21 2 22 3 23 87 25 88 26
REMARK SMILES IDX 89 27 20 28 21 29 22 30 23 32 24 33 25 34 86 35 26 36 85 37
REMARK SMILES IDX 27 38 28 39 29 40 79 41 30 42 84 43 78 44 80 45 31 46 83 47
REMARK SMILES IDX 77 48 76 49 32 51 64 52 44 53 63 54 45 55 48 56 62 57 81 58
REMARK SMILES IDX 46 59 47 60 61 62 82 63 49 64 33 65 34 66 42 67 35 68 41 69
REMARK SMILES IDX 43 70 40 71 36 72 37 73 38 74 39 75 65 76 66 77 74 78 67 79
REMARK SMILES IDX 73 80 75 81 72 82 68 83 69 84 70 85 71 86 50 87 51 88 59 89
REMARK SMILES IDX 52 90 58 91 60 92 57 93 53 94 54 95 55 96 56 97
REMARK H PARENT 17 6 10 11 13 13 4 24 21 31 80 50 48 61
REMARK Flexibility Score: inf
ROOT
ATOM      1  C   UNL A   1      36.191  22.579  23.574  1.00  0.00     0.042 C 
ENDROOT
BRANCH   1   2
ATOM      2  C   UNL A   1      34.866  22.964  22.917  1.00  0.00     0.117 C 
BRANCH   2   3
ATOM      3  N   UNL A   1      34.341  24.258  23.327  1.00  0.00    -0.354 N 
ATOM      4  C   UNL A   1      33.407  24.562  24.285  1.00  0.00     0.242 C 
ATOM      5  O   UNL A   1      33.260  25.750  24.579  1.00  0.00    -0.273 OA
ATOM      6  H   UNL A   1      34.714  25.031  22.845  1.00  0.00     0.163 HD
BRANCH   4   7
ATOM      7  C   UNL A   1      32.521  23.439  24.894  1.00  0.00     0.175 C 
BRANCH   7   8
ATOM      8  N   UNL A   1      32.827  23.228  26.302  1.00  0.00    -0.326 N 
ATOM      9  N   UNL A   1      32.944  20.883  26.792  1.00  0.00    -0.308 N 
ATOM     10  C   UNL A   1      32.926  22.182  27.120  1.00  0.00     0.319 C 
ATOM     11  H   UNL A   1      33.164  20.339  27.582  1.00  0.00     0.171 HD
ATOM     12  O   UNL A   1      33.130  22.449  28.311  1.00  0.00    -0.248 OA
ATOM     13  H   UNL A   1      33.005  24.076  26.769  1.00  0.00     0.166 HD
BRANCH   9  14
ATOM     14  C   UNL A   1      32.746  20.054  25.677  1.00  0.00     0.044 A 
ATOM     15  C   UNL A   1      32.617  17.746  24.891  1.00  0.00     0.043 A 
ATOM     16  C   UNL A   1      32.655  18.182  23.572  1.00  0.00     0.026 A 
ATOM     17  C   UNL A   1      32.711  18.678  25.932  1.00  0.00     0.052 A 
ATOM     18  C   UNL A   1      32.564  19.546  23.312  1.00  0.00     0.004 A 
ATOM     19  C   UNL A   1      32.540  20.464  24.369  1.00  0.00     0.026 A 
BRANCH  15  20
ATOM     20  N   UNL A   1      32.492  16.374  25.133  1.00  0.00    -0.326 N 
ATOM     21  C   UNL A   1      34.923  15.909  25.367  1.00  0.00     0.114 C 
ATOM     22  C   UNL A   1      33.492  15.442  25.239  1.00  0.00     0.221 C 
ATOM     23  O   UNL A   1      33.211  14.246  25.302  1.00  0.00    -0.275 OA
ATOM     24  H   UNL A   1      31.573  16.035  25.239  1.00  0.00     0.169 HD
ENDBRANCH  15  20
ENDBRANCH   9  14
ENDBRANCH   7   8
BRANCH   7  25
ATOM     25  C   UNL A   1      30.998  23.750  24.737  1.00  0.00     0.015 C 
ATOM     26  C   UNL A   1      30.517  24.727  25.813  1.00  0.00     0.010 C 
ATOM     27  C   UNL A   1      30.595  24.292  23.352  1.00  0.00     0.010 C 
ENDBRANCH   7  25
ENDBRANCH   4   7
ENDBRANCH   2   3
ENDBRANCH   1   2
BRANCH   1  28
ATOM     28  C   UNL A   1      36.086  22.089  25.018  1.00  0.00     0.118 C 
BRANCH  28  29
ATOM     29  N   UNL A   1      37.029  21.021  25.322  1.00  0.00    -0.352 N 
ATOM     30  C   UNL A   1      38.346  21.035  25.712  1.00  0.00     0.251 C 
ATOM     31  H   UNL A   1      36.651  20.117  25.228  1.00  0.00     0.163 HD
ATOM     32  O   UNL A   1      38.941  19.958  25.742  1.00  0.00    -0.269 OA
BRANCH  30  33
ATOM     33  C   UNL A   1      39.073  22.280  26.080  1.00  0.00     0.039 A 
ATOM     34  C   UNL A   1      40.313  22.155  26.724  1.00  0.00     0.014 A 
ATOM     35  C   UNL A   1      38.539  23.557  25.894  1.00  0.00     0.014 A 
ATOM     36  C   UNL A   1      41.025  23.290  27.134  1.00  0.00     0.010 A 
ATOM     37  C   UNL A   1      39.282  24.693  26.241  1.00  0.00     0.010 A 
ATOM     38  C   UNL A   1      40.531  24.575  26.872  1.00  0.00    -0.014 A 
BRANCH  38  39
ATOM     39  C   UNL A   1      41.287  25.797  27.278  1.00  0.00     0.031 A 
ATOM     40  C   UNL A   1      40.635  26.837  28.157  1.00  0.00     0.074 A 
ATOM     41  C   UNL A   1      42.543  25.997  26.832  1.00  0.00     0.049 A 
ATOM     42  N   UNL A   1      41.085  28.008  28.532  1.00  0.00    -0.248 NA
ATOM     43  C   UNL A   1      39.291  26.522  28.661  1.00  0.00     0.031 C 
ATOM     44  C   UNL A   1      43.296  25.076  25.977  1.00  0.00     0.029 A 
ATOM     45  N   UNL A   1      43.412  27.045  27.029  1.00  0.00    -0.354 N 
ATOM     46  C   UNL A   1      40.078  28.575  29.308  1.00  0.00     0.074 A 
ATOM     47  C   UNL A   1      38.971  27.640  29.298  1.00  0.00     0.031 C 
ATOM     48  C   UNL A   1      44.515  25.588  25.744  1.00  0.00     0.029 A 
ATOM     49  C   UNL A   1      44.619  26.896  26.385  1.00  0.00     0.049 A 
ATOM     50  H   UNL A   1      43.190  27.830  27.581  1.00  0.00     0.167 HD
ATOM     51  C   UNL A   1      40.080  29.751  29.986  1.00  0.00     0.034 A 
ATOM     52  C   UNL A   1      45.684  27.720  26.307  1.00  0.00     0.034 A 
ATOM     53  C   UNL A   1      41.191  30.672  30.006  1.00  0.00     0.049 A 
ATOM     54  C   UNL A   1      45.641  29.047  27.026  1.00  0.00     0.074 A 
ATOM     55  C   UNL A   1      41.299  31.881  30.674  1.00  0.00     0.029 A 
ATOM     56  N   UNL A   1      42.390  30.489  29.330  1.00  0.00    -0.354 N 
ATOM     57  N   UNL A   1      44.681  29.561  27.759  1.00  0.00    -0.248 NA
ATOM     58  C   UNL A   1      46.831  29.902  26.912  1.00  0.00     0.031 C 
ATOM     59  C   UNL A   1      42.537  32.452  30.358  1.00  0.00     0.029 A 
ATOM     60  C   UNL A   1      43.233  31.569  29.550  1.00  0.00     0.049 A 
ATOM     61  H   UNL A   1      42.611  29.705  28.776  1.00  0.00     0.167 HD
ATOM     62  C   UNL A   1      45.172  30.778  28.227  1.00  0.00     0.074 A 
ATOM     63  C   UNL A   1      46.513  30.915  27.703  1.00  0.00     0.031 C 
ATOM     64  C   UNL A   1      44.570  31.696  29.024  1.00  0.00     0.034 A 
BRANCH  51  65
ATOM     65  C   UNL A   1      38.828  30.115  30.750  1.00  0.00     0.023 A 
ATOM     66  C   UNL A   1      37.850  30.959  30.196  1.00  0.00     0.031 A 
ATOM     67  C   UNL A   1      38.614  29.627  32.050  1.00  0.00     0.131 A 
ATOM     68  C   UNL A   1      36.742  31.347  30.965  1.00  0.00     0.055 A 
ATOM     69  C   UNL A   1      37.468  29.952  32.781  1.00  0.00     0.041 A 
ATOM     70  F   UNL A   1      39.521  28.831  32.640  1.00  0.00    -0.206 F 
ATOM     71  C   UNL A   1      36.531  30.829  32.243  1.00  0.00     0.022 A 
BRANCH  68  72
ATOM     72  S   UNL A   1      35.653  32.646  30.319  1.00  0.00     0.124 S 
ATOM     73  O   UNL A   1      36.420  33.851  30.627  1.00  0.00    -0.237 OA
ATOM     74  O   UNL A   1      35.549  32.299  28.907  1.00  0.00    -0.237 OA
ATOM     75  O   UNL A   1      34.426  32.482  31.095  1.00  0.00    -0.744 OA
ENDBRANCH  68  72
ENDBRANCH  51  65
BRANCH  52  76
ATOM     76  C   UNL A   1      46.886  27.340  25.508  1.00  0.00     0.023 A 
ATOM     77  C   UNL A   1      47.068  27.831  24.205  1.00  0.00     0.031 A 
ATOM     78  C   UNL A   1      47.829  26.422  26.003  1.00  0.00     0.131 A 
ATOM     79  C   UNL A   1      48.129  27.355  23.419  1.00  0.00     0.055 A 
ATOM     80  C   UNL A   1      48.918  25.999  25.239  1.00  0.00     0.041 A 
ATOM     81  F   UNL A   1      47.704  25.920  27.242  1.00  0.00    -0.206 F 
ATOM     82  C   UNL A   1      49.063  26.453  23.931  1.00  0.00     0.022 A 
BRANCH  79  83
ATOM     83  S   UNL A   1      48.199  27.843  21.672  1.00  0.00     0.124 S 
ATOM     84  O   UNL A   1      48.449  26.564  21.017  1.00  0.00    -0.237 OA
ATOM     85  O   UNL A   1      46.875  28.421  21.467  1.00  0.00    -0.237 OA
ATOM     86  O   UNL A   1      49.307  28.794  21.629  1.00  0.00    -0.744 OA
ENDBRANCH  79  83
ENDBRANCH  52  76
BRANCH  64  87
ATOM     87  C   UNL A   1      45.388  32.900  29.427  1.00  0.00     0.023 A 
ATOM     88  C   UNL A   1      45.377  34.089  28.677  1.00  0.00     0.031 A 
ATOM     89  C   UNL A   1      46.204  32.845  30.570  1.00  0.00     0.131 A 
ATOM     90  C   UNL A   1      46.209  35.156  29.048  1.00  0.00     0.055 A 
ATOM     91  C   UNL A   1      46.987  33.931  30.967  1.00  0.00     0.041 A 
ATOM     92  F   UNL A   1      46.254  31.734  31.323  1.00  0.00    -0.206 F 
ATOM     93  C   UNL A   1      47.003  35.090  30.197  1.00  0.00     0.022 A 
BRANCH  90  94
ATOM     94  S   UNL A   1      46.305  36.606  27.962  1.00  0.00     0.124 S 
ATOM     95  O   UNL A   1      47.474  37.304  28.488  1.00  0.00    -0.237 OA
ATOM     96  O   UNL A   1      46.466  35.999  26.645  1.00  0.00    -0.237 OA
ATOM     97  O   UNL A   1      45.028  37.284  28.178  1.00  0.00    -0.744 OA
ENDBRANCH  90  94
ENDBRANCH  64  87
ENDBRANCH  38  39
ENDBRANCH  30  33
ENDBRANCH  28  29
ENDBRANCH   1  28
TORSDOF 17
ENDMDL
MODEL 3
REMARK VINA RESULT:     -11.8      6.720     12.461
REMARK SMILES CC(=O)Nc1cccc(NC(=O)N[C@H](C(=O)NCCCNC(=O)c2ccc(-c3c4nc(c(-c5cc(S(=O)(=O)[O-])ccc5F)c5ccc([nH]5)c(-c5cc(S(=O)(=O)[O-])ccc5F)c5nc(c(-c6cc(S(=O)(=O)[O-])ccc6F)c6ccc3[nH]6)C=C5)C=C4)cc2)C(C)C)c1
REMARK SMILES IDX 19 1 18 2 17 3 15 4 16 5 14 7 13 8 10 9 11 10 12 12 9 14
REMARK SMILES IDX 5 15 6 16 90 17 7 18 8 19 4 20 1 21 2 22 3 23 87 25 88 26
REMARK SMILES IDX 89 27 20 28 21 29 22 30 23 32 24 33 25 34 86 35 26 36 85 37
REMARK SMILES IDX 27 38 28 39 29 40 79 41 30 42 84 43 78 44 80 45 31 46 83 47
REMARK SMILES IDX 77 48 76 49 32 51 64 52 44 53 63 54 45 55 48 56 62 57 81 58
REMARK SMILES IDX 46 59 47 60 61 62 82 63 49 64 33 65 34 66 42 67 35 68 41 69
REMARK SMILES IDX 43 70 40 71 36 72 37 73 38 74 39 75 65 76 66 77 74 78 67 79
REMARK SMILES IDX 73 80 75 81 72 82 68 83 69 84 70 85 71 86 50 87 51 88 59 89
REMARK SMILES IDX 52 90 58 91 60 92 57 93 53 94 54 95 55 96 56 97
REMARK H PARENT 17 6 10 11 13 13 4 24 21 31 80 50 48 61
REMARK Flexibility Score: inf
ROOT
ATOM      1  C   UNL A   1      37.844  19.406  25.208  1.00  0.00     0.042 C 
ENDROOT
BRANCH   1   2
ATOM      2  C   UNL A   1      36.663  20.298  24.831  1.00  0.00     0.117 C 
BRANCH   2   3
ATOM      3  N   UNL A   1      37.010  21.445  24.006  1.00  0.00    -0.354 N 
ATOM      4  C   UNL A   1      36.301  22.592  23.755  1.00  0.00     0.242 C 
ATOM      5  O   UNL A   1      36.885  23.505  23.167  1.00  0.00    -0.273 OA
ATOM      6  H   UNL A   1      37.887  21.389  23.562  1.00  0.00     0.163 HD
BRANCH   4   7
ATOM      7  C   UNL A   1      34.794  22.674  24.129  1.00  0.00     0.175 C 
BRANCH   7   8
ATOM      8  N   UNL A   1      34.610  22.751  25.572  1.00  0.00    -0.326 N 
ATOM      9  N   UNL A   1      33.264  20.923  26.344  1.00  0.00    -0.308 N 
ATOM     10  C   UNL A   1      33.916  22.084  26.491  1.00  0.00     0.319 C 
ATOM     11  H   UNL A   1      32.958  20.595  27.219  1.00  0.00     0.171 HD
ATOM     12  O   UNL A   1      33.970  22.539  27.641  1.00  0.00    -0.248 OA
ATOM     13  H   UNL A   1      35.132  23.486  25.968  1.00  0.00     0.166 HD
BRANCH   9  14
ATOM     14  C   UNL A   1      32.879  20.029  25.334  1.00  0.00     0.044 A 
ATOM     15  C   UNL A   1      32.592  17.679  24.737  1.00  0.00     0.043 A 
ATOM     16  C   UNL A   1      32.427  18.026  23.401  1.00  0.00     0.026 A 
ATOM     17  C   UNL A   1      32.864  18.674  25.684  1.00  0.00     0.052 A 
ATOM     18  C   UNL A   1      32.316  19.372  23.067  1.00  0.00     0.004 A 
ATOM     19  C   UNL A   1      32.474  20.357  24.049  1.00  0.00     0.026 A 
BRANCH  15  20
ATOM     20  N   UNL A   1      32.486  16.328  25.089  1.00  0.00    -0.326 N 
ATOM     21  C   UNL A   1      34.926  15.903  25.301  1.00  0.00     0.114 C 
ATOM     22  C   UNL A   1      33.497  15.417  25.245  1.00  0.00     0.221 C 
ATOM     23  O   UNL A   1      33.230  14.226  25.407  1.00  0.00    -0.275 OA
ATOM     24  H   UNL A   1      31.573  15.991  25.243  1.00  0.00     0.169 HD
ENDBRANCH  15  20
ENDBRANCH   9  14
ENDBRANCH   7   8
BRANCH   7  25
ATOM     25  C   UNL A   1      34.092  23.895  23.452  1.00  0.00     0.015 C 
ATOM     26  C   UNL A   1      32.658  23.550  23.036  1.00  0.00     0.010 C 
ATOM     27  C   UNL A   1      34.070  25.176  24.309  1.00  0.00     0.010 C 
ENDBRANCH   7  25
ENDBRANCH   4   7
ENDBRANCH   2   3
ENDBRANCH   1   2
BRANCH   1  28
ATOM     28  C   UNL A   1      39.171  20.134  25.424  1.00  0.00     0.118 C 
BRANCH  28  29
ATOM     29  N   UNL A   1      40.235  19.247  25.874  1.00  0.00    -0.352 N 
ATOM     30  C   UNL A   1      41.524  19.485  26.287  1.00  0.00     0.251 C 
ATOM     31  H   UNL A   1      39.983  18.295  25.884  1.00  0.00     0.163 HD
ATOM     32  O   UNL A   1      42.254  18.510  26.460  1.00  0.00    -0.269 OA
BRANCH  30  33
ATOM     33  C   UNL A   1      42.066  20.852  26.515  1.00  0.00     0.039 A 
ATOM     34  C   UNL A   1      42.236  21.282  27.839  1.00  0.00     0.014 A 
ATOM     35  C   UNL A   1      42.329  21.750  25.479  1.00  0.00     0.014 A 
ATOM     36  C   UNL A   1      42.703  22.573  28.119  1.00  0.00     0.010 A 
ATOM     37  C   UNL A   1      42.861  23.016  25.756  1.00  0.00     0.010 A 
ATOM     38  C   UNL A   1      43.048  23.447  27.079  1.00  0.00    -0.014 A 
BRANCH  38  39
ATOM     39  C   UNL A   1      43.570  24.818  27.356  1.00  0.00     0.031 A 
ATOM     40  C   UNL A   1      42.641  25.901  27.846  1.00  0.00     0.074 A 
ATOM     41  C   UNL A   1      44.869  25.107  27.134  1.00  0.00     0.049 A 
ATOM     42  N   UNL A   1      42.879  27.174  28.044  1.00  0.00    -0.248 NA
ATOM     43  C   UNL A   1      41.256  25.500  28.131  1.00  0.00     0.031 C 
ATOM     44  C   UNL A   1      45.879  24.158  26.662  1.00  0.00     0.029 A 
ATOM     45  N   UNL A   1      45.564  26.286  27.270  1.00  0.00    -0.354 N 
ATOM     46  C   UNL A   1      41.673  27.728  28.467  1.00  0.00     0.074 A 
ATOM     47  C   UNL A   1      40.694  26.660  28.438  1.00  0.00     0.031 C 
ATOM     48  C   UNL A   1      47.063  24.785  26.570  1.00  0.00     0.029 A 
ATOM     49  C   UNL A   1      46.893  26.191  26.924  1.00  0.00     0.049 A 
ATOM     50  H   UNL A   1      45.149  27.121  27.587  1.00  0.00     0.167 HD
ATOM     51  C   UNL A   1      41.409  28.998  28.865  1.00  0.00     0.034 A 
ATOM     52  C   UNL A   1      47.862  27.128  26.883  1.00  0.00     0.034 A 
ATOM     53  C   UNL A   1      42.391  30.055  28.906  1.00  0.00     0.049 A 
ATOM     54  C   UNL A   1      47.529  28.547  27.279  1.00  0.00     0.074 A 
ATOM     55  C   UNL A   1      42.229  31.371  29.309  1.00  0.00     0.029 A 
ATOM     56  N   UNL A   1      43.722  29.920  28.535  1.00  0.00    -0.354 N 
ATOM     57  N   UNL A   1      46.385  29.048  27.682  1.00  0.00    -0.248 NA
ATOM     58  C   UNL A   1      48.625  29.525  27.222  1.00  0.00     0.031 C 
ATOM     59  C   UNL A   1      43.443  32.042  29.128  1.00  0.00     0.029 A 
ATOM     60  C   UNL A   1      44.384  31.131  28.681  1.00  0.00     0.049 A 
ATOM     61  H   UNL A   1      44.137  29.086  28.215  1.00  0.00     0.167 HD
ATOM     62  C   UNL A   1      46.637  30.388  27.967  1.00  0.00     0.074 A 
ATOM     63  C   UNL A   1      48.041  30.613  27.700  1.00  0.00     0.031 C 
ATOM     64  C   UNL A   1      45.786  31.344  28.415  1.00  0.00     0.034 A 
BRANCH  51  65
ATOM     65  C   UNL A   1      39.989  29.318  29.270  1.00  0.00     0.023 A 
ATOM     66  C   UNL A   1      39.609  29.392  30.622  1.00  0.00     0.031 A 
ATOM     67  C   UNL A   1      38.998  29.535  28.298  1.00  0.00     0.131 A 
ATOM     68  C   UNL A   1      38.265  29.605  30.962  1.00  0.00     0.055 A 
ATOM     69  C   UNL A   1      37.676  29.827  28.644  1.00  0.00     0.041 A 
ATOM     70  F   UNL A   1      39.294  29.459  26.990  1.00  0.00    -0.206 F 
ATOM     71  C   UNL A   1      37.301  29.849  29.983  1.00  0.00     0.022 A 
BRANCH  68  72
ATOM     72  S   UNL A   1      37.773  29.421  32.699  1.00  0.00     0.124 S 
ATOM     73  O   UNL A   1      38.899  30.044  33.390  1.00  0.00    -0.237 OA
ATOM     74  O   UNL A   1      36.510  30.148  32.749  1.00  0.00    -0.237 OA
ATOM     75  O   UNL A   1      37.668  27.974  32.873  1.00  0.00    -0.744 OA
ENDBRANCH  68  72
ENDBRANCH  51  65
BRANCH  52  76
ATOM     76  C   UNL A   1      49.243  26.779  26.437  1.00  0.00     0.023 A 
ATOM     77  C   UNL A   1      49.736  27.234  25.204  1.00  0.00     0.031 A 
ATOM     78  C   UNL A   1      50.060  25.925  27.199  1.00  0.00     0.131 A 
ATOM     79  C   UNL A   1      50.981  26.783  24.738  1.00  0.00     0.055 A 
ATOM     80  C   UNL A   1      51.324  25.529  26.759  1.00  0.00     0.041 A 
ATOM     81  F   UNL A   1      49.639  25.460  28.385  1.00  0.00    -0.206 F 
ATOM     82  C   UNL A   1      51.785  25.945  25.513  1.00  0.00     0.022 A 
BRANCH  79  83
ATOM     83  S   UNL A   1      51.481  27.214  23.048  1.00  0.00     0.124 S 
ATOM     84  O   UNL A   1      52.662  26.378  22.866  1.00  0.00    -0.237 OA
ATOM     85  O   UNL A   1      50.301  26.834  22.278  1.00  0.00    -0.237 OA
ATOM     86  O   UNL A   1      51.738  28.650  23.125  1.00  0.00    -0.744 OA
ENDBRANCH  79  83
ENDBRANCH  52  76
BRANCH  64  87
ATOM     87  C   UNL A   1      46.371  32.706  28.704  1.00  0.00     0.023 A 
ATOM     88  C   UNL A   1      46.455  33.704  27.717  1.00  0.00     0.031 A 
ATOM     89  C   UNL A   1      46.869  33.000  29.985  1.00  0.00     0.131 A 
ATOM     90  C   UNL A   1      47.074  34.928  28.012  1.00  0.00     0.055 A 
ATOM     91  C   UNL A   1      47.432  34.241  30.289  1.00  0.00     0.041 A 
ATOM     92  F   UNL A   1      46.815  32.085  30.966  1.00  0.00    -0.206 F 
ATOM     93  C   UNL A   1      47.549  35.208  29.295  1.00  0.00     0.022 A 
BRANCH  90  94
ATOM     94  S   UNL A   1      47.325  36.124  26.670  1.00  0.00     0.124 S 
ATOM     95  O   UNL A   1      46.014  36.757  26.576  1.00  0.00    -0.237 OA
ATOM     96  O   UNL A   1      48.400  36.960  27.195  1.00  0.00    -0.237 OA
ATOM     97  O   UNL A   1      47.694  35.287  25.529  1.00  0.00    -0.744 OA
ENDBRANCH  90  94
ENDBRANCH  64  87
ENDBRANCH  38  39
ENDBRANCH  30  33
ENDBRANCH  28  29
ENDBRANCH   1  28
TORSDOF 17
ENDMDL
