MODEL 1
REMARK VINA RESULT:     -11.1      0.000      0.000
REMARK SMILES C[C@H]1CN([C@@H](C(=O)NCCCNC(=O)c2ccc(-c3c4nc(c(-c5cc(S(=O)(=O)[O-])ccc5F)c5ccc([nH]5)c(-c5cc(S(=O)(=O)[O-])ccc5F)c5nc(c(-c6cc(S(=O)(=O)[O-])ccc6F)c6ccc3[nH]6)C=C5)C=C4)cc2)C(C)(C)C)S(=O)(=O)C1
REMARK SMILES IDX 11 1 10 2 9 3 8 4 6 5 7 6 5 8 4 9 1 10 2 11 3 12 85 13 82 14
REMARK SMILES IDX 83 15 84 16 78 17 79 18 80 19 81 20 12 21 13 22 14 24 15 25
REMARK SMILES IDX 16 26 77 27 17 28 76 29 18 30 19 31 20 32 70 33 21 34 75 35
REMARK SMILES IDX 69 36 71 37 22 38 74 39 68 40 67 41 23 43 55 44 35 45 54 46
REMARK SMILES IDX 36 47 39 48 53 49 72 50 37 51 38 52 52 54 73 55 40 56 24 57
REMARK SMILES IDX 25 58 33 59 26 60 32 61 34 62 31 63 27 64 28 65 29 66 30 67
REMARK SMILES IDX 56 68 57 69 65 70 58 71 64 72 66 73 63 74 59 75 60 76 61 77
REMARK SMILES IDX 62 78 41 79 42 80 50 81 43 82 49 83 51 84 48 85 44 86 45 87
REMARK SMILES IDX 46 88 47 89
REMARK H PARENT 8 7 12 23 71 42 39 53
REMARK Flexibility Score: inf
ROOT
ATOM      1  C   UNL A   1      33.289  29.540  25.959  1.00  0.00     0.118 C 
ENDROOT
BRANCH   1   2
ATOM      2  C   UNL A   1      32.064  28.686  26.285  1.00  0.00     0.042 C 
BRANCH   2   3
ATOM      3  C   UNL A   1      32.305  27.479  27.205  1.00  0.00     0.117 C 
BRANCH   3   4
ATOM      4  N   UNL A   1      31.385  26.364  26.999  1.00  0.00    -0.355 N 
ATOM      5  C   UNL A   1      31.461  25.143  26.382  1.00  0.00     0.238 C 
ATOM      6  O   UNL A   1      30.480  24.417  26.567  1.00  0.00    -0.273 OA
ATOM      7  H   UNL A   1      30.501  26.530  27.396  1.00  0.00     0.163 HD
BRANCH   5   8
ATOM      8  C   UNL A   1      32.685  24.698  25.545  1.00  0.00     0.167 C 
BRANCH   8   9
ATOM      9  N   UNL A   1      32.466  24.703  24.059  1.00  0.00    -0.189 NA
ATOM     10  C   UNL A   1      33.452  27.468  22.873  1.00  0.00     0.010 C 
ATOM     11  C   UNL A   1      33.341  26.073  22.242  1.00  0.00     0.017 C 
ATOM     12  C   UNL A   1      33.642  24.891  23.184  1.00  0.00     0.107 C 
ATOM     13  C   UNL A   1      31.909  25.807  21.799  1.00  0.00     0.159 C 
ATOM     14  S   UNL A   1      31.076  25.316  23.298  1.00  0.00     0.215 S 
ATOM     15  O   UNL A   1      30.201  24.212  22.986  1.00  0.00    -0.212 OA
ATOM     16  O   UNL A   1      30.633  26.509  23.983  1.00  0.00    -0.212 OA
ENDBRANCH   8   9
BRANCH   8  17
ATOM     17  C   UNL A   1      33.370  23.367  26.082  1.00  0.00    -0.013 C 
ATOM     18  C   UNL A   1      33.041  22.194  25.128  1.00  0.00     0.013 C 
ATOM     19  C   UNL A   1      34.913  23.526  26.069  1.00  0.00     0.013 C 
ATOM     20  C   UNL A   1      32.998  22.931  27.515  1.00  0.00     0.013 C 
ENDBRANCH   8  17
ENDBRANCH   5   8
ENDBRANCH   3   4
ENDBRANCH   2   3
ENDBRANCH   1   2
BRANCH   1  21
ATOM     21  N   UNL A   1      33.110  30.916  26.367  1.00  0.00    -0.352 N 
ATOM     22  C   UNL A   1      33.767  31.617  27.351  1.00  0.00     0.251 C 
ATOM     23  H   UNL A   1      32.423  31.420  25.872  1.00  0.00     0.163 HD
ATOM     24  O   UNL A   1      33.261  32.657  27.767  1.00  0.00    -0.269 OA
BRANCH  22  25
ATOM     25  C   UNL A   1      35.055  31.138  27.922  1.00  0.00     0.039 A 
ATOM     26  C   UNL A   1      35.102  29.855  28.478  1.00  0.00     0.014 A 
ATOM     27  C   UNL A   1      36.188  31.956  27.998  1.00  0.00     0.014 A 
ATOM     28  C   UNL A   1      36.276  29.390  29.084  1.00  0.00     0.010 A 
ATOM     29  C   UNL A   1      37.381  31.465  28.542  1.00  0.00     0.010 A 
ATOM     30  C   UNL A   1      37.435  30.182  29.110  1.00  0.00    -0.014 A 
BRANCH  30  31
ATOM     31  C   UNL A   1      38.685  29.687  29.758  1.00  0.00     0.031 A 
ATOM     32  C   UNL A   1      39.105  30.210  31.109  1.00  0.00     0.074 A 
ATOM     33  C   UNL A   1      39.453  28.772  29.131  1.00  0.00     0.049 A 
ATOM     34  N   UNL A   1      40.167  29.915  31.819  1.00  0.00    -0.248 NA
ATOM     35  C   UNL A   1      38.227  31.208  31.734  1.00  0.00     0.031 C 
ATOM     36  C   UNL A   1      39.169  28.195  27.816  1.00  0.00     0.029 A 
ATOM     37  N   UNL A   1      40.626  28.164  29.512  1.00  0.00    -0.354 N 
ATOM     38  C   UNL A   1      40.085  30.694  32.970  1.00  0.00     0.074 A 
ATOM     39  C   UNL A   1      38.903  31.518  32.831  1.00  0.00     0.031 C 
ATOM     40  C   UNL A   1      40.122  27.299  27.514  1.00  0.00     0.029 A 
ATOM     41  C   UNL A   1      41.115  27.272  28.584  1.00  0.00     0.049 A 
ATOM     42  H   UNL A   1      41.074  28.350  30.368  1.00  0.00     0.167 HD
ATOM     43  C   UNL A   1      40.906  30.708  34.051  1.00  0.00     0.034 A 
ATOM     44  C   UNL A   1      42.240  26.527  28.584  1.00  0.00     0.034 A 
ATOM     45  C   UNL A   1      42.083  29.880  34.181  1.00  0.00     0.049 A 
ATOM     46  C   UNL A   1      43.168  26.602  29.773  1.00  0.00     0.074 A 
ATOM     47  C   UNL A   1      42.956  29.786  35.252  1.00  0.00     0.029 A 
ATOM     48  N   UNL A   1      42.562  29.015  33.206  1.00  0.00    -0.354 N 
ATOM     49  N   UNL A   1      43.050  27.312  30.870  1.00  0.00    -0.248 NA
ATOM     50  C   UNL A   1      44.374  25.766  29.725  1.00  0.00     0.031 C 
ATOM     51  C   UNL A   1      44.004  28.934  34.892  1.00  0.00     0.029 A 
ATOM     52  C   UNL A   1      43.739  28.417  33.635  1.00  0.00     0.049 A 
ATOM     53  H   UNL A   1      42.130  28.849  32.337  1.00  0.00     0.167 HD
ATOM     54  C   UNL A   1      44.150  26.980  31.658  1.00  0.00     0.074 A 
ATOM     55  C   UNL A   1      44.909  25.994  30.916  1.00  0.00     0.031 C 
ATOM     56  C   UNL A   1      44.498  27.443  32.886  1.00  0.00     0.034 A 
BRANCH  43  57
ATOM     57  C   UNL A   1      40.577  31.673  35.169  1.00  0.00     0.023 A 
ATOM     58  C   UNL A   1      39.571  31.399  36.113  1.00  0.00     0.031 A 
ATOM     59  C   UNL A   1      41.271  32.891  35.286  1.00  0.00     0.131 A 
ATOM     60  C   UNL A   1      39.237  32.359  37.081  1.00  0.00     0.055 A 
ATOM     61  C   UNL A   1      40.993  33.804  36.307  1.00  0.00     0.041 A 
ATOM     62  F   UNL A   1      42.227  33.221  34.404  1.00  0.00    -0.206 F 
ATOM     63  C   UNL A   1      39.960  33.547  37.203  1.00  0.00     0.022 A 
BRANCH  60  64
ATOM     64  S   UNL A   1      37.745  32.098  38.080  1.00  0.00     0.124 S 
ATOM     65  O   UNL A   1      36.850  33.121  37.545  1.00  0.00    -0.237 OA
ATOM     66  O   UNL A   1      37.395  30.717  37.769  1.00  0.00    -0.237 OA
ATOM     67  O   UNL A   1      38.203  32.334  39.447  1.00  0.00    -0.744 OA
ENDBRANCH  60  64
ENDBRANCH  43  57
BRANCH  44  68
ATOM     68  C   UNL A   1      42.574  25.659  27.415  1.00  0.00     0.023 A 
ATOM     69  C   UNL A   1      42.108  24.338  27.332  1.00  0.00     0.031 A 
ATOM     70  C   UNL A   1      43.415  26.125  26.387  1.00  0.00     0.131 A 
ATOM     71  C   UNL A   1      42.526  23.513  26.277  1.00  0.00     0.055 A 
ATOM     72  C   UNL A   1      43.776  25.320  25.307  1.00  0.00     0.041 A 
ATOM     73  F   UNL A   1      43.892  27.379  26.414  1.00  0.00    -0.206 F 
ATOM     74  C   UNL A   1      43.343  23.999  25.254  1.00  0.00     0.022 A 
BRANCH  71  75
ATOM     75  S   UNL A   1      42.069  21.757  26.313  1.00  0.00     0.124 S 
ATOM     76  O   UNL A   1      42.383  21.398  27.691  1.00  0.00    -0.237 OA
ATOM     77  O   UNL A   1      40.652  21.807  25.969  1.00  0.00    -0.237 OA
ATOM     78  O   UNL A   1      42.933  21.160  25.297  1.00  0.00    -0.744 OA
ENDBRANCH  71  75
ENDBRANCH  44  68
BRANCH  56  79
ATOM     79  C   UNL A   1      45.731  26.848  33.528  1.00  0.00     0.023 A 
ATOM     80  C   UNL A   1      45.669  25.701  34.339  1.00  0.00     0.031 A 
ATOM     81  C   UNL A   1      46.988  27.447  33.330  1.00  0.00     0.131 A 
ATOM     82  C   UNL A   1      46.830  25.226  34.969  1.00  0.00     0.055 A 
ATOM     83  C   UNL A   1      48.151  26.928  33.903  1.00  0.00     0.041 A 
ATOM     84  F   UNL A   1      47.110  28.549  32.571  1.00  0.00    -0.206 F 
ATOM     85  C   UNL A   1      48.073  25.820  34.739  1.00  0.00     0.022 A 
BRANCH  82  86
ATOM     86  S   UNL A   1      46.677  23.883  36.180  1.00  0.00     0.124 S 
ATOM     87  O   UNL A   1      47.925  23.153  35.982  1.00  0.00    -0.237 OA
ATOM     88  O   UNL A   1      46.557  24.611  37.439  1.00  0.00    -0.237 OA
ATOM     89  O   UNL A   1      45.470  23.175  35.756  1.00  0.00    -0.744 OA
ENDBRANCH  82  86
ENDBRANCH  56  79
ENDBRANCH  30  31
ENDBRANCH  22  25
ENDBRANCH   1  21
TORSDOF 15
ENDMDL
MODEL 2
REMARK VINA RESULT:     -11.0      1.551      7.979
REMARK SMILES C[C@H]1CN([C@@H](C(=O)NCCCNC(=O)c2ccc(-c3c4nc(c(-c5cc(S(=O)(=O)[O-])ccc5F)c5ccc([nH]5)c(-c5cc(S(=O)(=O)[O-])ccc5F)c5nc(c(-c6cc(S(=O)(=O)[O-])ccc6F)c6ccc3[nH]6)C=C5)C=C4)cc2)C(C)(C)C)S(=O)(=O)C1
REMARK SMILES IDX 11 1 10 2 9 3 8 4 6 5 7 6 5 8 4 9 1 10 2 11 3 12 85 13 82 14
REMARK SMILES IDX 83 15 84 16 78 17 79 18 80 19 81 20 12 21 13 22 14 24 15 25
REMARK SMILES IDX 16 26 77 27 17 28 76 29 18 30 19 31 20 32 70 33 21 34 75 35
REMARK SMILES IDX 69 36 71 37 22 38 74 39 68 40 67 41 23 43 55 44 35 45 54 46
REMARK SMILES IDX 36 47 39 48 53 49 72 50 37 51 38 52 52 54 73 55 40 56 24 57
REMARK SMILES IDX 25 58 33 59 26 60 32 61 34 62 31 63 27 64 28 65 29 66 30 67
REMARK SMILES IDX 56 68 57 69 65 70 58 71 64 72 66 73 63 74 59 75 60 76 61 77
REMARK SMILES IDX 62 78 41 79 42 80 50 81 43 82 49 83 51 84 48 85 44 86 45 87
REMARK SMILES IDX 46 88 47 89
REMARK H PARENT 8 7 12 23 71 42 39 53
REMARK Flexibility Score: inf
ROOT
ATOM      1  C   UNL A   1      33.404  29.222  24.861  1.00  0.00     0.118 C 
ENDROOT
BRANCH   1   2
ATOM      2  C   UNL A   1      32.991  28.944  23.417  1.00  0.00     0.042 C 
BRANCH   2   3
ATOM      3  C   UNL A   1      33.677  27.751  22.733  1.00  0.00     0.117 C 
BRANCH   3   4
ATOM      4  N   UNL A   1      32.772  26.677  22.332  1.00  0.00    -0.355 N 
ATOM      5  C   UNL A   1      32.135  25.651  22.979  1.00  0.00     0.238 C 
ATOM      6  O   UNL A   1      31.318  25.040  22.284  1.00  0.00    -0.273 OA
ATOM      7  H   UNL A   1      32.573  26.696  21.369  1.00  0.00     0.163 HD
BRANCH   5   8
ATOM      8  C   UNL A   1      32.398  25.301  24.464  1.00  0.00     0.167 C 
BRANCH   8   9
ATOM      9  N   UNL A   1      32.919  23.911  24.700  1.00  0.00    -0.189 NA
ATOM     10  C   UNL A   1      35.987  24.070  25.467  1.00  0.00     0.010 C 
ATOM     11  C   UNL A   1      34.906  23.034  25.807  1.00  0.00     0.017 C 
ATOM     12  C   UNL A   1      33.489  23.599  26.027  1.00  0.00     0.107 C 
ATOM     13  C   UNL A   1      34.718  22.067  24.647  1.00  0.00     0.159 C 
ATOM     14  S   UNL A   1      33.666  22.954  23.511  1.00  0.00     0.215 S 
ATOM     15  O   UNL A   1      32.689  22.030  22.987  1.00  0.00    -0.212 OA
ATOM     16  O   UNL A   1      34.501  23.783  22.672  1.00  0.00    -0.212 OA
ENDBRANCH   8   9
BRANCH   8  17
ATOM     17  C   UNL A   1      31.201  25.703  25.431  1.00  0.00    -0.013 C 
ATOM     18  C   UNL A   1      31.720  26.669  26.523  1.00  0.00     0.013 C 
ATOM     19  C   UNL A   1      30.118  26.477  24.636  1.00  0.00     0.013 C 
ATOM     20  C   UNL A   1      30.467  24.543  26.135  1.00  0.00     0.013 C 
ENDBRANCH   8  17
ENDBRANCH   5   8
ENDBRANCH   3   4
ENDBRANCH   2   3
ENDBRANCH   1   2
BRANCH   1  21
ATOM     21  N   UNL A   1      32.816  30.445  25.364  1.00  0.00    -0.352 N 
ATOM     22  C   UNL A   1      33.009  31.061  26.578  1.00  0.00     0.251 C 
ATOM     23  H   UNL A   1      32.191  30.898  24.751  1.00  0.00     0.163 HD
ATOM     24  O   UNL A   1      32.189  31.898  26.948  1.00  0.00    -0.269 OA
BRANCH  22  25
ATOM     25  C   UNL A   1      34.170  30.725  27.446  1.00  0.00     0.039 A 
ATOM     26  C   UNL A   1      35.154  31.698  27.650  1.00  0.00     0.014 A 
ATOM     27  C   UNL A   1      34.350  29.449  27.992  1.00  0.00     0.014 A 
ATOM     28  C   UNL A   1      36.295  31.402  28.407  1.00  0.00     0.010 A 
ATOM     29  C   UNL A   1      35.456  29.176  28.805  1.00  0.00     0.010 A 
ATOM     30  C   UNL A   1      36.453  30.143  29.008  1.00  0.00    -0.014 A 
BRANCH  30  31
ATOM     31  C   UNL A   1      37.670  29.829  29.813  1.00  0.00     0.031 A 
ATOM     32  C   UNL A   1      38.739  28.919  29.259  1.00  0.00     0.074 A 
ATOM     33  C   UNL A   1      37.815  30.350  31.049  1.00  0.00     0.049 A 
ATOM     34  N   UNL A   1      39.854  28.514  29.817  1.00  0.00    -0.248 NA
ATOM     35  C   UNL A   1      38.517  28.382  27.910  1.00  0.00     0.031 C 
ATOM     36  C   UNL A   1      36.850  31.231  31.708  1.00  0.00     0.029 A 
ATOM     37  N   UNL A   1      38.826  30.220  31.970  1.00  0.00    -0.354 N 
ATOM     38  C   UNL A   1      40.462  27.672  28.890  1.00  0.00     0.074 A 
ATOM     39  C   UNL A   1      39.559  27.578  27.761  1.00  0.00     0.031 C 
ATOM     40  C   UNL A   1      37.328  31.584  32.912  1.00  0.00     0.029 A 
ATOM     41  C   UNL A   1      38.606  30.916  33.138  1.00  0.00     0.049 A 
ATOM     42  H   UNL A   1      39.633  29.678  31.811  1.00  0.00     0.167 HD
ATOM     43  C   UNL A   1      41.667  27.051  28.961  1.00  0.00     0.034 A 
ATOM     44  C   UNL A   1      39.339  30.998  34.268  1.00  0.00     0.034 A 
ATOM     45  C   UNL A   1      42.560  27.154  30.091  1.00  0.00     0.049 A 
ATOM     46  C   UNL A   1      40.650  30.252  34.347  1.00  0.00     0.074 A 
ATOM     47  C   UNL A   1      43.821  26.602  30.245  1.00  0.00     0.029 A 
ATOM     48  N   UNL A   1      42.286  27.841  31.267  1.00  0.00    -0.354 N 
ATOM     49  N   UNL A   1      41.226  29.496  33.442  1.00  0.00    -0.248 NA
ATOM     50  C   UNL A   1      41.411  30.381  35.596  1.00  0.00     0.031 C 
ATOM     51  C   UNL A   1      44.269  26.881  31.540  1.00  0.00     0.029 A 
ATOM     52  C   UNL A   1      43.335  27.691  32.163  1.00  0.00     0.049 A 
ATOM     53  H   UNL A   1      41.468  28.360  31.439  1.00  0.00     0.167 HD
ATOM     54  C   UNL A   1      42.436  29.089  34.002  1.00  0.00     0.074 A 
ATOM     55  C   UNL A   1      42.510  29.697  35.314  1.00  0.00     0.031 C 
ATOM     56  C   UNL A   1      43.400  28.290  33.476  1.00  0.00     0.034 A 
BRANCH  43  57
ATOM     57  C   UNL A   1      42.076  26.179  27.796  1.00  0.00     0.023 A 
ATOM     58  C   UNL A   1      41.630  24.851  27.670  1.00  0.00     0.031 A 
ATOM     59  C   UNL A   1      42.935  26.678  26.799  1.00  0.00     0.131 A 
ATOM     60  C   UNL A   1      42.103  24.048  26.621  1.00  0.00     0.055 A 
ATOM     61  C   UNL A   1      43.331  25.900  25.708  1.00  0.00     0.041 A 
ATOM     62  F   UNL A   1      43.411  27.930  26.872  1.00  0.00    -0.206 F 
ATOM     63  C   UNL A   1      42.927  24.571  25.623  1.00  0.00     0.022 A 
BRANCH  60  64
ATOM     64  S   UNL A   1      41.746  22.269  26.664  1.00  0.00     0.124 S 
ATOM     65  O   UNL A   1      42.275  21.832  25.374  1.00  0.00    -0.237 OA
ATOM     66  O   UNL A   1      42.486  21.827  27.840  1.00  0.00    -0.237 OA
ATOM     67  O   UNL A   1      40.291  22.214  26.783  1.00  0.00    -0.744 OA
ENDBRANCH  60  64
ENDBRANCH  43  57
BRANCH  44  68
ATOM     68  C   UNL A   1      38.849  31.795  35.432  1.00  0.00     0.023 A 
ATOM     69  C   UNL A   1      38.297  31.172  36.561  1.00  0.00     0.031 A 
ATOM     70  C   UNL A   1      38.877  33.202  35.406  1.00  0.00     0.131 A 
ATOM     71  C   UNL A   1      37.748  31.949  37.593  1.00  0.00     0.055 A 
ATOM     72  C   UNL A   1      38.388  33.970  36.463  1.00  0.00     0.041 A 
ATOM     73  F   UNL A   1      39.393  33.853  34.352  1.00  0.00    -0.206 F 
ATOM     74  C   UNL A   1      37.804  33.344  37.560  1.00  0.00     0.022 A 
BRANCH  71  75
ATOM     75  S   UNL A   1      36.862  31.111  38.937  1.00  0.00     0.124 S 
ATOM     76  O   UNL A   1      35.658  31.927  39.050  1.00  0.00    -0.237 OA
ATOM     77  O   UNL A   1      36.681  29.771  38.389  1.00  0.00    -0.237 OA
ATOM     78  O   UNL A   1      37.788  31.202  40.063  1.00  0.00    -0.744 OA
ENDBRANCH  71  75
ENDBRANCH  44  68
BRANCH  56  79
ATOM     79  C   UNL A   1      44.645  28.070  34.304  1.00  0.00     0.023 A 
ATOM     80  C   UNL A   1      44.767  26.988  35.194  1.00  0.00     0.031 A 
ATOM     81  C   UNL A   1      45.726  28.966  34.205  1.00  0.00     0.131 A 
ATOM     82  C   UNL A   1      45.915  26.864  35.991  1.00  0.00     0.055 A 
ATOM     83  C   UNL A   1      46.894  28.797  34.950  1.00  0.00     0.041 A 
ATOM     84  F   UNL A   1      45.666  30.022  33.378  1.00  0.00    -0.206 F 
ATOM     85  C   UNL A   1      46.988  27.750  35.860  1.00  0.00     0.022 A 
BRANCH  82  86
ATOM     86  S   UNL A   1      45.945  25.590  37.283  1.00  0.00     0.124 S 
ATOM     87  O   UNL A   1      47.301  25.065  37.158  1.00  0.00    -0.237 OA
ATOM     88  O   UNL A   1      45.668  26.361  38.489  1.00  0.00    -0.237 OA
ATOM     89  O   UNL A   1      44.884  24.668  36.879  1.00  0.00    -0.744 OA
ENDBRANCH  82  86
ENDBRANCH  56  79
ENDBRANCH  30  31
ENDBRANCH  22  25
ENDBRANCH   1  21
TORSDOF 15
ENDMDL
MODEL 3
REMARK VINA RESULT:     -10.9      1.587      2.106
REMARK SMILES C[C@H]1CN([C@@H](C(=O)NCCCNC(=O)c2ccc(-c3c4nc(c(-c5cc(S(=O)(=O)[O-])ccc5F)c5ccc([nH]5)c(-c5cc(S(=O)(=O)[O-])ccc5F)c5nc(c(-c6cc(S(=O)(=O)[O-])ccc6F)c6ccc3[nH]6)C=C5)C=C4)cc2)C(C)(C)C)S(=O)(=O)C1
REMARK SMILES IDX 11 1 10 2 9 3 8 4 6 5 7 6 5 8 4 9 1 10 2 11 3 12 85 13 82 14
REMARK SMILES IDX 83 15 84 16 78 17 79 18 80 19 81 20 12 21 13 22 14 24 15 25
REMARK SMILES IDX 16 26 77 27 17 28 76 29 18 30 19 31 20 32 70 33 21 34 75 35
REMARK SMILES IDX 69 36 71 37 22 38 74 39 68 40 67 41 23 43 55 44 35 45 54 46
REMARK SMILES IDX 36 47 39 48 53 49 72 50 37 51 38 52 52 54 73 55 40 56 24 57
REMARK SMILES IDX 25 58 33 59 26 60 32 61 34 62 31 63 27 64 28 65 29 66 30 67
REMARK SMILES IDX 56 68 57 69 65 70 58 71 64 72 66 73 63 74 59 75 60 76 61 77
REMARK SMILES IDX 62 78 41 79 42 80 50 81 43 82 49 83 51 84 48 85 44 86 45 87
REMARK SMILES IDX 46 88 47 89
REMARK H PARENT 8 7 12 23 71 42 39 53
REMARK Flexibility Score: inf
ROOT
ATOM      1  C   UNL A   1      33.827  29.237  26.120  1.00  0.00     0.118 C 
ENDROOT
BRANCH   1   2
ATOM      2  C   UNL A   1      33.325  29.062  24.687  1.00  0.00     0.042 C 
BRANCH   2   3
ATOM      3  C   UNL A   1      33.807  27.803  23.948  1.00  0.00     0.117 C 
BRANCH   3   4
ATOM      4  N   UNL A   1      34.328  26.751  24.817  1.00  0.00    -0.355 N 
ATOM      5  C   UNL A   1      34.154  25.395  24.913  1.00  0.00     0.238 C 
ATOM      6  O   UNL A   1      34.915  24.839  25.710  1.00  0.00    -0.273 OA
ATOM      7  H   UNL A   1      34.953  27.099  25.493  1.00  0.00     0.163 HD
BRANCH   5   8
ATOM      8  C   UNL A   1      33.110  24.620  24.074  1.00  0.00     0.167 C 
BRANCH   8   9
ATOM      9  N   UNL A   1      31.744  24.533  24.693  1.00  0.00    -0.189 NA
ATOM     10  C   UNL A   1      30.187  27.238  24.157  1.00  0.00     0.010 C 
ATOM     11  C   UNL A   1      29.686  25.806  24.394  1.00  0.00     0.017 C 
ATOM     12  C   UNL A   1      30.569  24.687  23.809  1.00  0.00     0.107 C 
ATOM     13  C   UNL A   1      29.670  25.493  25.884  1.00  0.00     0.159 C 
ATOM     14  S   UNL A   1      31.366  25.080  26.257  1.00  0.00     0.215 S 
ATOM     15  O   UNL A   1      31.366  23.947  27.150  1.00  0.00    -0.212 OA
ATOM     16  O   UNL A   1      32.082  26.304  26.531  1.00  0.00    -0.212 OA
ENDBRANCH   8   9
BRANCH   8  17
ATOM     17  C   UNL A   1      33.647  23.228  23.522  1.00  0.00    -0.013 C 
ATOM     18  C   UNL A   1      33.179  22.086  24.456  1.00  0.00     0.013 C 
ATOM     19  C   UNL A   1      33.029  22.939  22.129  1.00  0.00     0.013 C 
ATOM     20  C   UNL A   1      35.174  23.101  23.347  1.00  0.00     0.013 C 
ENDBRANCH   8  17
ENDBRANCH   5   8
ENDBRANCH   3   4
ENDBRANCH   2   3
ENDBRANCH   1   2
BRANCH   1  21
ATOM     21  N   UNL A   1      33.673  30.600  26.581  1.00  0.00    -0.352 N 
ATOM     22  C   UNL A   1      34.314  31.238  27.617  1.00  0.00     0.251 C 
ATOM     23  H   UNL A   1      33.018  31.144  26.086  1.00  0.00     0.163 HD
ATOM     24  O   UNL A   1      33.824  32.274  28.060  1.00  0.00    -0.269 OA
BRANCH  22  25
ATOM     25  C   UNL A   1      35.567  30.696  28.211  1.00  0.00     0.039 A 
ATOM     26  C   UNL A   1      36.789  31.050  27.629  1.00  0.00     0.014 A 
ATOM     27  C   UNL A   1      35.555  29.783  29.271  1.00  0.00     0.014 A 
ATOM     28  C   UNL A   1      37.986  30.511  28.117  1.00  0.00     0.010 A 
ATOM     29  C   UNL A   1      36.757  29.299  29.802  1.00  0.00     0.010 A 
ATOM     30  C   UNL A   1      37.987  29.641  29.219  1.00  0.00    -0.014 A 
BRANCH  30  31
ATOM     31  C   UNL A   1      39.263  29.066  29.737  1.00  0.00     0.031 A 
ATOM     32  C   UNL A   1      39.935  29.664  30.949  1.00  0.00     0.074 A 
ATOM     33  C   UNL A   1      39.830  28.012  29.115  1.00  0.00     0.049 A 
ATOM     34  N   UNL A   1      41.055  29.316  31.533  1.00  0.00    -0.248 NA
ATOM     35  C   UNL A   1      39.267  30.813  31.575  1.00  0.00     0.031 C 
ATOM     36  C   UNL A   1      39.293  27.349  27.927  1.00  0.00     0.029 A 
ATOM     37  N   UNL A   1      40.978  27.310  29.394  1.00  0.00    -0.354 N 
ATOM     38  C   UNL A   1      41.229  30.205  32.589  1.00  0.00     0.074 A 
ATOM     39  C   UNL A   1      40.130  31.145  32.525  1.00  0.00     0.031 C 
ATOM     40  C   UNL A   1      40.092  26.322  27.596  1.00  0.00     0.029 A 
ATOM     41  C   UNL A   1      41.228  26.281  28.513  1.00  0.00     0.049 A 
ATOM     42  H   UNL A   1      41.568  27.522  30.153  1.00  0.00     0.167 HD
ATOM     43  C   UNL A   1      42.201  30.226  33.537  1.00  0.00     0.034 A 
ATOM     44  C   UNL A   1      42.258  25.413  28.439  1.00  0.00     0.034 A 
ATOM     45  C   UNL A   1      43.293  29.282  33.592  1.00  0.00     0.049 A 
ATOM     46  C   UNL A   1      43.358  25.491  29.471  1.00  0.00     0.074 A 
ATOM     47  C   UNL A   1      44.303  29.189  34.535  1.00  0.00     0.029 A 
ATOM     48  N   UNL A   1      43.528  28.277  32.663  1.00  0.00    -0.354 N 
ATOM     49  N   UNL A   1      43.481  26.313  30.487  1.00  0.00    -0.248 NA
ATOM     50  C   UNL A   1      44.451  24.518  29.349  1.00  0.00     0.031 C 
ATOM     51  C   UNL A   1      45.193  28.189  34.129  1.00  0.00     0.029 A 
ATOM     52  C   UNL A   1      44.689  27.589  32.988  1.00  0.00     0.049 A 
ATOM     53  H   UNL A   1      42.955  28.080  31.887  1.00  0.00     0.167 HD
ATOM     54  C   UNL A   1      44.647  25.930  31.146  1.00  0.00     0.074 A 
ATOM     55  C   UNL A   1      45.180  24.796  30.420  1.00  0.00     0.031 C 
ATOM     56  C   UNL A   1      45.222  26.464  32.254  1.00  0.00     0.034 A 
BRANCH  43  57
ATOM     57  C   UNL A   1      42.145  31.325  34.574  1.00  0.00     0.023 A 
ATOM     58  C   UNL A   1      41.161  31.349  35.578  1.00  0.00     0.031 A 
ATOM     59  C   UNL A   1      43.084  32.373  34.553  1.00  0.00     0.131 A 
ATOM     60  C   UNL A   1      41.090  32.432  36.467  1.00  0.00     0.055 A 
ATOM     61  C   UNL A   1      43.062  33.403  35.497  1.00  0.00     0.041 A 
ATOM     62  F   UNL A   1      44.036  32.420  33.608  1.00  0.00    -0.206 F 
ATOM     63  C   UNL A   1      42.050  33.446  36.452  1.00  0.00     0.022 A 
BRANCH  60  64
ATOM     64  S   UNL A   1      39.636  32.576  37.543  1.00  0.00     0.124 S 
ATOM     65  O   UNL A   1      39.109  33.881  37.153  1.00  0.00    -0.237 OA
ATOM     66  O   UNL A   1      38.837  31.421  37.150  1.00  0.00    -0.237 OA
ATOM     67  O   UNL A   1      40.200  32.517  38.890  1.00  0.00    -0.744 OA
ENDBRANCH  60  64
ENDBRANCH  43  57
BRANCH  44  68
ATOM     68  C   UNL A   1      42.321  24.404  27.340  1.00  0.00     0.023 A 
ATOM     69  C   UNL A   1      41.512  23.257  27.357  1.00  0.00     0.031 A 
ATOM     70  C   UNL A   1      43.236  24.547  26.280  1.00  0.00     0.131 A 
ATOM     71  C   UNL A   1      41.669  22.274  26.367  1.00  0.00     0.055 A 
ATOM     72  C   UNL A   1      43.344  23.597  25.264  1.00  0.00     0.041 A 
ATOM     73  F   UNL A   1      44.036  25.622  26.213  1.00  0.00    -0.206 F 
ATOM     74  C   UNL A   1      42.568  22.443  25.312  1.00  0.00     0.022 A 
BRANCH  71  75
ATOM     75  S   UNL A   1      40.753  20.716  26.535  1.00  0.00     0.124 S 
ATOM     76  O   UNL A   1      40.893  20.444  27.961  1.00  0.00    -0.237 OA
ATOM     77  O   UNL A   1      39.420  21.100  26.082  1.00  0.00    -0.237 OA
ATOM     78  O   UNL A   1      41.472  19.803  25.649  1.00  0.00    -0.744 OA
ENDBRANCH  71  75
ENDBRANCH  44  68
BRANCH  56  79
ATOM     79  C   UNL A   1      46.471  25.793  32.780  1.00  0.00     0.023 A 
ATOM     80  C   UNL A   1      46.415  24.738  33.708  1.00  0.00     0.031 A 
ATOM     81  C   UNL A   1      47.739  26.224  32.349  1.00  0.00     0.131 A 
ATOM     82  C   UNL A   1      47.603  24.192  34.219  1.00  0.00     0.055 A 
ATOM     83  C   UNL A   1      48.915  25.630  32.808  1.00  0.00     0.041 A 
ATOM     84  F   UNL A   1      47.856  27.232  31.469  1.00  0.00    -0.206 F 
ATOM     85  C   UNL A   1      48.851  24.617  33.760  1.00  0.00     0.022 A 
BRANCH  82  86
ATOM     86  S   UNL A   1      47.496  22.990  35.575  1.00  0.00     0.124 S 
ATOM     87  O   UNL A   1      48.334  21.903  35.080  1.00  0.00    -0.237 OA
ATOM     88  O   UNL A   1      48.031  23.745  36.703  1.00  0.00    -0.237 OA
ATOM     89  O   UNL A   1      46.068  22.687  35.653  1.00  0.00    -0.744 OA
ENDBRANCH  82  86
ENDBRANCH  56  79
ENDBRANCH  30  31
ENDBRANCH  22  25
ENDBRANCH   1  21
TORSDOF 15
ENDMDL
