MODEL 1
REMARK VINA RESULT:     -12.2      0.000      0.000
REMARK SMILES O=C(NCCCNC(=O)c1cc2sc(Cl)cc2s1)c1ccc(-c2c3nc(c(-c4cc(S(=O)(=O)[O-])ccc4F)c4ccc([nH]4)c(-c4cc(S(=O)(=O)[O-])ccc4F)c4nc(c(-c5cc(S(=O)(=O)[O-])ccc5F)c5ccc2[nH]5)C=C4)C=C3)cc1
REMARK SMILES IDX 1 1 2 2 3 3 19 5 20 6 81 7 21 8 80 9 22 10 23 11 24 12 74 13
REMARK SMILES IDX 25 14 79 15 73 16 75 17 26 18 78 19 72 20 71 21 27 23 59 24
REMARK SMILES IDX 39 25 58 26 40 27 43 28 57 29 76 30 41 31 42 32 56 34 77 35
REMARK SMILES IDX 44 36 28 37 29 38 37 39 30 40 36 41 38 42 35 43 31 44 32 45
REMARK SMILES IDX 33 46 34 47 60 48 61 49 69 50 62 51 68 52 70 53 67 54 63 55
REMARK SMILES IDX 64 56 65 57 66 58 45 59 46 60 54 61 47 62 53 63 55 64 52 65
REMARK SMILES IDX 48 66 49 67 50 68 51 69 4 70 5 71 6 72 7 73 8 74 9 76 10 77
REMARK SMILES IDX 11 78 18 79 12 80 17 81 13 82 16 83 14 84 15 85
REMARK H PARENT 3 4 75 22 43 33 7 75
REMARK Flexibility Score: inf
ROOT
ATOM      1  O   UNL A   1      35.062  32.834  29.824  1.00  0.00    -0.269 OA
ATOM      2  C   UNL A   1      35.283  31.794  29.195  1.00  0.00     0.251 C 
ATOM      3  N   UNL A   1      34.260  31.367  28.393  1.00  0.00    -0.352 N 
ATOM      4  H   UNL A   1      33.422  31.859  28.556  1.00  0.00     0.163 HD
ENDROOT
BRANCH   2   5
ATOM      5  C   UNL A   1      36.581  31.091  29.398  1.00  0.00     0.039 A 
ATOM      6  C   UNL A   1      37.842  31.689  29.419  1.00  0.00     0.014 A 
ATOM      7  C   UNL A   1      36.505  29.693  29.544  1.00  0.00     0.014 A 
ATOM      8  C   UNL A   1      38.996  30.908  29.503  1.00  0.00     0.010 A 
ATOM      9  C   UNL A   1      37.652  28.910  29.647  1.00  0.00     0.010 A 
ATOM     10  C   UNL A   1      38.905  29.517  29.595  1.00  0.00    -0.014 A 
BRANCH  10  11
ATOM     11  C   UNL A   1      40.137  28.748  29.791  1.00  0.00     0.031 A 
ATOM     12  C   UNL A   1      40.552  28.557  31.212  1.00  0.00     0.074 A 
ATOM     13  C   UNL A   1      40.779  28.087  28.807  1.00  0.00     0.049 A 
ATOM     14  N   UNL A   1      41.672  28.872  31.778  1.00  0.00    -0.248 NA
ATOM     15  C   UNL A   1      39.548  28.020  32.144  1.00  0.00     0.031 C 
ATOM     16  C   UNL A   1      40.343  27.911  27.421  1.00  0.00     0.029 A 
ATOM     17  N   UNL A   1      41.911  27.323  28.875  1.00  0.00    -0.354 N 
ATOM     18  C   UNL A   1      41.598  28.392  33.087  1.00  0.00     0.074 A 
ATOM     19  C   UNL A   1      40.225  28.018  33.292  1.00  0.00     0.031 C 
ATOM     20  C   UNL A   1      41.066  26.923  26.849  1.00  0.00     0.029 A 
ATOM     21  C   UNL A   1      42.093  26.484  27.780  1.00  0.00     0.049 A 
ATOM     22  H   UNL A   1      42.540  27.363  29.632  1.00  0.00     0.167 HD
ATOM     23  C   UNL A   1      42.714  28.161  33.836  1.00  0.00     0.034 A 
ATOM     24  C   UNL A   1      42.970  25.450  27.666  1.00  0.00     0.034 A 
ATOM     25  C   UNL A   1      43.847  28.897  33.324  1.00  0.00     0.049 A 
ATOM     26  C   UNL A   1      44.049  25.666  28.658  1.00  0.00     0.074 A 
ATOM     27  C   UNL A   1      44.107  30.235  33.091  1.00  0.00     0.029 A 
ATOM     28  N   UNL A   1      44.836  28.216  32.651  1.00  0.00    -0.354 N 
ATOM     29  N   UNL A   1      44.902  26.650  28.598  1.00  0.00    -0.248 NA
ATOM     30  C   UNL A   1      43.924  25.035  29.964  1.00  0.00     0.031 C 
ATOM     31  C   UNL A   1      44.888  30.255  31.898  1.00  0.00     0.029 A 
ATOM     32  C   UNL A   1      45.103  28.932  31.512  1.00  0.00     0.049 A 
ATOM     33  H   UNL A   1      45.270  27.379  32.934  1.00  0.00     0.167 HD
ATOM     34  C   UNL A   1      45.094  27.039  29.912  1.00  0.00     0.074 A 
ATOM     35  C   UNL A   1      44.559  25.941  30.712  1.00  0.00     0.031 C 
ATOM     36  C   UNL A   1      45.415  28.328  30.232  1.00  0.00     0.034 A 
BRANCH  23  37
ATOM     37  C   UNL A   1      42.877  27.009  34.815  1.00  0.00     0.023 A 
ATOM     38  C   UNL A   1      43.676  25.924  34.397  1.00  0.00     0.031 A 
ATOM     39  C   UNL A   1      42.081  26.768  35.956  1.00  0.00     0.131 A 
ATOM     40  C   UNL A   1      43.545  24.655  34.985  1.00  0.00     0.055 A 
ATOM     41  C   UNL A   1      42.012  25.520  36.588  1.00  0.00     0.041 A 
ATOM     42  F   UNL A   1      41.263  27.686  36.482  1.00  0.00    -0.206 F 
ATOM     43  C   UNL A   1      42.711  24.442  36.076  1.00  0.00     0.022 A 
BRANCH  40  44
ATOM     44  S   UNL A   1      44.311  23.244  34.144  1.00  0.00     0.124 S 
ATOM     45  O   UNL A   1      43.320  22.947  33.116  1.00  0.00    -0.237 OA
ATOM     46  O   UNL A   1      45.569  23.821  33.681  1.00  0.00    -0.237 OA
ATOM     47  O   UNL A   1      44.433  22.246  35.203  1.00  0.00    -0.744 OA
ENDBRANCH  40  44
ENDBRANCH  23  37
BRANCH  24  48
ATOM     48  C   UNL A   1      42.740  24.158  26.963  1.00  0.00     0.023 A 
ATOM     49  C   UNL A   1      43.677  23.586  26.077  1.00  0.00     0.031 A 
ATOM     50  C   UNL A   1      41.649  23.343  27.344  1.00  0.00     0.131 A 
ATOM     51  C   UNL A   1      43.492  22.264  25.604  1.00  0.00     0.055 A 
ATOM     52  C   UNL A   1      41.467  22.045  26.866  1.00  0.00     0.041 A 
ATOM     53  F   UNL A   1      40.764  23.752  28.267  1.00  0.00    -0.206 F 
ATOM     54  C   UNL A   1      42.393  21.497  25.996  1.00  0.00     0.022 A 
BRANCH  51  55
ATOM     55  S   UNL A   1      44.743  21.481  24.534  1.00  0.00     0.124 S 
ATOM     56  O   UNL A   1      44.263  20.107  24.449  1.00  0.00    -0.237 OA
ATOM     57  O   UNL A   1      44.656  22.277  23.315  1.00  0.00    -0.237 OA
ATOM     58  O   UNL A   1      45.988  21.650  25.285  1.00  0.00    -0.744 OA
ENDBRANCH  51  55
ENDBRANCH  24  48
BRANCH  36  59
ATOM     59  C   UNL A   1      45.883  29.258  29.133  1.00  0.00     0.023 A 
ATOM     60  C   UNL A   1      45.032  30.083  28.365  1.00  0.00     0.031 A 
ATOM     61  C   UNL A   1      47.271  29.402  28.952  1.00  0.00     0.131 A 
ATOM     62  C   UNL A   1      45.580  31.000  27.448  1.00  0.00     0.055 A 
ATOM     63  C   UNL A   1      47.810  30.323  28.055  1.00  0.00     0.041 A 
ATOM     64  F   UNL A   1      48.133  28.671  29.677  1.00  0.00    -0.206 F 
ATOM     65  C   UNL A   1      46.965  31.122  27.295  1.00  0.00     0.022 A 
BRANCH  62  66
ATOM     66  S   UNL A   1      44.495  32.053  26.433  1.00  0.00     0.124 S 
ATOM     67  O   UNL A   1      45.372  32.523  25.368  1.00  0.00    -0.237 OA
ATOM     68  O   UNL A   1      43.438  31.127  26.033  1.00  0.00    -0.237 OA
ATOM     69  O   UNL A   1      44.063  33.095  27.369  1.00  0.00    -0.744 OA
ENDBRANCH  62  66
ENDBRANCH  36  59
ENDBRANCH  10  11
ENDBRANCH   2   5
BRANCH   3  70
ATOM     70  C   UNL A   1      34.122  30.361  27.361  1.00  0.00     0.118 C 
BRANCH  70  71
ATOM     71  C   UNL A   1      32.726  30.240  26.748  1.00  0.00     0.042 C 
BRANCH  71  72
ATOM     72  C   UNL A   1      32.685  29.711  25.315  1.00  0.00     0.118 C 
BRANCH  72  73
ATOM     73  N   UNL A   1      31.407  29.939  24.667  1.00  0.00    -0.351 N 
ATOM     74  C   UNL A   1      30.598  29.093  23.941  1.00  0.00     0.261 C 
ATOM     75  H   UNL A   1      31.059  30.855  24.761  1.00  0.00     0.163 HD
ATOM     76  O   UNL A   1      29.641  29.608  23.362  1.00  0.00    -0.268 OA
BRANCH  74  77
ATOM     77  C   UNL A   1      30.889  27.669  23.900  1.00  0.00     0.094 A 
ATOM     78  C   UNL A   1      30.600  26.692  24.831  1.00  0.00     0.045 A 
ATOM     79  S   UNL A   1      31.614  27.043  22.470  1.00  0.00    -0.129 S 
ATOM     80  C   UNL A   1      31.060  25.412  24.397  1.00  0.00     0.047 A 
ATOM     81  C   UNL A   1      31.631  25.441  23.155  1.00  0.00     0.047 A 
ATOM     82  S   UNL A   1      31.058  23.803  25.079  1.00  0.00    -0.122 S 
ATOM     83  C   UNL A   1      32.092  24.161  22.723  1.00  0.00     0.052 A 
ATOM     84  C   UNL A   1      31.838  23.227  23.691  1.00  0.00     0.095 A 
ATOM     85  Cl  UNL A   1      32.229  21.553  23.590  1.00  0.00    -0.072 Cl
ENDBRANCH  74  77
ENDBRANCH  72  73
ENDBRANCH  71  72
ENDBRANCH  70  71
ENDBRANCH   3  70
TORSDOF 13
ENDMDL
MODEL 2
REMARK VINA RESULT:     -12.2      3.919      9.705
REMARK SMILES O=C(NCCCNC(=O)c1cc2sc(Cl)cc2s1)c1ccc(-c2c3nc(c(-c4cc(S(=O)(=O)[O-])ccc4F)c4ccc([nH]4)c(-c4cc(S(=O)(=O)[O-])ccc4F)c4nc(c(-c5cc(S(=O)(=O)[O-])ccc5F)c5ccc2[nH]5)C=C4)C=C3)cc1
REMARK SMILES IDX 1 1 2 2 3 3 19 5 20 6 81 7 21 8 80 9 22 10 23 11 24 12 74 13
REMARK SMILES IDX 25 14 79 15 73 16 75 17 26 18 78 19 72 20 71 21 27 23 59 24
REMARK SMILES IDX 39 25 58 26 40 27 43 28 57 29 76 30 41 31 42 32 56 34 77 35
REMARK SMILES IDX 44 36 28 37 29 38 37 39 30 40 36 41 38 42 35 43 31 44 32 45
REMARK SMILES IDX 33 46 34 47 60 48 61 49 69 50 62 51 68 52 70 53 67 54 63 55
REMARK SMILES IDX 64 56 65 57 66 58 45 59 46 60 54 61 47 62 53 63 55 64 52 65
REMARK SMILES IDX 48 66 49 67 50 68 51 69 4 70 5 71 6 72 7 73 8 74 9 76 10 77
REMARK SMILES IDX 11 78 18 79 12 80 17 81 13 82 16 83 14 84 15 85
REMARK H PARENT 3 4 75 22 43 33 7 75
REMARK Flexibility Score: inf
ROOT
ATOM      1  O   UNL A   1      41.312  21.980  27.240  1.00  0.00    -0.269 OA
ATOM      2  C   UNL A   1      40.359  22.718  26.967  1.00  0.00     0.251 C 
ATOM      3  N   UNL A   1      39.403  22.165  26.159  1.00  0.00    -0.352 N 
ATOM      4  H   UNL A   1      39.690  21.308  25.768  1.00  0.00     0.163 HD
ENDROOT
BRANCH   2   5
ATOM      5  C   UNL A   1      40.361  24.117  27.483  1.00  0.00     0.039 A 
ATOM      6  C   UNL A   1      39.388  25.084  27.229  1.00  0.00     0.014 A 
ATOM      7  C   UNL A   1      41.474  24.482  28.264  1.00  0.00     0.014 A 
ATOM      8  C   UNL A   1      39.558  26.396  27.674  1.00  0.00     0.010 A 
ATOM      9  C   UNL A   1      41.641  25.784  28.727  1.00  0.00     0.010 A 
ATOM     10  C   UNL A   1      40.694  26.754  28.405  1.00  0.00    -0.014 A 
BRANCH  10  11
ATOM     11  C   UNL A   1      40.777  28.114  28.944  1.00  0.00     0.031 A 
ATOM     12  C   UNL A   1      41.886  28.951  28.398  1.00  0.00     0.074 A 
ATOM     13  C   UNL A   1      39.837  28.673  29.733  1.00  0.00     0.049 A 
ATOM     14  N   UNL A   1      42.833  29.558  29.038  1.00  0.00    -0.248 NA
ATOM     15  C   UNL A   1      42.001  29.053  26.935  1.00  0.00     0.031 C 
ATOM     16  C   UNL A   1      38.542  28.106  30.111  1.00  0.00     0.029 A 
ATOM     17  N   UNL A   1      39.795  29.929  30.269  1.00  0.00    -0.354 N 
ATOM     18  C   UNL A   1      43.546  30.285  28.083  1.00  0.00     0.074 A 
ATOM     19  C   UNL A   1      43.084  29.817  26.805  1.00  0.00     0.031 C 
ATOM     20  C   UNL A   1      37.759  29.086  30.615  1.00  0.00     0.029 A 
ATOM     21  C   UNL A   1      38.533  30.313  30.711  1.00  0.00     0.049 A 
ATOM     22  H   UNL A   1      40.587  30.511  30.337  1.00  0.00     0.167 HD
ATOM     23  C   UNL A   1      44.324  31.353  28.422  1.00  0.00     0.034 A 
ATOM     24  C   UNL A   1      38.122  31.561  31.061  1.00  0.00     0.034 A 
ATOM     25  C   UNL A   1      44.684  31.313  29.821  1.00  0.00     0.049 A 
ATOM     26  C   UNL A   1      39.328  32.353  31.397  1.00  0.00     0.074 A 
ATOM     27  C   UNL A   1      45.338  30.400  30.627  1.00  0.00     0.029 A 
ATOM     28  N   UNL A   1      44.076  32.189  30.692  1.00  0.00    -0.354 N 
ATOM     29  N   UNL A   1      40.092  32.106  32.425  1.00  0.00    -0.248 NA
ATOM     30  C   UNL A   1      39.939  33.161  30.353  1.00  0.00     0.031 C 
ATOM     31  C   UNL A   1      44.664  30.467  31.882  1.00  0.00     0.029 A 
ATOM     32  C   UNL A   1      43.684  31.455  31.781  1.00  0.00     0.049 A 
ATOM     33  H   UNL A   1      43.950  33.156  30.559  1.00  0.00     0.167 HD
ATOM     34  C   UNL A   1      41.380  32.348  31.981  1.00  0.00     0.074 A 
ATOM     35  C   UNL A   1      41.216  33.100  30.740  1.00  0.00     0.031 C 
ATOM     36  C   UNL A   1      42.451  31.682  32.508  1.00  0.00     0.034 A 
BRANCH  23  37
ATOM     37  C   UNL A   1      44.476  32.614  27.587  1.00  0.00     0.023 A 
ATOM     38  C   UNL A   1      43.807  33.768  28.047  1.00  0.00     0.031 A 
ATOM     39  C   UNL A   1      44.952  32.681  26.259  1.00  0.00     0.131 A 
ATOM     40  C   UNL A   1      43.499  34.826  27.175  1.00  0.00     0.055 A 
ATOM     41  C   UNL A   1      44.710  33.773  25.417  1.00  0.00     0.041 A 
ATOM     42  F   UNL A   1      45.604  31.675  25.667  1.00  0.00    -0.206 F 
ATOM     43  C   UNL A   1      43.940  34.834  25.858  1.00  0.00     0.022 A 
BRANCH  40  44
ATOM     44  S   UNL A   1      42.313  36.076  27.739  1.00  0.00     0.124 S 
ATOM     45  O   UNL A   1      41.044  35.457  27.372  1.00  0.00    -0.237 OA
ATOM     46  O   UNL A   1      42.610  36.145  29.166  1.00  0.00    -0.237 OA
ATOM     47  O   UNL A   1      42.678  37.260  26.965  1.00  0.00    -0.744 OA
ENDBRANCH  40  44
ENDBRANCH  23  37
BRANCH  24  48
ATOM     48  C   UNL A   1      36.783  32.162  30.813  1.00  0.00     0.023 A 
ATOM     49  C   UNL A   1      35.963  32.668  31.844  1.00  0.00     0.031 A 
ATOM     50  C   UNL A   1      36.383  32.450  29.487  1.00  0.00     0.131 A 
ATOM     51  C   UNL A   1      34.799  33.411  31.526  1.00  0.00     0.055 A 
ATOM     52  C   UNL A   1      35.229  33.172  29.181  1.00  0.00     0.041 A 
ATOM     53  F   UNL A   1      37.152  32.110  28.440  1.00  0.00    -0.206 F 
ATOM     54  C   UNL A   1      34.434  33.662  30.201  1.00  0.00     0.022 A 
BRANCH  51  55
ATOM     55  S   UNL A   1      33.784  34.150  32.848  1.00  0.00     0.124 S 
ATOM     56  O   UNL A   1      34.794  34.654  33.770  1.00  0.00    -0.237 OA
ATOM     57  O   UNL A   1      33.007  35.149  32.124  1.00  0.00    -0.237 OA
ATOM     58  O   UNL A   1      33.004  33.018  33.351  1.00  0.00    -0.744 OA
ENDBRANCH  51  55
ENDBRANCH  24  48
BRANCH  36  59
ATOM     59  C   UNL A   1      42.269  30.919  33.803  1.00  0.00     0.023 A 
ATOM     60  C   UNL A   1      42.041  29.528  33.889  1.00  0.00     0.031 A 
ATOM     61  C   UNL A   1      42.468  31.624  35.004  1.00  0.00     0.131 A 
ATOM     62  C   UNL A   1      42.005  28.897  35.147  1.00  0.00     0.055 A 
ATOM     63  C   UNL A   1      42.450  30.993  36.247  1.00  0.00     0.041 A 
ATOM     64  F   UNL A   1      42.725  32.942  34.987  1.00  0.00    -0.206 F 
ATOM     65  C   UNL A   1      42.212  29.626  36.323  1.00  0.00     0.022 A 
BRANCH  62  66
ATOM     66  S   UNL A   1      41.687  27.108  35.275  1.00  0.00     0.124 S 
ATOM     67  O   UNL A   1      40.614  26.881  34.315  1.00  0.00    -0.237 OA
ATOM     68  O   UNL A   1      42.985  26.531  34.935  1.00  0.00    -0.237 OA
ATOM     69  O   UNL A   1      41.296  26.933  36.677  1.00  0.00    -0.744 OA
ENDBRANCH  62  66
ENDBRANCH  36  59
ENDBRANCH  10  11
ENDBRANCH   2   5
BRANCH   3  70
ATOM     70  C   UNL A   1      38.069  22.548  25.745  1.00  0.00     0.118 C 
BRANCH  70  71
ATOM     71  C   UNL A   1      37.182  21.401  25.260  1.00  0.00     0.042 C 
BRANCH  71  72
ATOM     72  C   UNL A   1      35.748  21.415  25.788  1.00  0.00     0.118 C 
BRANCH  72  73
ATOM     73  N   UNL A   1      34.973  20.273  25.344  1.00  0.00    -0.351 N 
ATOM     74  C   UNL A   1      33.645  20.161  24.994  1.00  0.00     0.261 C 
ATOM     75  H   UNL A   1      35.482  19.432  25.284  1.00  0.00     0.163 HD
ATOM     76  O   UNL A   1      33.216  19.020  24.816  1.00  0.00    -0.268 OA
BRANCH  74  77
ATOM     77  C   UNL A   1      32.832  21.356  24.842  1.00  0.00     0.094 A 
ATOM     78  C   UNL A   1      32.315  22.189  25.815  1.00  0.00     0.045 A 
ATOM     79  S   UNL A   1      32.516  21.910  23.244  1.00  0.00    -0.129 S 
ATOM     80  C   UNL A   1      31.571  23.261  25.235  1.00  0.00     0.047 A 
ATOM     81  C   UNL A   1      31.581  23.242  23.868  1.00  0.00     0.047 A 
ATOM     82  S   UNL A   1      30.650  24.607  25.864  1.00  0.00    -0.122 S 
ATOM     83  C   UNL A   1      30.835  24.312  23.289  1.00  0.00     0.052 A 
ATOM     84  C   UNL A   1      30.294  25.087  24.280  1.00  0.00     0.095 A 
ATOM     85  Cl  UNL A   1      29.317  26.484  24.034  1.00  0.00    -0.072 Cl
ENDBRANCH  74  77
ENDBRANCH  72  73
ENDBRANCH  71  72
ENDBRANCH  70  71
ENDBRANCH   3  70
TORSDOF 13
ENDMDL
MODEL 3
REMARK VINA RESULT:     -12.1      4.207      5.762
REMARK SMILES O=C(NCCCNC(=O)c1cc2sc(Cl)cc2s1)c1ccc(-c2c3nc(c(-c4cc(S(=O)(=O)[O-])ccc4F)c4ccc([nH]4)c(-c4cc(S(=O)(=O)[O-])ccc4F)c4nc(c(-c5cc(S(=O)(=O)[O-])ccc5F)c5ccc2[nH]5)C=C4)C=C3)cc1
REMARK SMILES IDX 1 1 2 2 3 3 19 5 20 6 81 7 21 8 80 9 22 10 23 11 24 12 74 13
REMARK SMILES IDX 25 14 79 15 73 16 75 17 26 18 78 19 72 20 71 21 27 23 59 24
REMARK SMILES IDX 39 25 58 26 40 27 43 28 57 29 76 30 41 31 42 32 56 34 77 35
REMARK SMILES IDX 44 36 28 37 29 38 37 39 30 40 36 41 38 42 35 43 31 44 32 45
REMARK SMILES IDX 33 46 34 47 60 48 61 49 69 50 62 51 68 52 70 53 67 54 63 55
REMARK SMILES IDX 64 56 65 57 66 58 45 59 46 60 54 61 47 62 53 63 55 64 52 65
REMARK SMILES IDX 48 66 49 67 50 68 51 69 4 70 5 71 6 72 7 73 8 74 9 76 10 77
REMARK SMILES IDX 11 78 18 79 12 80 17 81 13 82 16 83 14 84 15 85
REMARK H PARENT 3 4 75 22 43 33 7 75
REMARK Flexibility Score: inf
ROOT
ATOM      1  O   UNL A   1      34.746  31.002  27.347  1.00  0.00    -0.269 OA
ATOM      2  C   UNL A   1      35.510  31.524  28.165  1.00  0.00     0.251 C 
ATOM      3  N   UNL A   1      35.126  32.756  28.620  1.00  0.00    -0.352 N 
ATOM      4  H   UNL A   1      34.376  33.132  28.105  1.00  0.00     0.163 HD
ENDROOT
BRANCH   2   5
ATOM      5  C   UNL A   1      36.767  30.812  28.533  1.00  0.00     0.039 A 
ATOM      6  C   UNL A   1      37.921  31.403  29.049  1.00  0.00     0.014 A 
ATOM      7  C   UNL A   1      36.778  29.424  28.296  1.00  0.00     0.014 A 
ATOM      8  C   UNL A   1      39.077  30.646  29.247  1.00  0.00     0.010 A 
ATOM      9  C   UNL A   1      37.923  28.661  28.509  1.00  0.00     0.010 A 
ATOM     10  C   UNL A   1      39.088  29.280  28.958  1.00  0.00    -0.014 A 
BRANCH  10  11
ATOM     11  C   UNL A   1      40.288  28.506  29.285  1.00  0.00     0.031 A 
ATOM     12  C   UNL A   1      40.633  28.444  30.736  1.00  0.00     0.074 A 
ATOM     13  C   UNL A   1      40.957  27.739  28.400  1.00  0.00     0.049 A 
ATOM     14  N   UNL A   1      41.734  28.786  31.323  1.00  0.00    -0.248 NA
ATOM     15  C   UNL A   1      39.574  28.020  31.665  1.00  0.00     0.031 C 
ATOM     16  C   UNL A   1      40.579  27.441  27.018  1.00  0.00     0.029 A 
ATOM     17  N   UNL A   1      42.063  26.960  28.595  1.00  0.00    -0.354 N 
ATOM     18  C   UNL A   1      41.587  28.436  32.666  1.00  0.00     0.074 A 
ATOM     19  C   UNL A   1      40.197  28.114  32.839  1.00  0.00     0.031 C 
ATOM     20  C   UNL A   1      41.302  26.386  26.578  1.00  0.00     0.029 A 
ATOM     21  C   UNL A   1      42.273  26.016  27.595  1.00  0.00     0.049 A 
ATOM     22  H   UNL A   1      42.658  27.059  29.373  1.00  0.00     0.167 HD
ATOM     23  C   UNL A   1      42.661  28.253  33.486  1.00  0.00     0.034 A 
ATOM     24  C   UNL A   1      43.126  24.957  27.621  1.00  0.00     0.034 A 
ATOM     25  C   UNL A   1      43.836  28.911  32.962  1.00  0.00     0.049 A 
ATOM     26  C   UNL A   1      44.163  25.242  28.639  1.00  0.00     0.074 A 
ATOM     27  C   UNL A   1      44.142  30.214  32.615  1.00  0.00     0.029 A 
ATOM     28  N   UNL A   1      44.837  28.147  32.404  1.00  0.00    -0.354 N 
ATOM     29  N   UNL A   1      45.044  26.197  28.526  1.00  0.00    -0.248 NA
ATOM     30  C   UNL A   1      43.963  24.744  29.991  1.00  0.00     0.031 C 
ATOM     31  C   UNL A   1      44.976  30.102  31.464  1.00  0.00     0.029 A 
ATOM     32  C   UNL A   1      45.174  28.744  31.217  1.00  0.00     0.049 A 
ATOM     33  H   UNL A   1      45.234  27.331  32.786  1.00  0.00     0.167 HD
ATOM     34  C   UNL A   1      45.187  26.706  29.806  1.00  0.00     0.074 A 
ATOM     35  C   UNL A   1      44.587  25.703  30.680  1.00  0.00     0.031 C 
ATOM     36  C   UNL A   1      45.528  28.013  30.017  1.00  0.00     0.034 A 
BRANCH  23  37
ATOM     37  C   UNL A   1      42.749  27.197  34.577  1.00  0.00     0.023 A 
ATOM     38  C   UNL A   1      43.553  26.069  34.311  1.00  0.00     0.031 A 
ATOM     39  C   UNL A   1      41.884  27.074  35.687  1.00  0.00     0.131 A 
ATOM     40  C   UNL A   1      43.368  24.863  35.007  1.00  0.00     0.055 A 
ATOM     41  C   UNL A   1      41.759  25.893  36.427  1.00  0.00     0.041 A 
ATOM     42  F   UNL A   1      41.053  28.046  36.075  1.00  0.00    -0.206 F 
ATOM     43  C   UNL A   1      42.469  24.763  36.061  1.00  0.00     0.022 A 
BRANCH  40  44
ATOM     44  S   UNL A   1      44.159  23.370  34.349  1.00  0.00     0.124 S 
ATOM     45  O   UNL A   1      45.404  23.913  33.818  1.00  0.00    -0.237 OA
ATOM     46  O   UNL A   1      44.273  22.543  35.545  1.00  0.00    -0.237 OA
ATOM     47  O   UNL A   1      43.206  22.897  33.348  1.00  0.00    -0.744 OA
ENDBRANCH  40  44
ENDBRANCH  23  37
BRANCH  24  48
ATOM     48  C   UNL A   1      42.893  23.609  27.034  1.00  0.00     0.023 A 
ATOM     49  C   UNL A   1      43.828  22.961  26.198  1.00  0.00     0.031 A 
ATOM     50  C   UNL A   1      41.804  22.830  27.488  1.00  0.00     0.131 A 
ATOM     51  C   UNL A   1      43.642  21.604  25.842  1.00  0.00     0.055 A 
ATOM     52  C   UNL A   1      41.620  21.495  27.124  1.00  0.00     0.041 A 
ATOM     53  F   UNL A   1      40.922  23.318  28.374  1.00  0.00    -0.206 F 
ATOM     54  C   UNL A   1      42.544  20.873  26.303  1.00  0.00     0.022 A 
BRANCH  51  55
ATOM     55  S   UNL A   1      44.889  20.730  24.840  1.00  0.00     0.124 S 
ATOM     56  O   UNL A   1      44.565  19.331  25.092  1.00  0.00    -0.237 OA
ATOM     57  O   UNL A   1      44.618  21.228  23.497  1.00  0.00    -0.237 OA
ATOM     58  O   UNL A   1      46.160  21.177  25.412  1.00  0.00    -0.744 OA
ENDBRANCH  51  55
ENDBRANCH  24  48
BRANCH  36  59
ATOM     59  C   UNL A   1      46.070  28.822  28.857  1.00  0.00     0.023 A 
ATOM     60  C   UNL A   1      47.429  28.862  28.475  1.00  0.00     0.031 A 
ATOM     61  C   UNL A   1      45.139  29.475  28.030  1.00  0.00     0.131 A 
ATOM     62  C   UNL A   1      47.813  29.551  27.309  1.00  0.00     0.055 A 
ATOM     63  C   UNL A   1      45.520  30.142  26.866  1.00  0.00     0.041 A 
ATOM     64  F   UNL A   1      43.828  29.443  28.321  1.00  0.00    -0.206 F 
ATOM     65  C   UNL A   1      46.860  30.187  26.504  1.00  0.00     0.022 A 
BRANCH  62  66
ATOM     66  S   UNL A   1      49.564  29.633  26.816  1.00  0.00     0.124 S 
ATOM     67  O   UNL A   1      50.274  29.141  27.990  1.00  0.00    -0.237 OA
ATOM     68  O   UNL A   1      49.601  28.772  25.636  1.00  0.00    -0.237 OA
ATOM     69  O   UNL A   1      49.770  31.056  26.533  1.00  0.00    -0.744 OA
ENDBRANCH  62  66
ENDBRANCH  36  59
ENDBRANCH  10  11
ENDBRANCH   2   5
BRANCH   3  70
ATOM     70  C   UNL A   1      35.567  33.636  29.683  1.00  0.00     0.118 C 
BRANCH  70  71
ATOM     71  C   UNL A   1      34.647  33.697  30.903  1.00  0.00     0.042 C 
BRANCH  71  72
ATOM     72  C   UNL A   1      34.775  32.526  31.878  1.00  0.00     0.118 C 
BRANCH  72  73
ATOM     73  N   UNL A   1      35.019  32.954  33.242  1.00  0.00    -0.351 N 
ATOM     74  C   UNL A   1      36.195  33.147  33.933  1.00  0.00     0.261 C 
ATOM     75  H   UNL A   1      34.205  33.136  33.765  1.00  0.00     0.163 HD
ATOM     76  O   UNL A   1      36.097  33.353  35.143  1.00  0.00    -0.268 OA
BRANCH  74  77
ATOM     77  C   UNL A   1      37.465  33.112  33.226  1.00  0.00     0.094 A 
ATOM     78  C   UNL A   1      38.004  34.039  32.356  1.00  0.00     0.045 A 
ATOM     79  S   UNL A   1      38.527  31.799  33.552  1.00  0.00    -0.129 S 
ATOM     80  C   UNL A   1      39.283  33.620  31.880  1.00  0.00     0.047 A 
ATOM     81  C   UNL A   1      39.695  32.436  32.426  1.00  0.00     0.047 A 
ATOM     82  S   UNL A   1      40.461  34.270  30.765  1.00  0.00    -0.122 S 
ATOM     83  C   UNL A   1      40.973  32.015  31.949  1.00  0.00     0.052 A 
ATOM     84  C   UNL A   1      41.454  32.929  31.051  1.00  0.00     0.095 A 
ATOM     85  Cl  UNL A   1      42.963  32.820  30.226  1.00  0.00    -0.072 Cl
ENDBRANCH  74  77
ENDBRANCH  72  73
ENDBRANCH  71  72
ENDBRANCH  70  71
ENDBRANCH   3  70
TORSDOF 13
ENDMDL
