MODEL 1
REMARK VINA RESULT:     -12.8      0.000      0.000
REMARK SMILES Cc1cc(Cl)c2c(c1)C=C(C(=O)NCCCNC(=O)c1ccc(-c3c4nc(c(-c5cc(S(=O)(=O)[O-])ccc5F)c5ccc([nH]5)c(-c5cc(S(=O)(=O)[O-])ccc5F)c5nc(c(-c6cc(S(=O)(=O)[O-])ccc6F)c6ccc3[nH]6)C=C5)C=C4)cc1)[C@@H](C(F)(F)F)O2
REMARK SMILES IDX 16 1 15 2 14 3 13 4 11 5 12 6 10 8 1 9 2 10 3 11 8 12 4 13
REMARK SMILES IDX 7 14 5 15 6 16 9 17 88 18 83 19 84 20 85 21 86 22 87 23
REMARK SMILES IDX 17 24 18 25 19 27 20 28 21 29 82 30 22 31 81 32 23 33 24 34
REMARK SMILES IDX 25 35 75 36 26 37 80 38 74 39 76 40 27 41 79 42 73 43 72 44
REMARK SMILES IDX 28 46 60 47 40 48 59 49 41 50 44 51 58 52 77 53 42 54 43 55
REMARK SMILES IDX 57 57 78 58 45 59 29 60 30 61 38 62 31 63 37 64 39 65 36 66
REMARK SMILES IDX 32 67 33 68 34 69 35 70 61 71 62 72 70 73 63 74 69 75 71 76
REMARK SMILES IDX 68 77 64 78 65 79 66 80 67 81 46 82 47 83 55 84 48 85 54 86
REMARK SMILES IDX 56 87 53 88 49 89 50 90 51 91 52 92
REMARK H PARENT 13 7 17 26 76 45 44 56
REMARK Flexibility Score: inf
ROOT
ATOM      1  C   UNL A   1      33.247  28.989  25.147  1.00  0.00     0.118 C 
ENDROOT
BRANCH   1   2
ATOM      2  C   UNL A   1      33.262  28.893  23.626  1.00  0.00     0.042 C 
BRANCH   2   3
ATOM      3  C   UNL A   1      32.077  28.109  23.087  1.00  0.00     0.118 C 
BRANCH   3   4
ATOM      4  N   UNL A   1      32.459  27.218  22.000  1.00  0.00    -0.352 N 
ATOM      5  C   UNL A   1      32.920  25.953  21.872  1.00  0.00     0.251 C 
ATOM      6  O   UNL A   1      33.100  25.572  20.709  1.00  0.00    -0.270 OA
ATOM      7  H   UNL A   1      32.354  27.653  21.124  1.00  0.00     0.163 HD
BRANCH   5   8
ATOM      8  C   UNL A   1      33.207  25.025  23.004  1.00  0.00     0.067 C 
ATOM      9  C   UNL A   1      37.465  20.948  24.904  1.00  0.00     0.044 C 
ATOM     10  C   UNL A   1      36.221  21.783  24.977  1.00  0.00    -0.049 A 
ATOM     11  C   UNL A   1      35.416  21.734  26.122  1.00  0.00     0.028 A 
ATOM     12  C   UNL A   1      35.884  22.663  23.940  1.00  0.00     0.015 A 
ATOM     13  C   UNL A   1      34.282  22.540  26.219  1.00  0.00     0.084 A 
ATOM     14  C   UNL A   1      34.743  23.469  24.032  1.00  0.00     0.019 A 
ATOM     15  Cl  UNL A   1      33.319  22.439  27.649  1.00  0.00    -0.080 Cl
ATOM     16  C   UNL A   1      33.940  23.402  25.173  1.00  0.00     0.146 A 
ATOM     17  C   UNL A   1      34.403  24.409  22.969  1.00  0.00     0.025 C 
ATOM     18  O   UNL A   1      32.844  24.205  25.328  1.00  0.00    -0.474 OA
ATOM     19  C   UNL A   1      32.244  24.734  24.118  1.00  0.00     0.314 C 
BRANCH  19  20
ATOM     20  C   UNL A   1      31.093  23.811  23.675  1.00  0.00     0.429 C 
ATOM     21  F   UNL A   1      31.524  22.916  22.753  1.00  0.00    -0.167 F 
ATOM     22  F   UNL A   1      30.579  23.088  24.700  1.00  0.00    -0.167 F 
ATOM     23  F   UNL A   1      30.061  24.494  23.128  1.00  0.00    -0.167 F 
ENDBRANCH  19  20
ENDBRANCH   5   8
ENDBRANCH   3   4
ENDBRANCH   2   3
ENDBRANCH   1   2
BRANCH   1  24
ATOM     24  N   UNL A   1      32.734  30.279  25.600  1.00  0.00    -0.352 N 
ATOM     25  C   UNL A   1      33.051  31.014  26.714  1.00  0.00     0.251 C 
ATOM     26  H   UNL A   1      32.055  30.685  25.014  1.00  0.00     0.163 HD
ATOM     27  O   UNL A   1      32.296  31.917  27.075  1.00  0.00    -0.269 OA
BRANCH  25  28
ATOM     28  C   UNL A   1      34.283  30.722  27.471  1.00  0.00     0.039 A 
ATOM     29  C   UNL A   1      35.244  31.723  27.634  1.00  0.00     0.014 A 
ATOM     30  C   UNL A   1      34.502  29.447  27.996  1.00  0.00     0.014 A 
ATOM     31  C   UNL A   1      36.395  31.458  28.378  1.00  0.00     0.010 A 
ATOM     32  C   UNL A   1      35.597  29.213  28.817  1.00  0.00     0.010 A 
ATOM     33  C   UNL A   1      36.563  30.212  29.004  1.00  0.00    -0.014 A 
BRANCH  33  34
ATOM     34  C   UNL A   1      37.758  29.914  29.830  1.00  0.00     0.031 A 
ATOM     35  C   UNL A   1      38.826  29.000  29.288  1.00  0.00     0.074 A 
ATOM     36  C   UNL A   1      37.853  30.420  31.075  1.00  0.00     0.049 A 
ATOM     37  N   UNL A   1      39.897  28.545  29.882  1.00  0.00    -0.248 NA
ATOM     38  C   UNL A   1      38.654  28.511  27.909  1.00  0.00     0.031 C 
ATOM     39  C   UNL A   1      36.857  31.287  31.714  1.00  0.00     0.029 A 
ATOM     40  N   UNL A   1      38.826  30.279  32.032  1.00  0.00    -0.354 N 
ATOM     41  C   UNL A   1      40.515  27.709  28.959  1.00  0.00     0.074 A 
ATOM     42  C   UNL A   1      39.676  27.675  27.784  1.00  0.00     0.031 C 
ATOM     43  C   UNL A   1      37.287  31.622  32.941  1.00  0.00     0.029 A 
ATOM     44  C   UNL A   1      38.561  30.959  33.199  1.00  0.00     0.049 A 
ATOM     45  H   UNL A   1      39.639  29.741  31.896  1.00  0.00     0.167 HD
ATOM     46  C   UNL A   1      41.692  27.051  29.075  1.00  0.00     0.034 A 
ATOM     47  C   UNL A   1      39.260  31.030  34.349  1.00  0.00     0.034 A 
ATOM     48  C   UNL A   1      42.540  27.132  30.234  1.00  0.00     0.049 A 
ATOM     49  C   UNL A   1      40.563  30.280  34.450  1.00  0.00     0.074 A 
ATOM     50  C   UNL A   1      43.785  26.558  30.424  1.00  0.00     0.029 A 
ATOM     51  N   UNL A   1      42.236  27.829  31.393  1.00  0.00    -0.354 N 
ATOM     52  N   UNL A   1      41.146  29.521  33.552  1.00  0.00    -0.248 NA
ATOM     53  C   UNL A   1      41.304  30.396  35.714  1.00  0.00     0.031 C 
ATOM     54  C   UNL A   1      44.206  26.857  31.721  1.00  0.00     0.029 A 
ATOM     55  C   UNL A   1      43.257  27.674  32.315  1.00  0.00     0.049 A 
ATOM     56  H   UNL A   1      41.417  28.354  31.540  1.00  0.00     0.167 HD
ATOM     57  C   UNL A   1      42.331  29.085  34.136  1.00  0.00     0.074 A 
ATOM     58  C   UNL A   1      42.387  29.676  35.457  1.00  0.00     0.031 C 
ATOM     59  C   UNL A   1      43.287  28.269  33.628  1.00  0.00     0.034 A 
BRANCH  46  60
ATOM     60  C   UNL A   1      42.143  26.191  27.927  1.00  0.00     0.023 A 
ATOM     61  C   UNL A   1      41.736  24.851  27.812  1.00  0.00     0.031 A 
ATOM     62  C   UNL A   1      42.928  26.739  26.899  1.00  0.00     0.131 A 
ATOM     63  C   UNL A   1      42.134  24.096  26.698  1.00  0.00     0.055 A 
ATOM     64  C   UNL A   1      43.274  26.001  25.767  1.00  0.00     0.041 A 
ATOM     65  F   UNL A   1      43.356  28.010  26.972  1.00  0.00    -0.206 F 
ATOM     66  C   UNL A   1      42.877  24.671  25.662  1.00  0.00     0.022 A 
BRANCH  63  67
ATOM     67  S   UNL A   1      41.696  22.339  26.632  1.00  0.00     0.124 S 
ATOM     68  O   UNL A   1      40.237  22.400  26.652  1.00  0.00    -0.237 OA
ATOM     69  O   UNL A   1      42.299  21.906  25.377  1.00  0.00    -0.237 OA
ATOM     70  O   UNL A   1      42.309  21.788  27.839  1.00  0.00    -0.744 OA
ENDBRANCH  63  67
ENDBRANCH  46  60
BRANCH  47  71
ATOM     71  C   UNL A   1      38.739  31.820  35.502  1.00  0.00     0.023 A 
ATOM     72  C   UNL A   1      38.184  31.187  36.624  1.00  0.00     0.031 A 
ATOM     73  C   UNL A   1      38.766  33.226  35.484  1.00  0.00     0.131 A 
ATOM     74  C   UNL A   1      37.644  31.957  37.667  1.00  0.00     0.055 A 
ATOM     75  C   UNL A   1      38.270  33.987  36.544  1.00  0.00     0.041 A 
ATOM     76  F   UNL A   1      39.291  33.883  34.438  1.00  0.00    -0.206 F 
ATOM     77  C   UNL A   1      37.696  33.353  37.640  1.00  0.00     0.022 A 
BRANCH  74  78
ATOM     78  S   UNL A   1      36.812  31.107  39.037  1.00  0.00     0.124 S 
ATOM     79  O   UNL A   1      35.594  31.895  39.178  1.00  0.00    -0.237 OA
ATOM     80  O   UNL A   1      36.648  29.759  38.502  1.00  0.00    -0.237 OA
ATOM     81  O   UNL A   1      37.765  31.225  40.138  1.00  0.00    -0.744 OA
ENDBRANCH  74  78
ENDBRANCH  47  71
BRANCH  59  82
ATOM     82  C   UNL A   1      44.488  27.985  34.489  1.00  0.00     0.023 A 
ATOM     83  C   UNL A   1      44.507  26.899  35.378  1.00  0.00     0.031 A 
ATOM     84  C   UNL A   1      45.647  28.771  34.368  1.00  0.00     0.131 A 
ATOM     85  C   UNL A   1      45.657  26.642  36.136  1.00  0.00     0.055 A 
ATOM     86  C   UNL A   1      46.805  28.482  35.088  1.00  0.00     0.041 A 
ATOM     87  F   UNL A   1      45.678  29.817  33.527  1.00  0.00    -0.206 F 
ATOM     88  C   UNL A   1      46.812  27.414  35.983  1.00  0.00     0.022 A 
BRANCH  85  89
ATOM     89  S   UNL A   1      45.613  25.300  37.353  1.00  0.00     0.124 S 
ATOM     90  O   UNL A   1      46.453  25.834  38.421  1.00  0.00    -0.237 OA
ATOM     91  O   UNL A   1      44.189  25.193  37.656  1.00  0.00    -0.237 OA
ATOM     92  O   UNL A   1      46.179  24.162  36.630  1.00  0.00    -0.744 OA
ENDBRANCH  85  89
ENDBRANCH  59  82
ENDBRANCH  33  34
ENDBRANCH  25  28
ENDBRANCH   1  24
TORSDOF 14
ENDMDL
MODEL 2
REMARK VINA RESULT:     -12.7      1.319      1.698
REMARK SMILES Cc1cc(Cl)c2c(c1)C=C(C(=O)NCCCNC(=O)c1ccc(-c3c4nc(c(-c5cc(S(=O)(=O)[O-])ccc5F)c5ccc([nH]5)c(-c5cc(S(=O)(=O)[O-])ccc5F)c5nc(c(-c6cc(S(=O)(=O)[O-])ccc6F)c6ccc3[nH]6)C=C5)C=C4)cc1)[C@@H](C(F)(F)F)O2
REMARK SMILES IDX 16 1 15 2 14 3 13 4 11 5 12 6 10 8 1 9 2 10 3 11 8 12 4 13
REMARK SMILES IDX 7 14 5 15 6 16 9 17 88 18 83 19 84 20 85 21 86 22 87 23
REMARK SMILES IDX 17 24 18 25 19 27 20 28 21 29 82 30 22 31 81 32 23 33 24 34
REMARK SMILES IDX 25 35 75 36 26 37 80 38 74 39 76 40 27 41 79 42 73 43 72 44
REMARK SMILES IDX 28 46 60 47 40 48 59 49 41 50 44 51 58 52 77 53 42 54 43 55
REMARK SMILES IDX 57 57 78 58 45 59 29 60 30 61 38 62 31 63 37 64 39 65 36 66
REMARK SMILES IDX 32 67 33 68 34 69 35 70 61 71 62 72 70 73 63 74 69 75 71 76
REMARK SMILES IDX 68 77 64 78 65 79 66 80 67 81 46 82 47 83 55 84 48 85 54 86
REMARK SMILES IDX 56 87 53 88 49 89 50 90 51 91 52 92
REMARK H PARENT 13 7 17 26 76 45 44 56
REMARK Flexibility Score: inf
ROOT
ATOM      1  C   UNL A   1      33.375  28.960  25.035  1.00  0.00     0.118 C 
ENDROOT
BRANCH   1   2
ATOM      2  C   UNL A   1      33.279  28.882  23.516  1.00  0.00     0.042 C 
BRANCH   2   3
ATOM      3  C   UNL A   1      32.113  28.022  23.056  1.00  0.00     0.118 C 
BRANCH   3   4
ATOM      4  N   UNL A   1      32.490  27.122  21.975  1.00  0.00    -0.352 N 
ATOM      5  C   UNL A   1      32.941  25.852  21.855  1.00  0.00     0.251 C 
ATOM      6  O   UNL A   1      33.120  25.463  20.696  1.00  0.00    -0.270 OA
ATOM      7  H   UNL A   1      32.389  27.553  21.096  1.00  0.00     0.163 HD
BRANCH   5   8
ATOM      8  C   UNL A   1      33.220  24.929  22.994  1.00  0.00     0.067 C 
ATOM      9  C   UNL A   1      37.418  20.796  24.903  1.00  0.00     0.044 C 
ATOM     10  C   UNL A   1      36.190  21.653  24.976  1.00  0.00    -0.049 A 
ATOM     11  C   UNL A   1      35.391  21.627  26.127  1.00  0.00     0.028 A 
ATOM     12  C   UNL A   1      35.861  22.530  23.933  1.00  0.00     0.015 A 
ATOM     13  C   UNL A   1      34.271  22.453  26.224  1.00  0.00     0.084 A 
ATOM     14  C   UNL A   1      34.734  23.356  24.026  1.00  0.00     0.019 A 
ATOM     15  Cl  UNL A   1      33.315  22.381  27.659  1.00  0.00    -0.080 Cl
ATOM     16  C   UNL A   1      33.938  23.312  25.172  1.00  0.00     0.146 A 
ATOM     17  C   UNL A   1      34.404  24.293  22.957  1.00  0.00     0.025 C 
ATOM     18  O   UNL A   1      32.856  24.135  25.326  1.00  0.00    -0.474 OA
ATOM     19  C   UNL A   1      32.258  24.664  24.115  1.00  0.00     0.314 C 
BRANCH  19  20
ATOM     20  C   UNL A   1      31.089  23.757  23.687  1.00  0.00     0.429 C 
ATOM     21  F   UNL A   1      30.569  23.109  24.759  1.00  0.00    -0.167 F 
ATOM     22  F   UNL A   1      30.068  24.449  23.126  1.00  0.00    -0.167 F 
ATOM     23  F   UNL A   1      31.462  22.819  22.786  1.00  0.00    -0.167 F 
ENDBRANCH  19  20
ENDBRANCH   5   8
ENDBRANCH   3   4
ENDBRANCH   2   3
ENDBRANCH   1   2
BRANCH   1  24
ATOM     24  N   UNL A   1      32.798  30.200  25.548  1.00  0.00    -0.352 N 
ATOM     25  C   UNL A   1      33.068  30.889  26.703  1.00  0.00     0.251 C 
ATOM     26  H   UNL A   1      32.106  30.604  24.975  1.00  0.00     0.163 HD
ATOM     27  O   UNL A   1      32.268  31.737  27.100  1.00  0.00    -0.269 OA
BRANCH  25  28
ATOM     28  C   UNL A   1      34.305  30.615  27.459  1.00  0.00     0.039 A 
ATOM     29  C   UNL A   1      35.247  31.632  27.629  1.00  0.00     0.014 A 
ATOM     30  C   UNL A   1      34.547  29.341  27.976  1.00  0.00     0.014 A 
ATOM     31  C   UNL A   1      36.401  31.384  28.373  1.00  0.00     0.010 A 
ATOM     32  C   UNL A   1      35.646  29.122  28.796  1.00  0.00     0.010 A 
ATOM     33  C   UNL A   1      36.592  30.137  28.991  1.00  0.00    -0.014 A 
BRANCH  33  34
ATOM     34  C   UNL A   1      37.792  29.856  29.816  1.00  0.00     0.031 A 
ATOM     35  C   UNL A   1      38.869  28.952  29.276  1.00  0.00     0.074 A 
ATOM     36  C   UNL A   1      37.883  30.369  31.059  1.00  0.00     0.049 A 
ATOM     37  N   UNL A   1      39.946  28.511  29.871  1.00  0.00    -0.248 NA
ATOM     38  C   UNL A   1      38.701  28.454  27.900  1.00  0.00     0.031 C 
ATOM     39  C   UNL A   1      36.879  31.228  31.696  1.00  0.00     0.029 A 
ATOM     40  N   UNL A   1      38.860  30.243  32.014  1.00  0.00    -0.354 N 
ATOM     41  C   UNL A   1      40.571  27.678  28.950  1.00  0.00     0.074 A 
ATOM     42  C   UNL A   1      39.731  27.629  27.777  1.00  0.00     0.031 C 
ATOM     43  C   UNL A   1      37.307  31.574  32.920  1.00  0.00     0.029 A 
ATOM     44  C   UNL A   1      38.589  30.926  33.179  1.00  0.00     0.049 A 
ATOM     45  H   UNL A   1      39.678  29.714  31.879  1.00  0.00     0.167 HD
ATOM     46  C   UNL A   1      41.756  27.033  29.068  1.00  0.00     0.034 A 
ATOM     47  C   UNL A   1      39.289  31.009  34.328  1.00  0.00     0.034 A 
ATOM     48  C   UNL A   1      42.604  27.128  30.224  1.00  0.00     0.049 A 
ATOM     49  C   UNL A   1      40.600  30.274  34.430  1.00  0.00     0.074 A 
ATOM     50  C   UNL A   1      43.856  26.569  30.415  1.00  0.00     0.029 A 
ATOM     51  N   UNL A   1      42.295  27.827  31.381  1.00  0.00    -0.354 N 
ATOM     52  N   UNL A   1      41.190  29.517  33.534  1.00  0.00    -0.248 NA
ATOM     53  C   UNL A   1      41.342  30.404  35.692  1.00  0.00     0.031 C 
ATOM     54  C   UNL A   1      44.276  26.878  31.711  1.00  0.00     0.029 A 
ATOM     55  C   UNL A   1      43.319  27.688  32.303  1.00  0.00     0.049 A 
ATOM     56  H   UNL A   1      41.471  28.345  31.527  1.00  0.00     0.167 HD
ATOM     57  C   UNL A   1      42.381  29.097  34.118  1.00  0.00     0.074 A 
ATOM     58  C   UNL A   1      42.433  29.694  35.437  1.00  0.00     0.031 C 
ATOM     59  C   UNL A   1      43.345  28.289  33.612  1.00  0.00     0.034 A 
BRANCH  46  60
ATOM     60  C   UNL A   1      42.214  26.172  27.923  1.00  0.00     0.023 A 
ATOM     61  C   UNL A   1      41.790  24.839  27.793  1.00  0.00     0.031 A 
ATOM     62  C   UNL A   1      43.024  26.715  26.912  1.00  0.00     0.131 A 
ATOM     63  C   UNL A   1      42.197  24.085  26.682  1.00  0.00     0.055 A 
ATOM     64  C   UNL A   1      43.379  25.977  25.781  1.00  0.00     0.041 A 
ATOM     65  F   UNL A   1      43.469  27.979  26.999  1.00  0.00    -0.206 F 
ATOM     66  C   UNL A   1      42.966  24.654  25.663  1.00  0.00     0.022 A 
BRANCH  63  67
ATOM     67  S   UNL A   1      41.736  22.334  26.600  1.00  0.00     0.124 S 
ATOM     68  O   UNL A   1      42.311  21.821  27.841  1.00  0.00    -0.237 OA
ATOM     69  O   UNL A   1      40.279  22.389  26.548  1.00  0.00    -0.237 OA
ATOM     70  O   UNL A   1      42.384  21.866  25.377  1.00  0.00    -0.744 OA
ENDBRANCH  63  67
ENDBRANCH  46  60
BRANCH  47  71
ATOM     71  C   UNL A   1      38.761  31.799  35.478  1.00  0.00     0.023 A 
ATOM     72  C   UNL A   1      38.201  31.165  36.597  1.00  0.00     0.031 A 
ATOM     73  C   UNL A   1      38.788  33.205  35.460  1.00  0.00     0.131 A 
ATOM     74  C   UNL A   1      37.655  31.935  37.637  1.00  0.00     0.055 A 
ATOM     75  C   UNL A   1      38.286  33.966  36.518  1.00  0.00     0.041 A 
ATOM     76  F   UNL A   1      39.319  33.862  34.417  1.00  0.00    -0.206 F 
ATOM     77  C   UNL A   1      37.706  33.331  37.610  1.00  0.00     0.022 A 
BRANCH  74  78
ATOM     78  S   UNL A   1      36.815  31.084  39.002  1.00  0.00     0.124 S 
ATOM     79  O   UNL A   1      37.780  31.239  40.084  1.00  0.00    -0.237 OA
ATOM     80  O   UNL A   1      35.582  31.853  39.125  1.00  0.00    -0.237 OA
ATOM     81  O   UNL A   1      36.650  29.721  38.502  1.00  0.00    -0.744 OA
ENDBRANCH  74  78
ENDBRANCH  47  71
BRANCH  59  82
ATOM     82  C   UNL A   1      44.550  28.022  34.472  1.00  0.00     0.023 A 
ATOM     83  C   UNL A   1      45.664  28.875  34.454  1.00  0.00     0.031 A 
ATOM     84  C   UNL A   1      44.553  26.937  35.366  1.00  0.00     0.131 A 
ATOM     85  C   UNL A   1      46.752  28.615  35.296  1.00  0.00     0.055 A 
ATOM     86  C   UNL A   1      45.617  26.711  36.238  1.00  0.00     0.041 A 
ATOM     87  F   UNL A   1      43.508  26.096  35.424  1.00  0.00    -0.206 F 
ATOM     88  C   UNL A   1      46.729  27.551  36.202  1.00  0.00     0.022 A 
BRANCH  85  89
ATOM     89  S   UNL A   1      48.220  29.672  35.172  1.00  0.00     0.124 S 
ATOM     90  O   UNL A   1      49.282  28.763  35.589  1.00  0.00    -0.237 OA
ATOM     91  O   UNL A   1      48.220  30.048  33.762  1.00  0.00    -0.237 OA
ATOM     92  O   UNL A   1      47.937  30.763  36.103  1.00  0.00    -0.744 OA
ENDBRANCH  85  89
ENDBRANCH  59  82
ENDBRANCH  33  34
ENDBRANCH  25  28
ENDBRANCH   1  24
TORSDOF 14
ENDMDL
MODEL 3
REMARK VINA RESULT:     -12.7      2.347      3.115
REMARK SMILES Cc1cc(Cl)c2c(c1)C=C(C(=O)NCCCNC(=O)c1ccc(-c3c4nc(c(-c5cc(S(=O)(=O)[O-])ccc5F)c5ccc([nH]5)c(-c5cc(S(=O)(=O)[O-])ccc5F)c5nc(c(-c6cc(S(=O)(=O)[O-])ccc6F)c6ccc3[nH]6)C=C5)C=C4)cc1)[C@@H](C(F)(F)F)O2
REMARK SMILES IDX 16 1 15 2 14 3 13 4 11 5 12 6 10 8 1 9 2 10 3 11 8 12 4 13
REMARK SMILES IDX 7 14 5 15 6 16 9 17 88 18 83 19 84 20 85 21 86 22 87 23
REMARK SMILES IDX 17 24 18 25 19 27 20 28 21 29 82 30 22 31 81 32 23 33 24 34
REMARK SMILES IDX 25 35 75 36 26 37 80 38 74 39 76 40 27 41 79 42 73 43 72 44
REMARK SMILES IDX 28 46 60 47 40 48 59 49 41 50 44 51 58 52 77 53 42 54 43 55
REMARK SMILES IDX 57 57 78 58 45 59 29 60 30 61 38 62 31 63 37 64 39 65 36 66
REMARK SMILES IDX 32 67 33 68 34 69 35 70 61 71 62 72 70 73 63 74 69 75 71 76
REMARK SMILES IDX 68 77 64 78 65 79 66 80 67 81 46 82 47 83 55 84 48 85 54 86
REMARK SMILES IDX 56 87 53 88 49 89 50 90 51 91 52 92
REMARK H PARENT 13 7 17 26 76 45 44 56
REMARK Flexibility Score: inf
ROOT
ATOM      1  C   UNL A   1      32.680  32.458  27.164  1.00  0.00     0.118 C 
ENDROOT
BRANCH   1   2
ATOM      2  C   UNL A   1      31.408  31.937  26.508  1.00  0.00     0.042 C 
BRANCH   2   3
ATOM      3  C   UNL A   1      31.444  30.431  26.297  1.00  0.00     0.118 C 
BRANCH   3   4
ATOM      4  N   UNL A   1      32.219  30.062  25.121  1.00  0.00    -0.352 N 
ATOM      5  C   UNL A   1      32.607  28.919  24.509  1.00  0.00     0.251 C 
ATOM      6  O   UNL A   1      33.270  29.073  23.477  1.00  0.00    -0.270 OA
ATOM      7  H   UNL A   1      32.551  30.856  24.645  1.00  0.00     0.163 HD
BRANCH   5   8
ATOM      8  C   UNL A   1      32.290  27.541  24.983  1.00  0.00     0.067 C 
ATOM      9  C   UNL A   1      35.089  22.247  26.561  1.00  0.00     0.044 C 
ATOM     10  C   UNL A   1      33.950  23.200  26.356  1.00  0.00    -0.049 A 
ATOM     11  C   UNL A   1      32.646  22.808  26.686  1.00  0.00     0.028 A 
ATOM     12  C   UNL A   1      34.178  24.505  25.897  1.00  0.00     0.015 A 
ATOM     13  C   UNL A   1      31.586  23.701  26.541  1.00  0.00     0.084 A 
ATOM     14  C   UNL A   1      33.113  25.402  25.745  1.00  0.00     0.019 A 
ATOM     15  Cl  UNL A   1      29.996  23.168  26.956  1.00  0.00    -0.080 Cl
ATOM     16  C   UNL A   1      31.816  24.995  26.064  1.00  0.00     0.146 A 
ATOM     17  C   UNL A   1      33.347  26.770  25.297  1.00  0.00     0.025 C 
ATOM     18  O   UNL A   1      30.753  25.852  25.978  1.00  0.00    -0.474 OA
ATOM     19  C   UNL A   1      30.899  26.987  25.087  1.00  0.00     0.314 C 
BRANCH  19  20
ATOM     20  C   UNL A   1      30.300  26.634  23.712  1.00  0.00     0.429 C 
ATOM     21  F   UNL A   1      31.282  26.387  22.811  1.00  0.00    -0.167 F 
ATOM     22  F   UNL A   1      29.525  25.522  23.748  1.00  0.00    -0.167 F 
ATOM     23  F   UNL A   1      29.529  27.627  23.211  1.00  0.00    -0.167 F 
ENDBRANCH  19  20
ENDBRANCH   5   8
ENDBRANCH   3   4
ENDBRANCH   2   3
ENDBRANCH   1   2
BRANCH   1  24
ATOM     24  N   UNL A   1      32.573  33.876  27.496  1.00  0.00    -0.352 N 
ATOM     25  C   UNL A   1      33.141  34.590  28.521  1.00  0.00     0.251 C 
ATOM     26  H   UNL A   1      32.003  34.403  26.889  1.00  0.00     0.163 HD
ATOM     27  O   UNL A   1      32.689  35.699  28.806  1.00  0.00    -0.269 OA
BRANCH  25  28
ATOM     28  C   UNL A   1      34.281  34.031  29.272  1.00  0.00     0.039 A 
ATOM     29  C   UNL A   1      34.045  33.122  30.306  1.00  0.00     0.014 A 
ATOM     30  C   UNL A   1      35.585  34.428  28.971  1.00  0.00     0.014 A 
ATOM     31  C   UNL A   1      35.124  32.567  30.995  1.00  0.00     0.010 A 
ATOM     32  C   UNL A   1      36.661  33.803  29.589  1.00  0.00     0.010 A 
ATOM     33  C   UNL A   1      36.441  32.878  30.618  1.00  0.00    -0.014 A 
BRANCH  33  34
ATOM     34  C   UNL A   1      37.608  32.276  31.309  1.00  0.00     0.031 A 
ATOM     35  C   UNL A   1      38.365  31.155  30.646  1.00  0.00     0.074 A 
ATOM     36  C   UNL A   1      37.946  32.700  32.543  1.00  0.00     0.049 A 
ATOM     37  N   UNL A   1      39.350  30.437  31.118  1.00  0.00    -0.248 NA
ATOM     38  C   UNL A   1      37.943  30.770  29.288  1.00  0.00     0.031 C 
ATOM     39  C   UNL A   1      37.256  33.754  33.293  1.00  0.00     0.029 A 
ATOM     40  N   UNL A   1      38.948  32.297  33.388  1.00  0.00    -0.354 N 
ATOM     41  C   UNL A   1      39.653  29.513  30.125  1.00  0.00     0.074 A 
ATOM     42  C   UNL A   1      38.716  29.721  29.046  1.00  0.00     0.031 C 
ATOM     43  C   UNL A   1      37.875  33.933  34.471  1.00  0.00     0.029 A 
ATOM     44  C   UNL A   1      38.973  32.978  34.584  1.00  0.00     0.049 A 
ATOM     45  H   UNL A   1      39.591  31.587  33.160  1.00  0.00     0.167 HD
ATOM     46  C   UNL A   1      40.644  28.590  30.108  1.00  0.00     0.034 A 
ATOM     47  C   UNL A   1      39.781  32.840  35.654  1.00  0.00     0.034 A 
ATOM     48  C   UNL A   1      41.598  28.426  31.170  1.00  0.00     0.049 A 
ATOM     49  C   UNL A   1      40.870  31.799  35.608  1.00  0.00     0.074 A 
ATOM     50  C   UNL A   1      42.682  27.567  31.220  1.00  0.00     0.029 A 
ATOM     51  N   UNL A   1      41.590  29.133  32.363  1.00  0.00    -0.354 N 
ATOM     52  N   UNL A   1      41.160  30.956  34.644  1.00  0.00    -0.248 NA
ATOM     53  C   UNL A   1      41.740  31.691  36.787  1.00  0.00     0.031 C 
ATOM     54  C   UNL A   1      43.291  27.710  32.469  1.00  0.00     0.029 A 
ATOM     55  C   UNL A   1      42.631  28.707  33.170  1.00  0.00     0.049 A 
ATOM     56  H   UNL A   1      40.939  29.832  32.602  1.00  0.00     0.167 HD
ATOM     57  C   UNL A   1      42.259  30.231  35.094  1.00  0.00     0.074 A 
ATOM     58  C   UNL A   1      42.588  30.744  36.408  1.00  0.00     0.031 C 
ATOM     59  C   UNL A   1      42.935  29.231  34.477  1.00  0.00     0.034 A 
BRANCH  46  60
ATOM     60  C   UNL A   1      40.757  27.690  28.909  1.00  0.00     0.023 A 
ATOM     61  C   UNL A   1      41.740  27.896  27.927  1.00  0.00     0.031 A 
ATOM     62  C   UNL A   1      39.918  26.569  28.786  1.00  0.00     0.131 A 
ATOM     63  C   UNL A   1      41.847  27.002  26.851  1.00  0.00     0.055 A 
ATOM     64  C   UNL A   1      40.066  25.653  27.744  1.00  0.00     0.041 A 
ATOM     65  F   UNL A   1      38.951  26.339  29.689  1.00  0.00    -0.206 F 
ATOM     66  C   UNL A   1      41.035  25.868  26.769  1.00  0.00     0.022 A 
BRANCH  63  67
ATOM     67  S   UNL A   1      43.044  27.357  25.537  1.00  0.00     0.124 S 
ATOM     68  O   UNL A   1      43.329  26.017  25.031  1.00  0.00    -0.237 OA
ATOM     69  O   UNL A   1      42.288  28.229  24.644  1.00  0.00    -0.237 OA
ATOM     70  O   UNL A   1      44.149  28.000  26.245  1.00  0.00    -0.744 OA
ENDBRANCH  63  67
ENDBRANCH  46  60
BRANCH  47  71
ATOM     71  C   UNL A   1      39.583  33.689  36.864  1.00  0.00     0.023 A 
ATOM     72  C   UNL A   1      38.955  33.182  38.012  1.00  0.00     0.031 A 
ATOM     73  C   UNL A   1      39.999  35.032  36.879  1.00  0.00     0.131 A 
ATOM     74  C   UNL A   1      38.726  34.022  39.113  1.00  0.00     0.055 A 
ATOM     75  C   UNL A   1      39.811  35.851  37.994  1.00  0.00     0.041 A 
ATOM     76  F   UNL A   1      40.611  35.566  35.810  1.00  0.00    -0.206 F 
ATOM     77  C   UNL A   1      39.162  35.349  39.117  1.00  0.00     0.022 A 
BRANCH  74  78
ATOM     78  S   UNL A   1      37.790  33.372  40.525  1.00  0.00     0.124 S 
ATOM     79  O   UNL A   1      37.740  34.532  41.407  1.00  0.00    -0.237 OA
ATOM     80  O   UNL A   1      36.529  32.985  39.900  1.00  0.00    -0.237 OA
ATOM     81  O   UNL A   1      38.614  32.262  40.997  1.00  0.00    -0.744 OA
ENDBRANCH  74  78
ENDBRANCH  47  71
BRANCH  59  82
ATOM     82  C   UNL A   1      44.113  28.639  35.202  1.00  0.00     0.023 A 
ATOM     83  C   UNL A   1      43.948  27.613  36.146  1.00  0.00     0.031 A 
ATOM     84  C   UNL A   1      45.418  29.062  34.896  1.00  0.00     0.131 A 
ATOM     85  C   UNL A   1      45.072  27.060  36.774  1.00  0.00     0.055 A 
ATOM     86  C   UNL A   1      46.536  28.474  35.486  1.00  0.00     0.041 A 
ATOM     87  F   UNL A   1      45.626  30.036  33.995  1.00  0.00    -0.206 F 
ATOM     88  C   UNL A   1      46.365  27.469  36.436  1.00  0.00     0.022 A 
BRANCH  85  89
ATOM     89  S   UNL A   1      44.820  25.814  38.066  1.00  0.00     0.124 S 
ATOM     90  O   UNL A   1      43.819  26.455  38.912  1.00  0.00    -0.237 OA
ATOM     91  O   UNL A   1      44.365  24.656  37.305  1.00  0.00    -0.237 OA
ATOM     92  O   UNL A   1      46.144  25.675  38.671  1.00  0.00    -0.744 OA
ENDBRANCH  85  89
ENDBRANCH  59  82
ENDBRANCH  33  34
ENDBRANCH  25  28
ENDBRANCH   1  24
TORSDOF 14
ENDMDL
