MODEL 1
REMARK VINA RESULT:     -13.0      0.000      0.000
REMARK SMILES CN(C(=O)C[C@H]1SC(=O)N(c2cccc(O)c2)C1=O)c1ccccc1C(=O)NCCCNC(=O)c1ccc(-c2c3nc(c(-c4cc(S(=O)(=O)[O-])ccc4F)c4ccc([nH]4)c(-c4cc(S(=O)(=O)[O-])ccc4F)c4nc(c(-c5cc(S(=O)(=O)[O-])ccc5F)c5ccc2[nH]5)C=C4)C=C3)cc1
REMARK SMILES IDX 26 1 27 2 28 3 25 5 20 6 21 7 22 8 24 9 23 10 2 11 1 12 3 13
REMARK SMILES IDX 4 14 5 15 6 16 7 17 18 18 8 19 10 20 19 21 9 22 11 23 12 24
REMARK SMILES IDX 17 25 13 26 15 27 14 28 16 29 29 31 30 32 31 33 32 34 33 35
REMARK SMILES IDX 34 37 35 38 36 39 97 40 37 41 96 42 38 43 39 44 40 45 90 46
REMARK SMILES IDX 41 47 95 48 89 49 91 50 42 51 94 52 88 53 87 54 43 56 75 57
REMARK SMILES IDX 55 58 74 59 56 60 59 61 73 62 92 63 57 64 58 65 72 67 93 68
REMARK SMILES IDX 60 69 44 70 45 71 53 72 46 73 52 74 54 75 51 76 47 77 48 78
REMARK SMILES IDX 49 79 50 80 76 81 77 82 85 83 78 84 84 85 86 86 83 87 79 88
REMARK SMILES IDX 80 89 81 90 82 91 61 92 62 93 70 94 63 95 69 96 71 97 68 98
REMARK SMILES IDX 64 99 65 100 66 101 67 102
REMARK H PARENT 28 4 16 30 32 36 91 55 59 66
REMARK Flexibility Score: inf
ROOT
ATOM      1  C   UNL A   1      32.720  24.851  26.163  1.00  0.00     0.253 C 
ATOM      2  O   UNL A   1      31.754  24.155  26.518  1.00  0.00    -0.269 OA
ATOM      3  N   UNL A   1      32.564  26.174  26.525  1.00  0.00    -0.352 N 
ATOM      4  H   UNL A   1      31.666  26.338  26.891  1.00  0.00     0.163 HD
ENDROOT
BRANCH   1   5
ATOM      5  C   UNL A   1      33.816  24.116  25.406  1.00  0.00     0.063 A 
ATOM      6  C   UNL A   1      33.938  23.695  24.073  1.00  0.00     0.056 A 
ATOM      7  C   UNL A   1      35.128  23.053  23.611  1.00  0.00     0.027 A 
ATOM      8  C   UNL A   1      36.205  22.798  24.438  1.00  0.00     0.002 A 
ATOM      9  C   UNL A   1      34.951  23.828  26.220  1.00  0.00     0.016 A 
ATOM     10  C   UNL A   1      36.114  23.188  25.756  1.00  0.00     0.001 A 
BRANCH   6  11
ATOM     11  N   UNL A   1      32.992  23.899  23.044  1.00  0.00    -0.315 N 
ATOM     12  C   UNL A   1      31.773  23.100  23.153  1.00  0.00     0.153 C 
BRANCH  11  13
ATOM     13  C   UNL A   1      33.124  25.088  22.320  1.00  0.00     0.228 C 
ATOM     14  O   UNL A   1      33.273  25.127  21.095  1.00  0.00    -0.274 OA
BRANCH  13  15
ATOM     15  C   UNL A   1      32.968  26.378  23.055  1.00  0.00     0.125 C 
BRANCH  15  16
ATOM     16  C   UNL A   1      31.714  26.989  22.495  1.00  0.00     0.156 C 
ATOM     17  S   UNL A   1      30.264  26.395  23.394  1.00  0.00    -0.050 SA
ATOM     18  C   UNL A   1      31.711  28.481  22.608  1.00  0.00     0.248 C 
ATOM     19  C   UNL A   1      29.502  27.938  23.211  1.00  0.00     0.293 C 
ATOM     20  N   UNL A   1      30.478  28.906  23.029  1.00  0.00    -0.240 N 
ATOM     21  O   UNL A   1      32.658  29.181  22.268  1.00  0.00    -0.273 OA
ATOM     22  O   UNL A   1      28.289  28.009  23.159  1.00  0.00    -0.261 OA
BRANCH  20  23
ATOM     23  C   UNL A   1      30.061  30.230  22.809  1.00  0.00     0.056 A 
ATOM     24  C   UNL A   1      29.540  30.868  23.941  1.00  0.00     0.027 A 
ATOM     25  C   UNL A   1      29.540  30.446  21.527  1.00  0.00     0.073 A 
ATOM     26  C   UNL A   1      28.239  31.287  23.875  1.00  0.00     0.006 A 
ATOM     27  C   UNL A   1      28.244  30.864  21.471  1.00  0.00     0.117 A 
ATOM     28  C   UNL A   1      27.589  31.140  22.659  1.00  0.00     0.046 A 
BRANCH  27  29
ATOM     29  O   UNL A   1      27.621  30.856  20.265  1.00  0.00    -0.508 OA
ATOM     30  H   UNL A   1      27.287  31.654  19.904  1.00  0.00     0.293 HD
ENDBRANCH  27  29
ENDBRANCH  20  23
ENDBRANCH  15  16
ENDBRANCH  13  15
ENDBRANCH  11  13
ENDBRANCH   6  11
ENDBRANCH   1   5
BRANCH   3  31
ATOM     31  C   UNL A   1      33.359  27.395  26.517  1.00  0.00     0.118 C 
BRANCH  31  32
ATOM     32  C   UNL A   1      32.622  28.695  26.934  1.00  0.00     0.042 C 
BRANCH  32  33
ATOM     33  C   UNL A   1      32.867  29.986  26.121  1.00  0.00     0.118 C 
BRANCH  33  34
ATOM     34  N   UNL A   1      33.334  31.144  26.886  1.00  0.00    -0.352 N 
ATOM     35  C   UNL A   1      34.460  31.514  27.607  1.00  0.00     0.251 C 
ATOM     36  H   UNL A   1      32.661  31.862  26.889  1.00  0.00     0.163 HD
ATOM     37  O   UNL A   1      34.540  32.731  27.822  1.00  0.00    -0.269 OA
BRANCH  35  38
ATOM     38  C   UNL A   1      35.548  30.632  28.178  1.00  0.00     0.039 A 
ATOM     39  C   UNL A   1      36.726  30.442  27.406  1.00  0.00     0.014 A 
ATOM     40  C   UNL A   1      35.522  29.996  29.410  1.00  0.00     0.014 A 
ATOM     41  C   UNL A   1      37.861  29.719  27.876  1.00  0.00     0.010 A 
ATOM     42  C   UNL A   1      36.662  29.308  29.895  1.00  0.00     0.010 A 
ATOM     43  C   UNL A   1      37.876  29.199  29.170  1.00  0.00    -0.014 A 
BRANCH  43  44
ATOM     44  C   UNL A   1      39.026  28.457  29.828  1.00  0.00     0.031 A 
ATOM     45  C   UNL A   1      39.736  29.191  30.922  1.00  0.00     0.074 A 
ATOM     46  C   UNL A   1      39.597  27.292  29.414  1.00  0.00     0.049 A 
ATOM     47  N   UNL A   1      40.839  28.867  31.540  1.00  0.00    -0.248 NA
ATOM     48  C   UNL A   1      39.098  30.423  31.401  1.00  0.00     0.031 C 
ATOM     49  C   UNL A   1      39.025  26.268  28.560  1.00  0.00     0.029 A 
ATOM     50  N   UNL A   1      40.888  26.819  29.567  1.00  0.00    -0.354 N 
ATOM     51  C   UNL A   1      40.962  29.793  32.557  1.00  0.00     0.074 A 
ATOM     52  C   UNL A   1      39.948  30.802  32.339  1.00  0.00     0.031 C 
ATOM     53  C   UNL A   1      39.986  25.523  27.987  1.00  0.00     0.029 A 
ATOM     54  C   UNL A   1      41.238  25.842  28.645  1.00  0.00     0.049 A 
ATOM     55  H   UNL A   1      41.501  27.145  30.266  1.00  0.00     0.167 HD
ATOM     56  C   UNL A   1      41.759  29.728  33.649  1.00  0.00     0.034 A 
ATOM     57  C   UNL A   1      42.393  25.184  28.409  1.00  0.00     0.034 A 
ATOM     58  C   UNL A   1      42.790  28.742  33.829  1.00  0.00     0.049 A 
ATOM     59  C   UNL A   1      43.427  25.255  29.491  1.00  0.00     0.074 A 
ATOM     60  C   UNL A   1      43.644  28.561  34.901  1.00  0.00     0.029 A 
ATOM     61  N   UNL A   1      43.133  27.781  32.883  1.00  0.00    -0.354 N 
ATOM     62  N   UNL A   1      43.443  26.030  30.549  1.00  0.00    -0.248 NA
ATOM     63  C   UNL A   1      44.506  24.262  29.444  1.00  0.00     0.031 C 
ATOM     64  C   UNL A   1      44.541  27.534  34.577  1.00  0.00     0.029 A 
ATOM     65  C   UNL A   1      44.213  27.034  33.327  1.00  0.00     0.049 A 
ATOM     66  H   UNL A   1      42.674  27.649  32.023  1.00  0.00     0.167 HD
ATOM     67  C   UNL A   1      44.467  25.547  31.351  1.00  0.00     0.074 A 
ATOM     68  C   UNL A   1      45.071  24.441  30.630  1.00  0.00     0.031 C 
ATOM     69  C   UNL A   1      44.831  25.952  32.595  1.00  0.00     0.034 A 
BRANCH  56  70
ATOM     70  C   UNL A   1      41.473  30.760  34.704  1.00  0.00     0.023 A 
ATOM     71  C   UNL A   1      40.345  30.622  35.539  1.00  0.00     0.031 A 
ATOM     72  C   UNL A   1      42.205  31.953  34.766  1.00  0.00     0.131 A 
ATOM     73  C   UNL A   1      39.900  31.714  36.293  1.00  0.00     0.055 A 
ATOM     74  C   UNL A   1      41.812  33.001  35.599  1.00  0.00     0.041 A 
ATOM     75  F   UNL A   1      43.270  32.143  33.974  1.00  0.00    -0.206 F 
ATOM     76  C   UNL A   1      40.639  32.897  36.348  1.00  0.00     0.022 A 
BRANCH  73  77
ATOM     77  S   UNL A   1      38.238  31.638  37.019  1.00  0.00     0.124 S 
ATOM     78  O   UNL A   1      37.969  30.203  36.987  1.00  0.00    -0.237 OA
ATOM     79  O   UNL A   1      38.441  32.220  38.340  1.00  0.00    -0.237 OA
ATOM     80  O   UNL A   1      37.430  32.438  36.102  1.00  0.00    -0.744 OA
ENDBRANCH  73  77
ENDBRANCH  56  70
BRANCH  57  81
ATOM     81  C   UNL A   1      42.566  24.279  27.228  1.00  0.00     0.023 A 
ATOM     82  C   UNL A   1      42.144  22.938  27.237  1.00  0.00     0.031 A 
ATOM     83  C   UNL A   1      43.211  24.750  26.069  1.00  0.00     0.131 A 
ATOM     84  C   UNL A   1      42.400  22.108  26.128  1.00  0.00     0.055 A 
ATOM     85  C   UNL A   1      43.447  23.926  24.961  1.00  0.00     0.041 A 
ATOM     86  F   UNL A   1      43.637  26.022  26.002  1.00  0.00    -0.206 F 
ATOM     87  C   UNL A   1      43.046  22.594  24.990  1.00  0.00     0.022 A 
BRANCH  84  88
ATOM     88  S   UNL A   1      41.912  20.360  26.208  1.00  0.00     0.124 S 
ATOM     89  O   UNL A   1      42.236  20.017  27.588  1.00  0.00    -0.237 OA
ATOM     90  O   UNL A   1      40.492  20.429  25.880  1.00  0.00    -0.237 OA
ATOM     91  O   UNL A   1      42.752  19.722  25.195  1.00  0.00    -0.744 OA
ENDBRANCH  84  88
ENDBRANCH  57  81
BRANCH  69  92
ATOM     92  C   UNL A   1      45.921  25.161  33.262  1.00  0.00     0.023 A 
ATOM     93  C   UNL A   1      45.632  24.028  34.039  1.00  0.00     0.031 A 
ATOM     94  C   UNL A   1      47.261  25.573  33.156  1.00  0.00     0.131 A 
ATOM     95  C   UNL A   1      46.660  23.384  34.739  1.00  0.00     0.055 A 
ATOM     96  C   UNL A   1      48.291  24.885  33.800  1.00  0.00     0.041 A 
ATOM     97  F   UNL A   1      47.590  26.655  32.433  1.00  0.00    -0.206 F 
ATOM     98  C   UNL A   1      47.990  23.793  34.610  1.00  0.00     0.022 A 
BRANCH  95  99
ATOM     99  S   UNL A   1      46.216  22.071  35.906  1.00  0.00     0.124 S 
ATOM    100  O   UNL A   1      45.758  22.839  37.060  1.00  0.00    -0.237 OA
ATOM    101  O   UNL A   1      45.183  21.341  35.177  1.00  0.00    -0.237 OA
ATOM    102  O   UNL A   1      47.470  21.345  36.098  1.00  0.00    -0.744 OA
ENDBRANCH  95  99
ENDBRANCH  69  92
ENDBRANCH  43  44
ENDBRANCH  35  38
ENDBRANCH  33  34
ENDBRANCH  32  33
ENDBRANCH  31  32
ENDBRANCH   3  31
TORSDOF 19
ENDMDL
MODEL 2
REMARK VINA RESULT:     -12.5      2.045      2.258
REMARK SMILES CN(C(=O)C[C@H]1SC(=O)N(c2cccc(O)c2)C1=O)c1ccccc1C(=O)NCCCNC(=O)c1ccc(-c2c3nc(c(-c4cc(S(=O)(=O)[O-])ccc4F)c4ccc([nH]4)c(-c4cc(S(=O)(=O)[O-])ccc4F)c4nc(c(-c5cc(S(=O)(=O)[O-])ccc5F)c5ccc2[nH]5)C=C4)C=C3)cc1
REMARK SMILES IDX 26 1 27 2 28 3 25 5 20 6 21 7 22 8 24 9 23 10 2 11 1 12 3 13
REMARK SMILES IDX 4 14 5 15 6 16 7 17 18 18 8 19 10 20 19 21 9 22 11 23 12 24
REMARK SMILES IDX 17 25 13 26 15 27 14 28 16 29 29 31 30 32 31 33 32 34 33 35
REMARK SMILES IDX 34 37 35 38 36 39 97 40 37 41 96 42 38 43 39 44 40 45 90 46
REMARK SMILES IDX 41 47 95 48 89 49 91 50 42 51 94 52 88 53 87 54 43 56 75 57
REMARK SMILES IDX 55 58 74 59 56 60 59 61 73 62 92 63 57 64 58 65 72 67 93 68
REMARK SMILES IDX 60 69 44 70 45 71 53 72 46 73 52 74 54 75 51 76 47 77 48 78
REMARK SMILES IDX 49 79 50 80 76 81 77 82 85 83 78 84 84 85 86 86 83 87 79 88
REMARK SMILES IDX 80 89 81 90 82 91 61 92 62 93 70 94 63 95 69 96 71 97 68 98
REMARK SMILES IDX 64 99 65 100 66 101 67 102
REMARK H PARENT 28 4 16 30 32 36 91 55 59 66
REMARK Flexibility Score: inf
ROOT
ATOM      1  C   UNL A   1      33.282  24.748  26.081  1.00  0.00     0.253 C 
ATOM      2  O   UNL A   1      32.467  23.971  26.605  1.00  0.00    -0.269 OA
ATOM      3  N   UNL A   1      33.045  26.061  26.435  1.00  0.00    -0.352 N 
ATOM      4  H   UNL A   1      32.205  26.146  26.940  1.00  0.00     0.163 HD
ENDROOT
BRANCH   1   5
ATOM      5  C   UNL A   1      34.316  24.102  25.171  1.00  0.00     0.063 A 
ATOM      6  C   UNL A   1      34.292  23.719  23.821  1.00  0.00     0.056 A 
ATOM      7  C   UNL A   1      35.449  23.165  23.194  1.00  0.00     0.027 A 
ATOM      8  C   UNL A   1      36.636  22.959  23.870  1.00  0.00     0.002 A 
ATOM      9  C   UNL A   1      35.560  23.868  25.827  1.00  0.00     0.016 A 
ATOM     10  C   UNL A   1      36.691  23.313  25.201  1.00  0.00     0.001 A 
BRANCH   6  11
ATOM     11  N   UNL A   1      33.212  23.886  22.925  1.00  0.00    -0.315 N 
ATOM     12  C   UNL A   1      32.060  23.022  23.174  1.00  0.00     0.153 C 
BRANCH  11  13
ATOM     13  C   UNL A   1      33.188  25.090  22.214  1.00  0.00     0.228 C 
ATOM     14  O   UNL A   1      33.223  25.154  20.981  1.00  0.00    -0.274 OA
BRANCH  13  15
ATOM     15  C   UNL A   1      33.001  26.356  22.984  1.00  0.00     0.125 C 
BRANCH  15  16
ATOM     16  C   UNL A   1      31.721  26.940  22.455  1.00  0.00     0.156 C 
ATOM     17  S   UNL A   1      30.309  26.338  23.406  1.00  0.00    -0.050 SA
ATOM     18  C   UNL A   1      31.700  28.433  22.546  1.00  0.00     0.248 C 
ATOM     19  C   UNL A   1      29.519  27.867  23.225  1.00  0.00     0.293 C 
ATOM     20  N   UNL A   1      30.475  28.847  22.999  1.00  0.00    -0.240 N 
ATOM     21  O   UNL A   1      32.625  29.142  22.167  1.00  0.00    -0.273 OA
ATOM     22  O   UNL A   1      28.304  27.921  23.211  1.00  0.00    -0.261 OA
BRANCH  20  23
ATOM     23  C   UNL A   1      30.032  30.161  22.774  1.00  0.00     0.056 A 
ATOM     24  C   UNL A   1      29.534  30.807  23.911  1.00  0.00     0.027 A 
ATOM     25  C   UNL A   1      29.470  30.352  21.505  1.00  0.00     0.073 A 
ATOM     26  C   UNL A   1      28.225  31.206  23.878  1.00  0.00     0.006 A 
ATOM     27  C   UNL A   1      28.167  30.749  21.480  1.00  0.00     0.117 A 
ATOM     28  C   UNL A   1      27.542  31.033  22.683  1.00  0.00     0.046 A 
BRANCH  27  29
ATOM     29  O   UNL A   1      27.509  30.716  20.293  1.00  0.00    -0.508 OA
ATOM     30  H   UNL A   1      27.457  31.488  19.764  1.00  0.00     0.293 HD
ENDBRANCH  27  29
ENDBRANCH  20  23
ENDBRANCH  15  16
ENDBRANCH  13  15
ENDBRANCH  11  13
ENDBRANCH   6  11
ENDBRANCH   1   5
BRANCH   3  31
ATOM     31  C   UNL A   1      33.691  27.357  26.270  1.00  0.00     0.118 C 
BRANCH  31  32
ATOM     32  C   UNL A   1      33.105  28.526  27.105  1.00  0.00     0.042 C 
BRANCH  32  33
ATOM     33  C   UNL A   1      32.837  29.879  26.408  1.00  0.00     0.118 C 
BRANCH  33  34
ATOM     34  N   UNL A   1      33.319  31.068  27.115  1.00  0.00    -0.352 N 
ATOM     35  C   UNL A   1      34.473  31.479  27.768  1.00  0.00     0.251 C 
ATOM     36  H   UNL A   1      32.634  31.774  27.130  1.00  0.00     0.163 HD
ATOM     37  O   UNL A   1      34.540  32.703  27.942  1.00  0.00    -0.269 OA
BRANCH  35  38
ATOM     38  C   UNL A   1      35.603  30.634  28.310  1.00  0.00     0.039 A 
ATOM     39  C   UNL A   1      36.725  30.401  27.468  1.00  0.00     0.014 A 
ATOM     40  C   UNL A   1      35.668  30.072  29.576  1.00  0.00     0.014 A 
ATOM     41  C   UNL A   1      37.894  29.708  27.899  1.00  0.00     0.010 A 
ATOM     42  C   UNL A   1      36.844  29.415  30.018  1.00  0.00     0.010 A 
ATOM     43  C   UNL A   1      38.004  29.265  29.216  1.00  0.00    -0.014 A 
BRANCH  43  44
ATOM     44  C   UNL A   1      39.202  28.565  29.832  1.00  0.00     0.031 A 
ATOM     45  C   UNL A   1      39.980  29.360  30.834  1.00  0.00     0.074 A 
ATOM     46  C   UNL A   1      39.752  27.381  29.444  1.00  0.00     0.049 A 
ATOM     47  N   UNL A   1      41.124  29.074  31.391  1.00  0.00    -0.248 NA
ATOM     48  C   UNL A   1      39.365  30.614  31.289  1.00  0.00     0.031 C 
ATOM     49  C   UNL A   1      39.131  26.310  28.687  1.00  0.00     0.029 A 
ATOM     50  N   UNL A   1      41.054  26.923  29.533  1.00  0.00    -0.354 N 
ATOM     51  C   UNL A   1      41.309  30.055  32.346  1.00  0.00     0.074 A 
ATOM     52  C   UNL A   1      40.275  31.047  32.144  1.00  0.00     0.031 C 
ATOM     53  C   UNL A   1      40.057  25.539  28.091  1.00  0.00     0.029 A 
ATOM     54  C   UNL A   1      41.348  25.899  28.644  1.00  0.00     0.049 A 
ATOM     55  H   UNL A   1      41.711  27.289  30.169  1.00  0.00     0.167 HD
ATOM     56  C   UNL A   1      42.179  30.053  33.383  1.00  0.00     0.034 A 
ATOM     57  C   UNL A   1      42.490  25.233  28.365  1.00  0.00     0.034 A 
ATOM     58  C   UNL A   1      43.228  29.083  33.544  1.00  0.00     0.049 A 
ATOM     59  C   UNL A   1      43.594  25.367  29.368  1.00  0.00     0.074 A 
ATOM     60  C   UNL A   1      44.155  28.964  34.563  1.00  0.00     0.029 A 
ATOM     61  N   UNL A   1      43.513  28.073  32.631  1.00  0.00    -0.354 N 
ATOM     62  N   UNL A   1      43.677  26.199  30.379  1.00  0.00    -0.248 NA
ATOM     63  C   UNL A   1      44.675  24.378  29.301  1.00  0.00     0.031 C 
ATOM     64  C   UNL A   1      45.036  27.924  34.235  1.00  0.00     0.029 A 
ATOM     65  C   UNL A   1      44.627  27.356  33.039  1.00  0.00     0.049 A 
ATOM     66  H   UNL A   1      42.997  27.892  31.812  1.00  0.00     0.167 HD
ATOM     67  C   UNL A   1      44.757  25.764  31.133  1.00  0.00     0.074 A 
ATOM     68  C   UNL A   1      45.319  24.623  30.433  1.00  0.00     0.031 C 
ATOM     69  C   UNL A   1      45.202  26.238  32.325  1.00  0.00     0.034 A 
BRANCH  56  70
ATOM     70  C   UNL A   1      41.958  31.140  34.397  1.00  0.00     0.023 A 
ATOM     71  C   UNL A   1      42.715  32.328  34.336  1.00  0.00     0.031 A 
ATOM     72  C   UNL A   1      41.135  30.932  35.512  1.00  0.00     0.131 A 
ATOM     73  C   UNL A   1      42.743  33.192  35.436  1.00  0.00     0.055 A 
ATOM     74  C   UNL A   1      41.091  31.852  36.561  1.00  0.00     0.041 A 
ATOM     75  F   UNL A   1      40.415  29.807  35.630  1.00  0.00    -0.206 F 
ATOM     76  C   UNL A   1      41.917  32.975  36.540  1.00  0.00     0.022 A 
BRANCH  73  77
ATOM     77  S   UNL A   1      44.029  34.473  35.491  1.00  0.00     0.124 S 
ATOM     78  O   UNL A   1      43.393  35.491  36.324  1.00  0.00    -0.237 OA
ATOM     79  O   UNL A   1      45.154  33.768  36.093  1.00  0.00    -0.237 OA
ATOM     80  O   UNL A   1      44.201  34.842  34.088  1.00  0.00    -0.744 OA
ENDBRANCH  73  77
ENDBRANCH  56  70
BRANCH  57  81
ATOM     81  C   UNL A   1      42.589  24.266  27.225  1.00  0.00     0.023 A 
ATOM     82  C   UNL A   1      42.052  22.969  27.289  1.00  0.00     0.031 A 
ATOM     83  C   UNL A   1      43.277  24.629  26.052  1.00  0.00     0.131 A 
ATOM     84  C   UNL A   1      42.239  22.072  26.218  1.00  0.00     0.055 A 
ATOM     85  C   UNL A   1      43.445  23.740  24.982  1.00  0.00     0.041 A 
ATOM     86  F   UNL A   1      43.812  25.854  25.934  1.00  0.00    -0.206 F 
ATOM     87  C   UNL A   1      42.931  22.450  25.066  1.00  0.00     0.022 A 
BRANCH  84  88
ATOM     88  S   UNL A   1      41.602  20.377  26.369  1.00  0.00     0.124 S 
ATOM     89  O   UNL A   1      41.959  20.040  27.743  1.00  0.00    -0.237 OA
ATOM     90  O   UNL A   1      40.180  20.568  26.104  1.00  0.00    -0.237 OA
ATOM     91  O   UNL A   1      42.332  19.642  25.338  1.00  0.00    -0.744 OA
ENDBRANCH  84  88
ENDBRANCH  57  81
BRANCH  69  92
ATOM     92  C   UNL A   1      46.341  25.489  32.958  1.00  0.00     0.023 A 
ATOM     93  C   UNL A   1      47.676  25.785  32.639  1.00  0.00     0.031 A 
ATOM     94  C   UNL A   1      46.088  24.439  33.856  1.00  0.00     0.131 A 
ATOM     95  C   UNL A   1      48.707  24.993  33.159  1.00  0.00     0.055 A 
ATOM     96  C   UNL A   1      47.123  23.697  34.426  1.00  0.00     0.041 A 
ATOM     97  F   UNL A   1      44.829  24.109  34.186  1.00  0.00    -0.206 F 
ATOM     98  C   UNL A   1      48.442  23.963  34.065  1.00  0.00     0.022 A 
BRANCH  95  99
ATOM     99  S   UNL A   1      50.392  25.261  32.547  1.00  0.00     0.124 S 
ATOM    100  O   UNL A   1      51.184  25.064  33.758  1.00  0.00    -0.237 OA
ATOM    101  O   UNL A   1      50.523  24.226  31.527  1.00  0.00    -0.237 OA
ATOM    102  O   UNL A   1      50.358  26.631  32.040  1.00  0.00    -0.744 OA
ENDBRANCH  95  99
ENDBRANCH  69  92
ENDBRANCH  43  44
ENDBRANCH  35  38
ENDBRANCH  33  34
ENDBRANCH  32  33
ENDBRANCH  31  32
ENDBRANCH   3  31
TORSDOF 19
ENDMDL
MODEL 3
REMARK VINA RESULT:     -10.9      1.833      2.450
REMARK SMILES CN(C(=O)C[C@H]1SC(=O)N(c2cccc(O)c2)C1=O)c1ccccc1C(=O)NCCCNC(=O)c1ccc(-c2c3nc(c(-c4cc(S(=O)(=O)[O-])ccc4F)c4ccc([nH]4)c(-c4cc(S(=O)(=O)[O-])ccc4F)c4nc(c(-c5cc(S(=O)(=O)[O-])ccc5F)c5ccc2[nH]5)C=C4)C=C3)cc1
REMARK SMILES IDX 26 1 27 2 28 3 25 5 20 6 21 7 22 8 24 9 23 10 2 11 1 12 3 13
REMARK SMILES IDX 4 14 5 15 6 16 7 17 18 18 8 19 10 20 19 21 9 22 11 23 12 24
REMARK SMILES IDX 17 25 13 26 15 27 14 28 16 29 29 31 30 32 31 33 32 34 33 35
REMARK SMILES IDX 34 37 35 38 36 39 97 40 37 41 96 42 38 43 39 44 40 45 90 46
REMARK SMILES IDX 41 47 95 48 89 49 91 50 42 51 94 52 88 53 87 54 43 56 75 57
REMARK SMILES IDX 55 58 74 59 56 60 59 61 73 62 92 63 57 64 58 65 72 67 93 68
REMARK SMILES IDX 60 69 44 70 45 71 53 72 46 73 52 74 54 75 51 76 47 77 48 78
REMARK SMILES IDX 49 79 50 80 76 81 77 82 85 83 78 84 84 85 86 86 83 87 79 88
REMARK SMILES IDX 80 89 81 90 82 91 61 92 62 93 70 94 63 95 69 96 71 97 68 98
REMARK SMILES IDX 64 99 65 100 66 101 67 102
REMARK H PARENT 28 4 16 30 32 36 91 55 59 66
REMARK Flexibility Score: inf
ROOT
ATOM      1  C   UNL A   1      33.959  24.707  25.727  1.00  0.00     0.253 C 
ATOM      2  O   UNL A   1      34.503  24.026  26.612  1.00  0.00    -0.269 OA
ATOM      3  N   UNL A   1      34.033  26.059  25.998  1.00  0.00    -0.352 N 
ATOM      4  H   UNL A   1      34.398  26.221  26.897  1.00  0.00     0.163 HD
ENDROOT
BRANCH   1   5
ATOM      5  C   UNL A   1      33.327  23.922  24.587  1.00  0.00     0.063 A 
ATOM      6  C   UNL A   1      32.034  23.417  24.379  1.00  0.00     0.056 A 
ATOM      7  C   UNL A   1      31.696  22.743  23.165  1.00  0.00     0.027 A 
ATOM      8  C   UNL A   1      32.609  22.536  22.150  1.00  0.00     0.002 A 
ATOM      9  C   UNL A   1      34.233  23.681  23.514  1.00  0.00     0.016 A 
ATOM     10  C   UNL A   1      33.891  23.008  22.327  1.00  0.00     0.001 A 
BRANCH   6  11
ATOM     11  N   UNL A   1      30.931  23.560  25.250  1.00  0.00    -0.315 N 
ATOM     12  C   UNL A   1      30.922  22.650  26.394  1.00  0.00     0.153 C 
BRANCH  11  13
ATOM     13  C   UNL A   1      30.242  24.774  25.170  1.00  0.00     0.228 C 
ATOM     14  O   UNL A   1      29.859  25.407  26.158  1.00  0.00    -0.274 OA
BRANCH  13  15
ATOM     15  C   UNL A   1      30.058  25.388  23.821  1.00  0.00     0.125 C 
BRANCH  15  16
ATOM     16  C   UNL A   1      30.682  26.751  23.932  1.00  0.00     0.156 C 
ATOM     17  S   UNL A   1      32.155  26.859  22.893  1.00  0.00    -0.050 SA
ATOM     18  C   UNL A   1      29.756  27.836  23.484  1.00  0.00     0.248 C 
ATOM     19  C   UNL A   1      31.803  28.517  22.543  1.00  0.00     0.293 C 
ATOM     20  N   UNL A   1      30.443  28.736  22.712  1.00  0.00    -0.240 N 
ATOM     21  O   UNL A   1      28.591  27.921  23.857  1.00  0.00    -0.273 OA
ATOM     22  O   UNL A   1      32.710  29.290  22.305  1.00  0.00    -0.261 OA
BRANCH  20  23
ATOM     23  C   UNL A   1      29.957  30.041  22.525  1.00  0.00     0.056 A 
ATOM     24  C   UNL A   1      29.411  30.626  23.673  1.00  0.00     0.027 A 
ATOM     25  C   UNL A   1      29.415  30.257  21.250  1.00  0.00     0.073 A 
ATOM     26  C   UNL A   1      28.090  30.978  23.624  1.00  0.00     0.006 A 
ATOM     27  C   UNL A   1      28.099  30.608  21.211  1.00  0.00     0.117 A 
ATOM     28  C   UNL A   1      27.439  30.824  22.409  1.00  0.00     0.046 A 
BRANCH  27  29
ATOM     29  O   UNL A   1      27.468  30.594  20.009  1.00  0.00    -0.508 OA
ATOM     30  H   UNL A   1      27.498  31.350  19.455  1.00  0.00     0.293 HD
ENDBRANCH  27  29
ENDBRANCH  20  23
ENDBRANCH  15  16
ENDBRANCH  13  15
ENDBRANCH  11  13
ENDBRANCH   6  11
ENDBRANCH   1   5
BRANCH   3  31
ATOM     31  C   UNL A   1      33.721  27.312  25.324  1.00  0.00     0.118 C 
BRANCH  31  32
ATOM     32  C   UNL A   1      34.118  28.611  26.075  1.00  0.00     0.042 C 
BRANCH  32  33
ATOM     33  C   UNL A   1      33.093  29.267  27.027  1.00  0.00     0.118 C 
BRANCH  33  34
ATOM     34  N   UNL A   1      33.403  30.632  27.457  1.00  0.00    -0.352 N 
ATOM     35  C   UNL A   1      34.504  31.340  27.917  1.00  0.00     0.251 C 
ATOM     36  H   UNL A   1      32.608  31.210  27.405  1.00  0.00     0.163 HD
ATOM     37  O   UNL A   1      34.369  32.569  27.858  1.00  0.00    -0.269 OA
BRANCH  35  38
ATOM     38  C   UNL A   1      35.793  30.808  28.502  1.00  0.00     0.039 A 
ATOM     39  C   UNL A   1      35.790  30.401  29.864  1.00  0.00     0.014 A 
ATOM     40  C   UNL A   1      36.994  30.653  27.825  1.00  0.00     0.014 A 
ATOM     41  C   UNL A   1      36.910  29.790  30.500  1.00  0.00     0.010 A 
ATOM     42  C   UNL A   1      38.097  30.012  28.444  1.00  0.00     0.010 A 
ATOM     43  C   UNL A   1      38.068  29.515  29.772  1.00  0.00    -0.014 A 
BRANCH  43  44
ATOM     44  C   UNL A   1      39.315  28.824  30.294  1.00  0.00     0.031 A 
ATOM     45  C   UNL A   1      40.129  29.602  31.279  1.00  0.00     0.074 A 
ATOM     46  C   UNL A   1      39.868  27.669  29.832  1.00  0.00     0.049 A 
ATOM     47  N   UNL A   1      41.310  29.325  31.761  1.00  0.00    -0.248 NA
ATOM     48  C   UNL A   1      39.513  30.823  31.814  1.00  0.00     0.031 C 
ATOM     49  C   UNL A   1      39.230  26.610  29.072  1.00  0.00     0.029 A 
ATOM     50  N   UNL A   1      41.184  27.240  29.832  1.00  0.00    -0.354 N 
ATOM     51  C   UNL A   1      41.527  30.276  32.740  1.00  0.00     0.074 A 
ATOM     52  C   UNL A   1      40.460  31.248  32.632  1.00  0.00     0.031 C 
ATOM     53  C   UNL A   1      40.138  25.884  28.397  1.00  0.00     0.029 A 
ATOM     54  C   UNL A   1      41.450  26.256  28.890  1.00  0.00     0.049 A 
ATOM     55  H   UNL A   1      41.867  27.600  30.443  1.00  0.00     0.167 HD
ATOM     56  C   UNL A   1      42.454  30.258  33.725  1.00  0.00     0.034 A 
ATOM     57  C   UNL A   1      42.589  25.629  28.523  1.00  0.00     0.034 A 
ATOM     58  C   UNL A   1      43.532  29.309  33.792  1.00  0.00     0.049 A 
ATOM     59  C   UNL A   1      43.745  25.755  29.467  1.00  0.00     0.074 A 
ATOM     60  C   UNL A   1      44.517  29.177  34.752  1.00  0.00     0.029 A 
ATOM     61  N   UNL A   1      43.788  28.340  32.827  1.00  0.00    -0.354 N 
ATOM     62  N   UNL A   1      43.866  26.552  30.502  1.00  0.00    -0.248 NA
ATOM     63  C   UNL A   1      44.843  24.796  29.303  1.00  0.00     0.031 C 
ATOM     64  C   UNL A   1      45.401  28.172  34.337  1.00  0.00     0.029 A 
ATOM     65  C   UNL A   1      44.938  27.637  33.145  1.00  0.00     0.049 A 
ATOM     66  H   UNL A   1      43.230  28.176  32.033  1.00  0.00     0.167 HD
ATOM     67  C   UNL A   1      44.996  26.118  31.178  1.00  0.00     0.074 A 
ATOM     68  C   UNL A   1      45.544  25.017  30.407  1.00  0.00     0.031 C 
ATOM     69  C   UNL A   1      45.497  26.560  32.361  1.00  0.00     0.034 A 
BRANCH  56  70
ATOM     70  C   UNL A   1      42.265  31.303  34.790  1.00  0.00     0.023 A 
ATOM     71  C   UNL A   1      41.113  31.282  35.603  1.00  0.00     0.031 A 
ATOM     72  C   UNL A   1      43.126  32.404  34.883  1.00  0.00     0.131 A 
ATOM     73  C   UNL A   1      40.780  32.407  36.365  1.00  0.00     0.055 A 
ATOM     74  C   UNL A   1      42.837  33.479  35.725  1.00  0.00     0.041 A 
ATOM     75  F   UNL A   1      44.221  32.483  34.113  1.00  0.00    -0.206 F 
ATOM     76  C   UNL A   1      41.647  33.498  36.451  1.00  0.00     0.022 A 
BRANCH  73  77
ATOM     77  S   UNL A   1      39.106  32.510  37.060  1.00  0.00     0.124 S 
ATOM     78  O   UNL A   1      38.417  33.307  36.047  1.00  0.00    -0.237 OA
ATOM     79  O   UNL A   1      38.711  31.110  37.148  1.00  0.00    -0.237 OA
ATOM     80  O   UNL A   1      39.310  33.183  38.341  1.00  0.00    -0.744 OA
ENDBRANCH  73  77
ENDBRANCH  56  70
BRANCH  57  81
ATOM     81  C   UNL A   1      42.645  24.706  27.345  1.00  0.00     0.023 A 
ATOM     82  C   UNL A   1      42.190  23.378  27.405  1.00  0.00     0.031 A 
ATOM     83  C   UNL A   1      43.210  25.145  26.133  1.00  0.00     0.131 A 
ATOM     84  C   UNL A   1      42.335  22.528  26.291  1.00  0.00     0.055 A 
ATOM     85  C   UNL A   1      43.337  24.302  25.021  1.00  0.00     0.041 A 
ATOM     86  F   UNL A   1      43.664  26.404  26.015  1.00  0.00    -0.206 F 
ATOM     87  C   UNL A   1      42.905  22.982  25.100  1.00  0.00     0.022 A 
BRANCH  84  88
ATOM     88  S   UNL A   1      41.809  20.795  26.433  1.00  0.00     0.124 S 
ATOM     89  O   UNL A   1      40.385  20.884  26.134  1.00  0.00    -0.237 OA
ATOM     90  O   UNL A   1      42.638  20.147  25.422  1.00  0.00    -0.237 OA
ATOM     91  O   UNL A   1      42.135  20.449  27.816  1.00  0.00    -0.744 OA
ENDBRANCH  84  88
ENDBRANCH  57  81
BRANCH  69  92
ATOM     92  C   UNL A   1      46.688  25.818  32.900  1.00  0.00     0.023 A 
ATOM     93  C   UNL A   1      47.982  26.055  32.408  1.00  0.00     0.031 A 
ATOM     94  C   UNL A   1      46.521  24.831  33.886  1.00  0.00     0.131 A 
ATOM     95  C   UNL A   1      49.049  25.265  32.852  1.00  0.00     0.055 A 
ATOM     96  C   UNL A   1      47.600  24.094  34.376  1.00  0.00     0.041 A 
ATOM     97  F   UNL A   1      45.303  24.559  34.383  1.00  0.00    -0.206 F 
ATOM     98  C   UNL A   1      48.872  24.300  33.847  1.00  0.00     0.022 A 
BRANCH  95  99
ATOM     99  S   UNL A   1      50.654  25.447  32.031  1.00  0.00     0.124 S 
ATOM    100  O   UNL A   1      50.847  24.119  31.454  1.00  0.00    -0.237 OA
ATOM    101  O   UNL A   1      50.399  26.523  31.079  1.00  0.00    -0.237 OA
ATOM    102  O   UNL A   1      51.562  25.789  33.124  1.00  0.00    -0.744 OA
ENDBRANCH  95  99
ENDBRANCH  69  92
ENDBRANCH  43  44
ENDBRANCH  35  38
ENDBRANCH  33  34
ENDBRANCH  32  33
ENDBRANCH  31  32
ENDBRANCH   3  31
TORSDOF 19
ENDMDL
