MODEL 1
REMARK VINA RESULT:     -12.5      0.000      0.000
REMARK SMILES O=C(CSCc1nnnn1-c1ccc([N+](=O)[O-])cc1)NCCCNC(=O)c1ccc(-c2c3nc(c(-c4cc(S(=O)(=O)[O-])ccc4F)c4ccc([nH]4)c(-c4cc(S(=O)(=O)[O-])ccc4F)c4nc(c(-c5cc(S(=O)(=O)[O-])ccc5F)c5ccc2[nH]5)C=C4)C=C3)cc1
REMARK SMILES IDX 21 1 20 2 1 3 2 4 3 6 4 7 5 8 6 9 7 10 10 11 8 12 9 13 11 14
REMARK SMILES IDX 12 15 19 16 13 17 18 18 14 19 15 20 16 21 17 22 22 23 23 24
REMARK SMILES IDX 24 25 25 26 26 28 27 29 28 30 89 31 29 32 88 33 30 34 31 35
REMARK SMILES IDX 32 36 82 37 33 38 87 39 81 40 83 41 34 42 86 43 80 44 79 45
REMARK SMILES IDX 35 47 67 48 47 49 66 50 48 51 51 52 65 53 84 54 49 55 50 56
REMARK SMILES IDX 64 58 85 59 52 60 36 61 37 62 45 63 38 64 44 65 46 66 43 67
REMARK SMILES IDX 39 68 40 69 41 70 42 71 68 72 69 73 77 74 70 75 76 76 78 77
REMARK SMILES IDX 75 78 71 79 72 80 73 81 74 82 53 83 54 84 62 85 55 86 61 87
REMARK SMILES IDX 63 88 60 89 56 90 57 91 58 92 59 93
REMARK H PARENT 20 5 24 27 83 46 51 57
REMARK Flexibility Score: inf
ROOT
ATOM      1  C   UNL A   1      35.248  33.456  30.477  1.00  0.00     0.117 C 
ENDROOT
BRANCH   1   2
ATOM      2  N   UNL A   1      34.129  33.085  29.621  1.00  0.00    -0.355 N 
ATOM      3  O   UNL A   1      35.184  33.555  27.639  1.00  0.00    -0.274 OA
ATOM      4  C   UNL A   1      34.192  33.153  28.243  1.00  0.00     0.230 C 
ATOM      5  H   UNL A   1      33.296  32.774  30.042  1.00  0.00     0.163 HD
BRANCH   4   6
ATOM      6  C   UNL A   1      32.940  32.685  27.516  1.00  0.00     0.169 C 
BRANCH   6   7
ATOM      7  S   UNL A   1      32.924  30.881  27.251  1.00  0.00    -0.144 SA
BRANCH   7   8
ATOM      8  C   UNL A   1      31.660  30.711  25.954  1.00  0.00     0.149 C 
BRANCH   8   9
ATOM      9  C   UNL A   1      31.546  29.373  25.314  1.00  0.00     0.166 A 
ATOM     10  N   UNL A   1      32.084  28.232  25.705  1.00  0.00    -0.113 NA
ATOM     11  N   UNL A   1      30.629  29.080  24.315  1.00  0.00    -0.196 N 
ATOM     12  N   UNL A   1      31.422  27.238  25.039  1.00  0.00    -0.023 NA
ATOM     13  N   UNL A   1      30.483  27.738  24.251  1.00  0.00    -0.040 NA
BRANCH  11  14
ATOM     14  C   UNL A   1      29.900  29.928  23.450  1.00  0.00     0.069 A 
ATOM     15  C   UNL A   1      29.895  29.656  22.073  1.00  0.00     0.035 A 
ATOM     16  C   UNL A   1      29.233  31.058  23.943  1.00  0.00     0.035 A 
ATOM     17  C   UNL A   1      29.174  30.474  21.199  1.00  0.00     0.088 A 
ATOM     18  C   UNL A   1      28.536  31.897  23.068  1.00  0.00     0.088 A 
ATOM     19  C   UNL A   1      28.496  31.595  21.700  1.00  0.00     0.269 A 
BRANCH  19  20
ATOM     20  N   UNL A   1      27.752  32.465  20.781  1.00  0.00     0.062 N 
ATOM     21  O   UNL A   1      27.640  33.662  21.085  1.00  0.00    -0.258 OA
ATOM     22  O   UNL A   1      27.278  31.953  19.757  1.00  0.00    -0.258 OA
ENDBRANCH  19  20
ENDBRANCH  11  14
ENDBRANCH   8   9
ENDBRANCH   7   8
ENDBRANCH   6   7
ENDBRANCH   4   6
ENDBRANCH   1   2
BRANCH   1  23
ATOM     23  C   UNL A   1      35.688  32.350  31.444  1.00  0.00     0.042 C 
BRANCH  23  24
ATOM     24  C   UNL A   1      36.527  31.271  30.782  1.00  0.00     0.118 C 
BRANCH  24  25
ATOM     25  N   UNL A   1      35.795  30.444  29.807  1.00  0.00    -0.352 N 
ATOM     26  C   UNL A   1      36.298  29.580  28.832  1.00  0.00     0.251 C 
ATOM     27  H   UNL A   1      34.814  30.509  29.850  1.00  0.00     0.163 HD
ATOM     28  O   UNL A   1      35.604  29.248  27.888  1.00  0.00    -0.269 OA
BRANCH  26  29
ATOM     29  C   UNL A   1      37.686  29.081  28.970  1.00  0.00     0.039 A 
ATOM     30  C   UNL A   1      38.121  28.230  29.993  1.00  0.00     0.014 A 
ATOM     31  C   UNL A   1      38.574  29.483  27.991  1.00  0.00     0.014 A 
ATOM     32  C   UNL A   1      39.446  27.779  29.963  1.00  0.00     0.010 A 
ATOM     33  C   UNL A   1      39.700  28.763  27.766  1.00  0.00     0.010 A 
ATOM     34  C   UNL A   1      40.226  28.064  28.834  1.00  0.00    -0.014 A 
BRANCH  34  35
ATOM     35  C   UNL A   1      41.613  27.671  28.652  1.00  0.00     0.031 A 
ATOM     36  C   UNL A   1      41.804  26.450  27.848  1.00  0.00     0.074 A 
ATOM     37  C   UNL A   1      42.628  28.539  28.878  1.00  0.00     0.049 A 
ATOM     38  N   UNL A   1      42.176  25.293  28.274  1.00  0.00    -0.248 NA
ATOM     39  C   UNL A   1      41.366  26.456  26.445  1.00  0.00     0.031 C 
ATOM     40  C   UNL A   1      42.560  29.935  29.334  1.00  0.00     0.029 A 
ATOM     41  N   UNL A   1      43.950  28.388  28.601  1.00  0.00    -0.354 N 
ATOM     42  C   UNL A   1      42.267  24.487  27.147  1.00  0.00     0.074 A 
ATOM     43  C   UNL A   1      41.515  25.168  26.129  1.00  0.00     0.031 C 
ATOM     44  C   UNL A   1      43.737  30.553  29.087  1.00  0.00     0.029 A 
ATOM     45  C   UNL A   1      44.688  29.569  28.597  1.00  0.00     0.049 A 
ATOM     46  H   UNL A   1      44.355  27.510  28.416  1.00  0.00     0.167 HD
ATOM     47  C   UNL A   1      43.163  23.462  27.088  1.00  0.00     0.034 A 
ATOM     48  C   UNL A   1      45.976  29.726  28.185  1.00  0.00     0.034 A 
ATOM     49  C   UNL A   1      43.774  23.250  28.388  1.00  0.00     0.049 A 
ATOM     50  C   UNL A   1      46.605  28.379  28.270  1.00  0.00     0.074 A 
ATOM     51  C   UNL A   1      43.283  22.953  29.646  1.00  0.00     0.029 A 
ATOM     52  N   UNL A   1      45.036  23.770  28.599  1.00  0.00    -0.354 N 
ATOM     53  N   UNL A   1      46.758  27.738  29.400  1.00  0.00    -0.248 NA
ATOM     54  C   UNL A   1      46.574  27.529  27.088  1.00  0.00     0.031 C 
ATOM     55  C   UNL A   1      44.032  23.783  30.533  1.00  0.00     0.029 A 
ATOM     56  C   UNL A   1      45.008  24.456  29.791  1.00  0.00     0.049 A 
ATOM     57  H   UNL A   1      45.813  23.669  28.005  1.00  0.00     0.167 HD
ATOM     58  C   UNL A   1      46.383  26.429  29.127  1.00  0.00     0.074 A 
ATOM     59  C   UNL A   1      46.390  26.336  27.666  1.00  0.00     0.031 C 
ATOM     60  C   UNL A   1      45.808  25.636  30.083  1.00  0.00     0.034 A 
BRANCH  47  61
ATOM     61  C   UNL A   1      43.764  22.872  25.831  1.00  0.00     0.023 A 
ATOM     62  C   UNL A   1      43.795  21.466  25.747  1.00  0.00     0.031 A 
ATOM     63  C   UNL A   1      44.511  23.557  24.848  1.00  0.00     0.131 A 
ATOM     64  C   UNL A   1      44.615  20.811  24.816  1.00  0.00     0.055 A 
ATOM     65  C   UNL A   1      45.273  22.899  23.876  1.00  0.00     0.041 A 
ATOM     66  F   UNL A   1      44.629  24.888  24.815  1.00  0.00    -0.206 F 
ATOM     67  C   UNL A   1      45.358  21.519  23.877  1.00  0.00     0.022 A 
BRANCH  64  68
ATOM     68  S   UNL A   1      44.833  19.022  24.982  1.00  0.00     0.124 S 
ATOM     69  O   UNL A   1      46.084  18.946  25.728  1.00  0.00    -0.237 OA
ATOM     70  O   UNL A   1      43.625  18.640  25.704  1.00  0.00    -0.237 OA
ATOM     71  O   UNL A   1      44.904  18.562  23.596  1.00  0.00    -0.744 OA
ENDBRANCH  64  68
ENDBRANCH  47  61
BRANCH  48  72
ATOM     72  C   UNL A   1      46.565  30.895  27.462  1.00  0.00     0.023 A 
ATOM     73  C   UNL A   1      45.788  31.907  26.853  1.00  0.00     0.031 A 
ATOM     74  C   UNL A   1      47.953  31.149  27.562  1.00  0.00     0.131 A 
ATOM     75  C   UNL A   1      46.402  33.095  26.379  1.00  0.00     0.055 A 
ATOM     76  C   UNL A   1      48.553  32.319  27.088  1.00  0.00     0.041 A 
ATOM     77  F   UNL A   1      48.772  30.304  28.208  1.00  0.00    -0.206 F 
ATOM     78  C   UNL A   1      47.778  33.304  26.502  1.00  0.00     0.022 A 
BRANCH  75  79
ATOM     79  S   UNL A   1      45.400  34.452  25.678  1.00  0.00     0.124 S 
ATOM     80  O   UNL A   1      44.384  34.649  26.704  1.00  0.00    -0.237 OA
ATOM     81  O   UNL A   1      46.381  35.519  25.522  1.00  0.00    -0.237 OA
ATOM     82  O   UNL A   1      44.903  33.893  24.419  1.00  0.00    -0.744 OA
ENDBRANCH  75  79
ENDBRANCH  48  72
BRANCH  60  83
ATOM     83  C   UNL A   1      45.799  26.122  31.525  1.00  0.00     0.023 A 
ATOM     84  C   UNL A   1      44.691  26.724  32.168  1.00  0.00     0.031 A 
ATOM     85  C   UNL A   1      46.920  25.825  32.320  1.00  0.00     0.131 A 
ATOM     86  C   UNL A   1      44.738  27.010  33.548  1.00  0.00     0.055 A 
ATOM     87  C   UNL A   1      46.954  26.086  33.690  1.00  0.00     0.041 A 
ATOM     88  F   UNL A   1      47.997  25.228  31.782  1.00  0.00    -0.206 F 
ATOM     89  C   UNL A   1      45.863  26.684  34.309  1.00  0.00     0.022 A 
BRANCH  86  90
ATOM     90  S   UNL A   1      43.332  27.825  34.378  1.00  0.00     0.124 S 
ATOM     91  O   UNL A   1      42.305  27.871  33.345  1.00  0.00    -0.237 OA
ATOM     92  O   UNL A   1      43.067  26.935  35.505  1.00  0.00    -0.237 OA
ATOM     93  O   UNL A   1      43.874  29.134  34.754  1.00  0.00    -0.744 OA
ENDBRANCH  86  90
ENDBRANCH  60  83
ENDBRANCH  34  35
ENDBRANCH  26  29
ENDBRANCH  24  25
ENDBRANCH  23  24
ENDBRANCH   1  23
TORSDOF 18
ENDMDL
MODEL 2
REMARK VINA RESULT:     -11.9      3.601      8.722
REMARK SMILES O=C(CSCc1nnnn1-c1ccc([N+](=O)[O-])cc1)NCCCNC(=O)c1ccc(-c2c3nc(c(-c4cc(S(=O)(=O)[O-])ccc4F)c4ccc([nH]4)c(-c4cc(S(=O)(=O)[O-])ccc4F)c4nc(c(-c5cc(S(=O)(=O)[O-])ccc5F)c5ccc2[nH]5)C=C4)C=C3)cc1
REMARK SMILES IDX 21 1 20 2 1 3 2 4 3 6 4 7 5 8 6 9 7 10 10 11 8 12 9 13 11 14
REMARK SMILES IDX 12 15 19 16 13 17 18 18 14 19 15 20 16 21 17 22 22 23 23 24
REMARK SMILES IDX 24 25 25 26 26 28 27 29 28 30 89 31 29 32 88 33 30 34 31 35
REMARK SMILES IDX 32 36 82 37 33 38 87 39 81 40 83 41 34 42 86 43 80 44 79 45
REMARK SMILES IDX 35 47 67 48 47 49 66 50 48 51 51 52 65 53 84 54 49 55 50 56
REMARK SMILES IDX 64 58 85 59 52 60 36 61 37 62 45 63 38 64 44 65 46 66 43 67
REMARK SMILES IDX 39 68 40 69 41 70 42 71 68 72 69 73 77 74 70 75 76 76 78 77
REMARK SMILES IDX 75 78 71 79 72 80 73 81 74 82 53 83 54 84 62 85 55 86 61 87
REMARK SMILES IDX 63 88 60 89 56 90 57 91 58 92 59 93
REMARK H PARENT 20 5 24 27 83 46 51 57
REMARK Flexibility Score: inf
ROOT
ATOM      1  C   UNL A   1      38.245  22.479  25.755  1.00  0.00     0.117 C 
ENDROOT
BRANCH   1   2
ATOM      2  N   UNL A   1      36.918  23.063  25.894  1.00  0.00    -0.355 N 
ATOM      3  O   UNL A   1      36.447  23.116  23.650  1.00  0.00    -0.274 OA
ATOM      4  C   UNL A   1      36.103  23.328  24.810  1.00  0.00     0.230 C 
ATOM      5  H   UNL A   1      36.589  23.277  26.797  1.00  0.00     0.163 HD
BRANCH   4   6
ATOM      6  C   UNL A   1      34.735  23.899  25.155  1.00  0.00     0.169 C 
BRANCH   6   7
ATOM      7  S   UNL A   1      33.885  24.593  23.698  1.00  0.00    -0.144 SA
BRANCH   7   8
ATOM      8  C   UNL A   1      32.275  23.751  23.777  1.00  0.00     0.149 C 
BRANCH   8   9
ATOM      9  C   UNL A   1      31.528  23.874  25.058  1.00  0.00     0.166 A 
ATOM     10  N   UNL A   1      31.516  23.038  26.081  1.00  0.00    -0.113 NA
ATOM     11  N   UNL A   1      30.905  25.043  25.470  1.00  0.00    -0.196 N 
ATOM     12  N   UNL A   1      30.999  23.726  27.144  1.00  0.00    -0.023 NA
ATOM     13  N   UNL A   1      30.698  24.969  26.803  1.00  0.00    -0.040 NA
BRANCH  11  14
ATOM     14  C   UNL A   1      30.506  26.187  24.739  1.00  0.00     0.069 A 
ATOM     15  C   UNL A   1      29.242  26.201  24.130  1.00  0.00     0.035 A 
ATOM     16  C   UNL A   1      31.376  27.274  24.575  1.00  0.00     0.035 A 
ATOM     17  C   UNL A   1      28.823  27.324  23.412  1.00  0.00     0.088 A 
ATOM     18  C   UNL A   1      30.972  28.387  23.830  1.00  0.00     0.088 A 
ATOM     19  C   UNL A   1      29.691  28.415  23.263  1.00  0.00     0.269 A 
BRANCH  19  20
ATOM     20  N   UNL A   1      29.258  29.588  22.493  1.00  0.00     0.062 N 
ATOM     21  O   UNL A   1      28.254  30.199  22.890  1.00  0.00    -0.258 OA
ATOM     22  O   UNL A   1      29.919  29.898  21.492  1.00  0.00    -0.258 OA
ENDBRANCH  19  20
ENDBRANCH  11  14
ENDBRANCH   8   9
ENDBRANCH   7   8
ENDBRANCH   6   7
ENDBRANCH   4   6
ENDBRANCH   1   2
BRANCH   1  23
ATOM     23  C   UNL A   1      38.315  20.992  26.121  1.00  0.00     0.042 C 
BRANCH  23  24
ATOM     24  C   UNL A   1      39.019  20.147  25.074  1.00  0.00     0.118 C 
BRANCH  24  25
ATOM     25  N   UNL A   1      39.928  19.128  25.626  1.00  0.00    -0.352 N 
ATOM     26  C   UNL A   1      41.222  19.282  26.130  1.00  0.00     0.251 C 
ATOM     27  H   UNL A   1      39.574  18.210  25.642  1.00  0.00     0.163 HD
ATOM     28  O   UNL A   1      41.966  18.322  26.215  1.00  0.00    -0.269 OA
BRANCH  26  29
ATOM     29  C   UNL A   1      41.665  20.630  26.552  1.00  0.00     0.039 A 
ATOM     30  C   UNL A   1      42.346  21.533  25.726  1.00  0.00     0.014 A 
ATOM     31  C   UNL A   1      41.342  20.997  27.845  1.00  0.00     0.014 A 
ATOM     32  C   UNL A   1      42.643  22.804  26.233  1.00  0.00     0.010 A 
ATOM     33  C   UNL A   1      41.294  22.309  28.181  1.00  0.00     0.010 A 
ATOM     34  C   UNL A   1      42.107  23.172  27.475  1.00  0.00    -0.014 A 
BRANCH  34  35
ATOM     35  C   UNL A   1      42.324  24.447  28.136  1.00  0.00     0.031 A 
ATOM     36  C   UNL A   1      41.246  25.433  27.937  1.00  0.00     0.074 A 
ATOM     37  C   UNL A   1      43.234  24.582  29.131  1.00  0.00     0.049 A 
ATOM     38  N   UNL A   1      41.294  26.498  27.216  1.00  0.00    -0.248 NA
ATOM     39  C   UNL A   1      39.903  25.118  28.446  1.00  0.00     0.031 C 
ATOM     40  C   UNL A   1      44.134  23.566  29.697  1.00  0.00     0.029 A 
ATOM     41  N   UNL A   1      43.440  25.643  29.953  1.00  0.00    -0.354 N 
ATOM     42  C   UNL A   1      40.067  27.126  27.386  1.00  0.00     0.074 A 
ATOM     43  C   UNL A   1      39.192  26.117  27.917  1.00  0.00     0.031 C 
ATOM     44  C   UNL A   1      44.610  23.993  30.888  1.00  0.00     0.029 A 
ATOM     45  C   UNL A   1      44.174  25.362  31.104  1.00  0.00     0.049 A 
ATOM     46  H   UNL A   1      43.096  26.543  29.752  1.00  0.00     0.167 HD
ATOM     47  C   UNL A   1      39.957  28.482  27.312  1.00  0.00     0.034 A 
ATOM     48  C   UNL A   1      44.374  26.187  32.167  1.00  0.00     0.034 A 
ATOM     49  C   UNL A   1      41.197  29.064  26.832  1.00  0.00     0.049 A 
ATOM     50  C   UNL A   1      44.158  27.571  31.663  1.00  0.00     0.074 A 
ATOM     51  C   UNL A   1      41.954  28.908  25.686  1.00  0.00     0.029 A 
ATOM     52  N   UNL A   1      42.052  29.616  27.765  1.00  0.00    -0.354 N 
ATOM     53  N   UNL A   1      44.916  28.120  30.749  1.00  0.00    -0.248 NA
ATOM     54  C   UNL A   1      42.822  28.142  31.767  1.00  0.00     0.031 C 
ATOM     55  C   UNL A   1      43.305  28.873  26.146  1.00  0.00     0.029 A 
ATOM     56  C   UNL A   1      43.311  29.117  27.522  1.00  0.00     0.049 A 
ATOM     57  H   UNL A   1      41.806  30.252  28.475  1.00  0.00     0.167 HD
ATOM     58  C   UNL A   1      44.037  28.753  29.881  1.00  0.00     0.074 A 
ATOM     59  C   UNL A   1      42.775  28.830  30.619  1.00  0.00     0.031 C 
ATOM     60  C   UNL A   1      44.316  28.880  28.547  1.00  0.00     0.034 A 
BRANCH  47  61
ATOM     61  C   UNL A   1      38.896  29.330  27.980  1.00  0.00     0.023 A 
ATOM     62  C   UNL A   1      38.929  29.388  29.387  1.00  0.00     0.031 A 
ATOM     63  C   UNL A   1      37.740  29.868  27.375  1.00  0.00     0.131 A 
ATOM     64  C   UNL A   1      37.825  29.846  30.122  1.00  0.00     0.055 A 
ATOM     65  C   UNL A   1      36.670  30.390  28.111  1.00  0.00     0.041 A 
ATOM     66  F   UNL A   1      37.526  29.847  26.056  1.00  0.00    -0.206 F 
ATOM     67  C   UNL A   1      36.691  30.348  29.493  1.00  0.00     0.022 A 
BRANCH  64  68
ATOM     68  S   UNL A   1      37.832  29.597  31.915  1.00  0.00     0.124 S 
ATOM     69  O   UNL A   1      38.670  30.703  32.363  1.00  0.00    -0.237 OA
ATOM     70  O   UNL A   1      36.412  29.691  32.234  1.00  0.00    -0.237 OA
ATOM     71  O   UNL A   1      38.420  28.267  32.067  1.00  0.00    -0.744 OA
ENDBRANCH  64  68
ENDBRANCH  47  61
BRANCH  48  72
ATOM     72  C   UNL A   1      44.441  25.810  33.613  1.00  0.00     0.023 A 
ATOM     73  C   UNL A   1      43.421  26.107  34.545  1.00  0.00     0.031 A 
ATOM     74  C   UNL A   1      45.451  24.923  34.056  1.00  0.00     0.131 A 
ATOM     75  C   UNL A   1      43.443  25.533  35.842  1.00  0.00     0.055 A 
ATOM     76  C   UNL A   1      45.471  24.364  35.337  1.00  0.00     0.041 A 
ATOM     77  F   UNL A   1      46.415  24.493  33.226  1.00  0.00    -0.206 F 
ATOM     78  C   UNL A   1      44.460  24.660  36.234  1.00  0.00     0.022 A 
BRANCH  75  79
ATOM     79  S   UNL A   1      42.083  25.832  37.023  1.00  0.00     0.124 S 
ATOM     80  O   UNL A   1      41.382  24.554  37.017  1.00  0.00    -0.237 OA
ATOM     81  O   UNL A   1      42.797  26.177  38.246  1.00  0.00    -0.237 OA
ATOM     82  O   UNL A   1      41.343  26.941  36.417  1.00  0.00    -0.744 OA
ENDBRANCH  75  79
ENDBRANCH  48  72
BRANCH  60  83
ATOM     83  C   UNL A   1      45.714  28.531  28.059  1.00  0.00     0.023 A 
ATOM     84  C   UNL A   1      46.144  27.230  27.703  1.00  0.00     0.031 A 
ATOM     85  C   UNL A   1      46.600  29.593  27.805  1.00  0.00     0.131 A 
ATOM     86  C   UNL A   1      47.416  27.034  27.127  1.00  0.00     0.055 A 
ATOM     87  C   UNL A   1      47.847  29.399  27.211  1.00  0.00     0.041 A 
ATOM     88  F   UNL A   1      46.246  30.857  28.092  1.00  0.00    -0.206 F 
ATOM     89  C   UNL A   1      48.262  28.117  26.873  1.00  0.00     0.022 A 
BRANCH  86  90
ATOM     90  S   UNL A   1      47.998  25.357  26.705  1.00  0.00     0.124 S 
ATOM     91  O   UNL A   1      49.287  25.263  27.379  1.00  0.00    -0.237 OA
ATOM     92  O   UNL A   1      46.936  24.507  27.235  1.00  0.00    -0.237 OA
ATOM     93  O   UNL A   1      48.078  25.384  25.242  1.00  0.00    -0.744 OA
ENDBRANCH  86  90
ENDBRANCH  60  83
ENDBRANCH  34  35
ENDBRANCH  26  29
ENDBRANCH  24  25
ENDBRANCH  23  24
ENDBRANCH   1  23
TORSDOF 18
ENDMDL
MODEL 3
REMARK VINA RESULT:     -11.8      2.004      3.150
REMARK SMILES O=C(CSCc1nnnn1-c1ccc([N+](=O)[O-])cc1)NCCCNC(=O)c1ccc(-c2c3nc(c(-c4cc(S(=O)(=O)[O-])ccc4F)c4ccc([nH]4)c(-c4cc(S(=O)(=O)[O-])ccc4F)c4nc(c(-c5cc(S(=O)(=O)[O-])ccc5F)c5ccc2[nH]5)C=C4)C=C3)cc1
REMARK SMILES IDX 21 1 20 2 1 3 2 4 3 6 4 7 5 8 6 9 7 10 10 11 8 12 9 13 11 14
REMARK SMILES IDX 12 15 19 16 13 17 18 18 14 19 15 20 16 21 17 22 22 23 23 24
REMARK SMILES IDX 24 25 25 26 26 28 27 29 28 30 89 31 29 32 88 33 30 34 31 35
REMARK SMILES IDX 32 36 82 37 33 38 87 39 81 40 83 41 34 42 86 43 80 44 79 45
REMARK SMILES IDX 35 47 67 48 47 49 66 50 48 51 51 52 65 53 84 54 49 55 50 56
REMARK SMILES IDX 64 58 85 59 52 60 36 61 37 62 45 63 38 64 44 65 46 66 43 67
REMARK SMILES IDX 39 68 40 69 41 70 42 71 68 72 69 73 77 74 70 75 76 76 78 77
REMARK SMILES IDX 75 78 71 79 72 80 73 81 74 82 53 83 54 84 62 85 55 86 61 87
REMARK SMILES IDX 63 88 60 89 56 90 57 91 58 92 59 93
REMARK H PARENT 20 5 24 27 83 46 51 57
REMARK Flexibility Score: inf
ROOT
ATOM      1  C   UNL A   1      34.931  33.119  30.270  1.00  0.00     0.117 C 
ENDROOT
BRANCH   1   2
ATOM      2  N   UNL A   1      33.862  32.747  29.352  1.00  0.00    -0.355 N 
ATOM      3  O   UNL A   1      35.198  32.572  27.495  1.00  0.00    -0.274 OA
ATOM      4  C   UNL A   1      34.088  32.485  28.014  1.00  0.00     0.230 C 
ATOM      5  H   UNL A   1      32.944  32.679  29.699  1.00  0.00     0.163 HD
BRANCH   4   6
ATOM      6  C   UNL A   1      32.857  32.071  27.221  1.00  0.00     0.169 C 
BRANCH   6   7
ATOM      7  S   UNL A   1      32.561  30.272  27.287  1.00  0.00    -0.144 SA
BRANCH   7   8
ATOM      8  C   UNL A   1      32.668  29.817  25.530  1.00  0.00     0.149 C 
BRANCH   8   9
ATOM      9  C   UNL A   1      31.390  29.444  24.865  1.00  0.00     0.166 A 
ATOM     10  N   UNL A   1      30.544  30.229  24.223  1.00  0.00    -0.113 NA
ATOM     11  N   UNL A   1      31.017  28.133  24.610  1.00  0.00    -0.196 N 
ATOM     12  N   UNL A   1      29.732  29.411  23.487  1.00  0.00    -0.023 NA
ATOM     13  N   UNL A   1      30.062  28.140  23.654  1.00  0.00    -0.040 NA
BRANCH  11  14
ATOM     14  C   UNL A   1      31.472  26.915  25.168  1.00  0.00     0.069 A 
ATOM     15  C   UNL A   1      32.832  26.586  25.069  1.00  0.00     0.035 A 
ATOM     16  C   UNL A   1      30.575  26.018  25.765  1.00  0.00     0.035 A 
ATOM     17  C   UNL A   1      33.307  25.394  25.622  1.00  0.00     0.088 A 
ATOM     18  C   UNL A   1      31.041  24.809  26.292  1.00  0.00     0.088 A 
ATOM     19  C   UNL A   1      32.408  24.506  26.231  1.00  0.00     0.269 A 
BRANCH  19  20
ATOM     20  N   UNL A   1      32.903  23.244  26.797  1.00  0.00     0.062 N 
ATOM     21  O   UNL A   1      33.771  22.629  26.160  1.00  0.00    -0.258 OA
ATOM     22  O   UNL A   1      32.423  22.868  27.875  1.00  0.00    -0.258 OA
ENDBRANCH  19  20
ENDBRANCH  11  14
ENDBRANCH   8   9
ENDBRANCH   7   8
ENDBRANCH   6   7
ENDBRANCH   4   6
ENDBRANCH   1   2
BRANCH   1  23
ATOM     23  C   UNL A   1      35.359  31.994  31.219  1.00  0.00     0.042 C 
BRANCH  23  24
ATOM     24  C   UNL A   1      36.307  30.995  30.579  1.00  0.00     0.118 C 
BRANCH  24  25
ATOM     25  N   UNL A   1      35.726  30.236  29.458  1.00  0.00    -0.352 N 
ATOM     26  C   UNL A   1      36.371  29.482  28.475  1.00  0.00     0.251 C 
ATOM     27  H   UNL A   1      34.743  30.264  29.393  1.00  0.00     0.163 HD
ATOM     28  O   UNL A   1      35.802  29.216  27.432  1.00  0.00    -0.269 OA
BRANCH  26  29
ATOM     29  C   UNL A   1      37.755  29.020  28.729  1.00  0.00     0.039 A 
ATOM     30  C   UNL A   1      38.134  28.213  29.808  1.00  0.00     0.014 A 
ATOM     31  C   UNL A   1      38.703  29.409  27.801  1.00  0.00     0.014 A 
ATOM     32  C   UNL A   1      39.466  27.791  29.888  1.00  0.00     0.010 A 
ATOM     33  C   UNL A   1      39.856  28.707  27.682  1.00  0.00     0.010 A 
ATOM     34  C   UNL A   1      40.318  28.056  28.807  1.00  0.00    -0.014 A 
BRANCH  34  35
ATOM     35  C   UNL A   1      41.723  27.689  28.737  1.00  0.00     0.031 A 
ATOM     36  C   UNL A   1      42.005  26.497  27.916  1.00  0.00     0.074 A 
ATOM     37  C   UNL A   1      42.699  28.562  29.080  1.00  0.00     0.049 A 
ATOM     38  N   UNL A   1      42.357  25.332  28.336  1.00  0.00    -0.248 NA
ATOM     39  C   UNL A   1      41.692  26.543  26.480  1.00  0.00     0.031 C 
ATOM     40  C   UNL A   1      42.568  29.942  29.572  1.00  0.00     0.029 A 
ATOM     41  N   UNL A   1      44.042  28.439  28.918  1.00  0.00    -0.354 N 
ATOM     42  C   UNL A   1      42.560  24.565  27.197  1.00  0.00     0.074 A 
ATOM     43  C   UNL A   1      41.890  25.268  26.138  1.00  0.00     0.031 C 
ATOM     44  C   UNL A   1      43.751  30.584  29.451  1.00  0.00     0.029 A 
ATOM     45  C   UNL A   1      44.759  29.630  29.016  1.00  0.00     0.049 A 
ATOM     46  H   UNL A   1      44.477  27.573  28.742  1.00  0.00     0.167 HD
ATOM     47  C   UNL A   1      43.476  23.555  27.186  1.00  0.00     0.034 A 
ATOM     48  C   UNL A   1      46.075  29.818  28.726  1.00  0.00     0.034 A 
ATOM     49  C   UNL A   1      43.972  23.309  28.528  1.00  0.00     0.049 A 
ATOM     50  C   UNL A   1      46.716  28.478  28.825  1.00  0.00     0.074 A 
ATOM     51  C   UNL A   1      43.376  22.964  29.727  1.00  0.00     0.029 A 
ATOM     52  N   UNL A   1      45.201  23.839  28.867  1.00  0.00    -0.354 N 
ATOM     53  N   UNL A   1      46.779  27.802  29.942  1.00  0.00    -0.248 NA
ATOM     54  C   UNL A   1      46.804  27.667  27.618  1.00  0.00     0.031 C 
ATOM     55  C   UNL A   1      44.031  23.774  30.703  1.00  0.00     0.029 A 
ATOM     56  C   UNL A   1      45.056  24.485  30.073  1.00  0.00     0.049 A 
ATOM     57  H   UNL A   1      46.030  23.768  28.341  1.00  0.00     0.167 HD
ATOM     58  C   UNL A   1      46.452  26.497  29.596  1.00  0.00     0.074 A 
ATOM     59  C   UNL A   1      46.590  26.453  28.140  1.00  0.00     0.031 C 
ATOM     60  C   UNL A   1      45.808  25.666  30.472  1.00  0.00     0.034 A 
BRANCH  47  61
ATOM     61  C   UNL A   1      44.195  23.015  25.969  1.00  0.00     0.023 A 
ATOM     62  C   UNL A   1      43.940  21.672  25.631  1.00  0.00     0.031 A 
ATOM     63  C   UNL A   1      45.269  23.622  25.283  1.00  0.00     0.131 A 
ATOM     64  C   UNL A   1      44.783  20.969  24.756  1.00  0.00     0.055 A 
ATOM     65  C   UNL A   1      46.065  22.937  24.358  1.00  0.00     0.041 A 
ATOM     66  F   UNL A   1      45.676  24.872  25.521  1.00  0.00    -0.206 F 
ATOM     67  C   UNL A   1      45.848  21.593  24.115  1.00  0.00     0.022 A 
BRANCH  64  68
ATOM     68  S   UNL A   1      44.568  19.177  24.621  1.00  0.00     0.124 S 
ATOM     69  O   UNL A   1      43.143  19.030  24.895  1.00  0.00    -0.237 OA
ATOM     70  O   UNL A   1      44.991  18.929  23.247  1.00  0.00    -0.237 OA
ATOM     71  O   UNL A   1      45.459  18.652  25.654  1.00  0.00    -0.744 OA
ENDBRANCH  64  68
ENDBRANCH  47  61
BRANCH  48  72
ATOM     72  C   UNL A   1      46.706  31.018  28.095  1.00  0.00     0.023 A 
ATOM     73  C   UNL A   1      46.037  31.857  27.175  1.00  0.00     0.031 A 
ATOM     74  C   UNL A   1      47.946  31.492  28.585  1.00  0.00     0.131 A 
ATOM     75  C   UNL A   1      46.611  33.095  26.785  1.00  0.00     0.055 A 
ATOM     76  C   UNL A   1      48.509  32.710  28.193  1.00  0.00     0.041 A 
ATOM     77  F   UNL A   1      48.621  30.826  29.536  1.00  0.00    -0.206 F 
ATOM     78  C   UNL A   1      47.838  33.523  27.297  1.00  0.00     0.022 A 
BRANCH  75  79
ATOM     79  S   UNL A   1      45.715  34.233  25.672  1.00  0.00     0.124 S 
ATOM     80  O   UNL A   1      46.804  34.879  24.949  1.00  0.00    -0.237 OA
ATOM     81  O   UNL A   1      44.874  33.324  24.903  1.00  0.00    -0.237 OA
ATOM     82  O   UNL A   1      44.985  35.106  26.593  1.00  0.00    -0.744 OA
ENDBRANCH  75  79
ENDBRANCH  48  72
BRANCH  60  83
ATOM     83  C   UNL A   1      45.663  26.105  31.922  1.00  0.00     0.023 A 
ATOM     84  C   UNL A   1      44.521  26.744  32.462  1.00  0.00     0.031 A 
ATOM     85  C   UNL A   1      46.673  25.721  32.822  1.00  0.00     0.131 A 
ATOM     86  C   UNL A   1      44.429  26.981  33.849  1.00  0.00     0.055 A 
ATOM     87  C   UNL A   1      46.567  25.935  34.197  1.00  0.00     0.041 A 
ATOM     88  F   UNL A   1      47.771  25.086  32.382  1.00  0.00    -0.206 F 
ATOM     89  C   UNL A   1      45.445  26.570  34.715  1.00  0.00     0.022 A 
BRANCH  86  90
ATOM     90  S   UNL A   1      42.983  27.843  34.551  1.00  0.00     0.124 S 
ATOM     91  O   UNL A   1      41.940  27.631  33.554  1.00  0.00    -0.237 OA
ATOM     92  O   UNL A   1      42.793  27.161  35.829  1.00  0.00    -0.237 OA
ATOM     93  O   UNL A   1      43.439  29.231  34.668  1.00  0.00    -0.744 OA
ENDBRANCH  86  90
ENDBRANCH  60  83
ENDBRANCH  34  35
ENDBRANCH  26  29
ENDBRANCH  24  25
ENDBRANCH  23  24
ENDBRANCH   1  23
TORSDOF 18
ENDMDL
