MODEL 1
REMARK VINA RESULT:     -12.9      0.000      0.000
REMARK SMILES CS(=O)(=O)c1ccc(-c2cc(Cl)cc3c2O[C@H](C(F)(F)F)C(C(=O)NCCCNC(=O)c2ccc(-c4c5nc(c(-c6cc(S(=O)(=O)[O-])ccc6F)c6ccc([nH]6)c(-c6cc(S(=O)(=O)[O-])ccc6F)c6nc(c(-c7cc(S(=O)(=O)[O-])ccc7F)c7ccc4[nH]7)C=C6)C=C5)cc2)=C3)cc1
REMARK SMILES IDX 27 1 26 2 25 3 23 4 24 5 22 7 9 8 10 9 15 10 11 11 14 12
REMARK SMILES IDX 16 13 12 14 13 15 95 16 17 17 8 18 5 19 6 20 97 21 7 22
REMARK SMILES IDX 96 23 2 24 1 25 3 26 4 27 18 28 19 29 20 30 21 31 28 32
REMARK SMILES IDX 29 33 30 34 31 36 32 37 33 38 94 39 34 40 93 41 35 42 36 43
REMARK SMILES IDX 37 44 87 45 38 46 92 47 86 48 88 49 39 50 91 51 85 52 84 53
REMARK SMILES IDX 40 55 72 56 52 57 71 58 53 59 56 60 70 61 89 62 54 63 55 64
REMARK SMILES IDX 69 66 90 67 57 68 41 69 42 70 50 71 43 72 49 73 51 74 48 75
REMARK SMILES IDX 44 76 45 77 46 78 47 79 73 80 74 81 82 82 75 83 81 84 83 85
REMARK SMILES IDX 80 86 76 87 77 88 78 89 79 90 58 91 59 92 67 93 60 94 66 95
REMARK SMILES IDX 68 96 65 97 61 98 62 99 63 100 64 101
REMARK H PARENT 25 6 29 35 88 54 56 65
REMARK Flexibility Score: inf
ROOT
ATOM      1  C   UNL A   1      33.285  28.745  25.234  1.00  0.00     0.042 C 
ENDROOT
BRANCH   1   2
ATOM      2  C   UNL A   1      34.207  27.626  24.741  1.00  0.00     0.118 C 
BRANCH   2   3
ATOM      3  N   UNL A   1      33.446  26.646  23.992  1.00  0.00    -0.352 N 
ATOM      4  C   UNL A   1      33.906  25.502  23.432  1.00  0.00     0.251 C 
ATOM      5  O   UNL A   1      33.474  25.137  22.345  1.00  0.00    -0.270 OA
ATOM      6  H   UNL A   1      32.486  26.834  23.877  1.00  0.00     0.163 HD
BRANCH   4   7
ATOM      7  C   UNL A   1      34.823  24.662  24.257  1.00  0.00     0.067 C 
ATOM      8  C   UNL A   1      32.256  21.629  25.154  1.00  0.00     0.026 A 
ATOM      9  C   UNL A   1      31.043  22.230  25.585  1.00  0.00     0.033 A 
ATOM     10  C   UNL A   1      33.375  22.483  25.076  1.00  0.00     0.135 A 
ATOM     11  C   UNL A   1      30.968  23.542  26.048  1.00  0.00     0.042 A 
ATOM     12  C   UNL A   1      33.303  23.775  25.664  1.00  0.00     0.019 A 
ATOM     13  O   UNL A   1      34.545  22.153  24.401  1.00  0.00    -0.475 OA
ATOM     14  Cl  UNL A   1      29.449  24.199  26.508  1.00  0.00    -0.084 Cl
ATOM     15  C   UNL A   1      32.114  24.302  26.155  1.00  0.00     0.032 A 
ATOM     16  C   UNL A   1      34.487  24.655  25.561  1.00  0.00     0.025 C 
ATOM     17  C   UNL A   1      35.169  23.303  23.670  1.00  0.00     0.314 C 
BRANCH   8  18
ATOM     18  C   UNL A   1      32.199  20.145  25.031  1.00  0.00    -0.015 A 
ATOM     19  C   UNL A   1      33.153  17.486  24.696  1.00  0.00     0.067 A 
ATOM     20  C   UNL A   1      33.013  18.011  25.977  1.00  0.00     0.021 A 
ATOM     21  C   UNL A   1      32.733  18.237  23.591  1.00  0.00     0.021 A 
ATOM     22  C   UNL A   1      32.518  19.319  26.136  1.00  0.00     0.010 A 
ATOM     23  C   UNL A   1      32.249  19.547  23.760  1.00  0.00     0.010 A 
BRANCH  19  24
ATOM     24  S   UNL A   1      33.930  15.909  24.390  1.00  0.00     0.175 S 
ATOM     25  C   UNL A   1      35.443  15.835  25.310  1.00  0.00     0.163 C 
ATOM     26  O   UNL A   1      34.303  15.893  22.988  1.00  0.00    -0.224 OA
ATOM     27  O   UNL A   1      33.037  14.901  24.934  1.00  0.00    -0.224 OA
ENDBRANCH  19  24
ENDBRANCH   8  18
BRANCH  17  28
ATOM     28  C   UNL A   1      36.712  23.194  23.616  1.00  0.00     0.429 C 
ATOM     29  F   UNL A   1      37.323  23.974  24.535  1.00  0.00    -0.167 F 
ATOM     30  F   UNL A   1      37.124  21.919  23.818  1.00  0.00    -0.167 F 
ATOM     31  F   UNL A   1      37.218  23.564  22.408  1.00  0.00    -0.167 F 
ENDBRANCH  17  28
ENDBRANCH   4   7
ENDBRANCH   2   3
ENDBRANCH   1   2
BRANCH   1  32
ATOM     32  C   UNL A   1      33.380  29.037  26.730  1.00  0.00     0.118 C 
BRANCH  32  33
ATOM     33  N   UNL A   1      33.347  30.458  27.035  1.00  0.00    -0.352 N 
ATOM     34  C   UNL A   1      34.225  31.205  27.782  1.00  0.00     0.251 C 
ATOM     35  H   UNL A   1      32.588  30.955  26.653  1.00  0.00     0.163 HD
ATOM     36  O   UNL A   1      33.934  32.362  28.073  1.00  0.00    -0.269 OA
BRANCH  34  37
ATOM     37  C   UNL A   1      35.494  30.607  28.256  1.00  0.00     0.039 A 
ATOM     38  C   UNL A   1      36.668  30.872  27.548  1.00  0.00     0.014 A 
ATOM     39  C   UNL A   1      35.528  29.785  29.386  1.00  0.00     0.014 A 
ATOM     40  C   UNL A   1      37.882  30.352  28.005  1.00  0.00     0.010 A 
ATOM     41  C   UNL A   1      36.750  29.349  29.892  1.00  0.00     0.010 A 
ATOM     42  C   UNL A   1      37.939  29.610  29.196  1.00  0.00    -0.014 A 
BRANCH  42  43
ATOM     43  C   UNL A   1      39.231  29.068  29.699  1.00  0.00     0.031 A 
ATOM     44  C   UNL A   1      39.885  29.680  30.912  1.00  0.00     0.074 A 
ATOM     45  C   UNL A   1      39.828  28.047  29.052  1.00  0.00     0.049 A 
ATOM     46  N   UNL A   1      41.015  29.365  31.493  1.00  0.00    -0.248 NA
ATOM     47  C   UNL A   1      39.193  30.821  31.532  1.00  0.00     0.031 C 
ATOM     48  C   UNL A   1      39.320  27.403  27.838  1.00  0.00     0.029 A 
ATOM     49  N   UNL A   1      40.988  27.366  29.323  1.00  0.00    -0.354 N 
ATOM     50  C   UNL A   1      41.171  30.273  32.537  1.00  0.00     0.074 A 
ATOM     51  C   UNL A   1      40.063  31.199  32.454  1.00  0.00     0.031 C 
ATOM     52  C   UNL A   1      40.138  26.395  27.498  1.00  0.00     0.029 A 
ATOM     53  C   UNL A   1      41.254  26.347  28.437  1.00  0.00     0.049 A 
ATOM     54  H   UNL A   1      41.576  27.586  30.082  1.00  0.00     0.167 HD
ATOM     55  C   UNL A   1      42.130  30.311  33.495  1.00  0.00     0.034 A 
ATOM     56  C   UNL A   1      42.280  25.473  28.387  1.00  0.00     0.034 A 
ATOM     57  C   UNL A   1      43.221  29.370  33.570  1.00  0.00     0.049 A 
ATOM     58  C   UNL A   1      43.342  25.543  29.457  1.00  0.00     0.074 A 
ATOM     59  C   UNL A   1      44.222  29.285  34.521  1.00  0.00     0.029 A 
ATOM     60  N   UNL A   1      43.457  28.352  32.654  1.00  0.00    -0.354 N 
ATOM     61  N   UNL A   1      43.445  26.374  30.469  1.00  0.00    -0.248 NA
ATOM     62  C   UNL A   1      44.414  24.544  29.386  1.00  0.00     0.031 C 
ATOM     63  C   UNL A   1      45.103  28.267  34.141  1.00  0.00     0.029 A 
ATOM     64  C   UNL A   1      44.603  27.653  33.003  1.00  0.00     0.049 A 
ATOM     65  H   UNL A   1      42.892  28.155  31.872  1.00  0.00     0.167 HD
ATOM     66  C   UNL A   1      44.575  25.970  31.177  1.00  0.00     0.074 A 
ATOM     67  C   UNL A   1      45.102  24.811  30.485  1.00  0.00     0.031 C 
ATOM     68  C   UNL A   1      45.125  26.505  32.298  1.00  0.00     0.034 A 
BRANCH  55  69
ATOM     69  C   UNL A   1      42.045  31.421  34.520  1.00  0.00     0.023 A 
ATOM     70  C   UNL A   1      41.057  31.428  35.522  1.00  0.00     0.031 A 
ATOM     71  C   UNL A   1      42.938  32.505  34.475  1.00  0.00     0.131 A 
ATOM     72  C   UNL A   1      40.933  32.532  36.379  1.00  0.00     0.055 A 
ATOM     73  C   UNL A   1      42.868  33.558  35.391  1.00  0.00     0.041 A 
ATOM     74  F   UNL A   1      43.889  32.570  33.529  1.00  0.00    -0.206 F 
ATOM     75  C   UNL A   1      41.849  33.584  36.339  1.00  0.00     0.022 A 
BRANCH  72  76
ATOM     76  S   UNL A   1      39.461  32.648  37.434  1.00  0.00     0.124 S 
ATOM     77  O   UNL A   1      38.946  33.968  37.074  1.00  0.00    -0.237 OA
ATOM     78  O   UNL A   1      38.666  31.509  36.992  1.00  0.00    -0.237 OA
ATOM     79  O   UNL A   1      40.001  32.546  38.788  1.00  0.00    -0.744 OA
ENDBRANCH  72  76
ENDBRANCH  55  69
BRANCH  56  80
ATOM     80  C   UNL A   1      42.358  24.454  27.299  1.00  0.00     0.023 A 
ATOM     81  C   UNL A   1      41.562  23.297  27.330  1.00  0.00     0.031 A 
ATOM     82  C   UNL A   1      43.268  24.596  26.237  1.00  0.00     0.131 A 
ATOM     83  C   UNL A   1      41.730  22.304  26.351  1.00  0.00     0.055 A 
ATOM     84  C   UNL A   1      43.389  23.635  25.232  1.00  0.00     0.041 A 
ATOM     85  F   UNL A   1      44.052  25.684  26.156  1.00  0.00    -0.206 F 
ATOM     86  C   UNL A   1      42.627  22.472  25.295  1.00  0.00     0.022 A 
BRANCH  83  87
ATOM     87  S   UNL A   1      40.827  20.741  26.535  1.00  0.00     0.124 S 
ATOM     88  O   UNL A   1      39.528  21.079  25.964  1.00  0.00    -0.237 OA
ATOM     89  O   UNL A   1      41.651  19.823  25.756  1.00  0.00    -0.237 OA
ATOM     90  O   UNL A   1      40.835  20.511  27.978  1.00  0.00    -0.744 OA
ENDBRANCH  83  87
ENDBRANCH  56  80
BRANCH  68  91
ATOM     91  C   UNL A   1      46.335  25.801  32.870  1.00  0.00     0.023 A 
ATOM     92  C   UNL A   1      46.213  24.712  33.750  1.00  0.00     0.031 A 
ATOM     93  C   UNL A   1      47.629  26.253  32.554  1.00  0.00     0.131 A 
ATOM     94  C   UNL A   1      47.359  24.163  34.345  1.00  0.00     0.055 A 
ATOM     95  C   UNL A   1      48.769  25.652  33.089  1.00  0.00     0.041 A 
ATOM     96  F   UNL A   1      47.808  27.291  31.722  1.00  0.00    -0.206 F 
ATOM     97  C   UNL A   1      48.637  24.613  34.006  1.00  0.00     0.022 A 
BRANCH  94  98
ATOM     98  S   UNL A   1      47.148  22.944  35.672  1.00  0.00     0.124 S 
ATOM     99  O   UNL A   1      45.787  23.220  36.122  1.00  0.00    -0.237 OA
ATOM    100  O   UNL A   1      47.343  21.681  34.968  1.00  0.00    -0.237 OA
ATOM    101  O   UNL A   1      48.200  23.291  36.627  1.00  0.00    -0.744 OA
ENDBRANCH  94  98
ENDBRANCH  68  91
ENDBRANCH  42  43
ENDBRANCH  34  37
ENDBRANCH  32  33
ENDBRANCH   1  32
TORSDOF 16
ENDMDL
MODEL 2
REMARK VINA RESULT:     -12.6      2.441      3.030
REMARK SMILES CS(=O)(=O)c1ccc(-c2cc(Cl)cc3c2O[C@H](C(F)(F)F)C(C(=O)NCCCNC(=O)c2ccc(-c4c5nc(c(-c6cc(S(=O)(=O)[O-])ccc6F)c6ccc([nH]6)c(-c6cc(S(=O)(=O)[O-])ccc6F)c6nc(c(-c7cc(S(=O)(=O)[O-])ccc7F)c7ccc4[nH]7)C=C6)C=C5)cc2)=C3)cc1
REMARK SMILES IDX 27 1 26 2 25 3 23 4 24 5 22 7 9 8 10 9 15 10 11 11 14 12
REMARK SMILES IDX 16 13 12 14 13 15 95 16 17 17 8 18 5 19 6 20 97 21 7 22
REMARK SMILES IDX 96 23 2 24 1 25 3 26 4 27 18 28 19 29 20 30 21 31 28 32
REMARK SMILES IDX 29 33 30 34 31 36 32 37 33 38 94 39 34 40 93 41 35 42 36 43
REMARK SMILES IDX 37 44 87 45 38 46 92 47 86 48 88 49 39 50 91 51 85 52 84 53
REMARK SMILES IDX 40 55 72 56 52 57 71 58 53 59 56 60 70 61 89 62 54 63 55 64
REMARK SMILES IDX 69 66 90 67 57 68 41 69 42 70 50 71 43 72 49 73 51 74 48 75
REMARK SMILES IDX 44 76 45 77 46 78 47 79 73 80 74 81 82 82 75 83 81 84 83 85
REMARK SMILES IDX 80 86 76 87 77 88 78 89 79 90 58 91 59 92 67 93 60 94 66 95
REMARK SMILES IDX 68 96 65 97 61 98 62 99 63 100 64 101
REMARK H PARENT 25 6 29 35 88 54 56 65
REMARK Flexibility Score: inf
ROOT
ATOM      1  C   UNL A   1      31.786  30.581  26.324  1.00  0.00     0.042 C 
ENDROOT
BRANCH   1   2
ATOM      2  C   UNL A   1      32.167  29.487  25.324  1.00  0.00     0.118 C 
BRANCH   2   3
ATOM      3  N   UNL A   1      32.688  28.330  26.023  1.00  0.00    -0.352 N 
ATOM      4  C   UNL A   1      32.195  27.068  26.005  1.00  0.00     0.251 C 
ATOM      5  O   UNL A   1      32.204  26.395  27.029  1.00  0.00    -0.270 OA
ATOM      6  H   UNL A   1      33.491  28.478  26.575  1.00  0.00     0.163 HD
BRANCH   4   7
ATOM      7  C   UNL A   1      31.798  26.513  24.678  1.00  0.00     0.067 C 
ATOM      8  C   UNL A   1      33.288  22.746  25.104  1.00  0.00     0.026 A 
ATOM      9  C   UNL A   1      34.612  22.880  25.601  1.00  0.00     0.033 A 
ATOM     10  C   UNL A   1      32.692  23.923  24.606  1.00  0.00     0.135 A 
ATOM     11  C   UNL A   1      35.352  24.055  25.482  1.00  0.00     0.042 A 
ATOM     12  C   UNL A   1      33.502  25.069  24.385  1.00  0.00     0.019 A 
ATOM     13  O   UNL A   1      31.328  24.048  24.365  1.00  0.00    -0.475 OA
ATOM     14  Cl  UNL A   1      36.931  24.140  26.152  1.00  0.00    -0.084 Cl
ATOM     15  C   UNL A   1      34.824  25.138  24.810  1.00  0.00     0.032 A 
ATOM     16  C   UNL A   1      32.852  26.294  23.870  1.00  0.00     0.025 C 
ATOM     17  C   UNL A   1      30.770  25.393  24.721  1.00  0.00     0.314 C 
BRANCH   8  18
ATOM     18  C   UNL A   1      32.803  21.339  25.014  1.00  0.00    -0.015 A 
ATOM     19  C   UNL A   1      32.932  18.523  24.639  1.00  0.00     0.067 A 
ATOM     20  C   UNL A   1      33.071  19.054  25.917  1.00  0.00     0.021 A 
ATOM     21  C   UNL A   1      32.634  19.372  23.566  1.00  0.00     0.021 A 
ATOM     22  C   UNL A   1      32.982  20.447  26.099  1.00  0.00     0.010 A 
ATOM     23  C   UNL A   1      32.558  20.764  23.756  1.00  0.00     0.010 A 
BRANCH  19  24
ATOM     24  S   UNL A   1      33.198  16.794  24.289  1.00  0.00     0.175 S 
ATOM     25  C   UNL A   1      34.805  16.338  24.881  1.00  0.00     0.163 C 
ATOM     26  O   UNL A   1      33.244  16.663  22.845  1.00  0.00    -0.224 OA
ATOM     27  O   UNL A   1      32.219  16.062  25.072  1.00  0.00    -0.224 OA
ENDBRANCH  19  24
ENDBRANCH   8  18
BRANCH  17  28
ATOM     28  C   UNL A   1      29.593  25.800  23.802  1.00  0.00     0.429 C 
ATOM     29  F   UNL A   1      29.281  24.844  22.899  1.00  0.00    -0.167 F 
ATOM     30  F   UNL A   1      28.476  26.069  24.520  1.00  0.00    -0.167 F 
ATOM     31  F   UNL A   1      29.858  26.926  23.085  1.00  0.00    -0.167 F 
ENDBRANCH  17  28
ENDBRANCH   4   7
ENDBRANCH   2   3
ENDBRANCH   1   2
BRANCH   1  32
ATOM     32  C   UNL A   1      32.938  31.081  27.194  1.00  0.00     0.118 C 
BRANCH  32  33
ATOM     33  N   UNL A   1      32.997  32.530  27.282  1.00  0.00    -0.352 N 
ATOM     34  C   UNL A   1      33.888  33.322  27.964  1.00  0.00     0.251 C 
ATOM     35  H   UNL A   1      32.299  33.013  26.783  1.00  0.00     0.163 HD
ATOM     36  O   UNL A   1      33.671  34.527  28.061  1.00  0.00    -0.269 OA
BRANCH  34  37
ATOM     37  C   UNL A   1      35.082  32.719  28.601  1.00  0.00     0.039 A 
ATOM     38  C   UNL A   1      34.905  31.659  29.493  1.00  0.00     0.014 A 
ATOM     39  C   UNL A   1      36.366  33.197  28.327  1.00  0.00     0.014 A 
ATOM     40  C   UNL A   1      36.022  31.049  30.070  1.00  0.00     0.010 A 
ATOM     41  C   UNL A   1      37.479  32.526  28.827  1.00  0.00     0.010 A 
ATOM     42  C   UNL A   1      37.321  31.457  29.721  1.00  0.00    -0.014 A 
BRANCH  42  43
ATOM     43  C   UNL A   1      38.516  30.800  30.317  1.00  0.00     0.031 A 
ATOM     44  C   UNL A   1      38.959  31.163  31.711  1.00  0.00     0.074 A 
ATOM     45  C   UNL A   1      39.215  29.899  29.598  1.00  0.00     0.049 A 
ATOM     46  N   UNL A   1      39.980  30.719  32.399  1.00  0.00    -0.248 NA
ATOM     47  C   UNL A   1      38.169  32.189  32.410  1.00  0.00     0.031 C 
ATOM     48  C   UNL A   1      38.915  29.501  28.220  1.00  0.00     0.029 A 
ATOM     49  N   UNL A   1      40.318  29.151  29.923  1.00  0.00    -0.354 N 
ATOM     50  C   UNL A   1      39.959  31.417  33.603  1.00  0.00     0.074 A 
ATOM     51  C   UNL A   1      38.876  32.371  33.515  1.00  0.00     0.031 C 
ATOM     52  C   UNL A   1      39.783  28.552  27.837  1.00  0.00     0.029 A 
ATOM     53  C   UNL A   1      40.730  28.305  28.918  1.00  0.00     0.049 A 
ATOM     54  H   UNL A   1      40.773  29.214  30.794  1.00  0.00     0.167 HD
ATOM     55  C   UNL A   1      40.748  31.255  34.695  1.00  0.00     0.034 A 
ATOM     56  C   UNL A   1      41.755  27.429  28.875  1.00  0.00     0.034 A 
ATOM     57  C   UNL A   1      41.816  30.288  34.771  1.00  0.00     0.049 A 
ATOM     58  C   UNL A   1      42.627  27.275  30.097  1.00  0.00     0.074 A 
ATOM     59  C   UNL A   1      42.650  30.006  35.838  1.00  0.00     0.029 A 
ATOM     60  N   UNL A   1      42.204  29.449  33.733  1.00  0.00    -0.354 N 
ATOM     61  N   UNL A   1      42.559  27.904  31.248  1.00  0.00    -0.248 NA
ATOM     62  C   UNL A   1      43.701  26.279  30.017  1.00  0.00     0.031 C 
ATOM     63  C   UNL A   1      43.585  29.052  35.425  1.00  0.00     0.029 A 
ATOM     64  C   UNL A   1      43.281  28.670  34.127  1.00  0.00     0.049 A 
ATOM     65  H   UNL A   1      41.776  29.412  32.847  1.00  0.00     0.167 HD
ATOM     66  C   UNL A   1      43.560  27.349  32.042  1.00  0.00     0.074 A 
ATOM     67  C   UNL A   1      44.199  26.324  31.243  1.00  0.00     0.031 C 
ATOM     68  C   UNL A   1      43.917  27.657  33.316  1.00  0.00     0.034 A 
BRANCH  55  69
ATOM     69  C   UNL A   1      40.491  32.161  35.879  1.00  0.00     0.023 A 
ATOM     70  C   UNL A   1      39.443  31.915  36.785  1.00  0.00     0.031 A 
ATOM     71  C   UNL A   1      41.280  33.305  36.088  1.00  0.00     0.131 A 
ATOM     72  C   UNL A   1      39.158  32.841  37.800  1.00  0.00     0.055 A 
ATOM     73  C   UNL A   1      41.050  34.175  37.157  1.00  0.00     0.041 A 
ATOM     74  F   UNL A   1      42.281  33.609  35.246  1.00  0.00    -0.206 F 
ATOM     75  C   UNL A   1      39.973  33.955  38.010  1.00  0.00     0.022 A 
BRANCH  72  76
ATOM     76  S   UNL A   1      37.616  32.653  38.736  1.00  0.00     0.124 S 
ATOM     77  O   UNL A   1      37.625  31.222  39.034  1.00  0.00    -0.237 OA
ATOM     78  O   UNL A   1      37.826  33.544  39.871  1.00  0.00    -0.237 OA
ATOM     79  O   UNL A   1      36.587  33.079  37.790  1.00  0.00    -0.744 OA
ENDBRANCH  72  76
ENDBRANCH  55  69
BRANCH  56  80
ATOM     80  C   UNL A   1      42.015  26.624  27.645  1.00  0.00     0.023 A 
ATOM     81  C   UNL A   1      41.650  25.270  27.573  1.00  0.00     0.031 A 
ATOM     82  C   UNL A   1      42.680  27.183  26.540  1.00  0.00     0.131 A 
ATOM     83  C   UNL A   1      42.000  24.508  26.447  1.00  0.00     0.055 A 
ATOM     84  C   UNL A   1      42.972  26.438  25.397  1.00  0.00     0.041 A 
ATOM     85  F   UNL A   1      43.049  28.475  26.553  1.00  0.00    -0.206 F 
ATOM     86  C   UNL A   1      42.645  25.086  25.353  1.00  0.00     0.022 A 
BRANCH  83  87
ATOM     87  S   UNL A   1      41.687  22.720  26.475  1.00  0.00     0.124 S 
ATOM     88  O   UNL A   1      40.230  22.674  26.477  1.00  0.00    -0.237 OA
ATOM     89  O   UNL A   1      42.343  22.280  25.248  1.00  0.00    -0.237 OA
ATOM     90  O   UNL A   1      42.328  22.283  27.713  1.00  0.00    -0.744 OA
ENDBRANCH  83  87
ENDBRANCH  56  80
BRANCH  68  91
ATOM     91  C   UNL A   1      45.020  26.829  33.937  1.00  0.00     0.023 A 
ATOM     92  C   UNL A   1      44.751  25.655  34.660  1.00  0.00     0.031 A 
ATOM     93  C   UNL A   1      46.360  27.246  33.830  1.00  0.00     0.131 A 
ATOM     94  C   UNL A   1      45.794  24.982  35.314  1.00  0.00     0.055 A 
ATOM     95  C   UNL A   1      47.402  26.529  34.419  1.00  0.00     0.041 A 
ATOM     96  F   UNL A   1      46.679  28.361  33.155  1.00  0.00    -0.206 F 
ATOM     97  C   UNL A   1      47.120  25.401  35.182  1.00  0.00     0.022 A 
BRANCH  94  98
ATOM     98  S   UNL A   1      45.377  23.632  36.452  1.00  0.00     0.124 S 
ATOM     99  O   UNL A   1      44.761  24.352  37.563  1.00  0.00    -0.237 OA
ATOM    100  O   UNL A   1      44.477  22.813  35.646  1.00  0.00    -0.237 OA
ATOM    101  O   UNL A   1      46.672  23.022  36.750  1.00  0.00    -0.744 OA
ENDBRANCH  94  98
ENDBRANCH  68  91
ENDBRANCH  42  43
ENDBRANCH  34  37
ENDBRANCH  32  33
ENDBRANCH   1  32
TORSDOF 16
ENDMDL
MODEL 3
REMARK VINA RESULT:     -12.6      1.861      2.200
REMARK SMILES CS(=O)(=O)c1ccc(-c2cc(Cl)cc3c2O[C@H](C(F)(F)F)C(C(=O)NCCCNC(=O)c2ccc(-c4c5nc(c(-c6cc(S(=O)(=O)[O-])ccc6F)c6ccc([nH]6)c(-c6cc(S(=O)(=O)[O-])ccc6F)c6nc(c(-c7cc(S(=O)(=O)[O-])ccc7F)c7ccc4[nH]7)C=C6)C=C5)cc2)=C3)cc1
REMARK SMILES IDX 27 1 26 2 25 3 23 4 24 5 22 7 9 8 10 9 15 10 11 11 14 12
REMARK SMILES IDX 16 13 12 14 13 15 95 16 17 17 8 18 5 19 6 20 97 21 7 22
REMARK SMILES IDX 96 23 2 24 1 25 3 26 4 27 18 28 19 29 20 30 21 31 28 32
REMARK SMILES IDX 29 33 30 34 31 36 32 37 33 38 94 39 34 40 93 41 35 42 36 43
REMARK SMILES IDX 37 44 87 45 38 46 92 47 86 48 88 49 39 50 91 51 85 52 84 53
REMARK SMILES IDX 40 55 72 56 52 57 71 58 53 59 56 60 70 61 89 62 54 63 55 64
REMARK SMILES IDX 69 66 90 67 57 68 41 69 42 70 50 71 43 72 49 73 51 74 48 75
REMARK SMILES IDX 44 76 45 77 46 78 47 79 73 80 74 81 82 82 75 83 81 84 83 85
REMARK SMILES IDX 80 86 76 87 77 88 78 89 79 90 58 91 59 92 67 93 60 94 66 95
REMARK SMILES IDX 68 96 65 97 61 98 62 99 63 100 64 101
REMARK H PARENT 25 6 29 35 88 54 56 65
REMARK Flexibility Score: inf
ROOT
ATOM      1  C   UNL A   1      33.038  28.309  25.957  1.00  0.00     0.042 C 
ENDROOT
BRANCH   1   2
ATOM      2  C   UNL A   1      34.079  27.666  25.038  1.00  0.00     0.118 C 
BRANCH   2   3
ATOM      3  N   UNL A   1      33.442  26.709  24.154  1.00  0.00    -0.352 N 
ATOM      4  C   UNL A   1      34.011  25.631  23.564  1.00  0.00     0.251 C 
ATOM      5  O   UNL A   1      33.700  25.327  22.418  1.00  0.00    -0.270 OA
ATOM      6  H   UNL A   1      32.488  26.861  23.961  1.00  0.00     0.163 HD
BRANCH   4   7
ATOM      7  C   UNL A   1      34.890  24.775  24.414  1.00  0.00     0.067 C 
ATOM      8  C   UNL A   1      32.259  21.770  25.211  1.00  0.00     0.026 A 
ATOM      9  C   UNL A   1      31.040  22.383  25.606  1.00  0.00     0.033 A 
ATOM     10  C   UNL A   1      33.390  22.611  25.173  1.00  0.00     0.135 A 
ATOM     11  C   UNL A   1      30.966  23.693  26.074  1.00  0.00     0.042 A 
ATOM     12  C   UNL A   1      33.315  23.899  25.766  1.00  0.00     0.019 A 
ATOM     13  O   UNL A   1      34.577  22.269  24.534  1.00  0.00    -0.475 OA
ATOM     14  Cl  UNL A   1      29.442  24.367  26.489  1.00  0.00    -0.084 Cl
ATOM     15  C   UNL A   1      32.117  24.439  26.222  1.00  0.00     0.032 A 
ATOM     16  C   UNL A   1      34.512  24.766  25.706  1.00  0.00     0.025 C 
ATOM     17  C   UNL A   1      35.238  23.415  23.830  1.00  0.00     0.314 C 
BRANCH   8  18
ATOM     18  C   UNL A   1      32.188  20.287  25.077  1.00  0.00    -0.015 A 
ATOM     19  C   UNL A   1      33.110  17.627  24.673  1.00  0.00     0.067 A 
ATOM     20  C   UNL A   1      33.036  18.141  25.964  1.00  0.00     0.021 A 
ATOM     21  C   UNL A   1      32.640  18.389  23.597  1.00  0.00     0.021 A 
ATOM     22  C   UNL A   1      32.556  19.449  26.159  1.00  0.00     0.010 A 
ATOM     23  C   UNL A   1      32.172  19.700  23.800  1.00  0.00     0.010 A 
BRANCH  19  24
ATOM     24  S   UNL A   1      33.862  16.048  24.316  1.00  0.00     0.175 S 
ATOM     25  C   UNL A   1      35.349  15.901  25.268  1.00  0.00     0.163 C 
ATOM     26  O   UNL A   1      34.271  16.087  22.924  1.00  0.00    -0.224 OA
ATOM     27  O   UNL A   1      32.935  15.037  24.791  1.00  0.00    -0.224 OA
ENDBRANCH  19  24
ENDBRANCH   8  18
BRANCH  17  28
ATOM     28  C   UNL A   1      36.781  23.287  23.825  1.00  0.00     0.429 C 
ATOM     29  F   UNL A   1      37.200  22.022  24.049  1.00  0.00    -0.167 F 
ATOM     30  F   UNL A   1      37.306  23.693  22.644  1.00  0.00    -0.167 F 
ATOM     31  F   UNL A   1      37.370  24.056  24.781  1.00  0.00    -0.167 F 
ENDBRANCH  17  28
ENDBRANCH   4   7
ENDBRANCH   2   3
ENDBRANCH   1   2
BRANCH   1  32
ATOM     32  C   UNL A   1      33.585  28.800  27.296  1.00  0.00     0.118 C 
BRANCH  32  33
ATOM     33  N   UNL A   1      33.489  30.241  27.455  1.00  0.00    -0.352 N 
ATOM     34  C   UNL A   1      34.351  31.103  28.089  1.00  0.00     0.251 C 
ATOM     35  H   UNL A   1      32.694  30.660  27.052  1.00  0.00     0.163 HD
ATOM     36  O   UNL A   1      34.011  32.269  28.270  1.00  0.00    -0.269 OA
BRANCH  34  37
ATOM     37  C   UNL A   1      35.663  30.618  28.575  1.00  0.00     0.039 A 
ATOM     38  C   UNL A   1      35.694  29.716  29.640  1.00  0.00     0.014 A 
ATOM     39  C   UNL A   1      36.855  31.052  27.989  1.00  0.00     0.014 A 
ATOM     40  C   UNL A   1      36.921  29.214  30.084  1.00  0.00     0.010 A 
ATOM     41  C   UNL A   1      38.065  30.476  28.368  1.00  0.00     0.010 A 
ATOM     42  C   UNL A   1      38.116  29.566  29.434  1.00  0.00    -0.014 A 
BRANCH  42  43
ATOM     43  C   UNL A   1      39.424  29.021  29.888  1.00  0.00     0.031 A 
ATOM     44  C   UNL A   1      40.125  29.634  31.073  1.00  0.00     0.074 A 
ATOM     45  C   UNL A   1      39.991  27.995  29.223  1.00  0.00     0.049 A 
ATOM     46  N   UNL A   1      41.276  29.317  31.612  1.00  0.00    -0.248 NA
ATOM     47  C   UNL A   1      39.462  30.780  31.715  1.00  0.00     0.031 C 
ATOM     48  C   UNL A   1      39.434  27.349  28.031  1.00  0.00     0.029 A 
ATOM     49  N   UNL A   1      41.158  27.311  29.452  1.00  0.00    -0.354 N 
ATOM     50  C   UNL A   1      41.475  30.228  32.645  1.00  0.00     0.074 A 
ATOM     51  C   UNL A   1      40.369  31.158  32.602  1.00  0.00     0.031 C 
ATOM     52  C   UNL A   1      40.235  26.337  27.664  1.00  0.00     0.029 A 
ATOM     53  C   UNL A   1      41.385  26.287  28.559  1.00  0.00     0.049 A 
ATOM     54  H   UNL A   1      41.775  27.531  30.186  1.00  0.00     0.167 HD
ATOM     55  C   UNL A   1      42.471  30.266  33.566  1.00  0.00     0.034 A 
ATOM     56  C   UNL A   1      42.405  25.409  28.474  1.00  0.00     0.034 A 
ATOM     57  C   UNL A   1      43.560  29.320  33.603  1.00  0.00     0.049 A 
ATOM     58  C   UNL A   1      43.508  25.478  29.502  1.00  0.00     0.074 A 
ATOM     59  C   UNL A   1      44.597  29.234  34.514  1.00  0.00     0.029 A 
ATOM     60  N   UNL A   1      43.757  28.298  32.682  1.00  0.00    -0.354 N 
ATOM     61  N   UNL A   1      43.653  26.312  30.506  1.00  0.00    -0.248 NA
ATOM     62  C   UNL A   1      44.572  24.475  29.393  1.00  0.00     0.031 C 
ATOM     63  C   UNL A   1      45.458  28.211  34.105  1.00  0.00     0.029 A 
ATOM     64  C   UNL A   1      44.912  27.596  32.989  1.00  0.00     0.049 A 
ATOM     65  H   UNL A   1      43.162  28.100  31.923  1.00  0.00     0.167 HD
ATOM     66  C   UNL A   1      44.807  25.906  31.171  1.00  0.00     0.074 A 
ATOM     67  C   UNL A   1      45.303  24.743  30.464  1.00  0.00     0.031 C 
ATOM     68  C   UNL A   1      45.402  26.443  32.268  1.00  0.00     0.034 A 
BRANCH  55  69
ATOM     69  C   UNL A   1      42.429  31.379  34.589  1.00  0.00     0.023 A 
ATOM     70  C   UNL A   1      43.027  32.630  34.347  1.00  0.00     0.031 A 
ATOM     71  C   UNL A   1      41.817  31.179  35.838  1.00  0.00     0.131 A 
ATOM     72  C   UNL A   1      43.076  33.595  35.364  1.00  0.00     0.055 A 
ATOM     73  C   UNL A   1      41.786  32.179  36.814  1.00  0.00     0.041 A 
ATOM     74  F   UNL A   1      41.249  30.001  36.141  1.00  0.00    -0.206 F 
ATOM     75  C   UNL A   1      42.434  33.389  36.586  1.00  0.00     0.022 A 
BRANCH  72  76
ATOM     76  S   UNL A   1      44.126  35.054  35.123  1.00  0.00     0.124 S 
ATOM     77  O   UNL A   1      43.286  35.883  34.262  1.00  0.00    -0.237 OA
ATOM     78  O   UNL A   1      44.314  35.535  36.487  1.00  0.00    -0.237 OA
ATOM     79  O   UNL A   1      45.322  34.513  34.481  1.00  0.00    -0.744 OA
ENDBRANCH  72  76
ENDBRANCH  55  69
BRANCH  56  80
ATOM     80  C   UNL A   1      42.438  24.386  27.387  1.00  0.00     0.023 A 
ATOM     81  C   UNL A   1      41.748  23.169  27.515  1.00  0.00     0.031 A 
ATOM     82  C   UNL A   1      43.202  24.587  26.224  1.00  0.00     0.131 A 
ATOM     83  C   UNL A   1      41.880  22.181  26.527  1.00  0.00     0.055 A 
ATOM     84  C   UNL A   1      43.281  23.627  25.215  1.00  0.00     0.041 A 
ATOM     85  F   UNL A   1      43.879  25.734  26.048  1.00  0.00    -0.206 F 
ATOM     86  C   UNL A   1      42.630  22.407  25.372  1.00  0.00     0.022 A 
BRANCH  83  87
ATOM     87  S   UNL A   1      41.135  20.552  26.820  1.00  0.00     0.124 S 
ATOM     88  O   UNL A   1      40.852  20.609  28.250  1.00  0.00    -0.237 OA
ATOM     89  O   UNL A   1      39.976  20.586  25.934  1.00  0.00    -0.237 OA
ATOM     90  O   UNL A   1      42.190  19.621  26.428  1.00  0.00    -0.744 OA
ENDBRANCH  83  87
ENDBRANCH  56  80
BRANCH  68  91
ATOM     91  C   UNL A   1      46.630  25.736  32.796  1.00  0.00     0.023 A 
ATOM     92  C   UNL A   1      47.912  25.984  32.276  1.00  0.00     0.031 A 
ATOM     93  C   UNL A   1      46.507  24.774  33.815  1.00  0.00     0.131 A 
ATOM     94  C   UNL A   1      49.005  25.223  32.716  1.00  0.00     0.055 A 
ATOM     95  C   UNL A   1      47.611  24.075  34.304  1.00  0.00     0.041 A 
ATOM     96  F   UNL A   1      45.309  24.491  34.349  1.00  0.00    -0.206 F 
ATOM     97  C   UNL A   1      48.866  24.284  33.741  1.00  0.00     0.022 A 
BRANCH  94  98
ATOM     98  S   UNL A   1      50.584  25.381  31.838  1.00  0.00     0.124 S 
ATOM     99  O   UNL A   1      51.436  24.453  32.576  1.00  0.00    -0.237 OA
ATOM    100  O   UNL A   1      50.228  24.977  30.482  1.00  0.00    -0.237 OA
ATOM    101  O   UNL A   1      50.924  26.794  31.996  1.00  0.00    -0.744 OA
ENDBRANCH  94  98
ENDBRANCH  68  91
ENDBRANCH  42  43
ENDBRANCH  34  37
ENDBRANCH  32  33
ENDBRANCH   1  32
TORSDOF 16
ENDMDL
