MODEL 1
REMARK VINA RESULT:     -12.2      0.000      0.000
REMARK SMILES CC(C)[C@H](NC(=O)Cn1ccc2c(Br)cccc21)C(=O)NCCCNC(=O)c1ccc(-c2c3nc(c(-c4cc(S(=O)(=O)[O-])ccc4F)c4ccc([nH]4)c(-c4cc(S(=O)(=O)[O-])ccc4F)c4nc(c(-c5cc(S(=O)(=O)[O-])ccc5F)c5ccc2[nH]5)C=C4)C=C3)cc1
REMARK SMILES IDX 23 1 22 2 21 3 19 4 20 5 4 7 2 8 1 9 3 10 5 11 6 12 7 14
REMARK SMILES IDX 8 15 9 16 10 17 18 18 11 19 12 20 17 21 13 22 16 23 14 24
REMARK SMILES IDX 15 25 24 26 25 27 26 28 27 30 28 31 29 32 90 33 30 34 89 35
REMARK SMILES IDX 31 36 32 37 33 38 83 39 34 40 88 41 82 42 84 43 35 44 87 45
REMARK SMILES IDX 81 46 80 47 36 49 68 50 48 51 67 52 49 53 52 54 66 55 85 56
REMARK SMILES IDX 50 57 51 58 65 60 86 61 53 62 37 63 38 64 46 65 39 66 45 67
REMARK SMILES IDX 47 68 44 69 40 70 41 71 42 72 43 73 69 74 70 75 78 76 71 77
REMARK SMILES IDX 77 78 79 79 76 80 72 81 73 82 74 83 75 84 54 85 55 86 63 87
REMARK SMILES IDX 56 88 62 89 64 90 61 91 57 92 58 93 59 94 60 95
REMARK H PARENT 21 6 5 13 25 29 84 48 52 59
REMARK Flexibility Score: inf
ROOT
ATOM      1  C   UNL A   1      38.168  21.352  25.241  1.00  0.00     0.042 C 
ENDROOT
BRANCH   1   2
ATOM      2  C   UNL A   1      36.724  21.718  25.548  1.00  0.00     0.117 C 
BRANCH   2   3
ATOM      3  N   UNL A   1      35.782  20.618  25.470  1.00  0.00    -0.354 N 
ATOM      4  C   UNL A   1      34.453  20.624  25.149  1.00  0.00     0.242 C 
ATOM      5  O   UNL A   1      33.947  19.562  24.775  1.00  0.00    -0.273 OA
ATOM      6  H   UNL A   1      36.156  19.732  25.681  1.00  0.00     0.163 HD
BRANCH   4   7
ATOM      7  C   UNL A   1      33.611  21.920  25.147  1.00  0.00     0.173 C 
BRANCH   7   8
ATOM      8  C   UNL A   1      32.564  22.012  26.305  1.00  0.00     0.015 C 
ATOM      9  C   UNL A   1      33.021  22.486  27.682  1.00  0.00     0.010 C 
ATOM     10  C   UNL A   1      31.351  22.849  25.879  1.00  0.00     0.010 C 
ENDBRANCH   7   8
BRANCH   7  11
ATOM     11  N   UNL A   1      33.100  22.184  23.786  1.00  0.00    -0.343 N 
ATOM     12  C   UNL A   1      33.486  23.103  22.850  1.00  0.00     0.240 C 
ATOM     13  H   UNL A   1      32.358  21.601  23.506  1.00  0.00     0.164 HD
ATOM     14  O   UNL A   1      33.050  22.953  21.704  1.00  0.00    -0.273 OA
BRANCH  12  15
ATOM     15  C   UNL A   1      34.368  24.286  23.197  1.00  0.00     0.222 C 
BRANCH  15  16
ATOM     16  N   UNL A   1      33.710  25.294  24.026  1.00  0.00    -0.338 N 
ATOM     17  C   UNL A   1      33.986  25.543  25.343  1.00  0.00     0.087 A 
ATOM     18  C   UNL A   1      32.744  26.193  23.610  1.00  0.00     0.050 A 
ATOM     19  C   UNL A   1      33.572  26.819  25.627  1.00  0.00     0.029 A 
ATOM     20  C   UNL A   1      32.704  27.209  24.577  1.00  0.00     0.014 A 
ATOM     21  C   UNL A   1      31.905  26.209  22.486  1.00  0.00     0.027 A 
ATOM     22  C   UNL A   1      31.841  28.304  24.379  1.00  0.00     0.027 A 
ATOM     23  C   UNL A   1      30.991  27.264  22.366  1.00  0.00     0.003 A 
ATOM     24  Br  UNL A   1      31.794  29.737  25.618  1.00  0.00    -0.050 Br
ATOM     25  C   UNL A   1      30.970  28.310  23.288  1.00  0.00     0.016 A 
ENDBRANCH  15  16
ENDBRANCH  12  15
ENDBRANCH   7  11
ENDBRANCH   4   7
ENDBRANCH   2   3
ENDBRANCH   1   2
BRANCH   1  26
ATOM     26  C   UNL A   1      39.113  21.911  26.284  1.00  0.00     0.118 C 
BRANCH  26  27
ATOM     27  N   UNL A   1      40.517  21.791  25.878  1.00  0.00    -0.352 N 
ATOM     28  C   UNL A   1      41.529  22.725  26.022  1.00  0.00     0.251 C 
ATOM     29  H   UNL A   1      40.771  20.942  25.451  1.00  0.00     0.163 HD
ATOM     30  O   UNL A   1      42.590  22.603  25.459  1.00  0.00    -0.269 OA
BRANCH  28  31
ATOM     31  C   UNL A   1      41.237  23.889  26.876  1.00  0.00     0.039 A 
ATOM     32  C   UNL A   1      41.962  24.089  28.051  1.00  0.00     0.014 A 
ATOM     33  C   UNL A   1      40.344  24.844  26.392  1.00  0.00     0.014 A 
ATOM     34  C   UNL A   1      41.851  25.315  28.696  1.00  0.00     0.010 A 
ATOM     35  C   UNL A   1      40.343  26.096  26.954  1.00  0.00     0.010 A 
ATOM     36  C   UNL A   1      41.062  26.325  28.126  1.00  0.00    -0.014 A 
BRANCH  36  37
ATOM     37  C   UNL A   1      41.046  27.657  28.719  1.00  0.00     0.031 A 
ATOM     38  C   UNL A   1      42.002  28.638  28.134  1.00  0.00     0.074 A 
ATOM     39  C   UNL A   1      40.085  28.062  29.573  1.00  0.00     0.049 A 
ATOM     40  N   UNL A   1      43.093  29.100  28.652  1.00  0.00    -0.248 NA
ATOM     41  C   UNL A   1      41.775  29.068  26.744  1.00  0.00     0.031 C 
ATOM     42  C   UNL A   1      38.843  27.359  29.922  1.00  0.00     0.029 A 
ATOM     43  N   UNL A   1      39.958  29.249  30.225  1.00  0.00    -0.354 N 
ATOM     44  C   UNL A   1      43.563  30.057  27.750  1.00  0.00     0.074 A 
ATOM     45  C   UNL A   1      42.843  29.837  26.522  1.00  0.00     0.031 C 
ATOM     46  C   UNL A   1      37.989  28.224  30.510  1.00  0.00     0.029 A 
ATOM     47  C   UNL A   1      38.703  29.457  30.773  1.00  0.00     0.049 A 
ATOM     48  H   UNL A   1      40.692  29.901  30.302  1.00  0.00     0.167 HD
ATOM     49  C   UNL A   1      44.295  31.132  28.166  1.00  0.00     0.034 A 
ATOM     50  C   UNL A   1      38.265  30.570  31.399  1.00  0.00     0.034 A 
ATOM     51  C   UNL A   1      44.636  31.017  29.556  1.00  0.00     0.049 A 
ATOM     52  C   UNL A   1      39.441  31.336  31.862  1.00  0.00     0.074 A 
ATOM     53  C   UNL A   1      45.591  30.384  30.314  1.00  0.00     0.029 A 
ATOM     54  N   UNL A   1      43.637  31.428  30.400  1.00  0.00    -0.354 N 
ATOM     55  N   UNL A   1      40.282  30.902  32.761  1.00  0.00    -0.248 NA
ATOM     56  C   UNL A   1      39.890  32.489  31.088  1.00  0.00     0.031 C 
ATOM     57  C   UNL A   1      45.051  30.285  31.629  1.00  0.00     0.029 A 
ATOM     58  C   UNL A   1      43.787  30.875  31.643  1.00  0.00     0.049 A 
ATOM     59  H   UNL A   1      42.908  32.040  30.147  1.00  0.00     0.167 HD
ATOM     60  C   UNL A   1      41.493  31.441  32.378  1.00  0.00     0.074 A 
ATOM     61  C   UNL A   1      41.167  32.537  31.477  1.00  0.00     0.031 C 
ATOM     62  C   UNL A   1      42.660  30.761  32.547  1.00  0.00     0.034 A 
BRANCH  49  63
ATOM     63  C   UNL A   1      44.329  32.489  27.493  1.00  0.00     0.023 A 
ATOM     64  C   UNL A   1      43.553  33.576  27.930  1.00  0.00     0.031 A 
ATOM     65  C   UNL A   1      45.338  32.796  26.552  1.00  0.00     0.131 A 
ATOM     66  C   UNL A   1      43.760  34.874  27.442  1.00  0.00     0.055 A 
ATOM     67  C   UNL A   1      45.591  34.104  26.115  1.00  0.00     0.041 A 
ATOM     68  F   UNL A   1      46.145  31.839  26.068  1.00  0.00    -0.206 F 
ATOM     69  C   UNL A   1      44.799  35.154  26.561  1.00  0.00     0.022 A 
BRANCH  66  70
ATOM     70  S   UNL A   1      42.683  36.230  27.980  1.00  0.00     0.124 S 
ATOM     71  O   UNL A   1      41.422  35.538  28.218  1.00  0.00    -0.237 OA
ATOM     72  O   UNL A   1      43.381  36.706  29.173  1.00  0.00    -0.237 OA
ATOM     73  O   UNL A   1      42.705  37.149  26.845  1.00  0.00    -0.744 OA
ENDBRANCH  66  70
ENDBRANCH  49  63
BRANCH  50  74
ATOM     74  C   UNL A   1      36.910  31.151  31.331  1.00  0.00     0.023 A 
ATOM     75  C   UNL A   1      36.337  31.447  30.080  1.00  0.00     0.031 A 
ATOM     76  C   UNL A   1      36.305  31.696  32.474  1.00  0.00     0.131 A 
ATOM     77  C   UNL A   1      35.243  32.318  29.994  1.00  0.00     0.055 A 
ATOM     78  C   UNL A   1      35.205  32.552  32.385  1.00  0.00     0.041 A 
ATOM     79  F   UNL A   1      36.815  31.457  33.692  1.00  0.00    -0.206 F 
ATOM     80  C   UNL A   1      34.679  32.881  31.140  1.00  0.00     0.022 A 
BRANCH  77  81
ATOM     81  S   UNL A   1      34.572  32.785  28.374  1.00  0.00     0.124 S 
ATOM     82  O   UNL A   1      35.775  33.156  27.632  1.00  0.00    -0.237 OA
ATOM     83  O   UNL A   1      33.932  31.545  27.951  1.00  0.00    -0.237 OA
ATOM     84  O   UNL A   1      33.676  33.893  28.687  1.00  0.00    -0.744 OA
ENDBRANCH  77  81
ENDBRANCH  50  74
BRANCH  62  85
ATOM     85  C   UNL A   1      42.738  29.697  33.599  1.00  0.00     0.023 A 
ATOM     86  C   UNL A   1      43.208  30.105  34.859  1.00  0.00     0.031 A 
ATOM     87  C   UNL A   1      42.573  28.322  33.368  1.00  0.00     0.131 A 
ATOM     88  C   UNL A   1      43.560  29.156  35.819  1.00  0.00     0.055 A 
ATOM     89  C   UNL A   1      42.862  27.376  34.358  1.00  0.00     0.041 A 
ATOM     90  F   UNL A   1      42.204  27.857  32.168  1.00  0.00    -0.206 F 
ATOM     91  C   UNL A   1      43.376  27.791  35.585  1.00  0.00     0.022 A 
BRANCH  88  92
ATOM     92  S   UNL A   1      44.399  29.674  37.337  1.00  0.00     0.124 S 
ATOM     93  O   UNL A   1      44.479  28.426  38.091  1.00  0.00    -0.237 OA
ATOM     94  O   UNL A   1      45.670  30.181  36.825  1.00  0.00    -0.237 OA
ATOM     95  O   UNL A   1      43.512  30.686  37.904  1.00  0.00    -0.744 OA
ENDBRANCH  88  92
ENDBRANCH  62  85
ENDBRANCH  36  37
ENDBRANCH  28  31
ENDBRANCH  26  27
ENDBRANCH   1  26
TORSDOF 17
ENDMDL
MODEL 2
REMARK VINA RESULT:     -12.1      3.054      7.253
REMARK SMILES CC(C)[C@H](NC(=O)Cn1ccc2c(Br)cccc21)C(=O)NCCCNC(=O)c1ccc(-c2c3nc(c(-c4cc(S(=O)(=O)[O-])ccc4F)c4ccc([nH]4)c(-c4cc(S(=O)(=O)[O-])ccc4F)c4nc(c(-c5cc(S(=O)(=O)[O-])ccc5F)c5ccc2[nH]5)C=C4)C=C3)cc1
REMARK SMILES IDX 23 1 22 2 21 3 19 4 20 5 4 7 2 8 1 9 3 10 5 11 6 12 7 14
REMARK SMILES IDX 8 15 9 16 10 17 18 18 11 19 12 20 17 21 13 22 16 23 14 24
REMARK SMILES IDX 15 25 24 26 25 27 26 28 27 30 28 31 29 32 90 33 30 34 89 35
REMARK SMILES IDX 31 36 32 37 33 38 83 39 34 40 88 41 82 42 84 43 35 44 87 45
REMARK SMILES IDX 81 46 80 47 36 49 68 50 48 51 67 52 49 53 52 54 66 55 85 56
REMARK SMILES IDX 50 57 51 58 65 60 86 61 53 62 37 63 38 64 46 65 39 66 45 67
REMARK SMILES IDX 47 68 44 69 40 70 41 71 42 72 43 73 69 74 70 75 78 76 71 77
REMARK SMILES IDX 77 78 79 79 76 80 72 81 73 82 74 83 75 84 54 85 55 86 63 87
REMARK SMILES IDX 56 88 62 89 64 90 61 91 57 92 58 93 59 94 60 95
REMARK H PARENT 21 6 5 13 25 29 84 48 52 59
REMARK Flexibility Score: inf
ROOT
ATOM      1  C   UNL A   1      37.458  20.563  24.723  1.00  0.00     0.042 C 
ENDROOT
BRANCH   1   2
ATOM      2  C   UNL A   1      36.179  21.009  25.414  1.00  0.00     0.117 C 
BRANCH   2   3
ATOM      3  N   UNL A   1      35.010  20.200  25.126  1.00  0.00    -0.354 N 
ATOM      4  C   UNL A   1      33.784  20.570  24.649  1.00  0.00     0.242 C 
ATOM      5  O   UNL A   1      33.085  19.698  24.124  1.00  0.00    -0.273 OA
ATOM      6  H   UNL A   1      35.116  19.236  25.302  1.00  0.00     0.163 HD
BRANCH   4   7
ATOM      7  C   UNL A   1      33.304  22.039  24.659  1.00  0.00     0.173 C 
BRANCH   7   8
ATOM      8  C   UNL A   1      34.105  22.986  23.706  1.00  0.00     0.015 C 
ATOM      9  C   UNL A   1      33.566  23.254  22.303  1.00  0.00     0.010 C 
ATOM     10  C   UNL A   1      34.389  24.331  24.384  1.00  0.00     0.010 C 
ENDBRANCH   7   8
BRANCH   7  11
ATOM     11  N   UNL A   1      33.143  22.504  26.052  1.00  0.00    -0.343 N 
ATOM     12  C   UNL A   1      32.027  22.899  26.737  1.00  0.00     0.240 C 
ATOM     13  H   UNL A   1      33.977  22.537  26.573  1.00  0.00     0.164 HD
ATOM     14  O   UNL A   1      32.134  23.014  27.962  1.00  0.00    -0.273 OA
BRANCH  12  15
ATOM     15  C   UNL A   1      30.725  23.231  26.036  1.00  0.00     0.222 C 
BRANCH  15  16
ATOM     16  N   UNL A   1      30.824  24.346  25.097  1.00  0.00    -0.338 N 
ATOM     17  C   UNL A   1      30.581  24.276  23.752  1.00  0.00     0.087 A 
ATOM     18  C   UNL A   1      31.127  25.659  25.413  1.00  0.00     0.050 A 
ATOM     19  C   UNL A   1      30.283  25.539  23.310  1.00  0.00     0.029 A 
ATOM     20  C   UNL A   1      30.713  26.436  24.320  1.00  0.00     0.014 A 
ATOM     21  C   UNL A   1      31.724  26.234  26.545  1.00  0.00     0.027 A 
ATOM     22  C   UNL A   1      30.845  27.836  24.391  1.00  0.00     0.027 A 
ATOM     23  C   UNL A   1      31.926  27.620  26.544  1.00  0.00     0.003 A 
ATOM     24  Br  UNL A   1      30.242  28.939  22.973  1.00  0.00    -0.050 Br
ATOM     25  C   UNL A   1      31.477  28.416  25.492  1.00  0.00     0.016 A 
ENDBRANCH  15  16
ENDBRANCH  12  15
ENDBRANCH   7  11
ENDBRANCH   4   7
ENDBRANCH   2   3
ENDBRANCH   1   2
BRANCH   1  26
ATOM     26  C   UNL A   1      38.663  20.743  25.621  1.00  0.00     0.118 C 
BRANCH  26  27
ATOM     27  N   UNL A   1      39.551  19.577  25.595  1.00  0.00    -0.352 N 
ATOM     28  C   UNL A   1      40.896  19.521  25.920  1.00  0.00     0.251 C 
ATOM     29  H   UNL A   1      39.140  18.729  25.312  1.00  0.00     0.163 HD
ATOM     30  O   UNL A   1      41.574  18.558  25.655  1.00  0.00    -0.269 OA
BRANCH  28  31
ATOM     31  C   UNL A   1      41.465  20.708  26.581  1.00  0.00     0.039 A 
ATOM     32  C   UNL A   1      41.920  21.780  25.813  1.00  0.00     0.014 A 
ATOM     33  C   UNL A   1      41.384  20.782  27.970  1.00  0.00     0.014 A 
ATOM     34  C   UNL A   1      42.207  22.979  26.456  1.00  0.00     0.010 A 
ATOM     35  C   UNL A   1      41.536  22.002  28.580  1.00  0.00     0.010 A 
ATOM     36  C   UNL A   1      41.985  23.092  27.836  1.00  0.00    -0.014 A 
BRANCH  36  37
ATOM     37  C   UNL A   1      42.151  24.381  28.496  1.00  0.00     0.031 A 
ATOM     38  C   UNL A   1      41.041  25.355  28.307  1.00  0.00     0.074 A 
ATOM     39  C   UNL A   1      43.118  24.613  29.408  1.00  0.00     0.049 A 
ATOM     40  N   UNL A   1      41.030  26.428  27.585  1.00  0.00    -0.248 NA
ATOM     41  C   UNL A   1      39.735  25.026  28.902  1.00  0.00     0.031 C 
ATOM     42  C   UNL A   1      44.028  23.633  30.016  1.00  0.00     0.029 A 
ATOM     43  N   UNL A   1      43.414  25.761  30.075  1.00  0.00    -0.354 N 
ATOM     44  C   UNL A   1      39.794  27.032  27.826  1.00  0.00     0.074 A 
ATOM     45  C   UNL A   1      38.975  26.031  28.459  1.00  0.00     0.031 C 
ATOM     46  C   UNL A   1      44.590  24.168  31.121  1.00  0.00     0.029 A 
ATOM     47  C   UNL A   1      44.252  25.577  31.162  1.00  0.00     0.049 A 
ATOM     48  H   UNL A   1      43.065  26.642  29.809  1.00  0.00     0.167 HD
ATOM     49  C   UNL A   1      39.635  28.386  27.749  1.00  0.00     0.034 A 
ATOM     50  C   UNL A   1      44.646  26.514  32.051  1.00  0.00     0.034 A 
ATOM     51  C   UNL A   1      40.816  29.016  27.229  1.00  0.00     0.049 A 
ATOM     52  C   UNL A   1      44.473  27.845  31.430  1.00  0.00     0.074 A 
ATOM     53  C   UNL A   1      41.374  29.258  25.996  1.00  0.00     0.029 A 
ATOM     54  N   UNL A   1      41.783  29.231  28.176  1.00  0.00    -0.354 N 
ATOM     55  N   UNL A   1      45.140  28.249  30.383  1.00  0.00    -0.248 NA
ATOM     56  C   UNL A   1      43.305  28.647  31.778  1.00  0.00     0.031 C 
ATOM     57  C   UNL A   1      42.764  29.469  26.227  1.00  0.00     0.029 A 
ATOM     58  C   UNL A   1      43.015  29.367  27.595  1.00  0.00     0.049 A 
ATOM     59  H   UNL A   1      41.615  29.281  29.145  1.00  0.00     0.167 HD
ATOM     60  C   UNL A   1      44.254  29.071  29.717  1.00  0.00     0.074 A 
ATOM     61  C   UNL A   1      43.235  29.423  30.695  1.00  0.00     0.031 C 
ATOM     62  C   UNL A   1      44.225  29.132  28.358  1.00  0.00     0.034 A 
BRANCH  49  63
ATOM     63  C   UNL A   1      38.633  29.203  28.539  1.00  0.00     0.023 A 
ATOM     64  C   UNL A   1      37.537  29.849  27.944  1.00  0.00     0.031 A 
ATOM     65  C   UNL A   1      38.614  29.138  29.951  1.00  0.00     0.131 A 
ATOM     66  C   UNL A   1      36.505  30.409  28.711  1.00  0.00     0.055 A 
ATOM     67  C   UNL A   1      37.549  29.636  30.716  1.00  0.00     0.041 A 
ATOM     68  F   UNL A   1      39.605  28.538  30.630  1.00  0.00    -0.206 F 
ATOM     69  C   UNL A   1      36.484  30.277  30.095  1.00  0.00     0.022 A 
BRANCH  66  70
ATOM     70  S   UNL A   1      35.150  31.298  27.899  1.00  0.00     0.124 S 
ATOM     71  O   UNL A   1      34.644  30.296  26.968  1.00  0.00    -0.237 OA
ATOM     72  O   UNL A   1      34.280  31.609  29.032  1.00  0.00    -0.237 OA
ATOM     73  O   UNL A   1      35.815  32.451  27.297  1.00  0.00    -0.744 OA
ENDBRANCH  66  70
ENDBRANCH  49  63
BRANCH  50  74
ATOM     74  C   UNL A   1      44.854  26.330  33.500  1.00  0.00     0.023 A 
ATOM     75  C   UNL A   1      43.746  26.169  34.352  1.00  0.00     0.031 A 
ATOM     76  C   UNL A   1      46.096  26.616  34.088  1.00  0.00     0.131 A 
ATOM     77  C   UNL A   1      43.882  26.363  35.733  1.00  0.00     0.055 A 
ATOM     78  C   UNL A   1      46.232  26.794  35.467  1.00  0.00     0.041 A 
ATOM     79  F   UNL A   1      47.185  26.791  33.324  1.00  0.00    -0.206 F 
ATOM     80  C   UNL A   1      45.119  26.685  36.295  1.00  0.00     0.022 A 
BRANCH  77  81
ATOM     81  S   UNL A   1      42.433  26.261  36.818  1.00  0.00     0.124 S 
ATOM     82  O   UNL A   1      43.011  26.517  38.137  1.00  0.00    -0.237 OA
ATOM     83  O   UNL A   1      41.590  27.325  36.286  1.00  0.00    -0.237 OA
ATOM     84  O   UNL A   1      41.952  24.899  36.612  1.00  0.00    -0.744 OA
ENDBRANCH  77  81
ENDBRANCH  50  74
BRANCH  62  85
ATOM     85  C   UNL A   1      45.452  28.753  27.584  1.00  0.00     0.023 A 
ATOM     86  C   UNL A   1      45.471  27.455  27.048  1.00  0.00     0.031 A 
ATOM     87  C   UNL A   1      46.634  29.509  27.528  1.00  0.00     0.131 A 
ATOM     88  C   UNL A   1      46.656  26.921  26.540  1.00  0.00     0.055 A 
ATOM     89  C   UNL A   1      47.802  28.995  26.955  1.00  0.00     0.041 A 
ATOM     90  F   UNL A   1      46.712  30.723  28.088  1.00  0.00    -0.206 F 
ATOM     91  C   UNL A   1      47.821  27.688  26.474  1.00  0.00     0.022 A 
BRANCH  88  92
ATOM     92  S   UNL A   1      46.737  25.170  26.088  1.00  0.00     0.124 S 
ATOM     93  O   UNL A   1      46.683  25.222  24.629  1.00  0.00    -0.237 OA
ATOM     94  O   UNL A   1      48.021  24.768  26.655  1.00  0.00    -0.237 OA
ATOM     95  O   UNL A   1      45.565  24.583  26.732  1.00  0.00    -0.744 OA
ENDBRANCH  88  92
ENDBRANCH  62  85
ENDBRANCH  36  37
ENDBRANCH  28  31
ENDBRANCH  26  27
ENDBRANCH   1  26
TORSDOF 17
ENDMDL
MODEL 3
REMARK VINA RESULT:     -11.9      3.604      8.928
REMARK SMILES CC(C)[C@H](NC(=O)Cn1ccc2c(Br)cccc21)C(=O)NCCCNC(=O)c1ccc(-c2c3nc(c(-c4cc(S(=O)(=O)[O-])ccc4F)c4ccc([nH]4)c(-c4cc(S(=O)(=O)[O-])ccc4F)c4nc(c(-c5cc(S(=O)(=O)[O-])ccc5F)c5ccc2[nH]5)C=C4)C=C3)cc1
REMARK SMILES IDX 23 1 22 2 21 3 19 4 20 5 4 7 2 8 1 9 3 10 5 11 6 12 7 14
REMARK SMILES IDX 8 15 9 16 10 17 18 18 11 19 12 20 17 21 13 22 16 23 14 24
REMARK SMILES IDX 15 25 24 26 25 27 26 28 27 30 28 31 29 32 90 33 30 34 89 35
REMARK SMILES IDX 31 36 32 37 33 38 83 39 34 40 88 41 82 42 84 43 35 44 87 45
REMARK SMILES IDX 81 46 80 47 36 49 68 50 48 51 67 52 49 53 52 54 66 55 85 56
REMARK SMILES IDX 50 57 51 58 65 60 86 61 53 62 37 63 38 64 46 65 39 66 45 67
REMARK SMILES IDX 47 68 44 69 40 70 41 71 42 72 43 73 69 74 70 75 78 76 71 77
REMARK SMILES IDX 77 78 79 79 76 80 72 81 73 82 74 83 75 84 54 85 55 86 63 87
REMARK SMILES IDX 56 88 62 89 64 90 61 91 57 92 58 93 59 94 60 95
REMARK H PARENT 21 6 5 13 25 29 84 48 52 59
REMARK Flexibility Score: inf
ROOT
ATOM      1  C   UNL A   1      33.166  29.201  25.791  1.00  0.00     0.042 C 
ENDROOT
BRANCH   1   2
ATOM      2  C   UNL A   1      32.634  27.807  25.496  1.00  0.00     0.117 C 
BRANCH   2   3
ATOM      3  N   UNL A   1      31.463  27.765  24.641  1.00  0.00    -0.354 N 
ATOM      4  C   UNL A   1      30.765  26.691  24.163  1.00  0.00     0.242 C 
ATOM      5  O   UNL A   1      29.606  26.882  23.783  1.00  0.00    -0.273 OA
ATOM      6  H   UNL A   1      31.119  28.644  24.361  1.00  0.00     0.163 HD
BRANCH   4   7
ATOM      7  C   UNL A   1      31.344  25.258  24.181  1.00  0.00     0.173 C 
BRANCH   7   8
ATOM      8  C   UNL A   1      31.575  24.637  22.764  1.00  0.00     0.015 C 
ATOM      9  C   UNL A   1      32.235  25.487  21.681  1.00  0.00     0.010 C 
ATOM     10  C   UNL A   1      32.330  23.306  22.867  1.00  0.00     0.010 C 
ENDBRANCH   7   8
BRANCH   7  11
ATOM     11  N   UNL A   1      30.590  24.425  25.140  1.00  0.00    -0.343 N 
ATOM     12  C   UNL A   1      30.820  24.154  26.460  1.00  0.00     0.240 C 
ATOM     13  H   UNL A   1      29.789  23.992  24.766  1.00  0.00     0.164 HD
ATOM     14  O   UNL A   1      29.903  23.618  27.090  1.00  0.00    -0.273 OA
BRANCH  12  15
ATOM     15  C   UNL A   1      32.151  24.448  27.125  1.00  0.00     0.222 C 
BRANCH  15  16
ATOM     16  N   UNL A   1      33.137  23.380  26.975  1.00  0.00    -0.338 N 
ATOM     17  C   UNL A   1      33.159  22.214  27.691  1.00  0.00     0.087 A 
ATOM     18  C   UNL A   1      34.173  23.345  26.059  1.00  0.00     0.050 A 
ATOM     19  C   UNL A   1      33.866  21.289  26.968  1.00  0.00     0.029 A 
ATOM     20  C   UNL A   1      34.592  22.007  25.985  1.00  0.00     0.014 A 
ATOM     21  C   UNL A   1      34.782  24.353  25.297  1.00  0.00     0.027 A 
ATOM     22  C   UNL A   1      35.607  21.661  25.073  1.00  0.00     0.027 A 
ATOM     23  C   UNL A   1      35.852  23.991  24.469  1.00  0.00     0.003 A 
ATOM     24  Br  UNL A   1      36.165  19.860  24.882  1.00  0.00    -0.050 Br
ATOM     25  C   UNL A   1      36.250  22.661  24.341  1.00  0.00     0.016 A 
ENDBRANCH  15  16
ENDBRANCH  12  15
ENDBRANCH   7  11
ENDBRANCH   4   7
ENDBRANCH   2   3
ENDBRANCH   1   2
BRANCH   1  26
ATOM     26  C   UNL A   1      33.518  29.360  27.255  1.00  0.00     0.118 C 
BRANCH  26  27
ATOM     27  N   UNL A   1      33.842  30.747  27.598  1.00  0.00    -0.352 N 
ATOM     28  C   UNL A   1      34.972  31.225  28.242  1.00  0.00     0.251 C 
ATOM     29  H   UNL A   1      33.175  31.423  27.340  1.00  0.00     0.163 HD
ATOM     30  O   UNL A   1      35.032  32.355  28.663  1.00  0.00    -0.269 OA
BRANCH  28  31
ATOM     31  C   UNL A   1      36.087  30.278  28.410  1.00  0.00     0.039 A 
ATOM     32  C   UNL A   1      37.059  30.165  27.416  1.00  0.00     0.014 A 
ATOM     33  C   UNL A   1      36.215  29.635  29.641  1.00  0.00     0.014 A 
ATOM     34  C   UNL A   1      38.225  29.466  27.709  1.00  0.00     0.010 A 
ATOM     35  C   UNL A   1      37.421  29.067  29.970  1.00  0.00     0.010 A 
ATOM     36  C   UNL A   1      38.412  28.945  28.997  1.00  0.00    -0.014 A 
BRANCH  36  37
ATOM     37  C   UNL A   1      39.685  28.331  29.356  1.00  0.00     0.031 A 
ATOM     38  C   UNL A   1      40.057  28.404  30.796  1.00  0.00     0.074 A 
ATOM     39  C   UNL A   1      40.378  27.545  28.508  1.00  0.00     0.049 A 
ATOM     40  N   UNL A   1      40.965  29.138  31.352  1.00  0.00    -0.248 NA
ATOM     41  C   UNL A   1      39.230  27.653  31.755  1.00  0.00     0.031 C 
ATOM     42  C   UNL A   1      39.941  27.032  27.202  1.00  0.00     0.029 A 
ATOM     43  N   UNL A   1      41.582  26.938  28.687  1.00  0.00    -0.354 N 
ATOM     44  C   UNL A   1      40.981  28.763  32.698  1.00  0.00     0.074 A 
ATOM     45  C   UNL A   1      39.767  28.021  32.920  1.00  0.00     0.031 C 
ATOM     46  C   UNL A   1      40.742  26.011  26.831  1.00  0.00     0.029 A 
ATOM     47  C   UNL A   1      41.859  25.954  27.752  1.00  0.00     0.049 A 
ATOM     48  H   UNL A   1      42.201  27.176  29.415  1.00  0.00     0.167 HD
ATOM     49  C   UNL A   1      42.119  28.845  33.448  1.00  0.00     0.034 A 
ATOM     50  C   UNL A   1      42.931  25.135  27.730  1.00  0.00     0.034 A 
ATOM     51  C   UNL A   1      43.166  29.512  32.727  1.00  0.00     0.049 A 
ATOM     52  C   UNL A   1      44.006  25.753  28.535  1.00  0.00     0.074 A 
ATOM     53  C   UNL A   1      43.544  30.805  32.458  1.00  0.00     0.029 A 
ATOM     54  N   UNL A   1      43.847  28.690  31.867  1.00  0.00    -0.354 N 
ATOM     55  N   UNL A   1      44.590  26.879  28.223  1.00  0.00    -0.248 NA
ATOM     56  C   UNL A   1      44.236  25.283  29.897  1.00  0.00     0.031 C 
ATOM     57  C   UNL A   1      44.358  30.745  31.290  1.00  0.00     0.029 A 
ATOM     58  C   UNL A   1      44.470  29.414  30.887  1.00  0.00     0.049 A 
ATOM     59  H   UNL A   1      43.884  27.709  31.943  1.00  0.00     0.167 HD
ATOM     60  C   UNL A   1      44.893  27.450  29.443  1.00  0.00     0.074 A 
ATOM     61  C   UNL A   1      44.828  26.364  30.410  1.00  0.00     0.031 C 
ATOM     62  C   UNL A   1      44.842  28.797  29.629  1.00  0.00     0.034 A 
BRANCH  49  63
ATOM     63  C   UNL A   1      42.465  27.955  34.624  1.00  0.00     0.023 A 
ATOM     64  C   UNL A   1      42.931  26.638  34.473  1.00  0.00     0.031 A 
ATOM     65  C   UNL A   1      42.579  28.499  35.923  1.00  0.00     0.131 A 
ATOM     66  C   UNL A   1      43.454  25.912  35.552  1.00  0.00     0.055 A 
ATOM     67  C   UNL A   1      43.165  27.799  36.988  1.00  0.00     0.041 A 
ATOM     68  F   UNL A   1      42.172  29.752  36.187  1.00  0.00    -0.206 F 
ATOM     69  C   UNL A   1      43.607  26.495  36.805  1.00  0.00     0.022 A 
BRANCH  66  70
ATOM     70  S   UNL A   1      43.973  24.190  35.322  1.00  0.00     0.124 S 
ATOM     71  O   UNL A   1      42.698  23.518  35.095  1.00  0.00    -0.237 OA
ATOM     72  O   UNL A   1      44.850  24.299  34.158  1.00  0.00    -0.237 OA
ATOM     73  O   UNL A   1      44.649  23.870  36.577  1.00  0.00    -0.744 OA
ENDBRANCH  66  70
ENDBRANCH  49  63
BRANCH  50  74
ATOM     74  C   UNL A   1      42.957  23.718  27.320  1.00  0.00     0.023 A 
ATOM     75  C   UNL A   1      43.947  23.265  26.427  1.00  0.00     0.031 A 
ATOM     76  C   UNL A   1      41.852  22.884  27.549  1.00  0.00     0.131 A 
ATOM     77  C   UNL A   1      43.781  22.052  25.745  1.00  0.00     0.055 A 
ATOM     78  C   UNL A   1      41.697  21.668  26.879  1.00  0.00     0.041 A 
ATOM     79  F   UNL A   1      40.872  23.269  28.381  1.00  0.00    -0.206 F 
ATOM     80  C   UNL A   1      42.655  21.255  25.958  1.00  0.00     0.022 A 
BRANCH  77  81
ATOM     81  S   UNL A   1      45.004  21.520  24.515  1.00  0.00     0.124 S 
ATOM     82  O   UNL A   1      44.536  22.185  23.301  1.00  0.00    -0.237 OA
ATOM     83  O   UNL A   1      46.240  22.045  25.081  1.00  0.00    -0.237 OA
ATOM     84  O   UNL A   1      44.868  20.067  24.511  1.00  0.00    -0.744 OA
ENDBRANCH  77  81
ENDBRANCH  50  74
BRANCH  62  85
ATOM     85  C   UNL A   1      44.989  29.704  28.445  1.00  0.00     0.023 A 
ATOM     86  C   UNL A   1      46.291  30.146  28.161  1.00  0.00     0.031 A 
ATOM     87  C   UNL A   1      43.923  30.287  27.741  1.00  0.00     0.131 A 
ATOM     88  C   UNL A   1      46.498  31.184  27.252  1.00  0.00     0.055 A 
ATOM     89  C   UNL A   1      44.141  31.279  26.779  1.00  0.00     0.041 A 
ATOM     90  F   UNL A   1      42.651  29.970  28.015  1.00  0.00    -0.206 F 
ATOM     91  C   UNL A   1      45.432  31.746  26.544  1.00  0.00     0.022 A 
BRANCH  88  92
ATOM     92  S   UNL A   1      48.143  31.920  27.079  1.00  0.00     0.124 S 
ATOM     93  O   UNL A   1      48.940  30.793  26.601  1.00  0.00    -0.237 OA
ATOM     94  O   UNL A   1      47.903  32.979  26.102  1.00  0.00    -0.237 OA
ATOM     95  O   UNL A   1      48.467  32.382  28.426  1.00  0.00    -0.744 OA
ENDBRANCH  88  92
ENDBRANCH  62  85
ENDBRANCH  36  37
ENDBRANCH  28  31
ENDBRANCH  26  27
ENDBRANCH   1  26
TORSDOF 17
ENDMDL
