MODEL 1
REMARK VINA RESULT:     -12.7      0.000      0.000
REMARK SMILES NC(=O)[C@H]1CN(C(=O)CSc2ccccc2C(=O)NCCCNC(=O)c2ccc(-c3c4nc(c(-c5cc(S(=O)(=O)[O-])ccc5F)c5ccc([nH]5)c(-c5cc(S(=O)(=O)[O-])ccc5F)c5nc(c(-c6cc(S(=O)(=O)[O-])ccc6F)c6ccc3[nH]6)C=C5)C=C4)cc2)c2ccccc2O1
REMARK SMILES IDX 20 1 19 2 17 3 18 4 16 6 11 7 12 8 13 9 15 10 14 11 10 12
REMARK SMILES IDX 9 13 7 14 8 15 6 16 4 17 5 18 95 19 94 20 89 21 93 22 90 23
REMARK SMILES IDX 92 24 91 25 2 26 1 27 3 30 21 31 22 32 23 33 24 34 25 36
REMARK SMILES IDX 26 37 27 38 88 39 28 40 87 41 29 42 30 43 31 44 81 45 32 46
REMARK SMILES IDX 86 47 80 48 82 49 33 50 85 51 79 52 78 53 34 55 66 56 46 57
REMARK SMILES IDX 65 58 47 59 50 60 64 61 83 62 48 63 49 64 63 66 84 67 51 68
REMARK SMILES IDX 35 69 36 70 44 71 37 72 43 73 45 74 42 75 38 76 39 77 40 78
REMARK SMILES IDX 41 79 67 80 68 81 76 82 69 83 75 84 77 85 74 86 70 87 71 88
REMARK SMILES IDX 72 89 73 90 52 91 53 92 61 93 54 94 60 95 62 96 59 97 55 98
REMARK SMILES IDX 56 99 57 100 58 101
REMARK H PARENT 19 5 1 28 1 29 23 35 82 54 50 65
REMARK Flexibility Score: inf
ROOT
ATOM      1  C   UNL A   1      32.081  28.588  27.584  1.00  0.00     0.118 C 
ENDROOT
BRANCH   1   2
ATOM      2  N   UNL A   1      33.137  27.875  26.887  1.00  0.00    -0.352 N 
ATOM      3  C   UNL A   1      33.120  27.377  25.605  1.00  0.00     0.252 C 
ATOM      4  O   UNL A   1      34.071  26.729  25.181  1.00  0.00    -0.269 OA
ATOM      5  H   UNL A   1      33.968  27.731  27.395  1.00  0.00     0.163 HD
BRANCH   3   6
ATOM      6  C   UNL A   1      31.899  27.468  24.793  1.00  0.00     0.053 A 
ATOM      7  C   UNL A   1      30.799  26.605  24.840  1.00  0.00     0.020 A 
ATOM      8  C   UNL A   1      29.884  26.708  23.766  1.00  0.00     0.016 A 
ATOM      9  C   UNL A   1      29.998  27.688  22.769  1.00  0.00     0.001 A 
ATOM     10  C   UNL A   1      31.965  28.512  23.842  1.00  0.00     0.015 A 
ATOM     11  C   UNL A   1      31.014  28.627  22.836  1.00  0.00     0.001 A 
BRANCH   7  12
ATOM     12  S   UNL A   1      30.290  25.387  26.063  1.00  0.00    -0.115 SA
BRANCH  12  13
ATOM     13  C   UNL A   1      31.675  24.235  26.401  1.00  0.00     0.175 C 
BRANCH  13  14
ATOM     14  C   UNL A   1      31.774  23.025  25.481  1.00  0.00     0.237 C 
ATOM     15  O   UNL A   1      31.079  22.030  25.709  1.00  0.00    -0.274 OA
BRANCH  14  16
ATOM     16  N   UNL A   1      32.618  23.140  24.360  1.00  0.00    -0.304 N 
ATOM     17  C   UNL A   1      33.374  24.829  22.759  1.00  0.00     0.281 C 
ATOM     18  C   UNL A   1      32.277  23.816  23.086  1.00  0.00     0.181 C 
ATOM     19  O   UNL A   1      34.601  24.161  22.477  1.00  0.00    -0.477 OA
ATOM     20  C   UNL A   1      34.912  23.236  23.446  1.00  0.00     0.144 A 
ATOM     21  C   UNL A   1      33.994  22.713  24.386  1.00  0.00     0.086 A 
ATOM     22  C   UNL A   1      36.247  22.832  23.437  1.00  0.00     0.049 A 
ATOM     23  C   UNL A   1      34.458  21.743  25.280  1.00  0.00     0.030 A 
ATOM     24  C   UNL A   1      36.691  21.886  24.352  1.00  0.00     0.004 A 
ATOM     25  C   UNL A   1      35.796  21.333  25.263  1.00  0.00     0.002 A 
BRANCH  17  26
ATOM     26  C   UNL A   1      33.026  25.708  21.566  1.00  0.00     0.260 C 
ATOM     27  N   UNL A   1      31.952  25.299  20.826  1.00  0.00    -0.366 N 
ATOM     28  H   UNL A   1      31.669  25.819  20.040  1.00  0.00     0.159 HD
ATOM     29  H   UNL A   1      31.461  24.485  21.079  1.00  0.00     0.159 HD
ATOM     30  O   UNL A   1      33.670  26.687  21.215  1.00  0.00    -0.271 OA
ENDBRANCH  17  26
ENDBRANCH  14  16
ENDBRANCH  13  14
ENDBRANCH  12  13
ENDBRANCH   7  12
ENDBRANCH   3   6
ENDBRANCH   1   2
BRANCH   1  31
ATOM     31  C   UNL A   1      31.732  29.941  26.974  1.00  0.00     0.042 C 
BRANCH  31  32
ATOM     32  C   UNL A   1      32.888  30.904  26.707  1.00  0.00     0.118 C 
BRANCH  32  33
ATOM     33  N   UNL A   1      32.896  32.146  27.465  1.00  0.00    -0.352 N 
ATOM     34  C   UNL A   1      33.982  32.746  28.082  1.00  0.00     0.251 C 
ATOM     35  H   UNL A   1      32.034  32.613  27.548  1.00  0.00     0.163 HD
ATOM     36  O   UNL A   1      33.865  33.847  28.601  1.00  0.00    -0.269 OA
BRANCH  34  37
ATOM     37  C   UNL A   1      35.251  31.984  28.191  1.00  0.00     0.039 A 
ATOM     38  C   UNL A   1      36.450  32.698  28.248  1.00  0.00     0.014 A 
ATOM     39  C   UNL A   1      35.249  30.605  28.392  1.00  0.00     0.014 A 
ATOM     40  C   UNL A   1      37.619  32.049  28.658  1.00  0.00     0.010 A 
ATOM     41  C   UNL A   1      36.398  29.972  28.866  1.00  0.00     0.010 A 
ATOM     42  C   UNL A   1      37.581  30.700  29.055  1.00  0.00    -0.014 A 
BRANCH  42  43
ATOM     43  C   UNL A   1      38.722  30.087  29.788  1.00  0.00     0.031 A 
ATOM     44  C   UNL A   1      39.107  30.555  31.162  1.00  0.00     0.074 A 
ATOM     45  C   UNL A   1      39.474  29.157  29.160  1.00  0.00     0.049 A 
ATOM     46  N   UNL A   1      40.102  30.167  31.918  1.00  0.00    -0.248 NA
ATOM     47  C   UNL A   1      38.278  31.615  31.751  1.00  0.00     0.031 C 
ATOM     48  C   UNL A   1      39.247  28.669  27.797  1.00  0.00     0.029 A 
ATOM     49  N   UNL A   1      40.584  28.463  29.574  1.00  0.00    -0.354 N 
ATOM     50  C   UNL A   1      40.023  30.934  33.075  1.00  0.00     0.074 A 
ATOM     51  C   UNL A   1      38.916  31.851  32.889  1.00  0.00     0.031 C 
ATOM     52  C   UNL A   1      40.165  27.737  27.501  1.00  0.00     0.029 A 
ATOM     53  C   UNL A   1      41.075  27.588  28.631  1.00  0.00     0.049 A 
ATOM     54  H   UNL A   1      40.990  28.579  30.463  1.00  0.00     0.167 HD
ATOM     55  C   UNL A   1      40.789  30.866  34.193  1.00  0.00     0.034 A 
ATOM     56  C   UNL A   1      42.140  26.765  28.666  1.00  0.00     0.034 A 
ATOM     57  C   UNL A   1      41.895  29.953  34.362  1.00  0.00     0.049 A 
ATOM     58  C   UNL A   1      42.984  26.717  29.913  1.00  0.00     0.074 A 
ATOM     59  C   UNL A   1      42.706  29.771  35.470  1.00  0.00     0.029 A 
ATOM     60  N   UNL A   1      42.356  29.072  33.391  1.00  0.00    -0.354 N 
ATOM     61  N   UNL A   1      42.855  27.406  31.022  1.00  0.00    -0.248 NA
ATOM     62  C   UNL A   1      44.109  25.771  29.916  1.00  0.00     0.031 C 
ATOM     63  C   UNL A   1      43.688  28.827  35.149  1.00  0.00     0.029 A 
ATOM     64  C   UNL A   1      43.452  28.367  33.864  1.00  0.00     0.049 A 
ATOM     65  H   UNL A   1      41.960  28.964  32.495  1.00  0.00     0.167 HD
ATOM     66  C   UNL A   1      43.866  26.954  31.866  1.00  0.00     0.074 A 
ATOM     67  C   UNL A   1      44.585  25.926  31.143  1.00  0.00     0.031 C 
ATOM     68  C   UNL A   1      44.169  27.351  33.128  1.00  0.00     0.034 A 
BRANCH  55  69
ATOM     69  C   UNL A   1      40.460  31.826  35.312  1.00  0.00     0.023 A 
ATOM     70  C   UNL A   1      39.408  31.574  36.210  1.00  0.00     0.031 A 
ATOM     71  C   UNL A   1      41.181  33.024  35.466  1.00  0.00     0.131 A 
ATOM     72  C   UNL A   1      39.052  32.538  37.165  1.00  0.00     0.055 A 
ATOM     73  C   UNL A   1      40.874  33.944  36.472  1.00  0.00     0.041 A 
ATOM     74  F   UNL A   1      42.186  33.330  34.629  1.00  0.00    -0.206 F 
ATOM     75  C   UNL A   1      39.794  33.711  37.317  1.00  0.00     0.022 A 
BRANCH  72  76
ATOM     76  S   UNL A   1      37.519  32.300  38.104  1.00  0.00     0.124 S 
ATOM     77  O   UNL A   1      37.358  30.850  38.043  1.00  0.00    -0.237 OA
ATOM     78  O   UNL A   1      37.861  32.850  39.410  1.00  0.00    -0.237 OA
ATOM     79  O   UNL A   1      36.531  33.063  37.344  1.00  0.00    -0.744 OA
ENDBRANCH  72  76
ENDBRANCH  55  69
BRANCH  56  80
ATOM     80  C   UNL A   1      42.481  25.917  27.487  1.00  0.00     0.023 A 
ATOM     81  C   UNL A   1      42.025  24.593  27.395  1.00  0.00     0.031 A 
ATOM     82  C   UNL A   1      43.301  26.406  26.456  1.00  0.00     0.131 A 
ATOM     83  C   UNL A   1      42.431  23.787  26.320  1.00  0.00     0.055 A 
ATOM     84  C   UNL A   1      43.664  25.616  25.364  1.00  0.00     0.041 A 
ATOM     85  F   UNL A   1      43.757  27.669  26.491  1.00  0.00    -0.206 F 
ATOM     86  C   UNL A   1      43.238  24.293  25.299  1.00  0.00     0.022 A 
BRANCH  83  87
ATOM     87  S   UNL A   1      41.954  22.037  26.319  1.00  0.00     0.124 S 
ATOM     88  O   UNL A   1      42.703  21.524  25.177  1.00  0.00    -0.237 OA
ATOM     89  O   UNL A   1      42.411  21.599  27.634  1.00  0.00    -0.237 OA
ATOM     90  O   UNL A   1      40.503  22.081  26.147  1.00  0.00    -0.744 OA
ENDBRANCH  83  87
ENDBRANCH  56  80
BRANCH  68  91
ATOM     91  C   UNL A   1      45.302  26.630  33.816  1.00  0.00     0.023 A 
ATOM     92  C   UNL A   1      45.081  25.489  34.607  1.00  0.00     0.031 A 
ATOM     93  C   UNL A   1      46.619  27.107  33.693  1.00  0.00     0.131 A 
ATOM     94  C   UNL A   1      46.153  24.894  35.288  1.00  0.00     0.055 A 
ATOM     95  C   UNL A   1      47.689  26.479  34.328  1.00  0.00     0.041 A 
ATOM     96  F   UNL A   1      46.884  28.195  32.951  1.00  0.00    -0.206 F 
ATOM     97  C   UNL A   1      47.459  25.373  35.142  1.00  0.00     0.022 A 
BRANCH  94  98
ATOM     98  S   UNL A   1      45.810  23.532  36.437  1.00  0.00     0.124 S 
ATOM     99  O   UNL A   1      47.155  23.095  36.800  1.00  0.00    -0.237 OA
ATOM    100  O   UNL A   1      45.050  24.196  37.491  1.00  0.00    -0.237 OA
ATOM    101  O   UNL A   1      45.048  22.583  35.627  1.00  0.00    -0.744 OA
ENDBRANCH  94  98
ENDBRANCH  68  91
ENDBRANCH  42  43
ENDBRANCH  34  37
ENDBRANCH  32  33
ENDBRANCH  31  32
ENDBRANCH   1  31
TORSDOF 18
ENDMDL
MODEL 2
REMARK VINA RESULT:     -12.7      4.925      8.263
REMARK SMILES NC(=O)[C@H]1CN(C(=O)CSc2ccccc2C(=O)NCCCNC(=O)c2ccc(-c3c4nc(c(-c5cc(S(=O)(=O)[O-])ccc5F)c5ccc([nH]5)c(-c5cc(S(=O)(=O)[O-])ccc5F)c5nc(c(-c6cc(S(=O)(=O)[O-])ccc6F)c6ccc3[nH]6)C=C5)C=C4)cc2)c2ccccc2O1
REMARK SMILES IDX 20 1 19 2 17 3 18 4 16 6 11 7 12 8 13 9 15 10 14 11 10 12
REMARK SMILES IDX 9 13 7 14 8 15 6 16 4 17 5 18 95 19 94 20 89 21 93 22 90 23
REMARK SMILES IDX 92 24 91 25 2 26 1 27 3 30 21 31 22 32 23 33 24 34 25 36
REMARK SMILES IDX 26 37 27 38 88 39 28 40 87 41 29 42 30 43 31 44 81 45 32 46
REMARK SMILES IDX 86 47 80 48 82 49 33 50 85 51 79 52 78 53 34 55 66 56 46 57
REMARK SMILES IDX 65 58 47 59 50 60 64 61 83 62 48 63 49 64 63 66 84 67 51 68
REMARK SMILES IDX 35 69 36 70 44 71 37 72 43 73 45 74 42 75 38 76 39 77 40 78
REMARK SMILES IDX 41 79 67 80 68 81 76 82 69 83 75 84 77 85 74 86 70 87 71 88
REMARK SMILES IDX 72 89 73 90 52 91 53 92 61 93 54 94 60 95 62 96 59 97 55 98
REMARK SMILES IDX 56 99 57 100 58 101
REMARK H PARENT 19 5 1 28 1 29 23 35 82 54 50 65
REMARK Flexibility Score: inf
ROOT
ATOM      1  C   UNL A   1      36.940  21.643  24.917  1.00  0.00     0.118 C 
ENDROOT
BRANCH   1   2
ATOM      2  N   UNL A   1      36.079  21.655  26.088  1.00  0.00    -0.352 N 
ATOM      3  C   UNL A   1      34.720  21.452  26.142  1.00  0.00     0.252 C 
ATOM      4  O   UNL A   1      34.120  21.568  27.205  1.00  0.00    -0.269 OA
ATOM      5  H   UNL A   1      36.524  21.829  26.948  1.00  0.00     0.163 HD
BRANCH   3   6
ATOM      6  C   UNL A   1      33.951  21.267  24.904  1.00  0.00     0.053 A 
ATOM      7  C   UNL A   1      33.489  22.274  24.049  1.00  0.00     0.020 A 
ATOM      8  C   UNL A   1      32.522  21.881  23.095  1.00  0.00     0.016 A 
ATOM      9  C   UNL A   1      32.124  20.545  22.928  1.00  0.00     0.001 A 
ATOM     10  C   UNL A   1      33.620  19.911  24.677  1.00  0.00     0.015 A 
ATOM     11  C   UNL A   1      32.715  19.550  23.688  1.00  0.00     0.001 A 
BRANCH   7  12
ATOM     12  S   UNL A   1      33.937  24.010  23.899  1.00  0.00    -0.115 SA
BRANCH  12  13
ATOM     13  C   UNL A   1      33.184  24.714  22.383  1.00  0.00     0.175 C 
BRANCH  13  14
ATOM     14  C   UNL A   1      32.000  25.648  22.600  1.00  0.00     0.237 C 
ATOM     15  O   UNL A   1      31.487  26.213  21.630  1.00  0.00    -0.274 OA
BRANCH  14  16
ATOM     16  N   UNL A   1      31.505  25.760  23.914  1.00  0.00    -0.304 N 
ATOM     17  C   UNL A   1      31.221  24.395  25.924  1.00  0.00     0.281 C 
ATOM     18  C   UNL A   1      30.604  24.794  24.584  1.00  0.00     0.181 C 
ATOM     19  O   UNL A   1      31.251  25.510  26.810  1.00  0.00    -0.477 OA
ATOM     20  C   UNL A   1      31.794  26.623  26.211  1.00  0.00     0.144 A 
ATOM     21  C   UNL A   1      31.946  26.793  24.816  1.00  0.00     0.086 A 
ATOM     22  C   UNL A   1      32.197  27.610  27.109  1.00  0.00     0.049 A 
ATOM     23  C   UNL A   1      32.475  28.006  24.362  1.00  0.00     0.030 A 
ATOM     24  C   UNL A   1      32.745  28.796  26.636  1.00  0.00     0.004 A 
ATOM     25  C   UNL A   1      32.872  28.999  25.265  1.00  0.00     0.002 A 
BRANCH  17  26
ATOM     26  C   UNL A   1      30.463  23.264  26.606  1.00  0.00     0.260 C 
ATOM     27  N   UNL A   1      30.634  22.025  26.057  1.00  0.00    -0.366 N 
ATOM     28  H   UNL A   1      30.174  21.246  26.447  1.00  0.00     0.159 HD
ATOM     29  H   UNL A   1      31.216  21.910  25.272  1.00  0.00     0.159 HD
ATOM     30  O   UNL A   1      29.693  23.414  27.545  1.00  0.00    -0.271 OA
ENDBRANCH  17  26
ENDBRANCH  14  16
ENDBRANCH  13  14
ENDBRANCH  12  13
ENDBRANCH   7  12
ENDBRANCH   3   6
ENDBRANCH   1   2
BRANCH   1  31
ATOM     31  C   UNL A   1      37.658  20.319  24.683  1.00  0.00     0.042 C 
BRANCH  31  32
ATOM     32  C   UNL A   1      38.351  19.680  25.885  1.00  0.00     0.118 C 
BRANCH  32  33
ATOM     33  N   UNL A   1      39.693  19.162  25.669  1.00  0.00    -0.352 N 
ATOM     34  C   UNL A   1      40.887  19.713  26.109  1.00  0.00     0.251 C 
ATOM     35  H   UNL A   1      39.763  18.326  25.154  1.00  0.00     0.163 HD
ATOM     36  O   UNL A   1      41.940  19.115  25.943  1.00  0.00    -0.269 OA
BRANCH  34  37
ATOM     37  C   UNL A   1      40.871  21.081  26.686  1.00  0.00     0.039 A 
ATOM     38  C   UNL A   1      41.525  21.295  27.901  1.00  0.00     0.014 A 
ATOM     39  C   UNL A   1      40.358  22.160  25.968  1.00  0.00     0.014 A 
ATOM     40  C   UNL A   1      41.797  22.603  28.315  1.00  0.00     0.010 A 
ATOM     41  C   UNL A   1      40.689  23.462  26.345  1.00  0.00     0.010 A 
ATOM     42  C   UNL A   1      41.458  23.693  27.494  1.00  0.00    -0.014 A 
BRANCH  42  43
ATOM     43  C   UNL A   1      42.015  25.048  27.755  1.00  0.00     0.031 A 
ATOM     44  C   UNL A   1      41.184  26.122  28.396  1.00  0.00     0.074 A 
ATOM     45  C   UNL A   1      43.262  25.333  27.322  1.00  0.00     0.049 A 
ATOM     46  N   UNL A   1      41.495  27.368  28.648  1.00  0.00    -0.248 NA
ATOM     47  C   UNL A   1      39.815  25.753  28.781  1.00  0.00     0.031 C 
ATOM     48  C   UNL A   1      44.146  24.397  26.621  1.00  0.00     0.029 A 
ATOM     49  N   UNL A   1      44.002  26.488  27.394  1.00  0.00    -0.354 N 
ATOM     50  C   UNL A   1      40.363  27.935  29.221  1.00  0.00     0.074 A 
ATOM     51  C   UNL A   1      39.340  26.909  29.222  1.00  0.00     0.031 C 
ATOM     52  C   UNL A   1      45.313  25.003  26.357  1.00  0.00     0.029 A 
ATOM     53  C   UNL A   1      45.252  26.382  26.827  1.00  0.00     0.049 A 
ATOM     54  H   UNL A   1      43.670  27.313  27.814  1.00  0.00     0.167 HD
ATOM     55  C   UNL A   1      40.199  29.188  29.719  1.00  0.00     0.034 A 
ATOM     56  C   UNL A   1      46.236  27.292  26.693  1.00  0.00     0.034 A 
ATOM     57  C   UNL A   1      41.225  30.204  29.704  1.00  0.00     0.049 A 
ATOM     58  C   UNL A   1      46.026  28.679  27.239  1.00  0.00     0.074 A 
ATOM     59  C   UNL A   1      41.177  31.488  30.221  1.00  0.00     0.029 A 
ATOM     60  N   UNL A   1      42.484  30.058  29.133  1.00  0.00    -0.354 N 
ATOM     61  N   UNL A   1      44.969  29.179  27.835  1.00  0.00    -0.248 NA
ATOM     62  C   UNL A   1      47.146  29.621  27.105  1.00  0.00     0.031 C 
ATOM     63  C   UNL A   1      42.381  32.134  29.912  1.00  0.00     0.029 A 
ATOM     64  C   UNL A   1      43.208  31.233  29.262  1.00  0.00     0.049 A 
ATOM     65  H   UNL A   1      42.813  29.237  28.700  1.00  0.00     0.167 HD
ATOM     66  C   UNL A   1      45.309  30.486  28.174  1.00  0.00     0.074 A 
ATOM     67  C   UNL A   1      46.672  30.691  27.728  1.00  0.00     0.031 C 
ATOM     68  C   UNL A   1      44.564  31.429  28.802  1.00  0.00     0.034 A 
BRANCH  55  69
ATOM     69  C   UNL A   1      38.847  29.525  30.301  1.00  0.00     0.023 A 
ATOM     70  C   UNL A   1      37.889  30.241  29.561  1.00  0.00     0.031 A 
ATOM     71  C   UNL A   1      38.520  29.161  31.619  1.00  0.00     0.131 A 
ATOM     72  C   UNL A   1      36.688  30.641  30.167  1.00  0.00     0.055 A 
ATOM     73  C   UNL A   1      37.289  29.491  32.191  1.00  0.00     0.041 A 
ATOM     74  F   UNL A   1      39.400  28.491  32.382  1.00  0.00    -0.206 F 
ATOM     75  C   UNL A   1      36.372  30.250  31.470  1.00  0.00     0.022 A 
BRANCH  72  76
ATOM     76  S   UNL A   1      35.615  31.801  29.278  1.00  0.00     0.124 S 
ATOM     77  O   UNL A   1      34.828  32.370  30.369  1.00  0.00    -0.237 OA
ATOM     78  O   UNL A   1      36.575  32.698  28.646  1.00  0.00    -0.237 OA
ATOM     79  O   UNL A   1      34.867  30.942  28.362  1.00  0.00    -0.744 OA
ENDBRANCH  72  76
ENDBRANCH  55  69
BRANCH  56  80
ATOM     80  C   UNL A   1      47.512  26.931  26.010  1.00  0.00     0.023 A 
ATOM     81  C   UNL A   1      48.563  26.326  26.717  1.00  0.00     0.031 A 
ATOM     82  C   UNL A   1      47.714  27.224  24.650  1.00  0.00     0.131 A 
ATOM     83  C   UNL A   1      49.786  26.077  26.074  1.00  0.00     0.055 A 
ATOM     84  C   UNL A   1      48.915  26.930  24.002  1.00  0.00     0.041 A 
ATOM     85  F   UNL A   1      46.737  27.794  23.925  1.00  0.00    -0.206 F 
ATOM     86  C   UNL A   1      49.965  26.365  24.720  1.00  0.00     0.022 A 
BRANCH  83  87
ATOM     87  S   UNL A   1      51.171  25.446  27.060  1.00  0.00     0.124 S 
ATOM     88  O   UNL A   1      50.484  24.610  28.038  1.00  0.00    -0.237 OA
ATOM     89  O   UNL A   1      51.961  24.741  26.055  1.00  0.00    -0.237 OA
ATOM     90  O   UNL A   1      51.787  26.658  27.596  1.00  0.00    -0.744 OA
ENDBRANCH  83  87
ENDBRANCH  56  80
BRANCH  68  91
ATOM     91  C   UNL A   1      45.233  32.752  29.081  1.00  0.00     0.023 A 
ATOM     92  C   UNL A   1      45.295  33.768  28.111  1.00  0.00     0.031 A 
ATOM     93  C   UNL A   1      45.834  32.990  30.330  1.00  0.00     0.131 A 
ATOM     94  C   UNL A   1      45.991  34.954  28.387  1.00  0.00     0.055 A 
ATOM     95  C   UNL A   1      46.477  34.193  30.617  1.00  0.00     0.041 A 
ATOM     96  F   UNL A   1      45.805  32.052  31.291  1.00  0.00    -0.206 F 
ATOM     97  C   UNL A   1      46.570  35.180  29.639  1.00  0.00     0.022 A 
BRANCH  94  98
ATOM     98  S   UNL A   1      46.203  36.172  27.058  1.00  0.00     0.124 S 
ATOM     99  O   UNL A   1      45.598  35.487  25.919  1.00  0.00    -0.237 OA
ATOM    100  O   UNL A   1      45.470  37.325  27.570  1.00  0.00    -0.237 OA
ATOM    101  O   UNL A   1      47.652  36.346  26.978  1.00  0.00    -0.744 OA
ENDBRANCH  94  98
ENDBRANCH  68  91
ENDBRANCH  42  43
ENDBRANCH  34  37
ENDBRANCH  32  33
ENDBRANCH  31  32
ENDBRANCH   1  31
TORSDOF 18
ENDMDL
MODEL 3
REMARK VINA RESULT:     -12.6      2.147      2.507
REMARK SMILES NC(=O)[C@H]1CN(C(=O)CSc2ccccc2C(=O)NCCCNC(=O)c2ccc(-c3c4nc(c(-c5cc(S(=O)(=O)[O-])ccc5F)c5ccc([nH]5)c(-c5cc(S(=O)(=O)[O-])ccc5F)c5nc(c(-c6cc(S(=O)(=O)[O-])ccc6F)c6ccc3[nH]6)C=C5)C=C4)cc2)c2ccccc2O1
REMARK SMILES IDX 20 1 19 2 17 3 18 4 16 6 11 7 12 8 13 9 15 10 14 11 10 12
REMARK SMILES IDX 9 13 7 14 8 15 6 16 4 17 5 18 95 19 94 20 89 21 93 22 90 23
REMARK SMILES IDX 92 24 91 25 2 26 1 27 3 30 21 31 22 32 23 33 24 34 25 36
REMARK SMILES IDX 26 37 27 38 88 39 28 40 87 41 29 42 30 43 31 44 81 45 32 46
REMARK SMILES IDX 86 47 80 48 82 49 33 50 85 51 79 52 78 53 34 55 66 56 46 57
REMARK SMILES IDX 65 58 47 59 50 60 64 61 83 62 48 63 49 64 63 66 84 67 51 68
REMARK SMILES IDX 35 69 36 70 44 71 37 72 43 73 45 74 42 75 38 76 39 77 40 78
REMARK SMILES IDX 41 79 67 80 68 81 76 82 69 83 75 84 77 85 74 86 70 87 71 88
REMARK SMILES IDX 72 89 73 90 52 91 53 92 61 93 54 94 60 95 62 96 59 97 55 98
REMARK SMILES IDX 56 99 57 100 58 101
REMARK H PARENT 19 5 1 28 1 29 23 35 82 54 50 65
REMARK Flexibility Score: inf
ROOT
ATOM      1  C   UNL A   1      33.135  28.225  27.207  1.00  0.00     0.118 C 
ENDROOT
BRANCH   1   2
ATOM      2  N   UNL A   1      33.823  27.915  25.964  1.00  0.00    -0.352 N 
ATOM      3  C   UNL A   1      33.284  27.424  24.798  1.00  0.00     0.252 C 
ATOM      4  O   UNL A   1      34.012  27.142  23.852  1.00  0.00    -0.269 OA
ATOM      5  H   UNL A   1      34.793  28.077  25.957  1.00  0.00     0.163 HD
BRANCH   3   6
ATOM      6  C   UNL A   1      31.860  27.071  24.734  1.00  0.00     0.053 A 
ATOM      7  C   UNL A   1      31.284  25.853  25.110  1.00  0.00     0.020 A 
ATOM      8  C   UNL A   1      29.954  25.637  24.678  1.00  0.00     0.016 A 
ATOM      9  C   UNL A   1      29.207  26.620  24.011  1.00  0.00     0.001 A 
ATOM     10  C   UNL A   1      31.081  28.092  24.143  1.00  0.00     0.015 A 
ATOM     11  C   UNL A   1      29.757  27.871  23.789  1.00  0.00     0.001 A 
BRANCH   7  12
ATOM     12  S   UNL A   1      31.913  24.492  26.104  1.00  0.00    -0.115 SA
BRANCH  12  13
ATOM     13  C   UNL A   1      31.022  22.949  25.675  1.00  0.00     0.175 C 
BRANCH  13  14
ATOM     14  C   UNL A   1      31.859  21.856  25.023  1.00  0.00     0.237 C 
ATOM     15  O   UNL A   1      31.705  20.682  25.374  1.00  0.00    -0.274 OA
BRANCH  14  16
ATOM     16  N   UNL A   1      32.728  22.247  23.985  1.00  0.00    -0.304 N 
ATOM     17  C   UNL A   1      33.146  24.166  22.526  1.00  0.00     0.281 C 
ATOM     18  C   UNL A   1      32.322  22.893  22.715  1.00  0.00     0.181 C 
ATOM     19  O   UNL A   1      34.519  23.845  22.326  1.00  0.00    -0.477 OA
ATOM     20  C   UNL A   1      34.983  22.971  23.281  1.00  0.00     0.144 A 
ATOM     21  C   UNL A   1      34.161  22.178  24.115  1.00  0.00     0.086 A 
ATOM     22  C   UNL A   1      36.374  22.916  23.373  1.00  0.00     0.049 A 
ATOM     23  C   UNL A   1      34.789  21.303  25.007  1.00  0.00     0.030 A 
ATOM     24  C   UNL A   1      36.975  22.058  24.286  1.00  0.00     0.004 A 
ATOM     25  C   UNL A   1      36.185  21.244  25.092  1.00  0.00     0.002 A 
BRANCH  17  26
ATOM     26  C   UNL A   1      32.675  25.000  21.343  1.00  0.00     0.260 C 
ATOM     27  N   UNL A   1      31.467  25.619  21.502  1.00  0.00    -0.366 N 
ATOM     28  H   UNL A   1      31.100  26.175  20.777  1.00  0.00     0.159 HD
ATOM     29  H   UNL A   1      30.964  25.509  22.340  1.00  0.00     0.159 HD
ATOM     30  O   UNL A   1      33.270  25.090  20.277  1.00  0.00    -0.271 OA
ENDBRANCH  17  26
ENDBRANCH  14  16
ENDBRANCH  13  14
ENDBRANCH  12  13
ENDBRANCH   7  12
ENDBRANCH   3   6
ENDBRANCH   1   2
BRANCH   1  31
ATOM     31  C   UNL A   1      32.558  29.635  27.266  1.00  0.00     0.042 C 
BRANCH  31  32
ATOM     32  C   UNL A   1      33.527  30.796  27.045  1.00  0.00     0.118 C 
BRANCH  32  33
ATOM     33  N   UNL A   1      33.616  31.786  28.106  1.00  0.00    -0.352 N 
ATOM     34  C   UNL A   1      34.694  32.021  28.945  1.00  0.00     0.251 C 
ATOM     35  H   UNL A   1      32.824  32.353  28.244  1.00  0.00     0.163 HD
ATOM     36  O   UNL A   1      34.670  32.959  29.730  1.00  0.00    -0.269 OA
BRANCH  34  37
ATOM     37  C   UNL A   1      35.823  31.057  28.945  1.00  0.00     0.039 A 
ATOM     38  C   UNL A   1      36.992  31.406  28.266  1.00  0.00     0.014 A 
ATOM     39  C   UNL A   1      35.787  29.905  29.728  1.00  0.00     0.014 A 
ATOM     40  C   UNL A   1      38.165  30.680  28.499  1.00  0.00     0.010 A 
ATOM     41  C   UNL A   1      36.969  29.223  30.014  1.00  0.00     0.010 A 
ATOM     42  C   UNL A   1      38.181  29.638  29.443  1.00  0.00    -0.014 A 
BRANCH  42  43
ATOM     43  C   UNL A   1      39.467  29.074  29.935  1.00  0.00     0.031 A 
ATOM     44  C   UNL A   1      40.208  29.706  31.079  1.00  0.00     0.074 A 
ATOM     45  C   UNL A   1      40.012  28.029  29.277  1.00  0.00     0.049 A 
ATOM     46  N   UNL A   1      41.363  29.375  31.598  1.00  0.00    -0.248 NA
ATOM     47  C   UNL A   1      39.579  30.878  31.701  1.00  0.00     0.031 C 
ATOM     48  C   UNL A   1      39.426  27.370  28.106  1.00  0.00     0.029 A 
ATOM     49  N   UNL A   1      41.183  27.342  29.485  1.00  0.00    -0.354 N 
ATOM     50  C   UNL A   1      41.603  30.296  32.611  1.00  0.00     0.074 A 
ATOM     51  C   UNL A   1      40.499  31.235  32.587  1.00  0.00     0.031 C 
ATOM     52  C   UNL A   1      40.221  26.360  27.721  1.00  0.00     0.029 A 
ATOM     53  C   UNL A   1      41.395  26.321  28.586  1.00  0.00     0.049 A 
ATOM     54  H   UNL A   1      41.811  27.557  30.212  1.00  0.00     0.167 HD
ATOM     55  C   UNL A   1      42.636  30.343  33.489  1.00  0.00     0.034 A 
ATOM     56  C   UNL A   1      42.421  25.456  28.463  1.00  0.00     0.034 A 
ATOM     57  C   UNL A   1      43.735  29.406  33.496  1.00  0.00     0.049 A 
ATOM     58  C   UNL A   1      43.563  25.536  29.441  1.00  0.00     0.074 A 
ATOM     59  C   UNL A   1      44.807  29.337  34.370  1.00  0.00     0.029 A 
ATOM     60  N   UNL A   1      43.910  28.377  32.579  1.00  0.00    -0.354 N 
ATOM     61  N   UNL A   1      43.742  26.378  30.432  1.00  0.00    -0.248 NA
ATOM     62  C   UNL A   1      44.636  24.543  29.290  1.00  0.00     0.031 C 
ATOM     63  C   UNL A   1      45.657  28.308  33.947  1.00  0.00     0.029 A 
ATOM     64  C   UNL A   1      45.083  27.688  32.849  1.00  0.00     0.049 A 
ATOM     65  H   UNL A   1      43.290  28.167  31.842  1.00  0.00     0.167 HD
ATOM     66  C   UNL A   1      44.934  25.994  31.041  1.00  0.00     0.074 A 
ATOM     67  C   UNL A   1      45.422  24.840  30.315  1.00  0.00     0.031 C 
ATOM     68  C   UNL A   1      45.565  26.544  32.109  1.00  0.00     0.034 A 
BRANCH  55  69
ATOM     69  C   UNL A   1      42.628  31.464  34.502  1.00  0.00     0.023 A 
ATOM     70  C   UNL A   1      41.715  31.480  35.571  1.00  0.00     0.031 A 
ATOM     71  C   UNL A   1      43.517  32.547  34.382  1.00  0.00     0.131 A 
ATOM     72  C   UNL A   1      41.655  32.589  36.427  1.00  0.00     0.055 A 
ATOM     73  C   UNL A   1      43.507  33.612  35.286  1.00  0.00     0.041 A 
ATOM     74  F   UNL A   1      44.401  32.598  33.372  1.00  0.00    -0.206 F 
ATOM     75  C   UNL A   1      42.561  33.645  36.306  1.00  0.00     0.022 A 
BRANCH  72  76
ATOM     76  S   UNL A   1      40.281  32.698  37.606  1.00  0.00     0.124 S 
ATOM     77  O   UNL A   1      39.810  34.063  37.385  1.00  0.00    -0.237 OA
ATOM     78  O   UNL A   1      39.392  31.634  37.153  1.00  0.00    -0.237 OA
ATOM     79  O   UNL A   1      40.921  32.468  38.900  1.00  0.00    -0.744 OA
ENDBRANCH  72  76
ENDBRANCH  55  69
BRANCH  56  80
ATOM     80  C   UNL A   1      42.425  24.438  27.373  1.00  0.00     0.023 A 
ATOM     81  C   UNL A   1      41.704  23.241  27.501  1.00  0.00     0.031 A 
ATOM     82  C   UNL A   1      43.184  24.629  26.206  1.00  0.00     0.131 A 
ATOM     83  C   UNL A   1      41.795  22.259  26.501  1.00  0.00     0.055 A 
ATOM     84  C   UNL A   1      43.233  23.671  25.192  1.00  0.00     0.041 A 
ATOM     85  F   UNL A   1      43.886  25.762  26.029  1.00  0.00    -0.206 F 
ATOM     86  C   UNL A   1      42.545  22.471  25.343  1.00  0.00     0.022 A 
BRANCH  83  87
ATOM     87  S   UNL A   1      40.980  20.662  26.777  1.00  0.00     0.124 S 
ATOM     88  O   UNL A   1      39.713  20.850  26.079  1.00  0.00    -0.237 OA
ATOM     89  O   UNL A   1      41.921  19.733  26.160  1.00  0.00    -0.237 OA
ATOM     90  O   UNL A   1      40.886  20.576  28.233  1.00  0.00    -0.744 OA
ENDBRANCH  83  87
ENDBRANCH  56  80
BRANCH  68  91
ATOM     91  C   UNL A   1      46.830  25.868  32.576  1.00  0.00     0.023 A 
ATOM     92  C   UNL A   1      48.067  26.098  31.950  1.00  0.00     0.031 A 
ATOM     93  C   UNL A   1      46.790  24.963  33.652  1.00  0.00     0.131 A 
ATOM     94  C   UNL A   1      49.204  25.392  32.369  1.00  0.00     0.055 A 
ATOM     95  C   UNL A   1      47.934  24.304  34.100  1.00  0.00     0.041 A 
ATOM     96  F   UNL A   1      45.633  24.705  34.284  1.00  0.00    -0.206 F 
ATOM     97  C   UNL A   1      49.149  24.507  33.450  1.00  0.00     0.022 A 
BRANCH  94  98
ATOM     98  S   UNL A   1      50.745  25.581  31.430  1.00  0.00     0.124 S 
ATOM     99  O   UNL A   1      50.350  25.121  30.102  1.00  0.00    -0.237 OA
ATOM    100  O   UNL A   1      51.014  27.010  31.555  1.00  0.00    -0.237 OA
ATOM    101  O   UNL A   1      51.685  24.710  32.133  1.00  0.00    -0.744 OA
ENDBRANCH  94  98
ENDBRANCH  68  91
ENDBRANCH  42  43
ENDBRANCH  34  37
ENDBRANCH  32  33
ENDBRANCH  31  32
ENDBRANCH   1  31
TORSDOF 18
ENDMDL
