MODEL 1
REMARK VINA RESULT:     -12.3      0.000      0.000
REMARK SMILES O=C(CC1(CN2CC3(CCCCC3)CC2=O)CCCCC1)NCCCNC(=O)c1ccc(-c2c3nc(c(-c4cc(S(=O)(=O)[O-])ccc4F)c4ccc([nH]4)c(-c4cc(S(=O)(=O)[O-])ccc4F)c4nc(c(-c5cc(S(=O)(=O)[O-])ccc5F)c5ccc2[nH]5)C=C4)C=C3)cc1
REMARK SMILES IDX 24 1 23 2 22 3 1 4 2 5 3 7 4 8 17 9 21 10 18 11 20 12 19 13
REMARK SMILES IDX 5 14 6 15 7 16 15 17 8 18 14 19 16 20 9 21 13 22 10 23 12 24
REMARK SMILES IDX 11 25 25 26 26 27 27 28 28 30 29 31 30 32 91 33 31 34 90 35
REMARK SMILES IDX 32 36 33 37 34 38 84 39 35 40 89 41 83 42 85 43 36 44 88 45
REMARK SMILES IDX 82 46 81 47 37 49 69 50 49 51 68 52 50 53 53 54 67 55 86 56
REMARK SMILES IDX 51 57 52 58 66 60 87 61 54 62 38 63 39 64 47 65 40 66 46 67
REMARK SMILES IDX 48 68 45 69 41 70 42 71 43 72 44 73 70 74 71 75 79 76 72 77
REMARK SMILES IDX 78 78 80 79 77 80 73 81 74 82 75 83 76 84 55 85 56 86 64 87
REMARK SMILES IDX 57 88 63 89 65 90 62 91 58 92 59 93 60 94 61 95
REMARK H PARENT 22 6 26 29 85 48 53 59
REMARK Flexibility Score: inf
ROOT
ATOM      1  C   UNL A   1      33.229  27.791  26.654  1.00  0.00     0.042 C 
ENDROOT
BRANCH   1   2
ATOM      2  C   UNL A   1      32.106  27.102  25.892  1.00  0.00     0.117 C 
BRANCH   2   3
ATOM      3  N   UNL A   1      32.555  25.928  25.170  1.00  0.00    -0.356 N 
ATOM      4  O   UNL A   1      31.877  24.405  26.756  1.00  0.00    -0.275 OA
ATOM      5  C   UNL A   1      32.312  24.660  25.636  1.00  0.00     0.220 C 
ATOM      6  H   UNL A   1      33.046  26.043  24.325  1.00  0.00     0.163 HD
BRANCH   5   7
ATOM      7  C   UNL A   1      32.668  23.558  24.661  1.00  0.00     0.108 C 
BRANCH   7   8
ATOM      8  C   UNL A   1      34.122  22.996  24.705  1.00  0.00    -0.003 C 
ATOM      9  C   UNL A   1      34.958  23.608  23.528  1.00  0.00     0.009 C 
ATOM     10  C   UNL A   1      34.775  23.556  26.002  1.00  0.00     0.009 C 
ATOM     11  C   UNL A   1      36.463  23.309  23.622  1.00  0.00     0.001 C 
ATOM     12  C   UNL A   1      36.265  23.266  26.147  1.00  0.00     0.001 C 
ATOM     13  C   UNL A   1      37.059  23.768  24.950  1.00  0.00     0.000 C 
BRANCH   8  14
ATOM     14  C   UNL A   1      34.200  21.444  24.526  1.00  0.00     0.127 C 
BRANCH  14  15
ATOM     15  N   UNL A   1      33.029  20.592  24.663  1.00  0.00    -0.342 N 
ATOM     16  C   UNL A   1      32.916  19.551  25.646  1.00  0.00     0.127 C 
ATOM     17  C   UNL A   1      32.391  20.156  23.476  1.00  0.00     0.223 C 
ATOM     18  C   UNL A   1      32.949  18.255  24.816  1.00  0.00    -0.003 C 
ATOM     19  C   UNL A   1      31.998  18.694  23.678  1.00  0.00     0.109 C 
ATOM     20  O   UNL A   1      32.282  20.772  22.437  1.00  0.00    -0.275 OA
ATOM     21  C   UNL A   1      34.399  18.051  24.279  1.00  0.00     0.009 C 
ATOM     22  C   UNL A   1      32.415  17.096  25.682  1.00  0.00     0.009 C 
ATOM     23  C   UNL A   1      34.853  16.626  24.042  1.00  0.00     0.001 C 
ATOM     24  C   UNL A   1      33.007  15.718  25.398  1.00  0.00     0.001 C 
ATOM     25  C   UNL A   1      34.517  15.770  25.245  1.00  0.00     0.000 C 
ENDBRANCH  14  15
ENDBRANCH   8  14
ENDBRANCH   7   8
ENDBRANCH   5   7
ENDBRANCH   2   3
ENDBRANCH   1   2
BRANCH   1  26
ATOM     26  C   UNL A   1      33.891  28.950  25.917  1.00  0.00     0.118 C 
BRANCH  26  27
ATOM     27  N   UNL A   1      33.671  30.243  26.544  1.00  0.00    -0.352 N 
ATOM     28  C   UNL A   1      34.392  30.871  27.533  1.00  0.00     0.251 C 
ATOM     29  H   UNL A   1      32.890  30.743  26.212  1.00  0.00     0.163 HD
ATOM     30  O   UNL A   1      33.970  31.922  28.010  1.00  0.00    -0.269 OA
BRANCH  28  31
ATOM     31  C   UNL A   1      35.648  30.277  28.051  1.00  0.00     0.039 A 
ATOM     32  C   UNL A   1      36.815  30.416  27.292  1.00  0.00     0.014 A 
ATOM     33  C   UNL A   1      35.685  29.569  29.255  1.00  0.00     0.014 A 
ATOM     34  C   UNL A   1      38.024  29.898  27.766  1.00  0.00     0.010 A 
ATOM     35  C   UNL A   1      36.904  29.114  29.759  1.00  0.00     0.010 A 
ATOM     36  C   UNL A   1      38.086  29.266  29.017  1.00  0.00    -0.014 A 
BRANCH  36  37
ATOM     37  C   UNL A   1      39.370  28.734  29.549  1.00  0.00     0.031 A 
ATOM     38  C   UNL A   1      40.054  29.426  30.699  1.00  0.00     0.074 A 
ATOM     39  C   UNL A   1      39.948  27.663  28.969  1.00  0.00     0.049 A 
ATOM     40  N   UNL A   1      41.209  29.165  31.257  1.00  0.00    -0.248 NA
ATOM     41  C   UNL A   1      39.359  30.587  31.273  1.00  0.00     0.031 C 
ATOM     42  C   UNL A   1      39.409  26.928  27.824  1.00  0.00     0.029 A 
ATOM     43  N   UNL A   1      41.121  27.012  29.257  1.00  0.00    -0.354 N 
ATOM     44  C   UNL A   1      41.388  30.139  32.234  1.00  0.00     0.074 A 
ATOM     45  C   UNL A   1      40.249  31.029  32.148  1.00  0.00     0.031 C 
ATOM     46  C   UNL A   1      40.238  25.916  27.521  1.00  0.00     0.029 A 
ATOM     47  C   UNL A   1      41.385  25.949  28.424  1.00  0.00     0.049 A 
ATOM     48  H   UNL A   1      41.719  27.279  29.993  1.00  0.00     0.167 HD
ATOM     49  C   UNL A   1      42.394  30.267  33.136  1.00  0.00     0.034 A 
ATOM     50  C   UNL A   1      42.433  25.103  28.385  1.00  0.00     0.034 A 
ATOM     51  C   UNL A   1      43.513  29.360  33.227  1.00  0.00     0.049 A 
ATOM     52  C   UNL A   1      43.537  25.259  29.400  1.00  0.00     0.074 A 
ATOM     53  C   UNL A   1      44.562  29.368  34.131  1.00  0.00     0.029 A 
ATOM     54  N   UNL A   1      43.731  28.280  32.380  1.00  0.00    -0.354 N 
ATOM     55  N   UNL A   1      43.670  26.161  30.345  1.00  0.00    -0.248 NA
ATOM     56  C   UNL A   1      44.623  24.271  29.353  1.00  0.00     0.031 C 
ATOM     57  C   UNL A   1      45.439  28.329  33.800  1.00  0.00     0.029 A 
ATOM     58  C   UNL A   1      44.905  27.628  32.730  1.00  0.00     0.049 A 
ATOM     59  H   UNL A   1      43.138  28.015  31.640  1.00  0.00     0.167 HD
ATOM     60  C   UNL A   1      44.839  25.826  31.025  1.00  0.00     0.074 A 
ATOM     61  C   UNL A   1      45.364  24.637  30.388  1.00  0.00     0.031 C 
ATOM     62  C   UNL A   1      45.421  26.445  32.085  1.00  0.00     0.034 A 
BRANCH  49  63
ATOM     63  C   UNL A   1      42.334  31.449  34.076  1.00  0.00     0.023 A 
ATOM     64  C   UNL A   1      41.535  31.430  35.233  1.00  0.00     0.031 A 
ATOM     65  C   UNL A   1      43.050  32.625  33.790  1.00  0.00     0.131 A 
ATOM     66  C   UNL A   1      41.404  32.589  36.012  1.00  0.00     0.055 A 
ATOM     67  C   UNL A   1      42.982  33.748  34.618  1.00  0.00     0.041 A 
ATOM     68  F   UNL A   1      43.814  32.710  32.691  1.00  0.00    -0.206 F 
ATOM     69  C   UNL A   1      42.142  33.740  35.728  1.00  0.00     0.022 A 
BRANCH  66  70
ATOM     70  S   UNL A   1      40.138  32.619  37.311  1.00  0.00     0.124 S 
ATOM     71  O   UNL A   1      39.285  31.500  36.915  1.00  0.00    -0.237 OA
ATOM     72  O   UNL A   1      40.924  32.426  38.523  1.00  0.00    -0.237 OA
ATOM     73  O   UNL A   1      39.528  33.940  37.165  1.00  0.00    -0.744 OA
ENDBRANCH  66  70
ENDBRANCH  49  63
BRANCH  50  74
ATOM     74  C   UNL A   1      42.499  24.029  27.356  1.00  0.00     0.023 A 
ATOM     75  C   UNL A   1      41.857  22.797  27.555  1.00  0.00     0.031 A 
ATOM     76  C   UNL A   1      43.240  24.204  26.174  1.00  0.00     0.131 A 
ATOM     77  C   UNL A   1      42.007  21.769  26.610  1.00  0.00     0.055 A 
ATOM     78  C   UNL A   1      43.347  23.196  25.215  1.00  0.00     0.041 A 
ATOM     79  F   UNL A   1      43.866  25.367  25.932  1.00  0.00    -0.206 F 
ATOM     80  C   UNL A   1      42.739  21.964  25.437  1.00  0.00     0.022 A 
BRANCH  77  81
ATOM     81  S   UNL A   1      41.295  20.142  26.977  1.00  0.00     0.124 S 
ATOM     82  O   UNL A   1      42.438  19.261  26.764  1.00  0.00    -0.237 OA
ATOM     83  O   UNL A   1      40.861  20.307  28.361  1.00  0.00    -0.237 OA
ATOM     84  O   UNL A   1      40.217  20.014  26.000  1.00  0.00    -0.744 OA
ENDBRANCH  77  81
ENDBRANCH  50  74
BRANCH  62  85
ATOM     85  C   UNL A   1      46.663  25.804  32.652  1.00  0.00     0.023 A 
ATOM     86  C   UNL A   1      47.940  26.069  32.126  1.00  0.00     0.031 A 
ATOM     87  C   UNL A   1      46.562  24.901  33.724  1.00  0.00     0.131 A 
ATOM     88  C   UNL A   1      49.059  25.394  32.639  1.00  0.00     0.055 A 
ATOM     89  C   UNL A   1      47.684  24.275  34.266  1.00  0.00     0.041 A 
ATOM     90  F   UNL A   1      45.366  24.613  34.263  1.00  0.00    -0.206 F 
ATOM     91  C   UNL A   1      48.941  24.509  33.715  1.00  0.00     0.022 A 
BRANCH  88  92
ATOM     92  S   UNL A   1      50.664  25.622  31.825  1.00  0.00     0.124 S 
ATOM     93  O   UNL A   1      51.594  25.168  32.854  1.00  0.00    -0.237 OA
ATOM     94  O   UNL A   1      50.544  24.761  30.652  1.00  0.00    -0.237 OA
ATOM     95  O   UNL A   1      50.705  27.055  31.539  1.00  0.00    -0.744 OA
ENDBRANCH  88  92
ENDBRANCH  62  85
ENDBRANCH  36  37
ENDBRANCH  28  31
ENDBRANCH  26  27
ENDBRANCH   1  26
TORSDOF 16
ENDMDL
MODEL 2
REMARK VINA RESULT:     -12.2      1.837      2.141
REMARK SMILES O=C(CC1(CN2CC3(CCCCC3)CC2=O)CCCCC1)NCCCNC(=O)c1ccc(-c2c3nc(c(-c4cc(S(=O)(=O)[O-])ccc4F)c4ccc([nH]4)c(-c4cc(S(=O)(=O)[O-])ccc4F)c4nc(c(-c5cc(S(=O)(=O)[O-])ccc5F)c5ccc2[nH]5)C=C4)C=C3)cc1
REMARK SMILES IDX 24 1 23 2 22 3 1 4 2 5 3 7 4 8 17 9 21 10 18 11 20 12 19 13
REMARK SMILES IDX 5 14 6 15 7 16 15 17 8 18 14 19 16 20 9 21 13 22 10 23 12 24
REMARK SMILES IDX 11 25 25 26 26 27 27 28 28 30 29 31 30 32 91 33 31 34 90 35
REMARK SMILES IDX 32 36 33 37 34 38 84 39 35 40 89 41 83 42 85 43 36 44 88 45
REMARK SMILES IDX 82 46 81 47 37 49 69 50 49 51 68 52 50 53 53 54 67 55 86 56
REMARK SMILES IDX 51 57 52 58 66 60 87 61 54 62 38 63 39 64 47 65 40 66 46 67
REMARK SMILES IDX 48 68 45 69 41 70 42 71 43 72 44 73 70 74 71 75 79 76 72 77
REMARK SMILES IDX 78 78 80 79 77 80 73 81 74 82 75 83 76 84 55 85 56 86 64 87
REMARK SMILES IDX 57 88 63 89 65 90 62 91 58 92 59 93 60 94 61 95
REMARK H PARENT 22 6 26 29 85 48 53 59
REMARK Flexibility Score: inf
ROOT
ATOM      1  C   UNL A   1      33.322  27.745  26.862  1.00  0.00     0.042 C 
ENDROOT
BRANCH   1   2
ATOM      2  C   UNL A   1      32.167  27.075  26.132  1.00  0.00     0.117 C 
BRANCH   2   3
ATOM      3  N   UNL A   1      32.577  25.899  25.392  1.00  0.00    -0.356 N 
ATOM      4  O   UNL A   1      31.712  24.373  26.882  1.00  0.00    -0.275 OA
ATOM      5  C   UNL A   1      32.224  24.634  25.797  1.00  0.00     0.220 C 
ATOM      6  H   UNL A   1      33.121  26.008  24.579  1.00  0.00     0.163 HD
BRANCH   5   7
ATOM      7  C   UNL A   1      32.561  23.544  24.801  1.00  0.00     0.108 C 
BRANCH   7   8
ATOM      8  C   UNL A   1      34.026  23.010  24.782  1.00  0.00    -0.003 C 
ATOM      9  C   UNL A   1      34.812  23.675  23.599  1.00  0.00     0.009 C 
ATOM     10  C   UNL A   1      34.709  23.543  26.075  1.00  0.00     0.009 C 
ATOM     11  C   UNL A   1      36.325  23.404  23.636  1.00  0.00     0.001 C 
ATOM     12  C   UNL A   1      36.209  23.280  26.163  1.00  0.00     0.001 C 
ATOM     13  C   UNL A   1      36.954  23.834  24.958  1.00  0.00     0.000 C 
BRANCH   8  14
ATOM     14  C   UNL A   1      34.128  21.467  24.552  1.00  0.00     0.127 C 
BRANCH  14  15
ATOM     15  N   UNL A   1      32.972  20.591  24.668  1.00  0.00    -0.342 N 
ATOM     16  C   UNL A   1      32.862  19.546  25.647  1.00  0.00     0.127 C 
ATOM     17  C   UNL A   1      32.363  20.146  23.470  1.00  0.00     0.223 C 
ATOM     18  C   UNL A   1      32.935  18.254  24.815  1.00  0.00    -0.003 C 
ATOM     19  C   UNL A   1      31.995  18.676  23.662  1.00  0.00     0.109 C 
ATOM     20  O   UNL A   1      32.259  20.762  22.430  1.00  0.00    -0.275 OA
ATOM     21  C   UNL A   1      34.398  18.079  24.302  1.00  0.00     0.009 C 
ATOM     22  C   UNL A   1      32.410  17.083  25.670  1.00  0.00     0.009 C 
ATOM     23  C   UNL A   1      34.883  16.663  24.071  1.00  0.00     0.001 C 
ATOM     24  C   UNL A   1      33.033  15.716  25.394  1.00  0.00     0.001 C 
ATOM     25  C   UNL A   1      34.544  15.798  25.266  1.00  0.00     0.000 C 
ENDBRANCH  14  15
ENDBRANCH   8  14
ENDBRANCH   7   8
ENDBRANCH   5   7
ENDBRANCH   2   3
ENDBRANCH   1   2
BRANCH   1  26
ATOM     26  C   UNL A   1      34.017  28.857  26.084  1.00  0.00     0.118 C 
BRANCH  26  27
ATOM     27  N   UNL A   1      33.760  30.187  26.612  1.00  0.00    -0.352 N 
ATOM     28  C   UNL A   1      34.465  30.911  27.545  1.00  0.00     0.251 C 
ATOM     29  H   UNL A   1      32.962  30.636  26.248  1.00  0.00     0.163 HD
ATOM     30  O   UNL A   1      34.013  31.982  27.943  1.00  0.00    -0.269 OA
BRANCH  28  31
ATOM     31  C   UNL A   1      35.741  30.397  28.099  1.00  0.00     0.039 A 
ATOM     32  C   UNL A   1      35.711  29.701  29.312  1.00  0.00     0.014 A 
ATOM     33  C   UNL A   1      36.962  30.613  27.455  1.00  0.00     0.014 A 
ATOM     34  C   UNL A   1      36.890  29.174  29.846  1.00  0.00     0.010 A 
ATOM     35  C   UNL A   1      38.127  30.028  27.953  1.00  0.00     0.010 A 
ATOM     36  C   UNL A   1      38.106  29.308  29.157  1.00  0.00    -0.014 A 
BRANCH  36  37
ATOM     37  C   UNL A   1      39.366  28.729  29.698  1.00  0.00     0.031 A 
ATOM     38  C   UNL A   1      39.989  29.307  30.941  1.00  0.00     0.074 A 
ATOM     39  C   UNL A   1      39.978  27.719  29.047  1.00  0.00     0.049 A 
ATOM     40  N   UNL A   1      41.117  28.995  31.527  1.00  0.00    -0.248 NA
ATOM     41  C   UNL A   1      39.260  30.407  31.589  1.00  0.00     0.031 C 
ATOM     42  C   UNL A   1      39.499  27.097  27.811  1.00  0.00     0.029 A 
ATOM     43  N   UNL A   1      41.140  27.044  29.328  1.00  0.00    -0.354 N 
ATOM     44  C   UNL A   1      41.242  29.870  32.601  1.00  0.00     0.074 A 
ATOM     45  C   UNL A   1      40.103  30.763  32.545  1.00  0.00     0.031 C 
ATOM     46  C   UNL A   1      40.348  26.120  27.453  1.00  0.00     0.029 A 
ATOM     47  C   UNL A   1      41.450  26.068  28.410  1.00  0.00     0.049 A 
ATOM     48  H   UNL A   1      41.699  27.241  30.114  1.00  0.00     0.167 HD
ATOM     49  C   UNL A   1      42.203  29.913  33.560  1.00  0.00     0.034 A 
ATOM     50  C   UNL A   1      42.504  25.231  28.342  1.00  0.00     0.034 A 
ATOM     51  C   UNL A   1      43.321  29.002  33.618  1.00  0.00     0.049 A 
ATOM     52  C   UNL A   1      43.556  25.289  29.420  1.00  0.00     0.074 A 
ATOM     53  C   UNL A   1      44.324  28.924  34.569  1.00  0.00     0.029 A 
ATOM     54  N   UNL A   1      43.586  28.009  32.683  1.00  0.00    -0.354 N 
ATOM     55  N   UNL A   1      43.637  26.096  30.452  1.00  0.00    -0.248 NA
ATOM     56  C   UNL A   1      44.649  24.311  29.331  1.00  0.00     0.031 C 
ATOM     57  C   UNL A   1      45.223  27.923  34.183  1.00  0.00     0.029 A 
ATOM     58  C   UNL A   1      44.746  27.328  33.025  1.00  0.00     0.049 A 
ATOM     59  H   UNL A   1      43.032  27.816  31.893  1.00  0.00     0.167 HD
ATOM     60  C   UNL A   1      44.773  25.699  31.154  1.00  0.00     0.074 A 
ATOM     61  C   UNL A   1      45.336  24.577  30.432  1.00  0.00     0.031 C 
ATOM     62  C   UNL A   1      45.299  26.213  32.295  1.00  0.00     0.034 A 
BRANCH  49  63
ATOM     63  C   UNL A   1      42.089  30.998  34.604  1.00  0.00     0.023 A 
ATOM     64  C   UNL A   1      42.680  32.261  34.422  1.00  0.00     0.031 A 
ATOM     65  C   UNL A   1      41.418  30.755  35.816  1.00  0.00     0.131 A 
ATOM     66  C   UNL A   1      42.664  33.199  35.465  1.00  0.00     0.055 A 
ATOM     67  C   UNL A   1      41.332  31.725  36.817  1.00  0.00     0.041 A 
ATOM     68  F   UNL A   1      40.851  29.564  36.056  1.00  0.00    -0.206 F 
ATOM     69  C   UNL A   1      41.972  32.950  36.652  1.00  0.00     0.022 A 
BRANCH  66  70
ATOM     70  S   UNL A   1      43.692  34.685  35.307  1.00  0.00     0.124 S 
ATOM     71  O   UNL A   1      42.811  35.572  34.549  1.00  0.00    -0.237 OA
ATOM     72  O   UNL A   1      43.929  35.055  36.697  1.00  0.00    -0.237 OA
ATOM     73  O   UNL A   1      44.867  34.214  34.577  1.00  0.00    -0.744 OA
ENDBRANCH  66  70
ENDBRANCH  49  63
BRANCH  50  74
ATOM     74  C   UNL A   1      42.625  24.260  27.218  1.00  0.00     0.023 A 
ATOM     75  C   UNL A   1      42.014  22.999  27.283  1.00  0.00     0.031 A 
ATOM     76  C   UNL A   1      43.392  24.566  26.079  1.00  0.00     0.131 A 
ATOM     77  C   UNL A   1      42.217  22.069  26.250  1.00  0.00     0.055 A 
ATOM     78  C   UNL A   1      43.551  23.656  25.033  1.00  0.00     0.041 A 
ATOM     79  F   UNL A   1      43.990  25.762  25.965  1.00  0.00    -0.206 F 
ATOM     80  C   UNL A   1      42.973  22.393  25.121  1.00  0.00     0.022 A 
BRANCH  77  81
ATOM     81  S   UNL A   1      41.542  20.397  26.443  1.00  0.00     0.124 S 
ATOM     82  O   UNL A   1      42.181  19.688  25.340  1.00  0.00    -0.237 OA
ATOM     83  O   UNL A   1      41.995  20.040  27.784  1.00  0.00    -0.237 OA
ATOM     84  O   UNL A   1      40.101  20.594  26.307  1.00  0.00    -0.744 OA
ENDBRANCH  77  81
ENDBRANCH  50  74
BRANCH  62  85
ATOM     85  C   UNL A   1      46.517  25.522  32.858  1.00  0.00     0.023 A 
ATOM     86  C   UNL A   1      46.410  24.470  33.785  1.00  0.00     0.031 A 
ATOM     87  C   UNL A   1      47.802  25.938  32.472  1.00  0.00     0.131 A 
ATOM     88  C   UNL A   1      47.571  23.906  34.335  1.00  0.00     0.055 A 
ATOM     89  C   UNL A   1      48.953  25.337  32.982  1.00  0.00     0.041 A 
ATOM     90  F   UNL A   1      47.960  26.939  31.590  1.00  0.00    -0.206 F 
ATOM     91  C   UNL A   1      48.842  24.323  33.929  1.00  0.00     0.022 A 
BRANCH  88  92
ATOM     92  S   UNL A   1      47.402  22.675  35.657  1.00  0.00     0.124 S 
ATOM     93  O   UNL A   1      48.270  21.601  35.186  1.00  0.00    -0.237 OA
ATOM     94  O   UNL A   1      47.873  23.408  36.828  1.00  0.00    -0.237 OA
ATOM     95  O   UNL A   1      45.973  22.364  35.656  1.00  0.00    -0.744 OA
ENDBRANCH  88  92
ENDBRANCH  62  85
ENDBRANCH  36  37
ENDBRANCH  28  31
ENDBRANCH  26  27
ENDBRANCH   1  26
TORSDOF 16
ENDMDL
MODEL 3
REMARK VINA RESULT:     -12.1      4.503      9.837
REMARK SMILES O=C(CC1(CN2CC3(CCCCC3)CC2=O)CCCCC1)NCCCNC(=O)c1ccc(-c2c3nc(c(-c4cc(S(=O)(=O)[O-])ccc4F)c4ccc([nH]4)c(-c4cc(S(=O)(=O)[O-])ccc4F)c4nc(c(-c5cc(S(=O)(=O)[O-])ccc5F)c5ccc2[nH]5)C=C4)C=C3)cc1
REMARK SMILES IDX 24 1 23 2 22 3 1 4 2 5 3 7 4 8 17 9 21 10 18 11 20 12 19 13
REMARK SMILES IDX 5 14 6 15 7 16 15 17 8 18 14 19 16 20 9 21 13 22 10 23 12 24
REMARK SMILES IDX 11 25 25 26 26 27 27 28 28 30 29 31 30 32 91 33 31 34 90 35
REMARK SMILES IDX 32 36 33 37 34 38 84 39 35 40 89 41 83 42 85 43 36 44 88 45
REMARK SMILES IDX 82 46 81 47 37 49 69 50 49 51 68 52 50 53 53 54 67 55 86 56
REMARK SMILES IDX 51 57 52 58 66 60 87 61 54 62 38 63 39 64 47 65 40 66 46 67
REMARK SMILES IDX 48 68 45 69 41 70 42 71 43 72 44 73 70 74 71 75 79 76 72 77
REMARK SMILES IDX 78 78 80 79 77 80 73 81 74 82 75 83 76 84 55 85 56 86 64 87
REMARK SMILES IDX 57 88 63 89 65 90 62 91 58 92 59 93 60 94 61 95
REMARK H PARENT 22 6 26 29 85 48 53 59
REMARK Flexibility Score: inf
ROOT
ATOM      1  C   UNL A   1      31.523  32.604  26.542  1.00  0.00     0.042 C 
ENDROOT
BRANCH   1   2
ATOM      2  C   UNL A   1      31.292  31.099  26.547  1.00  0.00     0.117 C 
BRANCH   2   3
ATOM      3  N   UNL A   1      31.763  30.455  25.337  1.00  0.00    -0.356 N 
ATOM      4  O   UNL A   1      33.705  29.627  26.253  1.00  0.00    -0.275 OA
ATOM      5  C   UNL A   1      32.901  29.687  25.326  1.00  0.00     0.220 C 
ATOM      6  H   UNL A   1      31.254  30.570  24.503  1.00  0.00     0.163 HD
BRANCH   5   7
ATOM      7  C   UNL A   1      33.130  28.928  24.035  1.00  0.00     0.108 C 
BRANCH   7   8
ATOM      8  C   UNL A   1      32.364  27.584  23.841  1.00  0.00    -0.003 C 
ATOM      9  C   UNL A   1      32.568  27.070  22.374  1.00  0.00     0.009 C 
ATOM     10  C   UNL A   1      33.077  26.534  24.743  1.00  0.00     0.009 C 
ATOM     11  C   UNL A   1      32.059  25.638  22.147  1.00  0.00     0.001 C 
ATOM     12  C   UNL A   1      32.590  25.100  24.565  1.00  0.00     0.001 C 
ATOM     13  C   UNL A   1      32.689  24.643  23.117  1.00  0.00     0.000 C 
BRANCH   8  14
ATOM     14  C   UNL A   1      30.818  27.708  24.043  1.00  0.00     0.127 C 
BRANCH  14  15
ATOM     15  N   UNL A   1      29.911  27.938  22.929  1.00  0.00    -0.342 N 
ATOM     16  C   UNL A   1      30.057  29.021  21.997  1.00  0.00     0.127 C 
ATOM     17  C   UNL A   1      28.529  27.726  23.153  1.00  0.00     0.223 C 
ATOM     18  C   UNL A   1      28.861  29.938  22.306  1.00  0.00    -0.003 C 
ATOM     19  C   UNL A   1      27.773  28.847  22.443  1.00  0.00     0.109 C 
ATOM     20  O   UNL A   1      28.025  26.892  23.874  1.00  0.00    -0.275 OA
ATOM     21  C   UNL A   1      29.119  30.639  23.676  1.00  0.00     0.009 C 
ATOM     22  C   UNL A   1      28.653  30.901  21.120  1.00  0.00     0.009 C 
ATOM     23  C   UNL A   1      28.498  32.005  23.878  1.00  0.00     0.001 C 
ATOM     24  C   UNL A   1      28.092  32.279  21.464  1.00  0.00     0.001 C 
ATOM     25  C   UNL A   1      28.778  32.884  22.677  1.00  0.00     0.000 C 
ENDBRANCH  14  15
ENDBRANCH   8  14
ENDBRANCH   7   8
ENDBRANCH   5   7
ENDBRANCH   2   3
ENDBRANCH   1   2
BRANCH   1  26
ATOM     26  C   UNL A   1      32.778  33.064  27.276  1.00  0.00     0.118 C 
BRANCH  26  27
ATOM     27  N   UNL A   1      32.679  34.411  27.812  1.00  0.00    -0.352 N 
ATOM     28  C   UNL A   1      33.385  35.001  28.834  1.00  0.00     0.251 C 
ATOM     29  H   UNL A   1      32.006  34.986  27.380  1.00  0.00     0.163 HD
ATOM     30  O   UNL A   1      33.068  36.127  29.213  1.00  0.00    -0.269 OA
BRANCH  28  31
ATOM     31  C   UNL A   1      34.497  34.284  29.503  1.00  0.00     0.039 A 
ATOM     32  C   UNL A   1      35.809  34.575  29.115  1.00  0.00     0.014 A 
ATOM     33  C   UNL A   1      34.264  33.315  30.483  1.00  0.00     0.014 A 
ATOM     34  C   UNL A   1      36.883  33.943  29.748  1.00  0.00     0.010 A 
ATOM     35  C   UNL A   1      35.337  32.736  31.161  1.00  0.00     0.010 A 
ATOM     36  C   UNL A   1      36.658  33.037  30.797  1.00  0.00    -0.014 A 
BRANCH  36  37
ATOM     37  C   UNL A   1      37.791  32.376  31.500  1.00  0.00     0.031 A 
ATOM     38  C   UNL A   1      38.522  31.234  30.844  1.00  0.00     0.074 A 
ATOM     39  C   UNL A   1      38.131  32.764  32.746  1.00  0.00     0.049 A 
ATOM     40  N   UNL A   1      39.483  30.481  31.317  1.00  0.00    -0.248 NA
ATOM     41  C   UNL A   1      38.090  30.872  29.486  1.00  0.00     0.031 C 
ATOM     42  C   UNL A   1      37.475  33.829  33.508  1.00  0.00     0.029 A 
ATOM     43  N   UNL A   1      39.105  32.302  33.595  1.00  0.00    -0.354 N 
ATOM     44  C   UNL A   1      39.757  29.546  30.324  1.00  0.00     0.074 A 
ATOM     45  C   UNL A   1      38.817  29.792  29.250  1.00  0.00     0.031 C 
ATOM     46  C   UNL A   1      38.079  33.951  34.701  1.00  0.00     0.029 A 
ATOM     47  C   UNL A   1      39.139  32.952  34.806  1.00  0.00     0.049 A 
ATOM     48  H   UNL A   1      39.723  31.572  33.358  1.00  0.00     0.167 HD
ATOM     49  C   UNL A   1      40.716  28.586  30.299  1.00  0.00     0.034 A 
ATOM     50  C   UNL A   1      39.928  32.762  35.882  1.00  0.00     0.034 A 
ATOM     51  C   UNL A   1      41.662  28.365  31.367  1.00  0.00     0.049 A 
ATOM     52  C   UNL A   1      40.992  31.696  35.830  1.00  0.00     0.074 A 
ATOM     53  C   UNL A   1      42.703  27.455  31.425  1.00  0.00     0.029 A 
ATOM     54  N   UNL A   1      41.680  29.063  32.568  1.00  0.00    -0.354 N 
ATOM     55  N   UNL A   1      41.265  30.847  34.867  1.00  0.00    -0.248 NA
ATOM     56  C   UNL A   1      41.865  31.575  37.006  1.00  0.00     0.031 C 
ATOM     57  C   UNL A   1      43.317  27.565  32.679  1.00  0.00     0.029 A 
ATOM     58  C   UNL A   1      42.702  28.591  33.379  1.00  0.00     0.049 A 
ATOM     59  H   UNL A   1      41.059  29.788  32.809  1.00  0.00     0.167 HD
ATOM     60  C   UNL A   1      42.364  30.114  35.309  1.00  0.00     0.074 A 
ATOM     61  C   UNL A   1      42.707  30.628  36.618  1.00  0.00     0.031 C 
ATOM     62  C   UNL A   1      43.032  29.110  34.685  1.00  0.00     0.034 A 
BRANCH  49  63
ATOM     63  C   UNL A   1      40.766  27.691  29.083  1.00  0.00     0.023 A 
ATOM     64  C   UNL A   1      41.697  27.903  28.049  1.00  0.00     0.031 A 
ATOM     65  C   UNL A   1      39.846  26.638  28.933  1.00  0.00     0.131 A 
ATOM     66  C   UNL A   1      41.631  27.133  26.879  1.00  0.00     0.055 A 
ATOM     67  C   UNL A   1      39.841  25.820  27.801  1.00  0.00     0.041 A 
ATOM     68  F   UNL A   1      38.922  26.399  29.875  1.00  0.00    -0.206 F 
ATOM     69  C   UNL A   1      40.726  26.076  26.757  1.00  0.00     0.022 A 
BRANCH  66  70
ATOM     70  S   UNL A   1      42.639  27.634  25.457  1.00  0.00     0.124 S 
ATOM     71  O   UNL A   1      43.910  27.965  26.099  1.00  0.00    -0.237 OA
ATOM     72  O   UNL A   1      42.635  26.434  24.628  1.00  0.00    -0.237 OA
ATOM     73  O   UNL A   1      41.912  28.776  24.906  1.00  0.00    -0.744 OA
ENDBRANCH  66  70
ENDBRANCH  49  63
BRANCH  50  74
ATOM     74  C   UNL A   1      39.752  33.596  37.104  1.00  0.00     0.023 A 
ATOM     75  C   UNL A   1      39.090  33.092  38.234  1.00  0.00     0.031 A 
ATOM     76  C   UNL A   1      40.207  34.926  37.143  1.00  0.00     0.131 A 
ATOM     77  C   UNL A   1      38.859  33.927  39.340  1.00  0.00     0.055 A 
ATOM     78  C   UNL A   1      40.018  35.737  38.263  1.00  0.00     0.041 A 
ATOM     79  F   UNL A   1      40.853  35.453  36.090  1.00  0.00    -0.206 F 
ATOM     80  C   UNL A   1      39.327  35.242  39.366  1.00  0.00     0.022 A 
BRANCH  77  81
ATOM     81  S   UNL A   1      37.864  33.288  40.716  1.00  0.00     0.124 S 
ATOM     82  O   UNL A   1      38.591  32.074  41.070  1.00  0.00    -0.237 OA
ATOM     83  O   UNL A   1      37.939  34.385  41.676  1.00  0.00    -0.237 OA
ATOM     84  O   UNL A   1      36.549  33.077  40.115  1.00  0.00    -0.744 OA
ENDBRANCH  77  81
ENDBRANCH  50  74
BRANCH  62  85
ATOM     85  C   UNL A   1      44.237  28.546  35.396  1.00  0.00     0.023 A 
ATOM     86  C   UNL A   1      44.118  27.558  36.389  1.00  0.00     0.031 A 
ATOM     87  C   UNL A   1      45.523  29.020  35.083  1.00  0.00     0.131 A 
ATOM     88  C   UNL A   1      45.260  27.116  37.074  1.00  0.00     0.055 A 
ATOM     89  C   UNL A   1      46.661  28.537  35.729  1.00  0.00     0.041 A 
ATOM     90  F   UNL A   1      45.693  29.963  34.143  1.00  0.00    -0.206 F 
ATOM     91  C   UNL A   1      46.533  27.588  36.740  1.00  0.00     0.022 A 
BRANCH  88  92
ATOM     92  S   UNL A   1      45.054  25.974  38.469  1.00  0.00     0.124 S 
ATOM     93  O   UNL A   1      46.171  26.344  39.332  1.00  0.00    -0.237 OA
ATOM     94  O   UNL A   1      43.726  26.322  38.963  1.00  0.00    -0.237 OA
ATOM     95  O   UNL A   1      45.158  24.653  37.851  1.00  0.00    -0.744 OA
ENDBRANCH  88  92
ENDBRANCH  62  85
ENDBRANCH  36  37
ENDBRANCH  28  31
ENDBRANCH  26  27
ENDBRANCH   1  26
TORSDOF 16
ENDMDL
