MODEL 1
REMARK VINA RESULT:     -12.8      0.000      0.000
REMARK SMILES CCn1nc(-c2cccnc2)c2cc(C(=O)NCCCNC(=O)c3ccc(-c4c5nc(c(-c6cc(S(=O)(=O)[O-])ccc6F)c6ccc([nH]6)c(-c6cc(S(=O)(=O)[O-])ccc6F)c6nc(c(-c7cc(S(=O)(=O)[O-])ccc7F)c7ccc4[nH]7)C=C6)C=C5)cc3)sc21
REMARK SMILES IDX 20 1 19 2 18 3 17 4 15 5 16 6 14 8 3 9 4 10 88 11 5 12 12 13
REMARK SMILES IDX 87 14 13 15 2 16 1 17 6 18 7 19 11 20 8 21 10 22 9 23 21 24
REMARK SMILES IDX 22 25 23 27 24 28 25 29 86 30 26 31 85 32 27 33 28 34 29 35
REMARK SMILES IDX 79 36 30 37 84 38 78 39 80 40 31 41 83 42 77 43 76 44 32 46
REMARK SMILES IDX 64 47 44 48 63 49 45 50 48 51 62 52 81 53 46 54 47 55 61 57
REMARK SMILES IDX 82 58 49 59 33 60 34 61 42 62 35 63 41 64 43 65 40 66 36 67
REMARK SMILES IDX 37 68 38 69 39 70 65 71 66 72 74 73 67 74 73 75 75 76 72 77
REMARK SMILES IDX 68 78 69 79 70 80 71 81 50 82 51 83 59 84 52 85 58 86 60 87
REMARK SMILES IDX 57 88 53 89 54 90 55 91 56 92
REMARK H PARENT 17 7 21 26 80 45 48 56
REMARK Flexibility Score: inf
ROOT
ATOM      1  C   UNL A   1      35.320  29.306  27.606  1.00  0.00     0.118 C 
ENDROOT
BRANCH   1   2
ATOM      2  C   UNL A   1      34.173  30.068  26.959  1.00  0.00     0.042 C 
BRANCH   2   3
ATOM      3  C   UNL A   1      33.500  29.206  25.883  1.00  0.00     0.118 C 
BRANCH   3   4
ATOM      4  N   UNL A   1      32.464  28.312  26.403  1.00  0.00    -0.351 N 
ATOM      5  C   UNL A   1      32.211  26.955  26.327  1.00  0.00     0.261 C 
ATOM      6  O   UNL A   1      31.231  26.564  26.967  1.00  0.00    -0.268 OA
ATOM      7  H   UNL A   1      31.787  28.791  26.933  1.00  0.00     0.163 HD
BRANCH   5   8
ATOM      8  C   UNL A   1      32.989  26.029  25.511  1.00  0.00     0.095 A 
ATOM      9  N   UNL A   1      33.854  23.325  23.119  1.00  0.00    -0.254 N 
ATOM     10  N   UNL A   1      34.989  22.688  23.509  1.00  0.00    -0.171 NA
ATOM     11  C   UNL A   1      33.614  24.396  23.888  1.00  0.00     0.122 A 
ATOM     12  C   UNL A   1      35.394  23.368  24.622  1.00  0.00     0.103 A 
ATOM     13  C   UNL A   1      34.462  24.373  24.910  1.00  0.00     0.040 A 
ATOM     14  S   UNL A   1      32.547  25.635  23.888  1.00  0.00    -0.110 S 
ATOM     15  C   UNL A   1      34.172  25.342  25.878  1.00  0.00     0.038 A 
BRANCH   9  16
ATOM     16  C   UNL A   1      32.975  22.813  22.088  1.00  0.00     0.142 C 
ATOM     17  C   UNL A   1      32.205  21.577  22.545  1.00  0.00     0.029 C 
ENDBRANCH   9  16
BRANCH  12  18
ATOM     18  C   UNL A   1      36.679  23.073  25.220  1.00  0.00     0.021 A 
ATOM     19  C   UNL A   1      37.262  21.819  24.993  1.00  0.00     0.013 A 
ATOM     20  C   UNL A   1      37.371  23.967  26.022  1.00  0.00     0.121 A 
ATOM     21  C   UNL A   1      38.491  21.509  25.561  1.00  0.00     0.021 A 
ATOM     22  N   UNL A   1      38.572  23.690  26.596  1.00  0.00    -0.264 NA
ATOM     23  C   UNL A   1      39.101  22.468  26.351  1.00  0.00     0.111 A 
ENDBRANCH  12  18
ENDBRANCH   5   8
ENDBRANCH   3   4
ENDBRANCH   2   3
ENDBRANCH   1   2
BRANCH   1  24
ATOM     24  N   UNL A   1      35.555  29.727  28.995  1.00  0.00    -0.352 N 
ATOM     25  C   UNL A   1      36.610  29.401  29.825  1.00  0.00     0.251 C 
ATOM     26  H   UNL A   1      34.873  30.320  29.382  1.00  0.00     0.163 HD
ATOM     27  O   UNL A   1      36.513  29.561  31.042  1.00  0.00    -0.269 OA
BRANCH  25  28
ATOM     28  C   UNL A   1      37.834  28.846  29.226  1.00  0.00     0.039 A 
ATOM     29  C   UNL A   1      38.462  29.459  28.141  1.00  0.00     0.014 A 
ATOM     30  C   UNL A   1      38.399  27.728  29.833  1.00  0.00     0.014 A 
ATOM     31  C   UNL A   1      39.720  28.998  27.757  1.00  0.00     0.010 A 
ATOM     32  C   UNL A   1      39.706  27.400  29.576  1.00  0.00     0.010 A 
ATOM     33  C   UNL A   1      40.362  27.994  28.509  1.00  0.00    -0.014 A 
BRANCH  33  34
ATOM     34  C   UNL A   1      41.774  27.677  28.293  1.00  0.00     0.031 A 
ATOM     35  C   UNL A   1      41.987  26.399  27.562  1.00  0.00     0.074 A 
ATOM     36  C   UNL A   1      42.807  28.513  28.554  1.00  0.00     0.049 A 
ATOM     37  N   UNL A   1      42.400  25.286  28.066  1.00  0.00    -0.248 NA
ATOM     38  C   UNL A   1      41.508  26.276  26.176  1.00  0.00     0.031 C 
ATOM     39  C   UNL A   1      42.770  29.899  29.034  1.00  0.00     0.029 A 
ATOM     40  N   UNL A   1      44.142  28.310  28.367  1.00  0.00    -0.354 N 
ATOM     41  C   UNL A   1      42.491  24.394  27.007  1.00  0.00     0.074 A 
ATOM     42  C   UNL A   1      41.733  24.982  25.933  1.00  0.00     0.031 C 
ATOM     43  C   UNL A   1      43.988  30.472  28.886  1.00  0.00     0.029 A 
ATOM     44  C   UNL A   1      44.936  29.454  28.471  1.00  0.00     0.049 A 
ATOM     45  H   UNL A   1      44.519  27.421  28.172  1.00  0.00     0.167 HD
ATOM     46  C   UNL A   1      43.395  23.375  27.037  1.00  0.00     0.034 A 
ATOM     47  C   UNL A   1      46.279  29.558  28.259  1.00  0.00     0.034 A 
ATOM     48  C   UNL A   1      43.881  23.161  28.386  1.00  0.00     0.049 A 
ATOM     49  C   UNL A   1      46.838  28.199  28.453  1.00  0.00     0.074 A 
ATOM     50  C   UNL A   1      43.270  22.876  29.594  1.00  0.00     0.029 A 
ATOM     51  N   UNL A   1      45.120  23.666  28.718  1.00  0.00    -0.354 N 
ATOM     52  N   UNL A   1      46.834  27.592  29.608  1.00  0.00    -0.248 NA
ATOM     53  C   UNL A   1      46.918  27.325  27.294  1.00  0.00     0.031 C 
ATOM     54  C   UNL A   1      43.935  23.708  30.544  1.00  0.00     0.029 A 
ATOM     55  C   UNL A   1      44.980  24.367  29.894  1.00  0.00     0.049 A 
ATOM     56  H   UNL A   1      45.953  23.548  28.207  1.00  0.00     0.167 HD
ATOM     57  C   UNL A   1      46.445  26.294  29.324  1.00  0.00     0.074 A 
ATOM     58  C   UNL A   1      46.602  26.163  27.875  1.00  0.00     0.031 C 
ATOM     59  C   UNL A   1      45.763  25.541  30.239  1.00  0.00     0.034 A 
BRANCH  46  60
ATOM     60  C   UNL A   1      44.119  22.833  25.826  1.00  0.00     0.023 A 
ATOM     61  C   UNL A   1      44.196  21.433  25.692  1.00  0.00     0.031 A 
ATOM     62  C   UNL A   1      44.965  23.578  24.972  1.00  0.00     0.131 A 
ATOM     63  C   UNL A   1      45.137  20.840  24.832  1.00  0.00     0.055 A 
ATOM     64  C   UNL A   1      45.852  22.984  24.071  1.00  0.00     0.041 A 
ATOM     65  F   UNL A   1      45.056  24.911  25.024  1.00  0.00    -0.206 F 
ATOM     66  C   UNL A   1      45.966  21.606  24.019  1.00  0.00     0.022 A 
BRANCH  63  67
ATOM     67  S   UNL A   1      45.380  19.048  24.930  1.00  0.00     0.124 S 
ATOM     68  O   UNL A   1      45.643  18.712  23.535  1.00  0.00    -0.237 OA
ATOM     69  O   UNL A   1      46.512  18.948  25.843  1.00  0.00    -0.237 OA
ATOM     70  O   UNL A   1      44.107  18.562  25.460  1.00  0.00    -0.744 OA
ENDBRANCH  63  67
ENDBRANCH  46  60
BRANCH  47  71
ATOM     71  C   UNL A   1      47.047  30.662  27.607  1.00  0.00     0.023 A 
ATOM     72  C   UNL A   1      46.430  31.749  26.943  1.00  0.00     0.031 A 
ATOM     73  C   UNL A   1      48.425  30.798  27.886  1.00  0.00     0.131 A 
ATOM     74  C   UNL A   1      47.180  32.905  26.603  1.00  0.00     0.055 A 
ATOM     75  C   UNL A   1      49.156  31.942  27.558  1.00  0.00     0.041 A 
ATOM     76  F   UNL A   1      49.087  29.855  28.575  1.00  0.00    -0.206 F 
ATOM     77  C   UNL A   1      48.534  33.007  26.925  1.00  0.00     0.022 A 
BRANCH  74  78
ATOM     78  S   UNL A   1      46.385  34.349  25.815  1.00  0.00     0.124 S 
ATOM     79  O   UNL A   1      45.305  33.734  25.054  1.00  0.00    -0.237 OA
ATOM     80  O   UNL A   1      45.991  35.161  26.961  1.00  0.00    -0.237 OA
ATOM     81  O   UNL A   1      47.456  34.927  25.001  1.00  0.00    -0.744 OA
ENDBRANCH  74  78
ENDBRANCH  47  71
BRANCH  59  82
ATOM     82  C   UNL A   1      45.667  26.054  31.669  1.00  0.00     0.023 A 
ATOM     83  C   UNL A   1      44.536  26.685  32.243  1.00  0.00     0.031 A 
ATOM     84  C   UNL A   1      46.764  25.806  32.516  1.00  0.00     0.131 A 
ATOM     85  C   UNL A   1      44.544  27.057  33.605  1.00  0.00     0.055 A 
ATOM     86  C   UNL A   1      46.758  26.151  33.866  1.00  0.00     0.041 A 
ATOM     87  F   UNL A   1      47.862  25.194  32.044  1.00  0.00    -0.206 F 
ATOM     88  C   UNL A   1      45.652  26.786  34.414  1.00  0.00     0.022 A 
BRANCH  85  89
ATOM     89  S   UNL A   1      43.129  27.938  34.347  1.00  0.00     0.124 S 
ATOM     90  O   UNL A   1      42.833  27.165  35.547  1.00  0.00    -0.237 OA
ATOM     91  O   UNL A   1      43.670  29.278  34.568  1.00  0.00    -0.237 OA
ATOM     92  O   UNL A   1      42.100  27.866  33.307  1.00  0.00    -0.744 OA
ENDBRANCH  85  89
ENDBRANCH  59  82
ENDBRANCH  33  34
ENDBRANCH  25  28
ENDBRANCH   1  24
TORSDOF 15
ENDMDL
MODEL 2
REMARK VINA RESULT:     -12.7      1.283      1.537
REMARK SMILES CCn1nc(-c2cccnc2)c2cc(C(=O)NCCCNC(=O)c3ccc(-c4c5nc(c(-c6cc(S(=O)(=O)[O-])ccc6F)c6ccc([nH]6)c(-c6cc(S(=O)(=O)[O-])ccc6F)c6nc(c(-c7cc(S(=O)(=O)[O-])ccc7F)c7ccc4[nH]7)C=C6)C=C5)cc3)sc21
REMARK SMILES IDX 20 1 19 2 18 3 17 4 15 5 16 6 14 8 3 9 4 10 88 11 5 12 12 13
REMARK SMILES IDX 87 14 13 15 2 16 1 17 6 18 7 19 11 20 8 21 10 22 9 23 21 24
REMARK SMILES IDX 22 25 23 27 24 28 25 29 86 30 26 31 85 32 27 33 28 34 29 35
REMARK SMILES IDX 79 36 30 37 84 38 78 39 80 40 31 41 83 42 77 43 76 44 32 46
REMARK SMILES IDX 64 47 44 48 63 49 45 50 48 51 62 52 81 53 46 54 47 55 61 57
REMARK SMILES IDX 82 58 49 59 33 60 34 61 42 62 35 63 41 64 43 65 40 66 36 67
REMARK SMILES IDX 37 68 38 69 39 70 65 71 66 72 74 73 67 74 73 75 75 76 72 77
REMARK SMILES IDX 68 78 69 79 70 80 71 81 50 82 51 83 59 84 52 85 58 86 60 87
REMARK SMILES IDX 57 88 53 89 54 90 55 91 56 92
REMARK H PARENT 17 7 21 26 80 45 48 56
REMARK Flexibility Score: inf
ROOT
ATOM      1  C   UNL A   1      35.538  30.118  27.625  1.00  0.00     0.118 C 
ENDROOT
BRANCH   1   2
ATOM      2  C   UNL A   1      34.884  28.821  27.175  1.00  0.00     0.042 C 
BRANCH   2   3
ATOM      3  C   UNL A   1      33.645  29.117  26.321  1.00  0.00     0.118 C 
BRANCH   3   4
ATOM      4  N   UNL A   1      32.493  28.271  26.635  1.00  0.00    -0.351 N 
ATOM      5  C   UNL A   1      32.141  26.959  26.378  1.00  0.00     0.261 C 
ATOM      6  O   UNL A   1      31.073  26.592  26.875  1.00  0.00    -0.268 OA
ATOM      7  H   UNL A   1      31.805  28.749  27.152  1.00  0.00     0.163 HD
BRANCH   5   8
ATOM      8  C   UNL A   1      32.921  26.060  25.535  1.00  0.00     0.095 A 
ATOM      9  N   UNL A   1      33.793  23.438  23.056  1.00  0.00    -0.254 N 
ATOM     10  N   UNL A   1      34.925  22.785  23.429  1.00  0.00    -0.171 NA
ATOM     11  C   UNL A   1      33.551  24.482  23.859  1.00  0.00     0.122 A 
ATOM     12  C   UNL A   1      35.325  23.426  24.567  1.00  0.00     0.103 A 
ATOM     13  C   UNL A   1      34.394  24.423  24.884  1.00  0.00     0.040 A 
ATOM     14  S   UNL A   1      32.487  25.722  23.897  1.00  0.00    -0.110 S 
ATOM     15  C   UNL A   1      34.101  25.358  25.884  1.00  0.00     0.038 A 
BRANCH   9  16
ATOM     16  C   UNL A   1      32.919  22.964  22.003  1.00  0.00     0.142 C 
ATOM     17  C   UNL A   1      32.153  21.706  22.409  1.00  0.00     0.029 C 
ENDBRANCH   9  16
BRANCH  12  18
ATOM     18  C   UNL A   1      36.608  23.108  25.161  1.00  0.00     0.021 A 
ATOM     19  C   UNL A   1      37.255  24.079  25.936  1.00  0.00     0.013 A 
ATOM     20  C   UNL A   1      37.245  21.889  24.995  1.00  0.00     0.121 A 
ATOM     21  C   UNL A   1      38.490  23.802  26.511  1.00  0.00     0.021 A 
ATOM     22  N   UNL A   1      38.454  21.590  25.539  1.00  0.00    -0.264 NA
ATOM     23  C   UNL A   1      39.046  22.554  26.282  1.00  0.00     0.111 A 
ENDBRANCH  12  18
ENDBRANCH   5   8
ENDBRANCH   3   4
ENDBRANCH   2   3
ENDBRANCH   1   2
BRANCH   1  24
ATOM     24  N   UNL A   1      35.668  30.198  29.088  1.00  0.00    -0.352 N 
ATOM     25  C   UNL A   1      36.586  29.567  29.905  1.00  0.00     0.251 C 
ATOM     26  H   UNL A   1      35.017  30.777  29.544  1.00  0.00     0.163 HD
ATOM     27  O   UNL A   1      36.378  29.473  31.115  1.00  0.00    -0.269 OA
BRANCH  25  28
ATOM     28  C   UNL A   1      37.800  29.000  29.296  1.00  0.00     0.039 A 
ATOM     29  C   UNL A   1      38.472  29.650  28.259  1.00  0.00     0.014 A 
ATOM     30  C   UNL A   1      38.311  27.828  29.846  1.00  0.00     0.014 A 
ATOM     31  C   UNL A   1      39.719  29.163  27.870  1.00  0.00     0.010 A 
ATOM     32  C   UNL A   1      39.608  27.464  29.593  1.00  0.00     0.010 A 
ATOM     33  C   UNL A   1      40.308  28.093  28.574  1.00  0.00    -0.014 A 
BRANCH  33  34
ATOM     34  C   UNL A   1      41.710  27.734  28.364  1.00  0.00     0.031 A 
ATOM     35  C   UNL A   1      41.889  26.483  27.577  1.00  0.00     0.074 A 
ATOM     36  C   UNL A   1      42.768  28.519  28.678  1.00  0.00     0.049 A 
ATOM     37  N   UNL A   1      42.253  25.334  28.035  1.00  0.00    -0.248 NA
ATOM     38  C   UNL A   1      41.428  26.442  26.180  1.00  0.00     0.031 C 
ATOM     39  C   UNL A   1      42.774  29.882  29.221  1.00  0.00     0.029 A 
ATOM     40  N   UNL A   1      44.098  28.275  28.501  1.00  0.00    -0.354 N 
ATOM     41  C   UNL A   1      42.329  24.488  26.938  1.00  0.00     0.074 A 
ATOM     42  C   UNL A   1      41.610  25.153  25.882  1.00  0.00     0.031 C 
ATOM     43  C   UNL A   1      44.014  30.415  29.118  1.00  0.00     0.029 A 
ATOM     44  C   UNL A   1      44.932  29.382  28.670  1.00  0.00     0.049 A 
ATOM     45  H   UNL A   1      44.446  27.382  28.272  1.00  0.00     0.167 HD
ATOM     46  C   UNL A   1      43.194  23.437  26.935  1.00  0.00     0.034 A 
ATOM     47  C   UNL A   1      46.281  29.447  28.482  1.00  0.00     0.034 A 
ATOM     48  C   UNL A   1      43.649  23.144  28.279  1.00  0.00     0.049 A 
ATOM     49  C   UNL A   1      46.786  28.060  28.622  1.00  0.00     0.074 A 
ATOM     50  C   UNL A   1      43.009  22.826  29.463  1.00  0.00     0.029 A 
ATOM     51  N   UNL A   1      44.901  23.586  28.652  1.00  0.00    -0.354 N 
ATOM     52  N   UNL A   1      46.742  27.401  29.747  1.00  0.00    -0.248 NA
ATOM     53  C   UNL A   1      46.853  27.237  27.424  1.00  0.00     0.031 C 
ATOM     54  C   UNL A   1      43.689  23.589  30.461  1.00  0.00     0.029 A 
ATOM     55  C   UNL A   1      44.767  24.237  29.857  1.00  0.00     0.049 A 
ATOM     56  H   UNL A   1      45.737  23.460  28.148  1.00  0.00     0.167 HD
ATOM     57  C   UNL A   1      46.310  26.133  29.398  1.00  0.00     0.074 A 
ATOM     58  C   UNL A   1      46.486  26.062  27.946  1.00  0.00     0.031 C 
ATOM     59  C   UNL A   1      45.587  25.364  30.267  1.00  0.00     0.034 A 
BRANCH  46  60
ATOM     60  C   UNL A   1      43.917  22.923  25.710  1.00  0.00     0.023 A 
ATOM     61  C   UNL A   1      43.931  21.530  25.503  1.00  0.00     0.031 A 
ATOM     62  C   UNL A   1      44.816  23.670  24.913  1.00  0.00     0.131 A 
ATOM     63  C   UNL A   1      44.860  20.938  24.632  1.00  0.00     0.055 A 
ATOM     64  C   UNL A   1      45.693  23.081  23.999  1.00  0.00     0.041 A 
ATOM     65  F   UNL A   1      44.970  24.993  25.038  1.00  0.00    -0.206 F 
ATOM     66  C   UNL A   1      45.742  21.704  23.876  1.00  0.00     0.022 A 
BRANCH  63  67
ATOM     67  S   UNL A   1      45.016  19.134  24.638  1.00  0.00     0.124 S 
ATOM     68  O   UNL A   1      44.904  18.825  23.217  1.00  0.00    -0.237 OA
ATOM     69  O   UNL A   1      46.332  18.949  25.238  1.00  0.00    -0.237 OA
ATOM     70  O   UNL A   1      43.888  18.700  25.462  1.00  0.00    -0.744 OA
ENDBRANCH  63  67
ENDBRANCH  46  60
BRANCH  47  71
ATOM     71  C   UNL A   1      47.099  30.549  27.894  1.00  0.00     0.023 A 
ATOM     72  C   UNL A   1      46.541  31.617  27.150  1.00  0.00     0.031 A 
ATOM     73  C   UNL A   1      48.439  30.709  28.311  1.00  0.00     0.131 A 
ATOM     74  C   UNL A   1      47.309  32.777  26.868  1.00  0.00     0.055 A 
ATOM     75  C   UNL A   1      49.187  31.857  28.040  1.00  0.00     0.041 A 
ATOM     76  F   UNL A   1      49.037  29.787  29.082  1.00  0.00    -0.206 F 
ATOM     77  C   UNL A   1      48.621  32.903  27.327  1.00  0.00     0.022 A 
BRANCH  74  78
ATOM     78  S   UNL A   1      46.582  34.197  25.976  1.00  0.00     0.124 S 
ATOM     79  O   UNL A   1      45.395  33.609  25.368  1.00  0.00    -0.237 OA
ATOM     80  O   UNL A   1      46.354  35.161  27.045  1.00  0.00    -0.237 OA
ATOM     81  O   UNL A   1      47.631  34.578  25.028  1.00  0.00    -0.744 OA
ENDBRANCH  74  78
ENDBRANCH  47  71
BRANCH  59  82
ATOM     82  C   UNL A   1      45.487  25.816  31.718  1.00  0.00     0.023 A 
ATOM     83  C   UNL A   1      46.468  25.600  32.717  1.00  0.00     0.031 A 
ATOM     84  C   UNL A   1      44.364  26.586  32.074  1.00  0.00     0.131 A 
ATOM     85  C   UNL A   1      46.289  26.128  34.014  1.00  0.00     0.055 A 
ATOM     86  C   UNL A   1      44.205  27.128  33.349  1.00  0.00     0.041 A 
ATOM     87  F   UNL A   1      43.404  26.847  31.172  1.00  0.00    -0.206 F 
ATOM     88  C   UNL A   1      45.163  26.894  34.326  1.00  0.00     0.022 A 
BRANCH  85  89
ATOM     89  S   UNL A   1      47.502  25.800  35.337  1.00  0.00     0.124 S 
ATOM     90  O   UNL A   1      48.714  26.455  34.865  1.00  0.00    -0.237 OA
ATOM     91  O   UNL A   1      46.865  26.401  36.507  1.00  0.00    -0.237 OA
ATOM     92  O   UNL A   1      47.576  24.337  35.376  1.00  0.00    -0.744 OA
ENDBRANCH  85  89
ENDBRANCH  59  82
ENDBRANCH  33  34
ENDBRANCH  25  28
ENDBRANCH   1  24
TORSDOF 15
ENDMDL
MODEL 3
REMARK VINA RESULT:     -12.6      2.793      7.119
REMARK SMILES CCn1nc(-c2cccnc2)c2cc(C(=O)NCCCNC(=O)c3ccc(-c4c5nc(c(-c6cc(S(=O)(=O)[O-])ccc6F)c6ccc([nH]6)c(-c6cc(S(=O)(=O)[O-])ccc6F)c6nc(c(-c7cc(S(=O)(=O)[O-])ccc7F)c7ccc4[nH]7)C=C6)C=C5)cc3)sc21
REMARK SMILES IDX 20 1 19 2 18 3 17 4 15 5 16 6 14 8 3 9 4 10 88 11 5 12 12 13
REMARK SMILES IDX 87 14 13 15 2 16 1 17 6 18 7 19 11 20 8 21 10 22 9 23 21 24
REMARK SMILES IDX 22 25 23 27 24 28 25 29 86 30 26 31 85 32 27 33 28 34 29 35
REMARK SMILES IDX 79 36 30 37 84 38 78 39 80 40 31 41 83 42 77 43 76 44 32 46
REMARK SMILES IDX 64 47 44 48 63 49 45 50 48 51 62 52 81 53 46 54 47 55 61 57
REMARK SMILES IDX 82 58 49 59 33 60 34 61 42 62 35 63 41 64 43 65 40 66 36 67
REMARK SMILES IDX 37 68 38 69 39 70 65 71 66 72 74 73 67 74 73 75 75 76 72 77
REMARK SMILES IDX 68 78 69 79 70 80 71 81 50 82 51 83 59 84 52 85 58 86 60 87
REMARK SMILES IDX 57 88 53 89 54 90 55 91 56 92
REMARK H PARENT 17 7 21 26 80 45 48 56
REMARK Flexibility Score: inf
ROOT
ATOM      1  C   UNL A   1      34.542  32.406  27.982  1.00  0.00     0.118 C 
ENDROOT
BRANCH   1   2
ATOM      2  C   UNL A   1      33.288  31.712  27.475  1.00  0.00     0.042 C 
BRANCH   2   3
ATOM      3  C   UNL A   1      33.610  30.273  27.050  1.00  0.00     0.118 C 
BRANCH   3   4
ATOM      4  N   UNL A   1      32.612  29.291  27.478  1.00  0.00    -0.351 N 
ATOM      5  C   UNL A   1      32.299  27.992  27.124  1.00  0.00     0.261 C 
ATOM      6  O   UNL A   1      31.392  27.471  27.778  1.00  0.00    -0.268 OA
ATOM      7  H   UNL A   1      32.025  29.639  28.188  1.00  0.00     0.163 HD
BRANCH   5   8
ATOM      8  C   UNL A   1      32.934  27.276  26.023  1.00  0.00     0.095 A 
ATOM      9  N   UNL A   1      33.555  25.851  22.653  1.00  0.00    -0.254 N 
ATOM     10  N   UNL A   1      34.200  24.658  22.750  1.00  0.00    -0.171 NA
ATOM     11  C   UNL A   1      33.459  26.446  23.849  1.00  0.00     0.122 A 
ATOM     12  C   UNL A   1      34.418  24.500  24.088  1.00  0.00     0.103 A 
ATOM     13  C   UNL A   1      33.853  25.581  24.777  1.00  0.00     0.040 A 
ATOM     14  S   UNL A   1      32.952  27.895  24.410  1.00  0.00    -0.110 S 
ATOM     15  C   UNL A   1      33.610  26.034  26.079  1.00  0.00     0.038 A 
BRANCH   9  16
ATOM     16  C   UNL A   1      32.953  26.325  21.424  1.00  0.00     0.142 C 
ATOM     17  C   UNL A   1      31.431  26.194  21.437  1.00  0.00     0.029 C 
ENDBRANCH   9  16
BRANCH  12  18
ATOM     18  C   UNL A   1      35.244  23.408  24.560  1.00  0.00     0.021 A 
ATOM     19  C   UNL A   1      36.401  23.074  23.845  1.00  0.00     0.013 A 
ATOM     20  C   UNL A   1      34.946  22.657  25.686  1.00  0.00     0.121 A 
ATOM     21  C   UNL A   1      37.207  22.025  24.273  1.00  0.00     0.021 A 
ATOM     22  N   UNL A   1      35.711  21.622  26.126  1.00  0.00    -0.264 NA
ATOM     23  C   UNL A   1      36.821  21.333  25.408  1.00  0.00     0.111 A 
ENDBRANCH  12  18
ENDBRANCH   5   8
ENDBRANCH   3   4
ENDBRANCH   2   3
ENDBRANCH   1   2
BRANCH   1  24
ATOM     24  N   UNL A   1      34.492  32.658  29.430  1.00  0.00    -0.352 N 
ATOM     25  C   UNL A   1      35.239  32.068  30.431  1.00  0.00     0.251 C 
ATOM     26  H   UNL A   1      33.843  33.336  29.723  1.00  0.00     0.163 HD
ATOM     27  O   UNL A   1      34.872  32.142  31.604  1.00  0.00    -0.269 OA
BRANCH  25  28
ATOM     28  C   UNL A   1      36.465  31.342  30.063  1.00  0.00     0.039 A 
ATOM     29  C   UNL A   1      37.705  31.979  30.007  1.00  0.00     0.014 A 
ATOM     30  C   UNL A   1      36.363  29.970  29.852  1.00  0.00     0.014 A 
ATOM     31  C   UNL A   1      38.847  31.194  29.852  1.00  0.00     0.010 A 
ATOM     32  C   UNL A   1      37.489  29.188  29.886  1.00  0.00     0.010 A 
ATOM     33  C   UNL A   1      38.738  29.788  29.838  1.00  0.00    -0.014 A 
BRANCH  33  34
ATOM     34  C   UNL A   1      39.926  28.940  29.941  1.00  0.00     0.031 A 
ATOM     35  C   UNL A   1      40.300  28.615  31.343  1.00  0.00     0.074 A 
ATOM     36  C   UNL A   1      40.547  28.343  28.895  1.00  0.00     0.049 A 
ATOM     37  N   UNL A   1      41.291  29.107  32.007  1.00  0.00    -0.248 NA
ATOM     38  C   UNL A   1      39.377  27.819  32.167  1.00  0.00     0.031 C 
ATOM     39  C   UNL A   1      40.168  28.344  27.478  1.00  0.00     0.029 A 
ATOM     40  N   UNL A   1      41.639  27.527  28.900  1.00  0.00    -0.354 N 
ATOM     41  C   UNL A   1      41.275  28.479  33.245  1.00  0.00     0.074 A 
ATOM     42  C   UNL A   1      39.973  27.876  33.361  1.00  0.00     0.031 C 
ATOM     43  C   UNL A   1      40.873  27.400  26.811  1.00  0.00     0.029 A 
ATOM     44  C   UNL A   1      41.878  26.849  27.703  1.00  0.00     0.049 A 
ATOM     45  H   UNL A   1      42.219  27.424  29.690  1.00  0.00     0.167 HD
ATOM     46  C   UNL A   1      42.430  28.304  33.945  1.00  0.00     0.034 A 
ATOM     47  C   UNL A   1      42.844  25.921  27.449  1.00  0.00     0.034 A 
ATOM     48  C   UNL A   1      43.477  29.164  33.430  1.00  0.00     0.049 A 
ATOM     49  C   UNL A   1      43.921  26.160  28.439  1.00  0.00     0.074 A 
ATOM     50  C   UNL A   1      43.598  30.530  33.253  1.00  0.00     0.029 A 
ATOM     51  N   UNL A   1      44.428  28.606  32.603  1.00  0.00    -0.354 N 
ATOM     52  N   UNL A   1      44.643  27.247  28.449  1.00  0.00    -0.248 NA
ATOM     53  C   UNL A   1      43.847  25.454  29.709  1.00  0.00     0.031 C 
ATOM     54  C   UNL A   1      44.209  30.678  31.971  1.00  0.00     0.029 A 
ATOM     55  C   UNL A   1      44.529  29.408  31.489  1.00  0.00     0.049 A 
ATOM     56  H   UNL A   1      44.941  27.783  32.776  1.00  0.00     0.167 HD
ATOM     57  C   UNL A   1      44.721  27.608  29.784  1.00  0.00     0.074 A 
ATOM     58  C   UNL A   1      44.293  26.417  30.521  1.00  0.00     0.031 C 
ATOM     59  C   UNL A   1      44.847  28.916  30.159  1.00  0.00     0.034 A 
BRANCH  46  60
ATOM     60  C   UNL A   1      42.728  27.110  34.825  1.00  0.00     0.023 A 
ATOM     61  C   UNL A   1      43.527  26.088  34.277  1.00  0.00     0.031 A 
ATOM     62  C   UNL A   1      42.057  26.788  36.027  1.00  0.00     0.131 A 
ATOM     63  C   UNL A   1      43.554  24.806  34.853  1.00  0.00     0.055 A 
ATOM     64  C   UNL A   1      42.140  25.531  36.632  1.00  0.00     0.041 A 
ATOM     65  F   UNL A   1      41.210  27.627  36.633  1.00  0.00    -0.206 F 
ATOM     66  C   UNL A   1      42.866  24.520  36.029  1.00  0.00     0.022 A 
BRANCH  63  67
ATOM     67  S   UNL A   1      44.363  23.470  33.938  1.00  0.00     0.124 S 
ATOM     68  O   UNL A   1      45.749  23.924  33.920  1.00  0.00    -0.237 OA
ATOM     69  O   UNL A   1      44.073  22.313  34.777  1.00  0.00    -0.237 OA
ATOM     70  O   UNL A   1      43.683  23.487  32.643  1.00  0.00    -0.744 OA
ENDBRANCH  63  67
ENDBRANCH  46  60
BRANCH  47  71
ATOM     71  C   UNL A   1      42.760  24.672  26.633  1.00  0.00     0.023 A 
ATOM     72  C   UNL A   1      43.842  24.170  25.869  1.00  0.00     0.031 A 
ATOM     73  C   UNL A   1      41.671  23.795  26.830  1.00  0.00     0.131 A 
ATOM     74  C   UNL A   1      43.808  22.847  25.357  1.00  0.00     0.055 A 
ATOM     75  C   UNL A   1      41.648  22.490  26.331  1.00  0.00     0.041 A 
ATOM     76  F   UNL A   1      40.629  24.149  27.598  1.00  0.00    -0.206 F 
ATOM     77  C   UNL A   1      42.722  22.006  25.602  1.00  0.00     0.022 A 
BRANCH  74  78
ATOM     78  S   UNL A   1      45.227  22.156  24.435  1.00  0.00     0.124 S 
ATOM     79  O   UNL A   1      45.721  23.317  23.707  1.00  0.00    -0.237 OA
ATOM     80  O   UNL A   1      46.081  21.645  25.501  1.00  0.00    -0.237 OA
ATOM     81  O   UNL A   1      44.618  21.121  23.596  1.00  0.00    -0.744 OA
ENDBRANCH  74  78
ENDBRANCH  47  71
BRANCH  59  82
ATOM     82  C   UNL A   1      45.165  29.948  29.085  1.00  0.00     0.023 A 
ATOM     83  C   UNL A   1      46.464  30.315  28.655  1.00  0.00     0.031 A 
ATOM     84  C   UNL A   1      44.075  30.522  28.405  1.00  0.00     0.131 A 
ATOM     85  C   UNL A   1      46.628  31.237  27.599  1.00  0.00     0.055 A 
ATOM     86  C   UNL A   1      44.242  31.413  27.345  1.00  0.00     0.041 A 
ATOM     87  F   UNL A   1      42.816  30.205  28.747  1.00  0.00    -0.206 F 
ATOM     88  C   UNL A   1      45.519  31.781  26.944  1.00  0.00     0.022 A 
BRANCH  85  89
ATOM     89  S   UNL A   1      48.289  31.783  27.077  1.00  0.00     0.124 S 
ATOM     90  O   UNL A   1      48.017  32.825  26.095  1.00  0.00    -0.237 OA
ATOM     91  O   UNL A   1      48.886  32.229  28.334  1.00  0.00    -0.237 OA
ATOM     92  O   UNL A   1      48.888  30.566  26.523  1.00  0.00    -0.744 OA
ENDBRANCH  85  89
ENDBRANCH  59  82
ENDBRANCH  33  34
ENDBRANCH  25  28
ENDBRANCH   1  24
TORSDOF 15
ENDMDL
