MODEL 1
REMARK VINA RESULT:     -12.3      0.000      0.000
REMARK SMILES C[C@H]1CCCC[C@@H]1NC(=O)CCn1cc(C(=O)NCCCNC(=O)c2ccc(-c3c4nc(c(-c5cc(S(=O)(=O)[O-])ccc5F)c5ccc([nH]5)c(-c5cc(S(=O)(=O)[O-])ccc5F)c5nc(c(-c6cc(S(=O)(=O)[O-])ccc6F)c6ccc3[nH]6)C=C5)C=C4)cc2)cn1
REMARK SMILES IDX 19 1 18 2 16 3 17 4 15 6 13 7 14 8 89 9 88 10 12 11 11 12
REMARK SMILES IDX 9 13 8 14 10 16 7 17 1 18 2 19 3 20 4 21 6 22 5 23 20 24
REMARK SMILES IDX 21 25 22 26 23 27 24 29 25 30 26 31 87 32 27 33 86 34 28 35
REMARK SMILES IDX 29 36 30 37 80 38 31 39 85 40 79 41 81 42 32 43 84 44 78 45
REMARK SMILES IDX 77 46 33 48 65 49 45 50 64 51 46 52 49 53 63 54 82 55 47 56
REMARK SMILES IDX 48 57 62 59 83 60 50 61 34 62 35 63 43 64 36 65 42 66 44 67
REMARK SMILES IDX 41 68 37 69 38 70 39 71 40 72 66 73 67 74 75 75 68 76 74 77
REMARK SMILES IDX 76 78 73 79 69 80 70 81 71 82 72 83 51 84 52 85 60 86 53 87
REMARK SMILES IDX 59 88 61 89 58 90 54 91 55 92 56 93 57 94
REMARK H PARENT 18 5 8 15 22 28 81 47 49 58
REMARK Flexibility Score: inf
ROOT
ATOM      1  C   UNL A   1      33.655  28.750  25.245  1.00  0.00     0.118 C 
ENDROOT
BRANCH   1   2
ATOM      2  N   UNL A   1      32.436  29.014  24.499  1.00  0.00    -0.352 N 
ATOM      3  C   UNL A   1      31.233  28.350  24.455  1.00  0.00     0.254 C 
ATOM      4  O   UNL A   1      30.295  28.906  23.889  1.00  0.00    -0.269 OA
ATOM      5  H   UNL A   1      32.479  29.810  23.921  1.00  0.00     0.163 HD
BRANCH   3   6
ATOM      6  C   UNL A   1      31.044  27.076  25.128  1.00  0.00     0.077 A 
ATOM      7  N   UNL A   1      30.753  24.972  25.710  1.00  0.00    -0.271 N 
ATOM      8  C   UNL A   1      30.627  25.843  24.663  1.00  0.00     0.122 A 
ATOM      9  N   UNL A   1      31.092  25.570  26.860  1.00  0.00    -0.181 NA
ATOM     10  C   UNL A   1      31.245  26.850  26.513  1.00  0.00     0.149 A 
BRANCH   7  11
ATOM     11  C   UNL A   1      30.591  23.531  25.668  1.00  0.00     0.154 C 
BRANCH  11  12
ATOM     12  C   UNL A   1      31.913  22.783  25.564  1.00  0.00     0.123 C 
BRANCH  12  13
ATOM     13  C   UNL A   1      32.406  22.690  24.135  1.00  0.00     0.222 C 
ATOM     14  N   UNL A   1      33.742  22.694  23.861  1.00  0.00    -0.353 N 
ATOM     15  H   UNL A   1      33.976  22.686  22.905  1.00  0.00     0.163 HD
ATOM     16  O   UNL A   1      31.604  22.646  23.200  1.00  0.00    -0.275 OA
BRANCH  14  17
ATOM     17  C   UNL A   1      34.871  22.708  24.779  1.00  0.00     0.084 C 
ATOM     18  C   UNL A   1      34.575  25.232  25.182  1.00  0.00     0.010 C 
ATOM     19  C   UNL A   1      35.550  24.090  24.892  1.00  0.00     0.008 C 
ATOM     20  C   UNL A   1      36.621  24.021  25.995  1.00  0.00     0.005 C 
ATOM     21  C   UNL A   1      37.657  22.929  25.728  1.00  0.00     0.000 C 
ATOM     22  C   UNL A   1      35.922  21.675  24.351  1.00  0.00     0.025 C 
ATOM     23  C   UNL A   1      37.036  21.577  25.388  1.00  0.00     0.002 C 
ENDBRANCH  14  17
ENDBRANCH  12  13
ENDBRANCH  11  12
ENDBRANCH   7  11
ENDBRANCH   3   6
ENDBRANCH   1   2
BRANCH   1  24
ATOM     24  C   UNL A   1      33.743  29.585  26.522  1.00  0.00     0.042 C 
BRANCH  24  25
ATOM     25  C   UNL A   1      34.888  29.134  27.419  1.00  0.00     0.118 C 
BRANCH  25  26
ATOM     26  N   UNL A   1      35.178  30.099  28.482  1.00  0.00    -0.352 N 
ATOM     27  C   UNL A   1      36.250  30.100  29.361  1.00  0.00     0.251 C 
ATOM     28  H   UNL A   1      34.534  30.837  28.584  1.00  0.00     0.163 HD
ATOM     29  O   UNL A   1      36.191  30.710  30.413  1.00  0.00    -0.269 OA
BRANCH  27  30
ATOM     30  C   UNL A   1      37.454  29.330  28.988  1.00  0.00     0.039 A 
ATOM     31  C   UNL A   1      38.160  29.618  27.817  1.00  0.00     0.014 A 
ATOM     32  C   UNL A   1      37.908  28.366  29.883  1.00  0.00     0.014 A 
ATOM     33  C   UNL A   1      39.395  29.004  27.609  1.00  0.00     0.010 A 
ATOM     34  C   UNL A   1      39.179  27.862  29.738  1.00  0.00     0.010 A 
ATOM     35  C   UNL A   1      39.922  28.152  28.592  1.00  0.00    -0.014 A 
BRANCH  35  36
ATOM     36  C   UNL A   1      41.314  27.692  28.525  1.00  0.00     0.031 A 
ATOM     37  C   UNL A   1      41.528  26.415  27.784  1.00  0.00     0.074 A 
ATOM     38  C   UNL A   1      42.361  28.484  28.849  1.00  0.00     0.049 A 
ATOM     39  N   UNL A   1      42.026  25.311  28.236  1.00  0.00    -0.248 NA
ATOM     40  C   UNL A   1      41.021  26.305  26.406  1.00  0.00     0.031 C 
ATOM     41  C   UNL A   1      42.314  29.870  29.327  1.00  0.00     0.029 A 
ATOM     42  N   UNL A   1      43.697  28.276  28.669  1.00  0.00    -0.354 N 
ATOM     43  C   UNL A   1      42.119  24.447  27.146  1.00  0.00     0.074 A 
ATOM     44  C   UNL A   1      41.306  25.033  26.116  1.00  0.00     0.031 C 
ATOM     45  C   UNL A   1      43.516  30.452  29.141  1.00  0.00     0.029 A 
ATOM     46  C   UNL A   1      44.459  29.443  28.694  1.00  0.00     0.049 A 
ATOM     47  H   UNL A   1      44.087  27.382  28.533  1.00  0.00     0.167 HD
ATOM     48  C   UNL A   1      43.046  23.448  27.111  1.00  0.00     0.034 A 
ATOM     49  C   UNL A   1      45.764  29.596  28.343  1.00  0.00     0.034 A 
ATOM     50  C   UNL A   1      43.599  23.211  28.428  1.00  0.00     0.049 A 
ATOM     51  C   UNL A   1      46.393  28.259  28.458  1.00  0.00     0.074 A 
ATOM     52  C   UNL A   1      43.060  22.888  29.658  1.00  0.00     0.029 A 
ATOM     53  N   UNL A   1      44.867  23.682  28.695  1.00  0.00    -0.354 N 
ATOM     54  N   UNL A   1      46.519  27.626  29.592  1.00  0.00    -0.248 NA
ATOM     55  C   UNL A   1      46.450  27.414  27.274  1.00  0.00     0.031 C 
ATOM     56  C   UNL A   1      43.804  23.662  30.596  1.00  0.00     0.029 A 
ATOM     57  C   UNL A   1      44.811  24.335  29.901  1.00  0.00     0.049 A 
ATOM     58  H   UNL A   1      45.663  23.569  28.127  1.00  0.00     0.167 HD
ATOM     59  C   UNL A   1      46.201  26.309  29.301  1.00  0.00     0.074 A 
ATOM     60  C   UNL A   1      46.294  26.214  27.845  1.00  0.00     0.031 C 
ATOM     61  C   UNL A   1      45.609  25.502  30.233  1.00  0.00     0.034 A 
BRANCH  48  62
ATOM     62  C   UNL A   1      43.733  22.925  25.862  1.00  0.00     0.023 A 
ATOM     63  C   UNL A   1      43.778  21.527  25.691  1.00  0.00     0.031 A 
ATOM     64  C   UNL A   1      44.581  23.668  25.010  1.00  0.00     0.131 A 
ATOM     65  C   UNL A   1      44.710  20.928  24.826  1.00  0.00     0.055 A 
ATOM     66  C   UNL A   1      45.455  23.070  24.095  1.00  0.00     0.041 A 
ATOM     67  F   UNL A   1      44.688  25.000  25.071  1.00  0.00    -0.206 F 
ATOM     68  C   UNL A   1      45.553  21.691  24.026  1.00  0.00     0.022 A 
BRANCH  65  69
ATOM     69  S   UNL A   1      44.940  19.133  24.925  1.00  0.00     0.124 S 
ATOM     70  O   UNL A   1      46.260  19.043  25.539  1.00  0.00    -0.237 OA
ATOM     71  O   UNL A   1      43.811  18.732  25.758  1.00  0.00    -0.237 OA
ATOM     72  O   UNL A   1      44.870  18.706  23.529  1.00  0.00    -0.744 OA
ENDBRANCH  65  69
ENDBRANCH  48  62
BRANCH  49  73
ATOM     73  C   UNL A   1      46.405  30.776  27.701  1.00  0.00     0.023 A 
ATOM     74  C   UNL A   1      45.705  31.664  26.855  1.00  0.00     0.031 A 
ATOM     75  C   UNL A   1      47.699  31.183  28.105  1.00  0.00     0.131 A 
ATOM     76  C   UNL A   1      46.298  32.884  26.452  1.00  0.00     0.055 A 
ATOM     77  C   UNL A   1      48.283  32.384  27.696  1.00  0.00     0.041 A 
ATOM     78  F   UNL A   1      48.410  30.462  28.987  1.00  0.00    -0.206 F 
ATOM     79  C   UNL A   1      47.579  33.247  26.874  1.00  0.00     0.022 A 
BRANCH  76  80
ATOM     80  S   UNL A   1      45.358  34.086  25.452  1.00  0.00     0.124 S 
ATOM     81  O   UNL A   1      44.631  33.220  24.531  1.00  0.00    -0.237 OA
ATOM     82  O   UNL A   1      44.562  34.778  26.459  1.00  0.00    -0.237 OA
ATOM     83  O   UNL A   1      46.402  34.905  24.833  1.00  0.00    -0.744 OA
ENDBRANCH  76  80
ENDBRANCH  49  73
BRANCH  61  84
ATOM     84  C   UNL A   1      45.577  25.962  31.678  1.00  0.00     0.023 A 
ATOM     85  C   UNL A   1      44.439  26.482  32.337  1.00  0.00     0.031 A 
ATOM     86  C   UNL A   1      46.728  25.735  32.454  1.00  0.00     0.131 A 
ATOM     87  C   UNL A   1      44.488  26.766  33.717  1.00  0.00     0.055 A 
ATOM     88  C   UNL A   1      46.765  25.995  33.823  1.00  0.00     0.041 A 
ATOM     89  F   UNL A   1      47.834  25.214  31.896  1.00  0.00    -0.206 F 
ATOM     90  C   UNL A   1      45.646  26.519  34.458  1.00  0.00     0.022 A 
BRANCH  87  91
ATOM     91  S   UNL A   1      43.046  27.480  34.571  1.00  0.00     0.124 S 
ATOM     92  O   UNL A   1      42.369  28.240  33.526  1.00  0.00    -0.237 OA
ATOM     93  O   UNL A   1      42.344  26.295  35.056  1.00  0.00    -0.237 OA
ATOM     94  O   UNL A   1      43.648  28.301  35.624  1.00  0.00    -0.744 OA
ENDBRANCH  87  91
ENDBRANCH  61  84
ENDBRANCH  35  36
ENDBRANCH  27  30
ENDBRANCH  25  26
ENDBRANCH  24  25
ENDBRANCH   1  24
TORSDOF 17
ENDMDL
MODEL 2
REMARK VINA RESULT:     -12.3      4.270     10.317
REMARK SMILES C[C@H]1CCCC[C@@H]1NC(=O)CCn1cc(C(=O)NCCCNC(=O)c2ccc(-c3c4nc(c(-c5cc(S(=O)(=O)[O-])ccc5F)c5ccc([nH]5)c(-c5cc(S(=O)(=O)[O-])ccc5F)c5nc(c(-c6cc(S(=O)(=O)[O-])ccc6F)c6ccc3[nH]6)C=C5)C=C4)cc2)cn1
REMARK SMILES IDX 19 1 18 2 16 3 17 4 15 6 13 7 14 8 89 9 88 10 12 11 11 12
REMARK SMILES IDX 9 13 8 14 10 16 7 17 1 18 2 19 3 20 4 21 6 22 5 23 20 24
REMARK SMILES IDX 21 25 22 26 23 27 24 29 25 30 26 31 87 32 27 33 86 34 28 35
REMARK SMILES IDX 29 36 30 37 80 38 31 39 85 40 79 41 81 42 32 43 84 44 78 45
REMARK SMILES IDX 77 46 33 48 65 49 45 50 64 51 46 52 49 53 63 54 82 55 47 56
REMARK SMILES IDX 48 57 62 59 83 60 50 61 34 62 35 63 43 64 36 65 42 66 44 67
REMARK SMILES IDX 41 68 37 69 38 70 39 71 40 72 66 73 67 74 75 75 68 76 74 77
REMARK SMILES IDX 76 78 73 79 69 80 70 81 71 82 72 83 51 84 52 85 60 86 53 87
REMARK SMILES IDX 59 88 61 89 58 90 54 91 55 92 56 93 57 94
REMARK H PARENT 18 5 8 15 22 28 81 47 49 58
REMARK Flexibility Score: inf
ROOT
ATOM      1  C   UNL A   1      37.621  23.479  25.726  1.00  0.00     0.118 C 
ENDROOT
BRANCH   1   2
ATOM      2  N   UNL A   1      37.402  23.302  24.300  1.00  0.00    -0.352 N 
ATOM      3  C   UNL A   1      36.321  22.826  23.597  1.00  0.00     0.254 C 
ATOM      4  O   UNL A   1      36.325  22.973  22.377  1.00  0.00    -0.269 OA
ATOM      5  H   UNL A   1      38.165  23.570  23.737  1.00  0.00     0.163 HD
BRANCH   3   6
ATOM      6  C   UNL A   1      35.171  22.251  24.272  1.00  0.00     0.077 A 
ATOM      7  N   UNL A   1      33.191  21.724  25.081  1.00  0.00    -0.271 N 
ATOM      8  C   UNL A   1      33.902  22.745  24.510  1.00  0.00     0.122 A 
ATOM      9  N   UNL A   1      33.937  20.647  25.358  1.00  0.00    -0.181 NA
ATOM     10  C   UNL A   1      35.144  20.975  24.889  1.00  0.00     0.149 A 
BRANCH   7  11
ATOM     11  C   UNL A   1      31.768  21.706  25.363  1.00  0.00     0.154 C 
BRANCH  11  12
ATOM     12  C   UNL A   1      31.102  23.061  25.167  1.00  0.00     0.123 C 
BRANCH  12  13
ATOM     13  C   UNL A   1      30.914  23.801  26.475  1.00  0.00     0.222 C 
ATOM     14  N   UNL A   1      30.881  25.164  26.501  1.00  0.00    -0.353 N 
ATOM     15  H   UNL A   1      30.811  25.566  27.396  1.00  0.00     0.163 HD
ATOM     16  O   UNL A   1      30.826  23.179  27.535  1.00  0.00    -0.275 OA
BRANCH  14  17
ATOM     17  C   UNL A   1      30.934  26.109  25.395  1.00  0.00     0.084 C 
ATOM     18  C   UNL A   1      32.750  27.484  26.593  1.00  0.00     0.010 C 
ATOM     19  C   UNL A   1      31.436  27.509  25.811  1.00  0.00     0.008 C 
ATOM     20  C   UNL A   1      31.594  28.369  24.545  1.00  0.00     0.005 C 
ATOM     21  C   UNL A   1      30.293  28.473  23.750  1.00  0.00     0.000 C 
ATOM     22  C   UNL A   1      29.551  26.252  24.747  1.00  0.00     0.025 C 
ATOM     23  C   UNL A   1      29.628  27.124  23.497  1.00  0.00     0.002 C 
ENDBRANCH  14  17
ENDBRANCH  12  13
ENDBRANCH  11  12
ENDBRANCH   7  11
ENDBRANCH   3   6
ENDBRANCH   1   2
BRANCH   1  24
ATOM     24  C   UNL A   1      38.849  22.717  26.221  1.00  0.00     0.042 C 
BRANCH  24  25
ATOM     25  C   UNL A   1      39.804  23.618  26.995  1.00  0.00     0.118 C 
BRANCH  25  26
ATOM     26  N   UNL A   1      40.888  24.135  26.155  1.00  0.00    -0.352 N 
ATOM     27  C   UNL A   1      41.225  25.459  25.920  1.00  0.00     0.251 C 
ATOM     28  H   UNL A   1      41.444  23.459  25.703  1.00  0.00     0.163 HD
ATOM     29  O   UNL A   1      41.877  25.770  24.941  1.00  0.00    -0.269 OA
BRANCH  27  30
ATOM     30  C   UNL A   1      40.759  26.475  26.885  1.00  0.00     0.039 A 
ATOM     31  C   UNL A   1      40.376  26.118  28.181  1.00  0.00     0.014 A 
ATOM     32  C   UNL A   1      40.793  27.808  26.488  1.00  0.00     0.014 A 
ATOM     33  C   UNL A   1      40.137  27.127  29.114  1.00  0.00     0.010 A 
ATOM     34  C   UNL A   1      40.682  28.794  27.439  1.00  0.00     0.010 A 
ATOM     35  C   UNL A   1      40.327  28.469  28.749  1.00  0.00    -0.014 A 
BRANCH  35  36
ATOM     36  C   UNL A   1      40.330  29.532  29.761  1.00  0.00     0.031 A 
ATOM     37  C   UNL A   1      39.031  30.243  29.943  1.00  0.00     0.074 A 
ATOM     38  C   UNL A   1      41.328  29.680  30.661  1.00  0.00     0.049 A 
ATOM     39  N   UNL A   1      38.787  31.501  29.778  1.00  0.00    -0.248 NA
ATOM     40  C   UNL A   1      37.825  29.447  30.226  1.00  0.00     0.031 C 
ATOM     41  C   UNL A   1      42.544  28.869  30.783  1.00  0.00     0.029 A 
ATOM     42  N   UNL A   1      41.394  30.483  31.761  1.00  0.00    -0.354 N 
ATOM     43  C   UNL A   1      37.464  31.699  30.167  1.00  0.00     0.074 A 
ATOM     44  C   UNL A   1      36.878  30.388  30.230  1.00  0.00     0.031 C 
ATOM     45  C   UNL A   1      43.074  29.032  32.012  1.00  0.00     0.029 A 
ATOM     46  C   UNL A   1      42.340  30.077  32.702  1.00  0.00     0.049 A 
ATOM     47  H   UNL A   1      40.826  31.279  31.880  1.00  0.00     0.167 HD
ATOM     48  C   UNL A   1      37.034  32.907  30.631  1.00  0.00     0.034 A 
ATOM     49  C   UNL A   1      42.501  30.531  33.973  1.00  0.00     0.034 A 
ATOM     50  C   UNL A   1      37.987  33.949  30.313  1.00  0.00     0.049 A 
ATOM     51  C   UNL A   1      41.894  31.883  34.021  1.00  0.00     0.074 A 
ATOM     52  C   UNL A   1      38.553  34.417  29.142  1.00  0.00     0.029 A 
ATOM     53  N   UNL A   1      38.795  34.424  31.325  1.00  0.00    -0.354 N 
ATOM     54  N   UNL A   1      42.358  32.896  33.341  1.00  0.00    -0.248 NA
ATOM     55  C   UNL A   1      40.505  32.007  34.437  1.00  0.00     0.031 C 
ATOM     56  C   UNL A   1      39.914  34.678  29.475  1.00  0.00     0.029 A 
ATOM     57  C   UNL A   1      40.079  34.447  30.842  1.00  0.00     0.049 A 
ATOM     58  H   UNL A   1      38.503  34.695  32.225  1.00  0.00     0.167 HD
ATOM     59  C   UNL A   1      41.231  33.537  32.850  1.00  0.00     0.074 A 
ATOM     60  C   UNL A   1      40.127  33.026  33.658  1.00  0.00     0.031 C 
ATOM     61  C   UNL A   1      41.258  34.193  31.650  1.00  0.00     0.034 A 
BRANCH  48  62
ATOM     62  C   UNL A   1      35.957  33.117  31.680  1.00  0.00     0.023 A 
ATOM     63  C   UNL A   1      34.884  33.965  31.337  1.00  0.00     0.031 A 
ATOM     64  C   UNL A   1      36.061  32.794  33.051  1.00  0.00     0.131 A 
ATOM     65  C   UNL A   1      34.073  34.549  32.325  1.00  0.00     0.055 A 
ATOM     66  C   UNL A   1      35.203  33.318  34.025  1.00  0.00     0.041 A 
ATOM     67  F   UNL A   1      37.044  32.035  33.547  1.00  0.00    -0.206 F 
ATOM     68  C   UNL A   1      34.226  34.232  33.671  1.00  0.00     0.022 A 
BRANCH  65  69
ATOM     69  S   UNL A   1      32.953  35.887  31.835  1.00  0.00     0.124 S 
ATOM     70  O   UNL A   1      31.694  35.441  32.419  1.00  0.00    -0.237 OA
ATOM     71  O   UNL A   1      33.581  37.046  32.461  1.00  0.00    -0.237 OA
ATOM     72  O   UNL A   1      33.010  35.857  30.375  1.00  0.00    -0.744 OA
ENDBRANCH  65  69
ENDBRANCH  48  62
BRANCH  49  73
ATOM     73  C   UNL A   1      42.935  29.760  35.171  1.00  0.00     0.023 A 
ATOM     74  C   UNL A   1      42.389  28.505  35.514  1.00  0.00     0.031 A 
ATOM     75  C   UNL A   1      44.089  30.161  35.887  1.00  0.00     0.131 A 
ATOM     76  C   UNL A   1      42.988  27.718  36.528  1.00  0.00     0.055 A 
ATOM     77  C   UNL A   1      44.668  29.385  36.893  1.00  0.00     0.041 A 
ATOM     78  F   UNL A   1      44.745  31.289  35.573  1.00  0.00    -0.206 F 
ATOM     79  C   UNL A   1      44.125  28.152  37.212  1.00  0.00     0.022 A 
BRANCH  76  80
ATOM     80  S   UNL A   1      42.356  26.048  36.899  1.00  0.00     0.124 S 
ATOM     81  O   UNL A   1      41.174  26.336  37.704  1.00  0.00    -0.237 OA
ATOM     82  O   UNL A   1      42.117  25.498  35.569  1.00  0.00    -0.237 OA
ATOM     83  O   UNL A   1      43.459  25.420  37.628  1.00  0.00    -0.744 OA
ENDBRANCH  76  80
ENDBRANCH  49  73
BRANCH  61  84
ATOM     84  C   UNL A   1      42.601  34.472  31.003  1.00  0.00     0.023 A 
ATOM     85  C   UNL A   1      43.135  33.759  29.904  1.00  0.00     0.031 A 
ATOM     86  C   UNL A   1      43.311  35.602  31.448  1.00  0.00     0.131 A 
ATOM     87  C   UNL A   1      44.339  34.180  29.304  1.00  0.00     0.055 A 
ATOM     88  C   UNL A   1      44.489  36.030  30.836  1.00  0.00     0.041 A 
ATOM     89  F   UNL A   1      42.843  36.342  32.468  1.00  0.00    -0.206 F 
ATOM     90  C   UNL A   1      45.011  35.315  29.766  1.00  0.00     0.022 A 
BRANCH  87  91
ATOM     91  S   UNL A   1      45.062  33.246  27.918  1.00  0.00     0.124 S 
ATOM     92  O   UNL A   1      45.010  34.187  26.805  1.00  0.00    -0.237 OA
ATOM     93  O   UNL A   1      46.396  32.918  28.416  1.00  0.00    -0.237 OA
ATOM     94  O   UNL A   1      44.168  32.094  27.782  1.00  0.00    -0.744 OA
ENDBRANCH  87  91
ENDBRANCH  61  84
ENDBRANCH  35  36
ENDBRANCH  27  30
ENDBRANCH  25  26
ENDBRANCH  24  25
ENDBRANCH   1  24
TORSDOF 17
ENDMDL
MODEL 3
REMARK VINA RESULT:     -12.2      1.443      2.102
REMARK SMILES C[C@H]1CCCC[C@@H]1NC(=O)CCn1cc(C(=O)NCCCNC(=O)c2ccc(-c3c4nc(c(-c5cc(S(=O)(=O)[O-])ccc5F)c5ccc([nH]5)c(-c5cc(S(=O)(=O)[O-])ccc5F)c5nc(c(-c6cc(S(=O)(=O)[O-])ccc6F)c6ccc3[nH]6)C=C5)C=C4)cc2)cn1
REMARK SMILES IDX 19 1 18 2 16 3 17 4 15 6 13 7 14 8 89 9 88 10 12 11 11 12
REMARK SMILES IDX 9 13 8 14 10 16 7 17 1 18 2 19 3 20 4 21 6 22 5 23 20 24
REMARK SMILES IDX 21 25 22 26 23 27 24 29 25 30 26 31 87 32 27 33 86 34 28 35
REMARK SMILES IDX 29 36 30 37 80 38 31 39 85 40 79 41 81 42 32 43 84 44 78 45
REMARK SMILES IDX 77 46 33 48 65 49 45 50 64 51 46 52 49 53 63 54 82 55 47 56
REMARK SMILES IDX 48 57 62 59 83 60 50 61 34 62 35 63 43 64 36 65 42 66 44 67
REMARK SMILES IDX 41 68 37 69 38 70 39 71 40 72 66 73 67 74 75 75 68 76 74 77
REMARK SMILES IDX 76 78 73 79 69 80 70 81 71 82 72 83 51 84 52 85 60 86 53 87
REMARK SMILES IDX 59 88 61 89 58 90 54 91 55 92 56 93 57 94
REMARK H PARENT 18 5 8 15 22 28 81 47 49 58
REMARK Flexibility Score: inf
ROOT
ATOM      1  C   UNL A   1      33.525  29.042  25.233  1.00  0.00     0.118 C 
ENDROOT
BRANCH   1   2
ATOM      2  N   UNL A   1      32.251  28.634  24.665  1.00  0.00    -0.352 N 
ATOM      3  C   UNL A   1      31.738  27.391  24.380  1.00  0.00     0.254 C 
ATOM      4  O   UNL A   1      30.546  27.319  24.088  1.00  0.00    -0.269 OA
ATOM      5  H   UNL A   1      31.648  29.381  24.446  1.00  0.00     0.163 HD
BRANCH   3   6
ATOM      6  C   UNL A   1      32.546  26.190  24.501  1.00  0.00     0.077 A 
ATOM      7  N   UNL A   1      34.082  24.613  24.429  1.00  0.00    -0.271 N 
ATOM      8  C   UNL A   1      33.663  25.759  23.810  1.00  0.00     0.122 A 
ATOM      9  N   UNL A   1      33.245  24.189  25.385  1.00  0.00    -0.181 NA
ATOM     10  C   UNL A   1      32.301  25.133  25.414  1.00  0.00     0.149 A 
BRANCH   7  11
ATOM     11  C   UNL A   1      35.307  23.881  24.168  1.00  0.00     0.154 C 
BRANCH  11  12
ATOM     12  C   UNL A   1      35.091  22.379  24.040  1.00  0.00     0.123 C 
BRANCH  12  13
ATOM     13  C   UNL A   1      35.465  21.638  25.307  1.00  0.00     0.222 C 
ATOM     14  N   UNL A   1      35.093  20.338  25.485  1.00  0.00    -0.353 N 
ATOM     15  H   UNL A   1      35.328  19.948  26.357  1.00  0.00     0.163 HD
ATOM     16  O   UNL A   1      36.078  22.214  26.208  1.00  0.00    -0.275 OA
BRANCH  14  17
ATOM     17  C   UNL A   1      34.399  19.444  24.569  1.00  0.00     0.084 C 
ATOM     18  C   UNL A   1      32.159  20.618  25.043  1.00  0.00     0.010 C 
ATOM     19  C   UNL A   1      32.896  19.287  24.889  1.00  0.00     0.008 C 
ATOM     20  C   UNL A   1      32.244  18.451  23.775  1.00  0.00     0.005 C 
ATOM     21  C   UNL A   1      32.908  17.084  23.612  1.00  0.00     0.000 C 
ATOM     22  C   UNL A   1      35.054  18.056  24.577  1.00  0.00     0.025 C 
ATOM     23  C   UNL A   1      34.429  17.159  23.514  1.00  0.00     0.002 C 
ENDBRANCH  14  17
ENDBRANCH  12  13
ENDBRANCH  11  12
ENDBRANCH   7  11
ENDBRANCH   3   6
ENDBRANCH   1   2
BRANCH   1  24
ATOM     24  C   UNL A   1      33.444  29.248  26.745  1.00  0.00     0.042 C 
BRANCH  24  25
ATOM     25  C   UNL A   1      34.787  29.015  27.424  1.00  0.00     0.118 C 
BRANCH  25  26
ATOM     26  N   UNL A   1      35.093  30.040  28.425  1.00  0.00    -0.352 N 
ATOM     27  C   UNL A   1      36.200  30.115  29.256  1.00  0.00     0.251 C 
ATOM     28  H   UNL A   1      34.432  30.765  28.517  1.00  0.00     0.163 HD
ATOM     29  O   UNL A   1      36.166  30.776  30.277  1.00  0.00    -0.269 OA
BRANCH  27  30
ATOM     30  C   UNL A   1      37.409  29.360  28.871  1.00  0.00     0.039 A 
ATOM     31  C   UNL A   1      38.099  29.656  27.693  1.00  0.00     0.014 A 
ATOM     32  C   UNL A   1      37.884  28.402  29.761  1.00  0.00     0.014 A 
ATOM     33  C   UNL A   1      39.340  29.057  27.472  1.00  0.00     0.010 A 
ATOM     34  C   UNL A   1      39.160  27.914  29.604  1.00  0.00     0.010 A 
ATOM     35  C   UNL A   1      39.886  28.211  28.450  1.00  0.00    -0.014 A 
BRANCH  35  36
ATOM     36  C   UNL A   1      41.284  27.769  28.369  1.00  0.00     0.031 A 
ATOM     37  C   UNL A   1      41.502  26.478  27.653  1.00  0.00     0.074 A 
ATOM     38  C   UNL A   1      42.325  28.581  28.657  1.00  0.00     0.049 A 
ATOM     39  N   UNL A   1      42.023  25.391  28.121  1.00  0.00    -0.248 NA
ATOM     40  C   UNL A   1      40.972  26.330  26.288  1.00  0.00     0.031 C 
ATOM     41  C   UNL A   1      42.268  29.977  29.104  1.00  0.00     0.029 A 
ATOM     42  N   UNL A   1      43.660  28.387  28.458  1.00  0.00    -0.354 N 
ATOM     43  C   UNL A   1      42.109  24.504  27.050  1.00  0.00     0.074 A 
ATOM     44  C   UNL A   1      41.270  25.056  26.021  1.00  0.00     0.031 C 
ATOM     45  C   UNL A   1      43.459  30.571  28.884  1.00  0.00     0.029 A 
ATOM     46  C   UNL A   1      44.407  29.565  28.444  1.00  0.00     0.049 A 
ATOM     47  H   UNL A   1      44.060  27.496  28.336  1.00  0.00     0.167 HD
ATOM     48  C   UNL A   1      43.048  23.517  27.021  1.00  0.00     0.034 A 
ATOM     49  C   UNL A   1      45.703  29.726  28.066  1.00  0.00     0.034 A 
ATOM     50  C   UNL A   1      43.627  23.318  28.333  1.00  0.00     0.049 A 
ATOM     51  C   UNL A   1      46.353  28.400  28.200  1.00  0.00     0.074 A 
ATOM     52  C   UNL A   1      43.113  23.015  29.580  1.00  0.00     0.029 A 
ATOM     53  N   UNL A   1      44.893  23.811  28.567  1.00  0.00    -0.354 N 
ATOM     54  N   UNL A   1      46.507  27.796  29.346  1.00  0.00    -0.248 NA
ATOM     55  C   UNL A   1      46.401  27.530  27.035  1.00  0.00     0.031 C 
ATOM     56  C   UNL A   1      43.864  23.821  30.486  1.00  0.00     0.029 A 
ATOM     57  C   UNL A   1      44.849  24.491  29.759  1.00  0.00     0.049 A 
ATOM     58  H   UNL A   1      45.680  23.695  27.988  1.00  0.00     0.167 HD
ATOM     59  C   UNL A   1      46.202  26.468  29.090  1.00  0.00     0.074 A 
ATOM     60  C   UNL A   1      46.271  26.342  27.636  1.00  0.00     0.031 C 
ATOM     61  C   UNL A   1      45.637  25.675  30.050  1.00  0.00     0.034 A 
BRANCH  48  62
ATOM     62  C   UNL A   1      43.721  22.975  25.772  1.00  0.00     0.023 A 
ATOM     63  C   UNL A   1      43.746  21.574  25.613  1.00  0.00     0.031 A 
ATOM     64  C   UNL A   1      44.574  23.699  24.910  1.00  0.00     0.131 A 
ATOM     65  C   UNL A   1      44.664  20.956  24.747  1.00  0.00     0.055 A 
ATOM     66  C   UNL A   1      45.434  23.082  23.994  1.00  0.00     0.041 A 
ATOM     67  F   UNL A   1      44.699  25.030  24.959  1.00  0.00    -0.206 F 
ATOM     68  C   UNL A   1      45.513  21.702  23.936  1.00  0.00     0.022 A 
BRANCH  65  69
ATOM     69  S   UNL A   1      44.872  19.159  24.859  1.00  0.00     0.124 S 
ATOM     70  O   UNL A   1      45.007  18.794  23.454  1.00  0.00    -0.237 OA
ATOM     71  O   UNL A   1      46.077  19.047  25.675  1.00  0.00    -0.237 OA
ATOM     72  O   UNL A   1      43.638  18.716  25.504  1.00  0.00    -0.744 OA
ENDBRANCH  65  69
ENDBRANCH  48  62
BRANCH  49  73
ATOM     73  C   UNL A   1      46.317  30.900  27.386  1.00  0.00     0.023 A 
ATOM     74  C   UNL A   1      45.554  31.916  26.771  1.00  0.00     0.031 A 
ATOM     75  C   UNL A   1      47.701  31.157  27.535  1.00  0.00     0.131 A 
ATOM     76  C   UNL A   1      46.174  33.112  26.337  1.00  0.00     0.055 A 
ATOM     77  C   UNL A   1      48.309  32.335  27.096  1.00  0.00     0.041 A 
ATOM     78  F   UNL A   1      48.500  30.303  28.194  1.00  0.00    -0.206 F 
ATOM     79  C   UNL A   1      47.544  33.325  26.503  1.00  0.00     0.022 A 
BRANCH  76  80
ATOM     80  S   UNL A   1      45.178  34.474  25.645  1.00  0.00     0.124 S 
ATOM     81  O   UNL A   1      43.901  34.303  26.329  1.00  0.00    -0.237 OA
ATOM     82  O   UNL A   1      45.957  35.652  26.010  1.00  0.00    -0.237 OA
ATOM     83  O   UNL A   1      45.151  34.183  24.211  1.00  0.00    -0.744 OA
ENDBRANCH  76  80
ENDBRANCH  49  73
BRANCH  61  84
ATOM     84  C   UNL A   1      45.623  26.167  31.485  1.00  0.00     0.023 A 
ATOM     85  C   UNL A   1      44.511  26.759  32.128  1.00  0.00     0.031 A 
ATOM     86  C   UNL A   1      46.759  25.900  32.270  1.00  0.00     0.131 A 
ATOM     87  C   UNL A   1      44.570  27.070  33.501  1.00  0.00     0.055 A 
ATOM     88  C   UNL A   1      46.805  26.187  33.634  1.00  0.00     0.041 A 
ATOM     89  F   UNL A   1      47.839  25.311  31.729  1.00  0.00    -0.206 F 
ATOM     90  C   UNL A   1      45.712  26.780  34.253  1.00  0.00     0.022 A 
BRANCH  87  91
ATOM     91  S   UNL A   1      43.163  27.874  34.333  1.00  0.00     0.124 S 
ATOM     92  O   UNL A   1      42.529  28.644  33.270  1.00  0.00    -0.237 OA
ATOM     93  O   UNL A   1      42.401  26.736  34.841  1.00  0.00    -0.237 OA
ATOM     94  O   UNL A   1      43.802  28.685  35.372  1.00  0.00    -0.744 OA
ENDBRANCH  87  91
ENDBRANCH  61  84
ENDBRANCH  35  36
ENDBRANCH  27  30
ENDBRANCH  25  26
ENDBRANCH  24  25
ENDBRANCH   1  24
TORSDOF 17
ENDMDL
