MODEL 1
REMARK VINA RESULT:     -10.7      0.000      0.000
REMARK SMILES COCC[C@@H](C)NC(=O)N[C@@H]1C=C[C@@H](C(=O)NCCCNC(=O)c2ccc(-c3c4nc(c(-c5cc(S(=O)(=O)[O-])ccc5F)c5ccc([nH]5)c(-c5cc(S(=O)(=O)[O-])ccc5F)c5nc(c(-c6cc(S(=O)(=O)[O-])ccc6F)c6ccc3[nH]6)C=C5)C=C4)cc2)C1
REMARK SMILES IDX 18 1 17 2 15 3 16 4 14 6 11 7 12 8 87 9 13 10 10 11 7 12
REMARK SMILES IDX 8 13 9 15 5 17 6 18 4 19 3 20 2 21 1 22 19 23 20 24 21 25
REMARK SMILES IDX 22 26 23 28 24 29 25 30 86 31 26 32 85 33 27 34 28 35 29 36
REMARK SMILES IDX 79 37 30 38 84 39 78 40 80 41 31 42 83 43 77 44 76 45 32 47
REMARK SMILES IDX 64 48 44 49 63 50 45 51 48 52 62 53 81 54 46 55 47 56 61 58
REMARK SMILES IDX 82 59 49 60 33 61 34 62 42 63 35 64 41 65 43 66 40 67 36 68
REMARK SMILES IDX 37 69 38 70 39 71 65 72 66 73 74 74 67 75 73 76 75 77 72 78
REMARK SMILES IDX 68 79 69 80 70 81 71 82 50 83 51 84 59 85 52 86 58 87 60 88
REMARK SMILES IDX 57 89 53 90 54 91 55 92 56 93
REMARK H PARENT 17 5 7 14 10 16 21 27 80 46 48 57
REMARK Flexibility Score: inf
ROOT
ATOM      1  C   UNL A   1      31.463  29.137  25.208  1.00  0.00     0.117 C 
ENDROOT
BRANCH   1   2
ATOM      2  N   UNL A   1      31.298  29.536  23.822  1.00  0.00    -0.356 N 
ATOM      3  C   UNL A   1      30.644  28.976  22.771  1.00  0.00     0.227 C 
ATOM      4  O   UNL A   1      30.582  29.666  21.745  1.00  0.00    -0.274 OA
ATOM      5  H   UNL A   1      31.750  30.382  23.598  1.00  0.00     0.163 HD
BRANCH   3   6
ATOM      6  C   UNL A   1      30.105  27.536  22.727  1.00  0.00     0.103 C 
ATOM      7  C   UNL A   1      31.047  25.450  23.646  1.00  0.00     0.107 C 
ATOM      8  C   UNL A   1      29.710  25.770  24.226  1.00  0.00    -0.006 C 
ATOM      9  C   UNL A   1      31.244  26.529  22.578  1.00  0.00     0.047 C 
ATOM     10  C   UNL A   1      29.253  26.959  23.810  1.00  0.00    -0.016 C 
BRANCH   7  11
ATOM     11  N   UNL A   1      31.118  24.115  23.115  1.00  0.00    -0.332 N 
ATOM     12  N   UNL A   1      32.882  23.092  24.339  1.00  0.00    -0.336 N 
ATOM     13  C   UNL A   1      31.919  23.073  23.401  1.00  0.00     0.315 C 
ATOM     14  H   UNL A   1      33.344  22.226  24.422  1.00  0.00     0.165 HD
ATOM     15  O   UNL A   1      31.761  22.032  22.759  1.00  0.00    -0.249 OA
ATOM     16  H   UNL A   1      30.458  23.930  22.408  1.00  0.00     0.165 HD
BRANCH  12  17
ATOM     17  C   UNL A   1      33.406  24.093  25.265  1.00  0.00     0.083 C 
ATOM     18  C   UNL A   1      34.595  24.827  24.639  1.00  0.00     0.031 C 
BRANCH  17  19
ATOM     19  C   UNL A   1      33.753  23.479  26.632  1.00  0.00     0.053 C 
BRANCH  19  20
ATOM     20  C   UNL A   1      32.505  22.933  27.342  1.00  0.00     0.162 C 
BRANCH  20  21
ATOM     21  O   UNL A   1      31.344  23.753  27.192  1.00  0.00    -0.385 OA
ATOM     22  C   UNL A   1      30.144  23.074  26.874  1.00  0.00     0.194 C 
ENDBRANCH  20  21
ENDBRANCH  19  20
ENDBRANCH  17  19
ENDBRANCH  12  17
ENDBRANCH   7  11
ENDBRANCH   3   6
ENDBRANCH   1   2
BRANCH   1  23
ATOM     23  C   UNL A   1      32.653  28.196  25.420  1.00  0.00     0.042 C 
BRANCH  23  24
ATOM     24  C   UNL A   1      33.963  28.828  25.890  1.00  0.00     0.118 C 
BRANCH  24  25
ATOM     25  N   UNL A   1      33.761  30.096  26.574  1.00  0.00    -0.352 N 
ATOM     26  C   UNL A   1      34.424  30.701  27.617  1.00  0.00     0.251 C 
ATOM     27  H   UNL A   1      33.006  30.621  26.223  1.00  0.00     0.163 HD
ATOM     28  O   UNL A   1      33.884  31.679  28.136  1.00  0.00    -0.269 OA
BRANCH  26  29
ATOM     29  C   UNL A   1      35.737  30.232  28.147  1.00  0.00     0.039 A 
ATOM     30  C   UNL A   1      36.868  30.382  27.332  1.00  0.00     0.014 A 
ATOM     31  C   UNL A   1      35.876  29.554  29.360  1.00  0.00     0.014 A 
ATOM     32  C   UNL A   1      38.121  29.900  27.742  1.00  0.00     0.010 A 
ATOM     33  C   UNL A   1      37.140  29.141  29.805  1.00  0.00     0.010 A 
ATOM     34  C   UNL A   1      38.279  29.295  28.998  1.00  0.00    -0.014 A 
BRANCH  34  35
ATOM     35  C   UNL A   1      39.612  28.800  29.460  1.00  0.00     0.031 A 
ATOM     36  C   UNL A   1      40.354  29.512  30.567  1.00  0.00     0.074 A 
ATOM     37  C   UNL A   1      40.183  27.733  28.863  1.00  0.00     0.049 A 
ATOM     38  N   UNL A   1      41.551  29.282  31.049  1.00  0.00    -0.248 NA
ATOM     39  C   UNL A   1      39.668  30.650  31.195  1.00  0.00     0.031 C 
ATOM     40  C   UNL A   1      39.591  26.963  27.767  1.00  0.00     0.029 A 
ATOM     41  N   UNL A   1      41.391  27.114  29.084  1.00  0.00    -0.354 N 
ATOM     42  C   UNL A   1      41.768  30.255  32.021  1.00  0.00     0.074 A 
ATOM     43  C   UNL A   1      40.599  31.110  32.018  1.00  0.00     0.031 C 
ATOM     44  C   UNL A   1      40.423  25.966  27.429  1.00  0.00     0.029 A 
ATOM     45  C   UNL A   1      41.633  26.051  28.242  1.00  0.00     0.049 A 
ATOM     46  H   UNL A   1      42.024  27.403  29.780  1.00  0.00     0.167 HD
ATOM     47  C   UNL A   1      42.831  30.411  32.852  1.00  0.00     0.034 A 
ATOM     48  C   UNL A   1      42.710  25.247  28.120  1.00  0.00     0.034 A 
ATOM     49  C   UNL A   1      43.984  29.542  32.861  1.00  0.00     0.049 A 
ATOM     50  C   UNL A   1      43.894  25.460  29.032  1.00  0.00     0.074 A 
ATOM     51  C   UNL A   1      45.086  29.581  33.699  1.00  0.00     0.029 A 
ATOM     52  N   UNL A   1      44.194  28.483  31.987  1.00  0.00    -0.354 N 
ATOM     53  N   UNL A   1      44.061  26.361  29.971  1.00  0.00    -0.248 NA
ATOM     54  C   UNL A   1      45.029  24.541  28.871  1.00  0.00     0.031 C 
ATOM     55  C   UNL A   1      45.992  28.598  33.285  1.00  0.00     0.029 A 
ATOM     56  C   UNL A   1      45.421  27.887  32.243  1.00  0.00     0.049 A 
ATOM     57  H   UNL A   1      43.563  28.197  31.287  1.00  0.00     0.167 HD
ATOM     58  C   UNL A   1      45.308  26.094  30.535  1.00  0.00     0.074 A 
ATOM     59  C   UNL A   1      45.839  24.941  29.840  1.00  0.00     0.031 C 
ATOM     60  C   UNL A   1      45.951  26.742  31.539  1.00  0.00     0.034 A 
BRANCH  47  61
ATOM     61  C   UNL A   1      42.809  31.588  33.802  1.00  0.00     0.023 A 
ATOM     62  C   UNL A   1      42.404  31.453  35.142  1.00  0.00     0.031 A 
ATOM     63  C   UNL A   1      43.186  32.870  33.359  1.00  0.00     0.131 A 
ATOM     64  C   UNL A   1      42.311  32.586  35.966  1.00  0.00     0.055 A 
ATOM     65  C   UNL A   1      43.173  33.979  34.207  1.00  0.00     0.041 A 
ATOM     66  F   UNL A   1      43.564  33.069  32.086  1.00  0.00    -0.206 F 
ATOM     67  C   UNL A   1      42.718  33.844  35.515  1.00  0.00     0.022 A 
BRANCH  64  68
ATOM     68  S   UNL A   1      41.507  32.420  37.583  1.00  0.00     0.124 S 
ATOM     69  O   UNL A   1      42.257  31.314  38.172  1.00  0.00    -0.237 OA
ATOM     70  O   UNL A   1      41.728  33.733  38.181  1.00  0.00    -0.237 OA
ATOM     71  O   UNL A   1      40.120  32.112  37.247  1.00  0.00    -0.744 OA
ENDBRANCH  64  68
ENDBRANCH  47  61
BRANCH  48  72
ATOM     72  C   UNL A   1      42.740  24.175  27.081  1.00  0.00     0.023 A 
ATOM     73  C   UNL A   1      42.103  22.941  27.291  1.00  0.00     0.031 A 
ATOM     74  C   UNL A   1      43.451  24.352  25.879  1.00  0.00     0.131 A 
ATOM     75  C   UNL A   1      42.229  21.916  26.340  1.00  0.00     0.055 A 
ATOM     76  C   UNL A   1      43.522  23.351  24.910  1.00  0.00     0.041 A 
ATOM     77  F   UNL A   1      44.080  25.511  25.627  1.00  0.00    -0.206 F 
ATOM     78  C   UNL A   1      42.921  22.119  25.143  1.00  0.00     0.022 A 
BRANCH  75  79
ATOM     79  S   UNL A   1      41.553  20.279  26.730  1.00  0.00     0.124 S 
ATOM     80  O   UNL A   1      42.428  19.848  27.815  1.00  0.00    -0.237 OA
ATOM     81  O   UNL A   1      40.179  20.599  27.101  1.00  0.00    -0.237 OA
ATOM     82  O   UNL A   1      41.703  19.541  25.477  1.00  0.00    -0.744 OA
ENDBRANCH  75  79
ENDBRANCH  48  72
BRANCH  60  83
ATOM     83  C   UNL A   1      47.284  26.183  31.979  1.00  0.00     0.023 A 
ATOM     84  C   UNL A   1      48.480  26.496  31.310  1.00  0.00     0.031 A 
ATOM     85  C   UNL A   1      47.356  25.314  33.083  1.00  0.00     0.131 A 
ATOM     86  C   UNL A   1      49.685  25.899  31.712  1.00  0.00     0.055 A 
ATOM     87  C   UNL A   1      48.567  24.774  33.519  1.00  0.00     0.041 A 
ATOM     88  F   UNL A   1      46.246  24.976  33.761  1.00  0.00    -0.206 F 
ATOM     89  C   UNL A   1      49.739  25.055  32.823  1.00  0.00     0.022 A 
BRANCH  86  90
ATOM     90  S   UNL A   1      51.171  26.166  30.705  1.00  0.00     0.124 S 
ATOM     91  O   UNL A   1      51.274  27.622  30.697  1.00  0.00    -0.237 OA
ATOM     92  O   UNL A   1      52.195  25.458  31.465  1.00  0.00    -0.237 OA
ATOM     93  O   UNL A   1      50.826  25.563  29.419  1.00  0.00    -0.744 OA
ENDBRANCH  86  90
ENDBRANCH  60  83
ENDBRANCH  34  35
ENDBRANCH  26  29
ENDBRANCH  24  25
ENDBRANCH  23  24
ENDBRANCH   1  23
TORSDOF 18
ENDMDL
MODEL 2
REMARK VINA RESULT:     -10.5      3.606      9.423
REMARK SMILES COCC[C@@H](C)NC(=O)N[C@@H]1C=C[C@@H](C(=O)NCCCNC(=O)c2ccc(-c3c4nc(c(-c5cc(S(=O)(=O)[O-])ccc5F)c5ccc([nH]5)c(-c5cc(S(=O)(=O)[O-])ccc5F)c5nc(c(-c6cc(S(=O)(=O)[O-])ccc6F)c6ccc3[nH]6)C=C5)C=C4)cc2)C1
REMARK SMILES IDX 18 1 17 2 15 3 16 4 14 6 11 7 12 8 87 9 13 10 10 11 7 12
REMARK SMILES IDX 8 13 9 15 5 17 6 18 4 19 3 20 2 21 1 22 19 23 20 24 21 25
REMARK SMILES IDX 22 26 23 28 24 29 25 30 86 31 26 32 85 33 27 34 28 35 29 36
REMARK SMILES IDX 79 37 30 38 84 39 78 40 80 41 31 42 83 43 77 44 76 45 32 47
REMARK SMILES IDX 64 48 44 49 63 50 45 51 48 52 62 53 81 54 46 55 47 56 61 58
REMARK SMILES IDX 82 59 49 60 33 61 34 62 42 63 35 64 41 65 43 66 40 67 36 68
REMARK SMILES IDX 37 69 38 70 39 71 65 72 66 73 74 74 67 75 73 76 75 77 72 78
REMARK SMILES IDX 68 79 69 80 70 81 71 82 50 83 51 84 59 85 52 86 58 87 60 88
REMARK SMILES IDX 57 89 53 90 54 91 55 92 56 93
REMARK H PARENT 17 5 7 14 10 16 21 27 80 46 48 57
REMARK Flexibility Score: inf
ROOT
ATOM      1  C   UNL A   1      35.198  21.180  24.864  1.00  0.00     0.117 C 
ENDROOT
BRANCH   1   2
ATOM      2  N   UNL A   1      34.349  20.137  25.411  1.00  0.00    -0.356 N 
ATOM      3  C   UNL A   1      33.038  19.827  25.235  1.00  0.00     0.227 C 
ATOM      4  O   UNL A   1      32.661  18.767  25.750  1.00  0.00    -0.274 OA
ATOM      5  H   UNL A   1      34.816  19.534  26.034  1.00  0.00     0.163 HD
BRANCH   3   6
ATOM      6  C   UNL A   1      31.991  20.739  24.572  1.00  0.00     0.103 C 
ATOM      7  C   UNL A   1      31.801  23.198  24.550  1.00  0.00     0.107 C 
ATOM      8  C   UNL A   1      31.952  22.630  23.178  1.00  0.00    -0.006 C 
ATOM      9  C   UNL A   1      31.697  21.959  25.443  1.00  0.00     0.047 C 
ATOM     10  C   UNL A   1      32.168  21.307  23.202  1.00  0.00    -0.016 C 
BRANCH   7  11
ATOM     11  N   UNL A   1      30.665  24.072  24.668  1.00  0.00    -0.332 N 
ATOM     12  N   UNL A   1      31.614  26.207  25.114  1.00  0.00    -0.336 N 
ATOM     13  C   UNL A   1      30.565  25.389  24.922  1.00  0.00     0.315 C 
ATOM     14  H   UNL A   1      31.342  27.142  25.258  1.00  0.00     0.165 HD
ATOM     15  O   UNL A   1      29.434  25.879  24.984  1.00  0.00    -0.249 OA
ATOM     16  H   UNL A   1      29.798  23.622  24.541  1.00  0.00     0.165 HD
BRANCH  12  17
ATOM     17  C   UNL A   1      33.064  26.037  25.159  1.00  0.00     0.083 C 
ATOM     18  C   UNL A   1      33.692  27.062  26.107  1.00  0.00     0.031 C 
BRANCH  17  19
ATOM     19  C   UNL A   1      33.688  26.083  23.753  1.00  0.00     0.053 C 
BRANCH  19  20
ATOM     20  C   UNL A   1      33.237  27.328  22.974  1.00  0.00     0.162 C 
BRANCH  20  21
ATOM     21  O   UNL A   1      32.084  27.117  22.156  1.00  0.00    -0.385 OA
ATOM     22  C   UNL A   1      32.025  25.876  21.478  1.00  0.00     0.194 C 
ENDBRANCH  20  21
ENDBRANCH  19  20
ENDBRANCH  17  19
ENDBRANCH  12  17
ENDBRANCH   7  11
ENDBRANCH   3   6
ENDBRANCH   1   2
BRANCH   1  23
ATOM     23  C   UNL A   1      35.546  22.263  25.888  1.00  0.00     0.042 C 
BRANCH  23  24
ATOM     24  C   UNL A   1      36.882  22.986  25.709  1.00  0.00     0.118 C 
BRANCH  24  25
ATOM     25  N   UNL A   1      38.024  22.139  26.016  1.00  0.00    -0.352 N 
ATOM     26  C   UNL A   1      39.316  22.427  26.392  1.00  0.00     0.251 C 
ATOM     27  H   UNL A   1      37.836  21.176  25.939  1.00  0.00     0.163 HD
ATOM     28  O   UNL A   1      40.130  21.503  26.364  1.00  0.00    -0.269 OA
BRANCH  26  29
ATOM     29  C   UNL A   1      39.772  23.783  26.815  1.00  0.00     0.039 A 
ATOM     30  C   UNL A   1      39.866  24.047  28.190  1.00  0.00     0.014 A 
ATOM     31  C   UNL A   1      40.000  24.829  25.919  1.00  0.00     0.014 A 
ATOM     32  C   UNL A   1      40.222  25.323  28.655  1.00  0.00     0.010 A 
ATOM     33  C   UNL A   1      40.432  26.081  26.380  1.00  0.00     0.010 A 
ATOM     34  C   UNL A   1      40.536  26.351  27.754  1.00  0.00    -0.014 A 
BRANCH  34  35
ATOM     35  C   UNL A   1      40.943  27.708  28.235  1.00  0.00     0.031 A 
ATOM     36  C   UNL A   1      42.403  28.089  28.313  1.00  0.00     0.074 A 
ATOM     37  C   UNL A   1      40.008  28.591  28.643  1.00  0.00     0.049 A 
ATOM     38  N   UNL A   1      42.954  29.184  28.776  1.00  0.00    -0.248 NA
ATOM     39  C   UNL A   1      43.371  27.093  27.829  1.00  0.00     0.031 C 
ATOM     40  C   UNL A   1      38.564  28.350  28.644  1.00  0.00     0.029 A 
ATOM     41  N   UNL A   1      40.128  29.867  29.143  1.00  0.00    -0.354 N 
ATOM     42  C   UNL A   1      44.329  29.003  28.658  1.00  0.00     0.074 A 
ATOM     43  C   UNL A   1      44.526  27.668  28.129  1.00  0.00     0.031 C 
ATOM     44  C   UNL A   1      37.934  29.445  29.098  1.00  0.00     0.029 A 
ATOM     45  C   UNL A   1      38.925  30.450  29.473  1.00  0.00     0.049 A 
ATOM     46  H   UNL A   1      40.994  30.321  29.254  1.00  0.00     0.167 HD
ATOM     47  C   UNL A   1      45.334  29.871  28.941  1.00  0.00     0.034 A 
ATOM     48  C   UNL A   1      38.646  31.646  30.030  1.00  0.00     0.034 A 
ATOM     49  C   UNL A   1      45.127  31.207  29.450  1.00  0.00     0.049 A 
ATOM     50  C   UNL A   1      39.780  32.583  30.369  1.00  0.00     0.074 A 
ATOM     51  C   UNL A   1      46.073  32.183  29.717  1.00  0.00     0.029 A 
ATOM     52  N   UNL A   1      43.895  31.755  29.777  1.00  0.00    -0.354 N 
ATOM     53  N   UNL A   1      41.071  32.407  30.211  1.00  0.00    -0.248 NA
ATOM     54  C   UNL A   1      39.417  33.881  30.952  1.00  0.00     0.031 C 
ATOM     55  C   UNL A   1      45.422  33.289  30.274  1.00  0.00     0.029 A 
ATOM     56  C   UNL A   1      44.059  33.040  30.277  1.00  0.00     0.049 A 
ATOM     57  H   UNL A   1      43.029  31.299  29.671  1.00  0.00     0.167 HD
ATOM     58  C   UNL A   1      41.670  33.588  30.646  1.00  0.00     0.074 A 
ATOM     59  C   UNL A   1      40.599  34.470  31.057  1.00  0.00     0.031 C 
ATOM     60  C   UNL A   1      42.987  33.913  30.696  1.00  0.00     0.034 A 
BRANCH  47  61
ATOM     61  C   UNL A   1      46.754  29.390  28.738  1.00  0.00     0.023 A 
ATOM     62  C   UNL A   1      47.284  29.163  27.456  1.00  0.00     0.031 A 
ATOM     63  C   UNL A   1      47.588  29.140  29.844  1.00  0.00     0.131 A 
ATOM     64  C   UNL A   1      48.575  28.630  27.313  1.00  0.00     0.055 A 
ATOM     65  C   UNL A   1      48.901  28.691  29.694  1.00  0.00     0.041 A 
ATOM     66  F   UNL A   1      47.134  29.319  31.095  1.00  0.00    -0.206 F 
ATOM     67  C   UNL A   1      49.397  28.417  28.423  1.00  0.00     0.022 A 
BRANCH  64  68
ATOM     68  S   UNL A   1      49.108  28.075  25.671  1.00  0.00     0.124 S 
ATOM     69  O   UNL A   1      49.461  26.682  25.932  1.00  0.00    -0.237 OA
ATOM     70  O   UNL A   1      47.912  28.290  24.863  1.00  0.00    -0.237 OA
ATOM     71  O   UNL A   1      50.237  28.948  25.363  1.00  0.00    -0.744 OA
ENDBRANCH  64  68
ENDBRANCH  47  61
BRANCH  48  72
ATOM     72  C   UNL A   1      37.234  32.030  30.331  1.00  0.00     0.023 A 
ATOM     73  C   UNL A   1      36.353  32.417  29.308  1.00  0.00     0.031 A 
ATOM     74  C   UNL A   1      36.760  32.064  31.655  1.00  0.00     0.131 A 
ATOM     75  C   UNL A   1      35.061  32.866  29.628  1.00  0.00     0.055 A 
ATOM     76  C   UNL A   1      35.455  32.454  31.962  1.00  0.00     0.041 A 
ATOM     77  F   UNL A   1      37.560  31.707  32.672  1.00  0.00    -0.206 F 
ATOM     78  C   UNL A   1      34.602  32.872  30.947  1.00  0.00     0.022 A 
BRANCH  75  79
ATOM     79  S   UNL A   1      34.019  33.533  28.302  1.00  0.00     0.124 S 
ATOM     80  O   UNL A   1      33.013  34.270  29.058  1.00  0.00    -0.237 OA
ATOM     81  O   UNL A   1      34.970  34.338  27.544  1.00  0.00    -0.237 OA
ATOM     82  O   UNL A   1      33.533  32.337  27.617  1.00  0.00    -0.744 OA
ENDBRANCH  75  79
ENDBRANCH  48  72
BRANCH  60  83
ATOM     83  C   UNL A   1      43.337  35.305  31.168  1.00  0.00     0.023 A 
ATOM     84  C   UNL A   1      43.445  35.623  32.533  1.00  0.00     0.031 A 
ATOM     85  C   UNL A   1      43.558  36.333  30.234  1.00  0.00     0.131 A 
ATOM     86  C   UNL A   1      43.706  36.945  32.926  1.00  0.00     0.055 A 
ATOM     87  C   UNL A   1      43.879  37.632  30.629  1.00  0.00     0.041 A 
ATOM     88  F   UNL A   1      43.466  36.091  28.915  1.00  0.00    -0.206 F 
ATOM     89  C   UNL A   1      43.941  37.947  31.983  1.00  0.00     0.022 A 
BRANCH  86  90
ATOM     90  S   UNL A   1      43.638  37.360  34.692  1.00  0.00     0.124 S 
ATOM     91  O   UNL A   1      44.193  38.710  34.707  1.00  0.00    -0.237 OA
ATOM     92  O   UNL A   1      42.213  37.252  34.983  1.00  0.00    -0.237 OA
ATOM     93  O   UNL A   1      44.477  36.339  35.317  1.00  0.00    -0.744 OA
ENDBRANCH  86  90
ENDBRANCH  60  83
ENDBRANCH  34  35
ENDBRANCH  26  29
ENDBRANCH  24  25
ENDBRANCH  23  24
ENDBRANCH   1  23
TORSDOF 18
ENDMDL
MODEL 3
REMARK VINA RESULT:     -10.4      3.107      8.287
REMARK SMILES COCC[C@@H](C)NC(=O)N[C@@H]1C=C[C@@H](C(=O)NCCCNC(=O)c2ccc(-c3c4nc(c(-c5cc(S(=O)(=O)[O-])ccc5F)c5ccc([nH]5)c(-c5cc(S(=O)(=O)[O-])ccc5F)c5nc(c(-c6cc(S(=O)(=O)[O-])ccc6F)c6ccc3[nH]6)C=C5)C=C4)cc2)C1
REMARK SMILES IDX 18 1 17 2 15 3 16 4 14 6 11 7 12 8 87 9 13 10 10 11 7 12
REMARK SMILES IDX 8 13 9 15 5 17 6 18 4 19 3 20 2 21 1 22 19 23 20 24 21 25
REMARK SMILES IDX 22 26 23 28 24 29 25 30 86 31 26 32 85 33 27 34 28 35 29 36
REMARK SMILES IDX 79 37 30 38 84 39 78 40 80 41 31 42 83 43 77 44 76 45 32 47
REMARK SMILES IDX 64 48 44 49 63 50 45 51 48 52 62 53 81 54 46 55 47 56 61 58
REMARK SMILES IDX 82 59 49 60 33 61 34 62 42 63 35 64 41 65 43 66 40 67 36 68
REMARK SMILES IDX 37 69 38 70 39 71 65 72 66 73 74 74 67 75 73 76 75 77 72 78
REMARK SMILES IDX 68 79 69 80 70 81 71 82 50 83 51 84 59 85 52 86 58 87 60 88
REMARK SMILES IDX 57 89 53 90 54 91 55 92 56 93
REMARK H PARENT 17 5 7 14 10 16 21 27 80 46 48 57
REMARK Flexibility Score: inf
ROOT
ATOM      1  C   UNL A   1      31.080  28.979  23.313  1.00  0.00     0.117 C 
ENDROOT
BRANCH   1   2
ATOM      2  N   UNL A   1      30.416  27.980  24.132  1.00  0.00    -0.356 N 
ATOM      3  C   UNL A   1      30.606  26.645  24.296  1.00  0.00     0.227 C 
ATOM      4  O   UNL A   1      29.947  26.113  25.198  1.00  0.00    -0.274 OA
ATOM      5  H   UNL A   1      29.680  28.342  24.678  1.00  0.00     0.163 HD
BRANCH   3   6
ATOM      6  C   UNL A   1      31.461  25.751  23.380  1.00  0.00     0.103 C 
ATOM      7  C   UNL A   1      33.277  24.177  23.931  1.00  0.00     0.107 C 
ATOM      8  C   UNL A   1      32.128  23.502  23.261  1.00  0.00    -0.006 C 
ATOM      9  C   UNL A   1      32.898  25.659  23.891  1.00  0.00     0.047 C 
ATOM     10  C   UNL A   1      31.098  24.337  23.065  1.00  0.00    -0.016 C 
BRANCH   7  11
ATOM     11  N   UNL A   1      34.535  23.902  23.289  1.00  0.00    -0.332 N 
ATOM     12  N   UNL A   1      35.281  21.884  24.303  1.00  0.00    -0.336 N 
ATOM     13  C   UNL A   1      35.427  22.908  23.444  1.00  0.00     0.315 C 
ATOM     14  H   UNL A   1      36.025  21.241  24.253  1.00  0.00     0.165 HD
ATOM     15  O   UNL A   1      36.450  22.939  22.755  1.00  0.00    -0.249 OA
ATOM     16  H   UNL A   1      34.791  24.567  22.610  1.00  0.00     0.165 HD
BRANCH  12  17
ATOM     17  C   UNL A   1      34.277  21.498  25.292  1.00  0.00     0.083 C 
ATOM     18  C   UNL A   1      34.721  21.921  26.694  1.00  0.00     0.031 C 
BRANCH  17  19
ATOM     19  C   UNL A   1      33.946  19.998  25.213  1.00  0.00     0.053 C 
BRANCH  19  20
ATOM     20  C   UNL A   1      32.816  19.719  24.211  1.00  0.00     0.162 C 
BRANCH  20  21
ATOM     21  O   UNL A   1      32.710  18.348  23.819  1.00  0.00    -0.385 OA
ATOM     22  C   UNL A   1      32.444  18.115  22.449  1.00  0.00     0.194 C 
ENDBRANCH  20  21
ENDBRANCH  19  20
ENDBRANCH  17  19
ENDBRANCH  12  17
ENDBRANCH   7  11
ENDBRANCH   3   6
ENDBRANCH   1   2
BRANCH   1  23
ATOM     23  C   UNL A   1      32.579  29.089  23.606  1.00  0.00     0.042 C 
BRANCH  23  24
ATOM     24  C   UNL A   1      32.992  29.238  25.071  1.00  0.00     0.118 C 
BRANCH  24  25
ATOM     25  N   UNL A   1      32.491  30.463  25.673  1.00  0.00    -0.352 N 
ATOM     26  C   UNL A   1      32.875  31.170  26.790  1.00  0.00     0.251 C 
ATOM     27  H   UNL A   1      31.732  30.862  25.190  1.00  0.00     0.163 HD
ATOM     28  O   UNL A   1      32.114  32.056  27.184  1.00  0.00    -0.269 OA
BRANCH  26  29
ATOM     29  C   UNL A   1      34.139  30.914  27.537  1.00  0.00     0.039 A 
ATOM     30  C   UNL A   1      34.368  29.617  28.021  1.00  0.00     0.014 A 
ATOM     31  C   UNL A   1      35.047  31.919  27.875  1.00  0.00     0.014 A 
ATOM     32  C   UNL A   1      35.505  29.325  28.791  1.00  0.00     0.010 A 
ATOM     33  C   UNL A   1      36.222  31.613  28.577  1.00  0.00     0.010 A 
ATOM     34  C   UNL A   1      36.462  30.315  29.057  1.00  0.00    -0.014 A 
BRANCH  34  35
ATOM     35  C   UNL A   1      37.691  30.013  29.854  1.00  0.00     0.031 A 
ATOM     36  C   UNL A   1      38.764  29.108  29.296  1.00  0.00     0.074 A 
ATOM     37  C   UNL A   1      37.834  30.517  31.097  1.00  0.00     0.049 A 
ATOM     38  N   UNL A   1      39.859  28.666  29.864  1.00  0.00    -0.248 NA
ATOM     39  C   UNL A   1      38.563  28.613  27.927  1.00  0.00     0.031 C 
ATOM     40  C   UNL A   1      36.868  31.387  31.771  1.00  0.00     0.029 A 
ATOM     41  N   UNL A   1      38.841  30.366  32.023  1.00  0.00    -0.354 N 
ATOM     42  C   UNL A   1      40.466  27.829  28.932  1.00  0.00     0.074 A 
ATOM     43  C   UNL A   1      39.586  27.783  27.783  1.00  0.00     0.031 C 
ATOM     44  C   UNL A   1      37.337  31.710  32.986  1.00  0.00     0.029 A 
ATOM     45  C   UNL A   1      38.610  31.030  33.207  1.00  0.00     0.049 A 
ATOM     46  H   UNL A   1      39.651  29.833  31.854  1.00  0.00     0.167 HD
ATOM     47  C   UNL A   1      41.654  27.176  29.015  1.00  0.00     0.034 A 
ATOM     48  C   UNL A   1      39.327  31.075  34.349  1.00  0.00     0.034 A 
ATOM     49  C   UNL A   1      42.535  27.242  30.158  1.00  0.00     0.049 A 
ATOM     50  C   UNL A   1      40.629  30.314  34.431  1.00  0.00     0.074 A 
ATOM     51  C   UNL A   1      43.783  26.664  30.319  1.00  0.00     0.029 A 
ATOM     52  N   UNL A   1      42.261  27.918  31.339  1.00  0.00    -0.354 N 
ATOM     53  N   UNL A   1      41.204  29.561  33.523  1.00  0.00    -0.248 NA
ATOM     54  C   UNL A   1      41.379  30.418  35.690  1.00  0.00     0.031 C 
ATOM     55  C   UNL A   1      44.228  26.926  31.619  1.00  0.00     0.029 A 
ATOM     56  C   UNL A   1      43.298  27.741  32.245  1.00  0.00     0.049 A 
ATOM     57  H   UNL A   1      41.448  28.447  31.511  1.00  0.00     0.167 HD
ATOM     58  C   UNL A   1      42.401  29.130  34.092  1.00  0.00     0.074 A 
ATOM     59  C   UNL A   1      42.469  29.718  35.412  1.00  0.00     0.031 C 
ATOM     60  C   UNL A   1      43.357  28.323  33.565  1.00  0.00     0.034 A 
BRANCH  47  61
ATOM     61  C   UNL A   1      42.056  26.303  27.846  1.00  0.00     0.023 A 
ATOM     62  C   UNL A   1      41.644  24.963  27.744  1.00  0.00     0.031 A 
ATOM     63  C   UNL A   1      42.875  26.816  26.823  1.00  0.00     0.131 A 
ATOM     64  C   UNL A   1      42.114  24.162  26.690  1.00  0.00     0.055 A 
ATOM     65  C   UNL A   1      43.270  26.038  25.732  1.00  0.00     0.041 A 
ATOM     66  F   UNL A   1      43.318  28.083  26.872  1.00  0.00    -0.206 F 
ATOM     67  C   UNL A   1      42.903  24.698  25.669  1.00  0.00     0.022 A 
BRANCH  64  68
ATOM     68  S   UNL A   1      41.806  22.376  26.755  1.00  0.00     0.124 S 
ATOM     69  O   UNL A   1      40.377  22.334  27.052  1.00  0.00    -0.237 OA
ATOM     70  O   UNL A   1      42.194  21.941  25.416  1.00  0.00    -0.237 OA
ATOM     71  O   UNL A   1      42.673  21.917  27.837  1.00  0.00    -0.744 OA
ENDBRANCH  64  68
ENDBRANCH  47  61
BRANCH  48  72
ATOM     72  C   UNL A   1      38.829  31.849  35.526  1.00  0.00     0.023 A 
ATOM     73  C   UNL A   1      38.263  31.200  36.635  1.00  0.00     0.031 A 
ATOM     74  C   UNL A   1      38.868  33.255  35.535  1.00  0.00     0.131 A 
ATOM     75  C   UNL A   1      37.715  31.955  37.684  1.00  0.00     0.055 A 
ATOM     76  C   UNL A   1      38.376  34.000  36.608  1.00  0.00     0.041 A 
ATOM     77  F   UNL A   1      39.396  33.927  34.500  1.00  0.00    -0.206 F 
ATOM     78  C   UNL A   1      37.782  33.350  37.685  1.00  0.00     0.022 A 
BRANCH  75  79
ATOM     79  S   UNL A   1      36.826  31.090  39.007  1.00  0.00     0.124 S 
ATOM     80  O   UNL A   1      37.751  31.230  40.127  1.00  0.00    -0.237 OA
ATOM     81  O   UNL A   1      35.590  31.859  39.096  1.00  0.00    -0.237 OA
ATOM     82  O   UNL A   1      36.678  29.732  38.486  1.00  0.00    -0.744 OA
ENDBRANCH  75  79
ENDBRANCH  48  72
BRANCH  60  83
ATOM     83  C   UNL A   1      44.587  28.071  34.406  1.00  0.00     0.023 A 
ATOM     84  C   UNL A   1      44.730  26.912  35.188  1.00  0.00     0.031 A 
ATOM     85  C   UNL A   1      45.631  29.015  34.432  1.00  0.00     0.131 A 
ATOM     86  C   UNL A   1      45.860  26.753  36.006  1.00  0.00     0.055 A 
ATOM     87  C   UNL A   1      46.781  28.822  35.198  1.00  0.00     0.041 A 
ATOM     88  F   UNL A   1      45.549  30.144  33.708  1.00  0.00    -0.206 F 
ATOM     89  C   UNL A   1      46.894  27.691  36.002  1.00  0.00     0.022 A 
BRANCH  86  90
ATOM     90  S   UNL A   1      45.918  25.346  37.152  1.00  0.00     0.124 S 
ATOM     91  O   UNL A   1      47.141  25.616  37.901  1.00  0.00    -0.237 OA
ATOM     92  O   UNL A   1      44.670  25.496  37.892  1.00  0.00    -0.237 OA
ATOM     93  O   UNL A   1      45.978  24.185  36.266  1.00  0.00    -0.744 OA
ENDBRANCH  86  90
ENDBRANCH  60  83
ENDBRANCH  34  35
ENDBRANCH  26  29
ENDBRANCH  24  25
ENDBRANCH  23  24
ENDBRANCH   1  23
TORSDOF 18
ENDMDL
