MODEL 1
REMARK VINA RESULT:     -12.3      0.000      0.000
REMARK SMILES Cc1ccc(-c2cnnc(-n3nc(C)c4c3NC(=O)C[C@@H]4c3ccc(C(=O)NCCCNC(=O)c4ccc(-c5c6nc(c(-c7cc(S(=O)(=O)[O-])ccc7F)c7ccc([nH]7)c(-c7cc(S(=O)(=O)[O-])ccc7F)c7nc(c(-c8cc(S(=O)(=O)[O-])ccc8F)c8ccc5[nH]8)C=C7)C=C6)cc4)cc3)n2)cc1
REMARK SMILES IDX 30 1 29 2 28 3 26 4 27 5 25 7 22 8 23 9 99 10 24 11 98 12
REMARK SMILES IDX 21 13 11 14 12 15 16 16 13 17 15 18 17 19 14 20 18 21 20 23
REMARK SMILES IDX 19 24 10 25 6 26 7 27 100 28 8 29 9 30 5 31 1 32 2 33 3 34
REMARK SMILES IDX 102 35 4 36 101 37 31 38 32 39 33 40 34 42 35 43 36 44 97 45
REMARK SMILES IDX 37 46 96 47 38 48 39 49 40 50 90 51 41 52 95 53 89 54 91 55
REMARK SMILES IDX 42 56 94 57 88 58 87 59 43 61 75 62 55 63 74 64 56 65 59 66
REMARK SMILES IDX 73 67 92 68 57 69 58 70 72 72 93 73 60 74 44 75 45 76 53 77
REMARK SMILES IDX 46 78 52 79 54 80 51 81 47 82 48 83 49 84 50 85 76 86 77 87
REMARK SMILES IDX 85 88 78 89 84 90 86 91 83 92 79 93 80 94 81 95 82 96 61 97
REMARK SMILES IDX 62 98 70 99 63 100 69 101 71 102 68 103 64 104 65 105 66 106
REMARK SMILES IDX 67 107
REMARK H PARENT 28 6 17 22 32 41 91 60 59 71
REMARK Flexibility Score: inf
ROOT
ATOM      1  C   UNL A   1      35.056  32.919  28.548  1.00  0.00     0.042 C 
ENDROOT
BRANCH   1   2
ATOM      2  C   UNL A   1      35.250  33.270  30.019  1.00  0.00     0.118 C 
BRANCH   2   3
ATOM      3  N   UNL A   1      34.077  33.916  30.614  1.00  0.00    -0.352 N 
ATOM      4  C   UNL A   1      33.938  34.544  31.832  1.00  0.00     0.251 C 
ATOM      5  O   UNL A   1      32.955  35.226  32.101  1.00  0.00    -0.269 OA
ATOM      6  H   UNL A   1      33.264  33.900  30.059  1.00  0.00     0.163 HD
BRANCH   4   7
ATOM      7  C   UNL A   1      35.019  34.447  32.834  1.00  0.00     0.039 A 
ATOM      8  C   UNL A   1      37.203  33.949  34.514  1.00  0.00    -0.040 A 
ATOM      9  C   UNL A   1      37.321  34.837  33.426  1.00  0.00     0.005 A 
ATOM     10  C   UNL A   1      35.928  33.479  34.849  1.00  0.00     0.005 A 
ATOM     11  C   UNL A   1      36.232  35.088  32.590  1.00  0.00     0.014 A 
ATOM     12  C   UNL A   1      34.847  33.728  34.011  1.00  0.00     0.014 A 
BRANCH   8  13
ATOM     13  C   UNL A   1      38.470  33.524  35.220  1.00  0.00     0.064 C 
ATOM     14  N   UNL A   1      39.823  30.204  34.753  1.00  0.00    -0.180 N 
ATOM     15  N   UNL A   1      39.709  30.480  33.427  1.00  0.00    -0.168 NA
ATOM     16  C   UNL A   1      39.007  31.066  35.466  1.00  0.00     0.143 A 
ATOM     17  C   UNL A   1      39.274  31.743  33.386  1.00  0.00     0.066 A 
ATOM     18  C   UNL A   1      38.938  32.207  34.690  1.00  0.00     0.026 A 
ATOM     19  N   UNL A   1      38.342  30.990  36.676  1.00  0.00    -0.310 N 
ATOM     20  C   UNL A   1      39.113  32.384  32.055  1.00  0.00     0.069 C 
ATOM     21  C   UNL A   1      37.729  32.181  37.185  1.00  0.00     0.226 C 
ATOM     22  H   UNL A   1      38.292  30.141  37.173  1.00  0.00     0.171 HD
ATOM     23  C   UNL A   1      38.323  33.489  36.740  1.00  0.00     0.113 C 
ATOM     24  O   UNL A   1      36.872  32.043  38.054  1.00  0.00    -0.275 OA
BRANCH  14  25
ATOM     25  C   UNL A   1      40.939  29.457  35.239  1.00  0.00     0.272 A 
ATOM     26  C   UNL A   1      42.136  27.535  35.533  1.00  0.00     0.095 A 
ATOM     27  C   UNL A   1      42.787  28.118  36.610  1.00  0.00     0.164 A 
ATOM     28  N   UNL A   1      41.148  28.178  34.848  1.00  0.00    -0.208 NA
ATOM     29  N   UNL A   1      42.529  29.379  36.970  1.00  0.00    -0.153 NA
ATOM     30  N   UNL A   1      41.625  30.066  36.245  1.00  0.00    -0.109 NA
BRANCH  26  31
ATOM     31  C   UNL A   1      42.593  26.239  35.021  1.00  0.00     0.002 A 
ATOM     32  C   UNL A   1      44.236  22.456  33.695  1.00  0.00     0.044 C 
ATOM     33  C   UNL A   1      43.680  23.770  34.158  1.00  0.00    -0.051 A 
ATOM     34  C   UNL A   1      42.715  23.806  35.169  1.00  0.00     0.004 A 
ATOM     35  C   UNL A   1      44.103  24.971  33.582  1.00  0.00     0.004 A 
ATOM     36  C   UNL A   1      42.179  25.025  35.597  1.00  0.00     0.011 A 
ATOM     37  C   UNL A   1      43.562  26.189  34.006  1.00  0.00     0.011 A 
ENDBRANCH  26  31
ENDBRANCH  14  25
ENDBRANCH   8  13
ENDBRANCH   4   7
ENDBRANCH   2   3
ENDBRANCH   1   2
BRANCH   1  38
ATOM     38  C   UNL A   1      35.258  31.450  28.226  1.00  0.00     0.118 C 
BRANCH  38  39
ATOM     39  N   UNL A   1      35.500  30.603  29.385  1.00  0.00    -0.352 N 
ATOM     40  C   UNL A   1      36.596  29.805  29.671  1.00  0.00     0.251 C 
ATOM     41  H   UNL A   1      34.785  30.596  30.061  1.00  0.00     0.163 HD
ATOM     42  O   UNL A   1      36.560  28.977  30.579  1.00  0.00    -0.269 OA
BRANCH  40  43
ATOM     43  C   UNL A   1      37.901  30.111  29.027  1.00  0.00     0.039 A 
ATOM     44  C   UNL A   1      38.037  29.700  27.691  1.00  0.00     0.014 A 
ATOM     45  C   UNL A   1      39.027  30.400  29.785  1.00  0.00     0.014 A 
ATOM     46  C   UNL A   1      39.276  29.273  27.236  1.00  0.00     0.010 A 
ATOM     47  C   UNL A   1      40.214  29.831  29.409  1.00  0.00     0.010 A 
ATOM     48  C   UNL A   1      40.311  29.220  28.159  1.00  0.00    -0.014 A 
BRANCH  48  49
ATOM     49  C   UNL A   1      41.584  28.580  27.925  1.00  0.00     0.031 A 
ATOM     50  C   UNL A   1      41.648  27.132  28.135  1.00  0.00     0.074 A 
ATOM     51  C   UNL A   1      42.574  29.310  27.370  1.00  0.00     0.049 A 
ATOM     52  N   UNL A   1      42.719  26.487  28.414  1.00  0.00    -0.248 NA
ATOM     53  C   UNL A   1      40.459  26.281  28.090  1.00  0.00     0.031 C 
ATOM     54  C   UNL A   1      43.830  28.853  26.790  1.00  0.00     0.029 A 
ATOM     55  N   UNL A   1      42.707  30.697  27.429  1.00  0.00    -0.354 N 
ATOM     56  C   UNL A   1      42.437  25.152  28.240  1.00  0.00     0.074 A 
ATOM     57  C   UNL A   1      41.002  25.064  28.158  1.00  0.00     0.031 C 
ATOM     58  C   UNL A   1      44.709  29.870  26.813  1.00  0.00     0.029 A 
ATOM     59  C   UNL A   1      44.084  30.962  27.542  1.00  0.00     0.049 A 
ATOM     60  H   UNL A   1      41.980  31.360  27.399  1.00  0.00     0.167 HD
ATOM     61  C   UNL A   1      43.468  24.299  27.995  1.00  0.00     0.034 A 
ATOM     62  C   UNL A   1      44.561  31.517  28.697  1.00  0.00     0.034 A 
ATOM     63  C   UNL A   1      44.733  25.028  27.999  1.00  0.00     0.049 A 
ATOM     64  C   UNL A   1      45.468  30.557  29.444  1.00  0.00     0.074 A 
ATOM     65  C   UNL A   1      45.507  25.563  26.982  1.00  0.00     0.029 A 
ATOM     66  N   UNL A   1      45.154  25.634  29.175  1.00  0.00    -0.354 N 
ATOM     67  N   UNL A   1      45.446  29.257  29.297  1.00  0.00    -0.248 NA
ATOM     68  C   UNL A   1      46.519  30.993  30.355  1.00  0.00     0.031 C 
ATOM     69  C   UNL A   1      46.349  26.554  27.554  1.00  0.00     0.029 A 
ATOM     70  C   UNL A   1      46.108  26.596  28.917  1.00  0.00     0.049 A 
ATOM     71  H   UNL A   1      44.816  25.408  30.072  1.00  0.00     0.167 HD
ATOM     72  C   UNL A   1      46.466  28.687  30.022  1.00  0.00     0.074 A 
ATOM     73  C   UNL A   1      47.106  29.824  30.666  1.00  0.00     0.031 C 
ATOM     74  C   UNL A   1      46.711  27.337  30.014  1.00  0.00     0.034 A 
BRANCH  61  75
ATOM     75  C   UNL A   1      43.305  22.913  27.430  1.00  0.00     0.023 A 
ATOM     76  C   UNL A   1      44.121  22.532  26.347  1.00  0.00     0.031 A 
ATOM     77  C   UNL A   1      42.386  21.943  27.872  1.00  0.00     0.131 A 
ATOM     78  C   UNL A   1      43.964  21.294  25.706  1.00  0.00     0.055 A 
ATOM     79  C   UNL A   1      42.198  20.721  27.208  1.00  0.00     0.041 A 
ATOM     80  F   UNL A   1      41.664  22.112  28.989  1.00  0.00    -0.206 F 
ATOM     81  C   UNL A   1      42.986  20.393  26.113  1.00  0.00     0.022 A 
BRANCH  78  82
ATOM     82  S   UNL A   1      45.079  20.883  24.338  1.00  0.00     0.124 S 
ATOM     83  O   UNL A   1      44.559  21.716  23.259  1.00  0.00    -0.237 OA
ATOM     84  O   UNL A   1      46.381  21.259  24.876  1.00  0.00    -0.237 OA
ATOM     85  O   UNL A   1      44.877  19.445  24.159  1.00  0.00    -0.744 OA
ENDBRANCH  78  82
ENDBRANCH  61  75
BRANCH  62  86
ATOM     86  C   UNL A   1      43.583  32.499  29.280  1.00  0.00     0.023 A 
ATOM     87  C   UNL A   1      43.220  32.289  30.635  1.00  0.00     0.031 A 
ATOM     88  C   UNL A   1      43.434  33.792  28.765  1.00  0.00     0.131 A 
ATOM     89  C   UNL A   1      42.968  33.383  31.482  1.00  0.00     0.055 A 
ATOM     90  C   UNL A   1      43.075  34.867  29.596  1.00  0.00     0.041 A 
ATOM     91  F   UNL A   1      43.770  34.069  27.496  1.00  0.00    -0.206 F 
ATOM     92  C   UNL A   1      42.903  34.677  30.970  1.00  0.00     0.022 A 
BRANCH  89  93
ATOM     93  S   UNL A   1      43.069  33.123  33.283  1.00  0.00     0.124 S 
ATOM     94  O   UNL A   1      44.401  33.623  33.599  1.00  0.00    -0.237 OA
ATOM     95  O   UNL A   1      41.952  33.920  33.788  1.00  0.00    -0.237 OA
ATOM     96  O   UNL A   1      42.882  31.681  33.457  1.00  0.00    -0.744 OA
ENDBRANCH  89  93
ENDBRANCH  62  86
BRANCH  74  97
ATOM     97  C   UNL A   1      47.603  26.571  30.977  1.00  0.00     0.023 A 
ATOM     98  C   UNL A   1      47.267  26.343  32.315  1.00  0.00     0.031 A 
ATOM     99  C   UNL A   1      48.813  25.959  30.550  1.00  0.00     0.131 A 
ATOM    100  C   UNL A   1      48.124  25.636  33.175  1.00  0.00     0.055 A 
ATOM    101  C   UNL A   1      49.612  25.166  31.380  1.00  0.00     0.041 A 
ATOM    102  F   UNL A   1      49.282  26.086  29.301  1.00  0.00    -0.206 F 
ATOM    103  C   UNL A   1      49.280  25.016  32.713  1.00  0.00     0.022 A 
BRANCH 100 104
ATOM    104  S   UNL A   1      47.725  25.632  34.939  1.00  0.00     0.124 S 
ATOM    105  O   UNL A   1      46.837  26.787  35.045  1.00  0.00    -0.237 OA
ATOM    106  O   UNL A   1      47.091  24.329  35.113  1.00  0.00    -0.237 OA
ATOM    107  O   UNL A   1      49.025  25.785  35.587  1.00  0.00    -0.744 OA
ENDBRANCH 100 104
ENDBRANCH  74  97
ENDBRANCH  48  49
ENDBRANCH  40  43
ENDBRANCH  38  39
ENDBRANCH   1  38
TORSDOF 16
ENDMDL
MODEL 2
REMARK VINA RESULT:     -11.9      6.837     13.605
REMARK SMILES Cc1ccc(-c2cnnc(-n3nc(C)c4c3NC(=O)C[C@@H]4c3ccc(C(=O)NCCCNC(=O)c4ccc(-c5c6nc(c(-c7cc(S(=O)(=O)[O-])ccc7F)c7ccc([nH]7)c(-c7cc(S(=O)(=O)[O-])ccc7F)c7nc(c(-c8cc(S(=O)(=O)[O-])ccc8F)c8ccc5[nH]8)C=C7)C=C6)cc4)cc3)n2)cc1
REMARK SMILES IDX 30 1 29 2 28 3 26 4 27 5 25 7 22 8 23 9 99 10 24 11 98 12
REMARK SMILES IDX 21 13 11 14 12 15 16 16 13 17 15 18 17 19 14 20 18 21 20 23
REMARK SMILES IDX 19 24 10 25 6 26 7 27 100 28 8 29 9 30 5 31 1 32 2 33 3 34
REMARK SMILES IDX 102 35 4 36 101 37 31 38 32 39 33 40 34 42 35 43 36 44 97 45
REMARK SMILES IDX 37 46 96 47 38 48 39 49 40 50 90 51 41 52 95 53 89 54 91 55
REMARK SMILES IDX 42 56 94 57 88 58 87 59 43 61 75 62 55 63 74 64 56 65 59 66
REMARK SMILES IDX 73 67 92 68 57 69 58 70 72 72 93 73 60 74 44 75 45 76 53 77
REMARK SMILES IDX 46 78 52 79 54 80 51 81 47 82 48 83 49 84 50 85 76 86 77 87
REMARK SMILES IDX 85 88 78 89 84 90 86 91 83 92 79 93 80 94 81 95 82 96 61 97
REMARK SMILES IDX 62 98 70 99 63 100 69 101 71 102 68 103 64 104 65 105 66 106
REMARK SMILES IDX 67 107
REMARK H PARENT 28 6 17 22 32 41 91 60 59 71
REMARK Flexibility Score: inf
ROOT
ATOM      1  C   UNL A   1      46.603  39.331  32.777  1.00  0.00     0.042 C 
ENDROOT
BRANCH   1   2
ATOM      2  C   UNL A   1      45.977  40.704  32.559  1.00  0.00     0.118 C 
BRANCH   2   3
ATOM      3  N   UNL A   1      44.719  40.882  33.290  1.00  0.00    -0.352 N 
ATOM      4  C   UNL A   1      43.424  40.632  32.892  1.00  0.00     0.251 C 
ATOM      5  O   UNL A   1      42.491  40.628  33.688  1.00  0.00    -0.269 OA
ATOM      6  H   UNL A   1      44.813  41.234  34.204  1.00  0.00     0.163 HD
BRANCH   4   7
ATOM      7  C   UNL A   1      43.141  40.308  31.478  1.00  0.00     0.039 A 
ATOM      8  C   UNL A   1      42.982  39.824  28.725  1.00  0.00    -0.040 A 
ATOM      9  C   UNL A   1      43.445  38.825  29.605  1.00  0.00     0.005 A 
ATOM     10  C   UNL A   1      42.424  40.983  29.276  1.00  0.00     0.005 A 
ATOM     11  C   UNL A   1      43.521  39.064  30.977  1.00  0.00     0.014 A 
ATOM     12  C   UNL A   1      42.506  41.220  30.643  1.00  0.00     0.014 A 
BRANCH   8  13
ATOM     13  C   UNL A   1      43.163  39.599  27.242  1.00  0.00     0.064 C 
ATOM     14  N   UNL A   1      44.726  42.112  25.166  1.00  0.00    -0.180 N 
ATOM     15  N   UNL A   1      45.716  42.088  26.099  1.00  0.00    -0.168 NA
ATOM     16  C   UNL A   1      43.577  41.570  25.713  1.00  0.00     0.143 A 
ATOM     17  C   UNL A   1      45.345  41.128  26.951  1.00  0.00     0.066 A 
ATOM     18  C   UNL A   1      44.028  40.670  26.660  1.00  0.00     0.026 A 
ATOM     19  N   UNL A   1      42.223  41.746  25.492  1.00  0.00    -0.310 N 
ATOM     20  C   UNL A   1      46.265  40.793  28.070  1.00  0.00     0.069 C 
ATOM     21  C   UNL A   1      41.311  40.851  26.139  1.00  0.00     0.226 C 
ATOM     22  H   UNL A   1      41.896  42.467  24.905  1.00  0.00     0.171 HD
ATOM     23  C   UNL A   1      41.839  39.487  26.490  1.00  0.00     0.113 C 
ATOM     24  O   UNL A   1      40.138  41.207  26.220  1.00  0.00    -0.275 OA
BRANCH  14  25
ATOM     25  C   UNL A   1      45.045  42.270  23.783  1.00  0.00     0.272 A 
ATOM     26  C   UNL A   1      44.514  42.667  21.598  1.00  0.00     0.095 A 
ATOM     27  C   UNL A   1      45.689  42.044  21.211  1.00  0.00     0.164 A 
ATOM     28  N   UNL A   1      44.133  42.749  22.905  1.00  0.00    -0.208 NA
ATOM     29  N   UNL A   1      46.548  41.567  22.117  1.00  0.00    -0.153 NA
ATOM     30  N   UNL A   1      46.237  41.725  23.418  1.00  0.00    -0.109 NA
BRANCH  26  31
ATOM     31  C   UNL A   1      43.702  43.375  20.603  1.00  0.00     0.002 A 
ATOM     32  C   UNL A   1      41.472  45.283  17.416  1.00  0.00     0.044 C 
ATOM     33  C   UNL A   1      42.253  44.618  18.510  1.00  0.00    -0.051 A 
ATOM     34  C   UNL A   1      41.675  43.588  19.259  1.00  0.00     0.004 A 
ATOM     35  C   UNL A   1      43.558  45.022  18.807  1.00  0.00     0.004 A 
ATOM     36  C   UNL A   1      42.390  42.973  20.291  1.00  0.00     0.011 A 
ATOM     37  C   UNL A   1      44.269  44.411  19.844  1.00  0.00     0.011 A 
ENDBRANCH  26  31
ENDBRANCH  14  25
ENDBRANCH   8  13
ENDBRANCH   4   7
ENDBRANCH   2   3
ENDBRANCH   1   2
BRANCH   1  38
ATOM     38  C   UNL A   1      45.903  38.486  33.826  1.00  0.00     0.118 C 
BRANCH  38  39
ATOM     39  N   UNL A   1      46.103  38.933  35.197  1.00  0.00    -0.352 N 
ATOM     40  C   UNL A   1      45.290  38.751  36.303  1.00  0.00     0.251 C 
ATOM     41  H   UNL A   1      46.933  39.435  35.360  1.00  0.00     0.163 HD
ATOM     42  O   UNL A   1      45.483  39.376  37.344  1.00  0.00    -0.269 OA
BRANCH  40  43
ATOM     43  C   UNL A   1      44.318  37.625  36.310  1.00  0.00     0.039 A 
ATOM     44  C   UNL A   1      44.865  36.344  36.491  1.00  0.00     0.014 A 
ATOM     45  C   UNL A   1      43.046  37.771  35.777  1.00  0.00     0.014 A 
ATOM     46  C   UNL A   1      44.283  35.262  35.846  1.00  0.00     0.010 A 
ATOM     47  C   UNL A   1      42.556  36.752  35.004  1.00  0.00     0.010 A 
ATOM     48  C   UNL A   1      43.213  35.523  35.000  1.00  0.00    -0.014 A 
BRANCH  48  49
ATOM     49  C   UNL A   1      42.650  34.568  34.076  1.00  0.00     0.031 A 
ATOM     50  C   UNL A   1      42.865  34.819  32.648  1.00  0.00     0.074 A 
ATOM     51  C   UNL A   1      42.121  33.431  34.574  1.00  0.00     0.049 A 
ATOM     52  N   UNL A   1      42.108  34.380  31.714  1.00  0.00    -0.248 NA
ATOM     53  C   UNL A   1      43.963  35.651  32.157  1.00  0.00     0.031 C 
ATOM     54  C   UNL A   1      41.746  32.213  33.868  1.00  0.00     0.029 A 
ATOM     55  N   UNL A   1      41.607  33.256  35.858  1.00  0.00    -0.354 N 
ATOM     56  C   UNL A   1      42.786  34.563  30.531  1.00  0.00     0.074 A 
ATOM     57  C   UNL A   1      43.871  35.458  30.840  1.00  0.00     0.031 C 
ATOM     58  C   UNL A   1      40.834  31.552  34.604  1.00  0.00     0.029 A 
ATOM     59  C   UNL A   1      40.494  32.405  35.732  1.00  0.00     0.049 A 
ATOM     60  H   UNL A   1      41.955  33.651  36.690  1.00  0.00     0.167 HD
ATOM     61  C   UNL A   1      42.458  33.780  29.468  1.00  0.00     0.034 A 
ATOM     62  C   UNL A   1      39.247  32.897  36.003  1.00  0.00     0.034 A 
ATOM     63  C   UNL A   1      41.368  32.878  29.828  1.00  0.00     0.049 A 
ATOM     64  C   UNL A   1      38.384  32.945  34.756  1.00  0.00     0.074 A 
ATOM     65  C   UNL A   1      41.347  31.559  30.251  1.00  0.00     0.029 A 
ATOM     66  N   UNL A   1      40.134  33.418  30.160  1.00  0.00    -0.354 N 
ATOM     67  N   UNL A   1      38.853  32.973  33.535  1.00  0.00    -0.248 NA
ATOM     68  C   UNL A   1      36.927  32.887  34.788  1.00  0.00     0.031 C 
ATOM     69  C   UNL A   1      40.108  31.334  30.909  1.00  0.00     0.029 A 
ATOM     70  C   UNL A   1      39.369  32.504  30.856  1.00  0.00     0.049 A 
ATOM     71  H   UNL A   1      39.843  34.331  29.931  1.00  0.00     0.167 HD
ATOM     72  C   UNL A   1      37.818  32.893  32.634  1.00  0.00     0.074 A 
ATOM     73  C   UNL A   1      36.633  32.842  33.477  1.00  0.00     0.031 C 
ATOM     74  C   UNL A   1      38.021  32.852  31.278  1.00  0.00     0.034 A 
BRANCH  61  75
ATOM     75  C   UNL A   1      43.325  33.598  28.251  1.00  0.00     0.023 A 
ATOM     76  C   UNL A   1      43.903  32.334  28.024  1.00  0.00     0.031 A 
ATOM     77  C   UNL A   1      43.638  34.590  27.303  1.00  0.00     0.131 A 
ATOM     78  C   UNL A   1      44.797  32.112  26.965  1.00  0.00     0.055 A 
ATOM     79  C   UNL A   1      44.563  34.383  26.268  1.00  0.00     0.041 A 
ATOM     80  F   UNL A   1      43.032  35.786  27.308  1.00  0.00    -0.206 F 
ATOM     81  C   UNL A   1      45.153  33.138  26.098  1.00  0.00     0.022 A 
BRANCH  78  82
ATOM     82  S   UNL A   1      45.470  30.444  26.740  1.00  0.00     0.124 S 
ATOM     83  O   UNL A   1      44.266  29.660  26.484  1.00  0.00    -0.237 OA
ATOM     84  O   UNL A   1      46.375  30.625  25.611  1.00  0.00    -0.237 OA
ATOM     85  O   UNL A   1      46.125  30.170  28.018  1.00  0.00    -0.744 OA
ENDBRANCH  78  82
ENDBRANCH  61  75
BRANCH  62  86
ATOM     86  C   UNL A   1      39.280  33.884  37.136  1.00  0.00     0.023 A 
ATOM     87  C   UNL A   1      39.459  33.341  38.434  1.00  0.00     0.031 A 
ATOM     88  C   UNL A   1      39.640  35.224  36.943  1.00  0.00     0.131 A 
ATOM     89  C   UNL A   1      40.199  34.041  39.403  1.00  0.00     0.055 A 
ATOM     90  C   UNL A   1      40.283  35.955  37.955  1.00  0.00     0.041 A 
ATOM     91  F   UNL A   1      39.512  35.801  35.739  1.00  0.00    -0.206 F 
ATOM     92  C   UNL A   1      40.622  35.346  39.166  1.00  0.00     0.022 A 
BRANCH  89  93
ATOM     93  S   UNL A   1      40.879  33.106  40.813  1.00  0.00     0.124 S 
ATOM     94  O   UNL A   1      39.679  32.738  41.555  1.00  0.00    -0.237 OA
ATOM     95  O   UNL A   1      41.587  32.007  40.161  1.00  0.00    -0.237 OA
ATOM     96  O   UNL A   1      41.768  34.055  41.487  1.00  0.00    -0.744 OA
ENDBRANCH  89  93
ENDBRANCH  62  86
BRANCH  74  97
ATOM     97  C   UNL A   1      36.973  33.053  30.196  1.00  0.00     0.023 A 
ATOM     98  C   UNL A   1      35.923  33.968  30.307  1.00  0.00     0.031 A 
ATOM     99  C   UNL A   1      37.044  32.369  28.951  1.00  0.00     0.131 A 
ATOM    100  C   UNL A   1      34.969  34.118  29.286  1.00  0.00     0.055 A 
ATOM    101  C   UNL A   1      36.156  32.597  27.895  1.00  0.00     0.041 A 
ATOM    102  F   UNL A   1      37.985  31.453  28.685  1.00  0.00    -0.206 F 
ATOM    103  C   UNL A   1      35.093  33.463  28.065  1.00  0.00     0.022 A 
BRANCH 100 104
ATOM    104  S   UNL A   1      33.510  35.124  29.642  1.00  0.00     0.124 S 
ATOM    105  O   UNL A   1      32.541  34.591  28.687  1.00  0.00    -0.237 OA
ATOM    106  O   UNL A   1      33.250  34.813  31.045  1.00  0.00    -0.237 OA
ATOM    107  O   UNL A   1      33.959  36.489  29.378  1.00  0.00    -0.744 OA
ENDBRANCH 100 104
ENDBRANCH  74  97
ENDBRANCH  48  49
ENDBRANCH  40  43
ENDBRANCH  38  39
ENDBRANCH   1  38
TORSDOF 16
ENDMDL
MODEL 3
REMARK VINA RESULT:     -11.8      5.510      9.882
REMARK SMILES Cc1ccc(-c2cnnc(-n3nc(C)c4c3NC(=O)C[C@@H]4c3ccc(C(=O)NCCCNC(=O)c4ccc(-c5c6nc(c(-c7cc(S(=O)(=O)[O-])ccc7F)c7ccc([nH]7)c(-c7cc(S(=O)(=O)[O-])ccc7F)c7nc(c(-c8cc(S(=O)(=O)[O-])ccc8F)c8ccc5[nH]8)C=C7)C=C6)cc4)cc3)n2)cc1
REMARK SMILES IDX 30 1 29 2 28 3 26 4 27 5 25 7 22 8 23 9 99 10 24 11 98 12
REMARK SMILES IDX 21 13 11 14 12 15 16 16 13 17 15 18 17 19 14 20 18 21 20 23
REMARK SMILES IDX 19 24 10 25 6 26 7 27 100 28 8 29 9 30 5 31 1 32 2 33 3 34
REMARK SMILES IDX 102 35 4 36 101 37 31 38 32 39 33 40 34 42 35 43 36 44 97 45
REMARK SMILES IDX 37 46 96 47 38 48 39 49 40 50 90 51 41 52 95 53 89 54 91 55
REMARK SMILES IDX 42 56 94 57 88 58 87 59 43 61 75 62 55 63 74 64 56 65 59 66
REMARK SMILES IDX 73 67 92 68 57 69 58 70 72 72 93 73 60 74 44 75 45 76 53 77
REMARK SMILES IDX 46 78 52 79 54 80 51 81 47 82 48 83 49 84 50 85 76 86 77 87
REMARK SMILES IDX 85 88 78 89 84 90 86 91 83 92 79 93 80 94 81 95 82 96 61 97
REMARK SMILES IDX 62 98 70 99 63 100 69 101 71 102 68 103 64 104 65 105 66 106
REMARK SMILES IDX 67 107
REMARK H PARENT 28 6 17 22 32 41 91 60 59 71
REMARK Flexibility Score: inf
ROOT
ATOM      1  C   UNL A   1      34.010  32.276  29.078  1.00  0.00     0.042 C 
ENDROOT
BRANCH   1   2
ATOM      2  C   UNL A   1      34.589  32.086  27.680  1.00  0.00     0.118 C 
BRANCH   2   3
ATOM      3  N   UNL A   1      35.808  31.272  27.670  1.00  0.00    -0.352 N 
ATOM      4  C   UNL A   1      36.022  30.010  27.163  1.00  0.00     0.251 C 
ATOM      5  O   UNL A   1      37.149  29.545  27.038  1.00  0.00    -0.269 OA
ATOM      6  H   UNL A   1      36.594  31.692  28.088  1.00  0.00     0.163 HD
BRANCH   4   7
ATOM      7  C   UNL A   1      34.874  29.199  26.706  1.00  0.00     0.039 A 
ATOM      8  C   UNL A   1      32.924  27.342  25.938  1.00  0.00    -0.040 A 
ATOM      9  C   UNL A   1      32.960  27.845  27.254  1.00  0.00     0.005 A 
ATOM     10  C   UNL A   1      33.755  27.935  24.981  1.00  0.00     0.005 A 
ATOM     11  C   UNL A   1      33.929  28.773  27.637  1.00  0.00     0.014 A 
ATOM     12  C   UNL A   1      34.723  28.856  25.367  1.00  0.00     0.014 A 
BRANCH   8  13
ATOM     13  C   UNL A   1      32.025  26.162  25.656  1.00  0.00     0.064 C 
ATOM     14  N   UNL A   1      33.186  23.388  23.649  1.00  0.00    -0.180 N 
ATOM     15  N   UNL A   1      34.254  23.388  24.491  1.00  0.00    -0.168 NA
ATOM     16  C   UNL A   1      32.549  24.614  23.726  1.00  0.00     0.143 A 
ATOM     17  C   UNL A   1      33.969  24.336  25.389  1.00  0.00     0.066 A 
ATOM     18  C   UNL A   1      32.804  25.062  25.008  1.00  0.00     0.026 A 
ATOM     19  N   UNL A   1      31.787  25.366  22.851  1.00  0.00    -0.310 N 
ATOM     20  C   UNL A   1      34.919  24.543  26.512  1.00  0.00     0.069 C 
ATOM     21  C   UNL A   1      31.126  26.531  23.360  1.00  0.00     0.226 C 
ATOM     22  H   UNL A   1      31.702  25.108  21.904  1.00  0.00     0.171 HD
ATOM     23  C   UNL A   1      30.796  26.532  24.827  1.00  0.00     0.113 C 
ATOM     24  O   UNL A   1      30.748  27.364  22.542  1.00  0.00    -0.275 OA
BRANCH  14  25
ATOM     25  C   UNL A   1      32.650  22.155  23.167  1.00  0.00     0.272 A 
ATOM     26  C   UNL A   1      32.536  19.876  23.074  1.00  0.00     0.095 A 
ATOM     27  C   UNL A   1      31.920  19.969  21.836  1.00  0.00     0.164 A 
ATOM     28  N   UNL A   1      32.970  20.977  23.753  1.00  0.00    -0.208 NA
ATOM     29  N   UNL A   1      31.645  21.158  21.290  1.00  0.00    -0.153 NA
ATOM     30  N   UNL A   1      31.977  22.260  21.990  1.00  0.00    -0.109 NA
BRANCH  26  31
ATOM     31  C   UNL A   1      32.624  18.577  23.749  1.00  0.00     0.002 A 
ATOM     32  C   UNL A   1      33.228  14.797  25.777  1.00  0.00     0.044 C 
ATOM     33  C   UNL A   1      33.033  16.107  25.072  1.00  0.00    -0.051 A 
ATOM     34  C   UNL A   1      32.509  17.203  25.763  1.00  0.00     0.004 A 
ATOM     35  C   UNL A   1      33.355  16.248  23.720  1.00  0.00     0.004 A 
ATOM     36  C   UNL A   1      32.309  18.424  25.111  1.00  0.00     0.011 A 
ATOM     37  C   UNL A   1      33.148  17.467  23.067  1.00  0.00     0.011 A 
ENDBRANCH  26  31
ENDBRANCH  14  25
ENDBRANCH   8  13
ENDBRANCH   4   7
ENDBRANCH   2   3
ENDBRANCH   1   2
BRANCH   1  38
ATOM     38  C   UNL A   1      34.641  33.409  29.865  1.00  0.00     0.118 C 
BRANCH  38  39
ATOM     39  N   UNL A   1      33.791  33.974  30.903  1.00  0.00    -0.352 N 
ATOM     40  C   UNL A   1      34.018  34.064  32.266  1.00  0.00     0.251 C 
ATOM     41  H   UNL A   1      32.934  34.345  30.592  1.00  0.00     0.163 HD
ATOM     42  O   UNL A   1      33.114  34.364  33.044  1.00  0.00    -0.269 OA
BRANCH  40  43
ATOM     43  C   UNL A   1      35.417  34.021  32.771  1.00  0.00     0.039 A 
ATOM     44  C   UNL A   1      36.372  34.690  31.989  1.00  0.00     0.014 A 
ATOM     45  C   UNL A   1      35.817  33.070  33.698  1.00  0.00     0.014 A 
ATOM     46  C   UNL A   1      37.658  34.178  31.906  1.00  0.00     0.010 A 
ATOM     47  C   UNL A   1      37.026  32.458  33.502  1.00  0.00     0.010 A 
ATOM     48  C   UNL A   1      37.914  32.984  32.565  1.00  0.00    -0.014 A 
BRANCH  48  49
ATOM     49  C   UNL A   1      39.108  32.193  32.391  1.00  0.00     0.031 A 
ATOM     50  C   UNL A   1      38.964  30.919  31.682  1.00  0.00     0.074 A 
ATOM     51  C   UNL A   1      40.294  32.741  32.729  1.00  0.00     0.049 A 
ATOM     52  N   UNL A   1      39.754  29.920  31.819  1.00  0.00    -0.248 NA
ATOM     53  C   UNL A   1      37.853  30.653  30.769  1.00  0.00     0.031 C 
ATOM     54  C   UNL A   1      41.638  32.280  32.408  1.00  0.00     0.029 A 
ATOM     55  N   UNL A   1      40.493  33.762  33.658  1.00  0.00    -0.354 N 
ATOM     56  C   UNL A   1      39.475  29.047  30.793  1.00  0.00     0.074 A 
ATOM     57  C   UNL A   1      38.217  29.482  30.244  1.00  0.00     0.031 C 
ATOM     58  C   UNL A   1      42.495  32.789  33.312  1.00  0.00     0.029 A 
ATOM     59  C   UNL A   1      41.700  33.471  34.320  1.00  0.00     0.049 A 
ATOM     60  H   UNL A   1      39.905  34.535  33.818  1.00  0.00     0.167 HD
ATOM     61  C   UNL A   1      40.441  28.171  30.407  1.00  0.00     0.034 A 
ATOM     62  C   UNL A   1      41.667  33.152  35.649  1.00  0.00     0.034 A 
ATOM     63  C   UNL A   1      41.630  28.339  31.239  1.00  0.00     0.049 A 
ATOM     64  C   UNL A   1      42.082  31.712  35.888  1.00  0.00     0.074 A 
ATOM     65  C   UNL A   1      42.808  29.045  31.055  1.00  0.00     0.029 A 
ATOM     66  N   UNL A   1      41.541  28.066  32.597  1.00  0.00    -0.354 N 
ATOM     67  N   UNL A   1      42.027  30.769  34.982  1.00  0.00    -0.248 NA
ATOM     68  C   UNL A   1      42.661  31.242  37.141  1.00  0.00     0.031 C 
ATOM     69  C   UNL A   1      43.390  29.257  32.333  1.00  0.00     0.029 A 
ATOM     70  C   UNL A   1      42.583  28.655  33.284  1.00  0.00     0.049 A 
ATOM     71  H   UNL A   1      40.831  27.527  33.014  1.00  0.00     0.167 HD
ATOM     72  C   UNL A   1      42.582  29.613  35.475  1.00  0.00     0.074 A 
ATOM     73  C   UNL A   1      42.963  29.968  36.834  1.00  0.00     0.031 C 
ATOM     74  C   UNL A   1      42.703  28.473  34.722  1.00  0.00     0.034 A 
BRANCH  61  75
ATOM     75  C   UNL A   1      40.436  27.425  29.100  1.00  0.00     0.023 A 
ATOM     76  C   UNL A   1      41.350  27.816  28.102  1.00  0.00     0.031 A 
ATOM     77  C   UNL A   1      39.578  26.363  28.758  1.00  0.00     0.131 A 
ATOM     78  C   UNL A   1      41.342  27.233  26.826  1.00  0.00     0.055 A 
ATOM     79  C   UNL A   1      39.540  25.806  27.471  1.00  0.00     0.041 A 
ATOM     80  F   UNL A   1      38.774  25.786  29.663  1.00  0.00    -0.206 F 
ATOM     81  C   UNL A   1      40.422  26.245  26.493  1.00  0.00     0.022 A 
BRANCH  78  82
ATOM     82  S   UNL A   1      42.574  27.786  25.617  1.00  0.00     0.124 S 
ATOM     83  O   UNL A   1      43.743  28.023  26.458  1.00  0.00    -0.237 OA
ATOM     84  O   UNL A   1      42.650  26.646  24.710  1.00  0.00    -0.237 OA
ATOM     85  O   UNL A   1      41.969  28.989  25.047  1.00  0.00    -0.744 OA
ENDBRANCH  78  82
ENDBRANCH  61  75
BRANCH  62  86
ATOM     86  C   UNL A   1      40.611  33.936  36.377  1.00  0.00     0.023 A 
ATOM     87  C   UNL A   1      39.405  33.245  36.663  1.00  0.00     0.031 A 
ATOM     88  C   UNL A   1      40.926  35.041  37.178  1.00  0.00     0.131 A 
ATOM     89  C   UNL A   1      38.700  33.505  37.851  1.00  0.00     0.055 A 
ATOM     90  C   UNL A   1      40.153  35.363  38.306  1.00  0.00     0.041 A 
ATOM     91  F   UNL A   1      42.057  35.734  36.976  1.00  0.00    -0.206 F 
ATOM     92  C   UNL A   1      39.074  34.558  38.683  1.00  0.00     0.022 A 
BRANCH  89  93
ATOM     93  S   UNL A   1      37.521  32.250  38.449  1.00  0.00     0.124 S 
ATOM     94  O   UNL A   1      37.984  32.007  39.810  1.00  0.00    -0.237 OA
ATOM     95  O   UNL A   1      36.233  32.931  38.327  1.00  0.00    -0.237 OA
ATOM     96  O   UNL A   1      37.678  31.128  37.522  1.00  0.00    -0.744 OA
ENDBRANCH  89  93
ENDBRANCH  62  86
BRANCH  74  97
ATOM     97  C   UNL A   1      43.025  27.077  35.232  1.00  0.00     0.023 A 
ATOM     98  C   UNL A   1      44.093  26.314  34.754  1.00  0.00     0.031 A 
ATOM     99  C   UNL A   1      42.296  26.485  36.300  1.00  0.00     0.131 A 
ATOM    100  C   UNL A   1      44.351  25.023  35.246  1.00  0.00     0.055 A 
ATOM    101  C   UNL A   1      42.619  25.246  36.862  1.00  0.00     0.041 A 
ATOM    102  F   UNL A   1      41.238  27.082  36.867  1.00  0.00    -0.206 F 
ATOM    103  C   UNL A   1      43.643  24.493  36.320  1.00  0.00     0.022 A 
BRANCH 100 104
ATOM    104  S   UNL A   1      45.580  24.023  34.376  1.00  0.00     0.124 S 
ATOM    105  O   UNL A   1      46.827  24.507  34.964  1.00  0.00    -0.237 OA
ATOM    106  O   UNL A   1      45.195  22.664  34.744  1.00  0.00    -0.237 OA
ATOM    107  O   UNL A   1      45.377  24.372  32.972  1.00  0.00    -0.744 OA
ENDBRANCH 100 104
ENDBRANCH  74  97
ENDBRANCH  48  49
ENDBRANCH  40  43
ENDBRANCH  38  39
ENDBRANCH   1  38
TORSDOF 16
ENDMDL
