MODEL 1
REMARK VINA RESULT:     -11.8      0.000      0.000
REMARK SMILES Cn1c(SCC(=O)NCCCNC(=O)c2ccc(-c3c4nc(c(-c5cc(S(=O)(=O)[O-])ccc5F)c5ccc([nH]5)c(-c5cc(S(=O)(=O)[O-])ccc5F)c5nc(c(-c6cc(S(=O)(=O)[O-])ccc6F)c6ccc3[nH]6)C=C5)C=C4)cc2)nnc1-c1ccccc1Br
REMARK SMILES IDX 10 1 9 2 8 3 6 4 7 5 5 7 4 8 3 9 1 10 2 11 80 12 78 13 79 14
REMARK SMILES IDX 81 15 82 16 86 17 83 18 85 19 87 20 84 21 11 22 12 23 13 24
REMARK SMILES IDX 14 26 15 27 16 28 77 29 17 30 76 31 18 32 19 33 20 34 70 35
REMARK SMILES IDX 21 36 75 37 69 38 71 39 22 40 74 41 68 42 67 43 23 45 55 46
REMARK SMILES IDX 35 47 54 48 36 49 39 50 53 51 72 52 37 53 38 54 52 56 73 57
REMARK SMILES IDX 40 58 24 59 25 60 33 61 26 62 32 63 34 64 31 65 27 66 28 67
REMARK SMILES IDX 29 68 30 69 56 70 57 71 65 72 58 73 64 74 66 75 63 76 59 77
REMARK SMILES IDX 60 78 61 79 62 80 41 81 42 82 50 83 43 84 49 85 51 86 48 87
REMARK SMILES IDX 44 88 45 89 46 90 47 91
REMARK H PARENT 8 6 12 25 71 44 39 55
REMARK Flexibility Score: inf
ROOT
ATOM      1  C   UNL A   1      32.973  28.234  27.098  1.00  0.00     0.042 C 
ENDROOT
BRANCH   1   2
ATOM      2  C   UNL A   1      31.458  28.114  26.979  1.00  0.00     0.117 C 
BRANCH   2   3
ATOM      3  N   UNL A   1      31.029  26.756  26.702  1.00  0.00    -0.355 N 
ATOM      4  C   UNL A   1      30.728  26.164  25.517  1.00  0.00     0.230 C 
ATOM      5  O   UNL A   1      30.519  24.948  25.522  1.00  0.00    -0.274 OA
ATOM      6  H   UNL A   1      30.942  26.175  27.493  1.00  0.00     0.163 HD
BRANCH   4   7
ATOM      7  C   UNL A   1      30.751  26.927  24.213  1.00  0.00     0.178 C 
BRANCH   7   8
ATOM      8  S   UNL A   1      32.331  27.078  23.399  1.00  0.00    -0.076 SA
BRANCH   8   9
ATOM      9  C   UNL A   1      33.151  25.572  23.212  1.00  0.00     0.191 A 
ATOM     10  C   UNL A   1      34.084  24.963  25.503  1.00  0.00     0.154 C 
ATOM     11  N   UNL A   1      33.814  24.775  24.105  1.00  0.00    -0.305 N 
ATOM     12  C   UNL A   1      34.286  23.695  23.371  1.00  0.00     0.165 A 
ATOM     13  N   UNL A   1      33.278  25.052  22.008  1.00  0.00    -0.123 NA
ATOM     14  N   UNL A   1      34.000  23.894  22.102  1.00  0.00    -0.129 NA
BRANCH  12  15
ATOM     15  C   UNL A   1      35.066  22.578  23.898  1.00  0.00     0.034 A 
ATOM     16  C   UNL A   1      36.468  22.684  23.873  1.00  0.00     0.013 A 
ATOM     17  C   UNL A   1      34.486  21.422  24.443  1.00  0.00     0.029 A 
ATOM     18  C   UNL A   1      37.270  21.684  24.425  1.00  0.00     0.001 A 
ATOM     19  C   UNL A   1      35.294  20.425  25.001  1.00  0.00     0.016 A 
ATOM     20  Br  UNL A   1      32.609  21.117  24.433  1.00  0.00    -0.050 Br
ATOM     21  C   UNL A   1      36.682  20.561  25.001  1.00  0.00     0.001 A 
ENDBRANCH  12  15
ENDBRANCH   8   9
ENDBRANCH   7   8
ENDBRANCH   4   7
ENDBRANCH   2   3
ENDBRANCH   1   2
BRANCH   1  22
ATOM     22  C   UNL A   1      33.603  29.251  26.150  1.00  0.00     0.118 C 
BRANCH  22  23
ATOM     23  N   UNL A   1      33.577  30.610  26.676  1.00  0.00    -0.352 N 
ATOM     24  C   UNL A   1      34.366  31.210  27.626  1.00  0.00     0.251 C 
ATOM     25  H   UNL A   1      32.882  31.189  26.289  1.00  0.00     0.163 HD
ATOM     26  O   UNL A   1      34.034  32.315  28.060  1.00  0.00    -0.269 OA
BRANCH  24  27
ATOM     27  C   UNL A   1      35.580  30.543  28.142  1.00  0.00     0.039 A 
ATOM     28  C   UNL A   1      36.795  30.737  27.476  1.00  0.00     0.014 A 
ATOM     29  C   UNL A   1      35.528  29.703  29.258  1.00  0.00     0.014 A 
ATOM     30  C   UNL A   1      37.961  30.145  27.969  1.00  0.00     0.010 A 
ATOM     31  C   UNL A   1      36.703  29.186  29.797  1.00  0.00     0.010 A 
ATOM     32  C   UNL A   1      37.933  29.395  29.155  1.00  0.00    -0.014 A 
BRANCH  32  33
ATOM     33  C   UNL A   1      39.175  28.813  29.732  1.00  0.00     0.031 A 
ATOM     34  C   UNL A   1      39.739  29.354  31.019  1.00  0.00     0.074 A 
ATOM     35  C   UNL A   1      39.825  27.835  29.072  1.00  0.00     0.049 A 
ATOM     36  N   UNL A   1      40.840  29.026  31.648  1.00  0.00    -0.248 NA
ATOM     37  C   UNL A   1      38.974  30.429  31.668  1.00  0.00     0.031 C 
ATOM     38  C   UNL A   1      39.400  27.246  27.802  1.00  0.00     0.029 A 
ATOM     39  N   UNL A   1      40.983  27.164  29.376  1.00  0.00    -0.354 N 
ATOM     40  C   UNL A   1      40.904  29.859  32.759  1.00  0.00     0.074 A 
ATOM     41  C   UNL A   1      39.773  30.758  32.670  1.00  0.00     0.031 C 
ATOM     42  C   UNL A   1      40.260  26.276  27.456  1.00  0.00     0.029 A 
ATOM     43  C   UNL A   1      41.329  26.209  28.448  1.00  0.00     0.049 A 
ATOM     44  H   UNL A   1      41.517  27.348  30.183  1.00  0.00     0.167 HD
ATOM     45  C   UNL A   1      41.805  29.856  33.775  1.00  0.00     0.034 A 
ATOM     46  C   UNL A   1      42.390  25.380  28.396  1.00  0.00     0.034 A 
ATOM     47  C   UNL A   1      42.933  28.958  33.843  1.00  0.00     0.049 A 
ATOM     48  C   UNL A   1      43.415  25.435  29.501  1.00  0.00     0.074 A 
ATOM     49  C   UNL A   1      43.890  28.844  34.837  1.00  0.00     0.029 A 
ATOM     50  N   UNL A   1      43.268  28.024  32.868  1.00  0.00    -0.354 N 
ATOM     51  N   UNL A   1      43.443  26.201  30.567  1.00  0.00    -0.248 NA
ATOM     52  C   UNL A   1      44.546  24.507  29.396  1.00  0.00     0.031 C 
ATOM     53  C   UNL A   1      44.840  27.902  34.429  1.00  0.00     0.029 A 
ATOM     54  C   UNL A   1      44.432  27.357  33.223  1.00  0.00     0.049 A 
ATOM     55  H   UNL A   1      42.753  27.860  32.045  1.00  0.00     0.167 HD
ATOM     56  C   UNL A   1      44.575  25.816  31.281  1.00  0.00     0.074 A 
ATOM     57  C   UNL A   1      45.196  24.746  30.526  1.00  0.00     0.031 C 
ATOM     58  C   UNL A   1      45.052  26.299  32.458  1.00  0.00     0.034 A 
BRANCH  45  59
ATOM     59  C   UNL A   1      41.610  30.883  34.870  1.00  0.00     0.023 A 
ATOM     60  C   UNL A   1      40.459  30.885  35.681  1.00  0.00     0.031 A 
ATOM     61  C   UNL A   1      42.550  31.910  35.069  1.00  0.00     0.131 A 
ATOM     62  C   UNL A   1      40.227  31.947  36.568  1.00  0.00     0.055 A 
ATOM     63  C   UNL A   1      42.361  32.908  36.029  1.00  0.00     0.041 A 
ATOM     64  F   UNL A   1      43.660  31.978  34.317  1.00  0.00    -0.206 F 
ATOM     65  C   UNL A   1      41.182  32.944  36.768  1.00  0.00     0.022 A 
BRANCH  62  66
ATOM     66  S   UNL A   1      38.576  32.109  37.305  1.00  0.00     0.124 S 
ATOM     67  O   UNL A   1      38.902  32.328  38.712  1.00  0.00    -0.237 OA
ATOM     68  O   UNL A   1      38.023  33.255  36.592  1.00  0.00    -0.237 OA
ATOM     69  O   UNL A   1      37.943  30.825  37.014  1.00  0.00    -0.744 OA
ENDBRANCH  62  66
ENDBRANCH  45  59
BRANCH  46  70
ATOM     70  C   UNL A   1      42.539  24.417  27.267  1.00  0.00     0.023 A 
ATOM     71  C   UNL A   1      41.963  23.139  27.332  1.00  0.00     0.031 A 
ATOM     72  C   UNL A   1      43.280  24.749  26.119  1.00  0.00     0.131 A 
ATOM     73  C   UNL A   1      42.170  22.224  26.289  1.00  0.00     0.055 A 
ATOM     74  C   UNL A   1      43.438  23.854  25.060  1.00  0.00     0.041 A 
ATOM     75  F   UNL A   1      43.851  25.960  26.005  1.00  0.00    -0.206 F 
ATOM     76  C   UNL A   1      42.891  22.578  25.146  1.00  0.00     0.022 A 
BRANCH  73  77
ATOM     77  S   UNL A   1      41.543  20.532  26.480  1.00  0.00     0.124 S 
ATOM     78  O   UNL A   1      42.276  19.825  25.437  1.00  0.00    -0.237 OA
ATOM     79  O   UNL A   1      41.921  20.222  27.855  1.00  0.00    -0.237 OA
ATOM     80  O   UNL A   1      40.108  20.675  26.248  1.00  0.00    -0.744 OA
ENDBRANCH  73  77
ENDBRANCH  46  70
BRANCH  58  81
ATOM     81  C   UNL A   1      46.279  25.627  33.029  1.00  0.00     0.023 A 
ATOM     82  C   UNL A   1      46.194  24.492  33.855  1.00  0.00     0.031 A 
ATOM     83  C   UNL A   1      47.558  26.146  32.754  1.00  0.00     0.131 A 
ATOM     84  C   UNL A   1      47.358  23.951  34.425  1.00  0.00     0.055 A 
ATOM     85  C   UNL A   1      48.718  25.562  33.268  1.00  0.00     0.041 A 
ATOM     86  F   UNL A   1      47.703  27.231  31.978  1.00  0.00    -0.206 F 
ATOM     87  C   UNL A   1      48.621  24.467  34.121  1.00  0.00     0.022 A 
BRANCH  84  88
ATOM     88  S   UNL A   1      47.193  22.629  35.657  1.00  0.00     0.124 S 
ATOM     89  O   UNL A   1      45.829  22.828  36.135  1.00  0.00    -0.237 OA
ATOM     90  O   UNL A   1      47.421  21.429  34.859  1.00  0.00    -0.237 OA
ATOM     91  O   UNL A   1      48.242  22.934  36.629  1.00  0.00    -0.744 OA
ENDBRANCH  84  88
ENDBRANCH  58  81
ENDBRANCH  32  33
ENDBRANCH  24  27
ENDBRANCH  22  23
ENDBRANCH   1  22
TORSDOF 16
ENDMDL
MODEL 2
REMARK VINA RESULT:     -11.7      5.448      8.750
REMARK SMILES Cn1c(SCC(=O)NCCCNC(=O)c2ccc(-c3c4nc(c(-c5cc(S(=O)(=O)[O-])ccc5F)c5ccc([nH]5)c(-c5cc(S(=O)(=O)[O-])ccc5F)c5nc(c(-c6cc(S(=O)(=O)[O-])ccc6F)c6ccc3[nH]6)C=C5)C=C4)cc2)nnc1-c1ccccc1Br
REMARK SMILES IDX 10 1 9 2 8 3 6 4 7 5 5 7 4 8 3 9 1 10 2 11 80 12 78 13 79 14
REMARK SMILES IDX 81 15 82 16 86 17 83 18 85 19 87 20 84 21 11 22 12 23 13 24
REMARK SMILES IDX 14 26 15 27 16 28 77 29 17 30 76 31 18 32 19 33 20 34 70 35
REMARK SMILES IDX 21 36 75 37 69 38 71 39 22 40 74 41 68 42 67 43 23 45 55 46
REMARK SMILES IDX 35 47 54 48 36 49 39 50 53 51 72 52 37 53 38 54 52 56 73 57
REMARK SMILES IDX 40 58 24 59 25 60 33 61 26 62 32 63 34 64 31 65 27 66 28 67
REMARK SMILES IDX 29 68 30 69 56 70 57 71 65 72 58 73 64 74 66 75 63 76 59 77
REMARK SMILES IDX 60 78 61 79 62 80 41 81 42 82 50 83 43 84 49 85 51 86 48 87
REMARK SMILES IDX 44 88 45 89 46 90 47 91
REMARK H PARENT 8 6 12 25 71 44 39 55
REMARK Flexibility Score: inf
ROOT
ATOM      1  C   UNL A   1      37.804  19.725  24.908  1.00  0.00     0.042 C 
ENDROOT
BRANCH   1   2
ATOM      2  C   UNL A   1      36.508  20.523  24.992  1.00  0.00     0.117 C 
BRANCH   2   3
ATOM      3  N   UNL A   1      35.331  19.674  24.977  1.00  0.00    -0.355 N 
ATOM      4  C   UNL A   1      34.016  20.013  24.950  1.00  0.00     0.230 C 
ATOM      5  O   UNL A   1      33.195  19.104  24.801  1.00  0.00    -0.274 OA
ATOM      6  H   UNL A   1      35.514  18.707  24.989  1.00  0.00     0.163 HD
BRANCH   4   7
ATOM      7  C   UNL A   1      33.559  21.452  24.990  1.00  0.00     0.178 C 
BRANCH   7   8
ATOM      8  S   UNL A   1      33.136  22.116  26.591  1.00  0.00    -0.076 SA
BRANCH   8   9
ATOM      9  C   UNL A   1      32.302  23.623  26.508  1.00  0.00     0.191 A 
ATOM     10  C   UNL A   1      33.987  25.342  25.675  1.00  0.00     0.154 C 
ATOM     11  N   UNL A   1      32.704  24.871  26.113  1.00  0.00    -0.305 N 
ATOM     12  C   UNL A   1      31.600  25.695  26.282  1.00  0.00     0.165 A 
ATOM     13  N   UNL A   1      31.066  23.703  26.957  1.00  0.00    -0.123 NA
ATOM     14  N   UNL A   1      30.634  24.994  26.835  1.00  0.00    -0.129 NA
BRANCH  12  15
ATOM     15  C   UNL A   1      31.551  27.127  25.998  1.00  0.00     0.034 A 
ATOM     16  C   UNL A   1      31.805  28.017  27.056  1.00  0.00     0.013 A 
ATOM     17  C   UNL A   1      31.284  27.652  24.724  1.00  0.00     0.029 A 
ATOM     18  C   UNL A   1      31.844  29.395  26.836  1.00  0.00     0.001 A 
ATOM     19  C   UNL A   1      31.330  29.033  24.506  1.00  0.00     0.016 A 
ATOM     20  Br  UNL A   1      30.819  26.554  23.242  1.00  0.00    -0.050 Br
ATOM     21  C   UNL A   1      31.619  29.902  25.559  1.00  0.00     0.001 A 
ENDBRANCH  12  15
ENDBRANCH   8   9
ENDBRANCH   7   8
ENDBRANCH   4   7
ENDBRANCH   2   3
ENDBRANCH   1   2
BRANCH   1  22
ATOM     22  C   UNL A   1      38.912  20.220  25.834  1.00  0.00     0.118 C 
BRANCH  22  23
ATOM     23  N   UNL A   1      40.015  19.275  25.953  1.00  0.00    -0.352 N 
ATOM     24  C   UNL A   1      41.360  19.494  26.118  1.00  0.00     0.251 C 
ATOM     25  H   UNL A   1      39.754  18.326  25.908  1.00  0.00     0.163 HD
ATOM     26  O   UNL A   1      42.136  18.544  25.994  1.00  0.00    -0.269 OA
BRANCH  24  27
ATOM     27  C   UNL A   1      41.881  20.846  26.417  1.00  0.00     0.039 A 
ATOM     28  C   UNL A   1      42.112  21.732  25.360  1.00  0.00     0.014 A 
ATOM     29  C   UNL A   1      42.173  21.238  27.726  1.00  0.00     0.014 A 
ATOM     30  C   UNL A   1      42.569  23.026  25.623  1.00  0.00     0.010 A 
ATOM     31  C   UNL A   1      42.544  22.553  27.993  1.00  0.00     0.010 A 
ATOM     32  C   UNL A   1      42.753  23.461  26.944  1.00  0.00    -0.014 A 
BRANCH  32  33
ATOM     33  C   UNL A   1      43.175  24.855  27.248  1.00  0.00     0.031 A 
ATOM     34  C   UNL A   1      42.220  25.807  27.918  1.00  0.00     0.074 A 
ATOM     35  C   UNL A   1      44.396  25.282  26.873  1.00  0.00     0.049 A 
ATOM     36  N   UNL A   1      42.375  27.074  28.208  1.00  0.00    -0.248 NA
ATOM     37  C   UNL A   1      40.903  25.265  28.283  1.00  0.00     0.031 C 
ATOM     38  C   UNL A   1      45.402  24.468  26.190  1.00  0.00     0.029 A 
ATOM     39  N   UNL A   1      45.001  26.506  27.012  1.00  0.00    -0.354 N 
ATOM     40  C   UNL A   1      41.175  27.482  28.780  1.00  0.00     0.074 A 
ATOM     41  C   UNL A   1      40.279  26.346  28.720  1.00  0.00     0.031 C 
ATOM     42  C   UNL A   1      46.511  25.201  26.004  1.00  0.00     0.029 A 
ATOM     43  C   UNL A   1      46.279  26.553  26.505  1.00  0.00     0.049 A 
ATOM     44  H   UNL A   1      44.561  27.280  27.434  1.00  0.00     0.167 HD
ATOM     45  C   UNL A   1      40.858  28.682  29.332  1.00  0.00     0.034 A 
ATOM     46  C   UNL A   1      47.161  27.570  26.442  1.00  0.00     0.034 A 
ATOM     47  C   UNL A   1      41.761  29.807  29.375  1.00  0.00     0.049 A 
ATOM     48  C   UNL A   1      46.768  28.914  27.001  1.00  0.00     0.074 A 
ATOM     49  C   UNL A   1      41.559  31.058  29.935  1.00  0.00     0.029 A 
ATOM     50  N   UNL A   1      43.038  29.826  28.824  1.00  0.00    -0.354 N 
ATOM     51  N   UNL A   1      45.643  29.275  27.575  1.00  0.00    -0.248 NA
ATOM     52  C   UNL A   1      47.769  29.983  26.911  1.00  0.00     0.031 C 
ATOM     53  C   UNL A   1      42.677  31.851  29.655  1.00  0.00     0.029 A 
ATOM     54  C   UNL A   1      43.619  31.074  29.002  1.00  0.00     0.049 A 
ATOM     55  H   UNL A   1      43.468  29.063  28.373  1.00  0.00     0.167 HD
ATOM     56  C   UNL A   1      45.819  30.605  27.950  1.00  0.00     0.074 A 
ATOM     57  C   UNL A   1      47.160  30.975  27.544  1.00  0.00     0.031 C 
ATOM     58  C   UNL A   1      44.953  31.439  28.582  1.00  0.00     0.034 A 
BRANCH  45  59
ATOM     59  C   UNL A   1      39.462  28.831  29.898  1.00  0.00     0.023 A 
ATOM     60  C   UNL A   1      38.412  29.373  29.135  1.00  0.00     0.031 A 
ATOM     61  C   UNL A   1      39.188  28.488  31.234  1.00  0.00     0.131 A 
ATOM     62  C   UNL A   1      37.178  29.657  29.739  1.00  0.00     0.055 A 
ATOM     63  C   UNL A   1      37.924  28.678  31.800  1.00  0.00     0.041 A 
ATOM     64  F   UNL A   1      40.150  27.985  32.024  1.00  0.00    -0.206 F 
ATOM     65  C   UNL A   1      36.917  29.288  31.059  1.00  0.00     0.022 A 
BRANCH  62  66
ATOM     66  S   UNL A   1      35.993  30.692  28.833  1.00  0.00     0.124 S 
ATOM     67  O   UNL A   1      36.880  31.463  27.964  1.00  0.00    -0.237 OA
ATOM     68  O   UNL A   1      35.152  29.702  28.170  1.00  0.00    -0.237 OA
ATOM     69  O   UNL A   1      35.339  31.466  29.885  1.00  0.00    -0.744 OA
ENDBRANCH  62  66
ENDBRANCH  45  59
BRANCH  46  70
ATOM     70  C   UNL A   1      48.507  27.362  25.836  1.00  0.00     0.023 A 
ATOM     71  C   UNL A   1      48.707  27.526  24.457  1.00  0.00     0.031 A 
ATOM     72  C   UNL A   1      49.608  26.971  26.620  1.00  0.00     0.131 A 
ATOM     73  C   UNL A   1      49.966  27.260  23.895  1.00  0.00     0.055 A 
ATOM     74  C   UNL A   1      50.871  26.762  26.065  1.00  0.00     0.041 A 
ATOM     75  F   UNL A   1      49.472  26.803  27.946  1.00  0.00    -0.206 F 
ATOM     76  C   UNL A   1      51.053  26.895  24.692  1.00  0.00     0.022 A 
BRANCH  73  77
ATOM     77  S   UNL A   1      50.144  27.330  22.091  1.00  0.00     0.124 S 
ATOM     78  O   UNL A   1      49.038  26.488  21.652  1.00  0.00    -0.237 OA
ATOM     79  O   UNL A   1      50.008  28.759  21.827  1.00  0.00    -0.237 OA
ATOM     80  O   UNL A   1      51.478  26.780  21.860  1.00  0.00    -0.744 OA
ENDBRANCH  73  77
ENDBRANCH  46  70
BRANCH  58  81
ATOM     81  C   UNL A   1      45.457  32.823  28.923  1.00  0.00     0.023 A 
ATOM     82  C   UNL A   1      45.275  33.919  28.061  1.00  0.00     0.031 A 
ATOM     83  C   UNL A   1      46.149  33.042  30.129  1.00  0.00     0.131 A 
ATOM     84  C   UNL A   1      45.831  35.166  28.387  1.00  0.00     0.055 A 
ATOM     85  C   UNL A   1      46.639  34.301  30.480  1.00  0.00     0.041 A 
ATOM     86  F   UNL A   1      46.359  32.033  30.990  1.00  0.00    -0.206 F 
ATOM     87  C   UNL A   1      46.494  35.369  29.601  1.00  0.00     0.022 A 
BRANCH  84  88
ATOM     88  S   UNL A   1      45.769  36.498  27.156  1.00  0.00     0.124 S 
ATOM     89  O   UNL A   1      46.241  35.820  25.953  1.00  0.00    -0.237 OA
ATOM     90  O   UNL A   1      44.358  36.869  27.168  1.00  0.00    -0.237 OA
ATOM     91  O   UNL A   1      46.679  37.507  27.697  1.00  0.00    -0.744 OA
ENDBRANCH  84  88
ENDBRANCH  58  81
ENDBRANCH  32  33
ENDBRANCH  24  27
ENDBRANCH  22  23
ENDBRANCH   1  22
TORSDOF 16
ENDMDL
MODEL 3
REMARK VINA RESULT:     -11.6      2.266      3.096
REMARK SMILES Cn1c(SCC(=O)NCCCNC(=O)c2ccc(-c3c4nc(c(-c5cc(S(=O)(=O)[O-])ccc5F)c5ccc([nH]5)c(-c5cc(S(=O)(=O)[O-])ccc5F)c5nc(c(-c6cc(S(=O)(=O)[O-])ccc6F)c6ccc3[nH]6)C=C5)C=C4)cc2)nnc1-c1ccccc1Br
REMARK SMILES IDX 10 1 9 2 8 3 6 4 7 5 5 7 4 8 3 9 1 10 2 11 80 12 78 13 79 14
REMARK SMILES IDX 81 15 82 16 86 17 83 18 85 19 87 20 84 21 11 22 12 23 13 24
REMARK SMILES IDX 14 26 15 27 16 28 77 29 17 30 76 31 18 32 19 33 20 34 70 35
REMARK SMILES IDX 21 36 75 37 69 38 71 39 22 40 74 41 68 42 67 43 23 45 55 46
REMARK SMILES IDX 35 47 54 48 36 49 39 50 53 51 72 52 37 53 38 54 52 56 73 57
REMARK SMILES IDX 40 58 24 59 25 60 33 61 26 62 32 63 34 64 31 65 27 66 28 67
REMARK SMILES IDX 29 68 30 69 56 70 57 71 65 72 58 73 64 74 66 75 63 76 59 77
REMARK SMILES IDX 60 78 61 79 62 80 41 81 42 82 50 83 43 84 49 85 51 86 48 87
REMARK SMILES IDX 44 88 45 89 46 90 47 91
REMARK H PARENT 8 6 12 25 71 44 39 55
REMARK Flexibility Score: inf
ROOT
ATOM      1  C   UNL A   1      31.389  31.903  26.474  1.00  0.00     0.042 C 
ENDROOT
BRANCH   1   2
ATOM      2  C   UNL A   1      31.451  30.520  25.837  1.00  0.00     0.117 C 
BRANCH   2   3
ATOM      3  N   UNL A   1      30.655  30.431  24.625  1.00  0.00    -0.355 N 
ATOM      4  C   UNL A   1      30.496  29.393  23.765  1.00  0.00     0.230 C 
ATOM      5  O   UNL A   1      29.652  29.513  22.873  1.00  0.00    -0.274 OA
ATOM      6  H   UNL A   1      30.156  31.247  24.392  1.00  0.00     0.163 HD
BRANCH   4   7
ATOM      7  C   UNL A   1      31.237  28.087  23.940  1.00  0.00     0.178 C 
BRANCH   7   8
ATOM      8  S   UNL A   1      32.848  27.971  23.184  1.00  0.00    -0.076 SA
BRANCH   8   9
ATOM      9  C   UNL A   1      33.423  26.351  23.044  1.00  0.00     0.191 A 
ATOM     10  C   UNL A   1      34.175  25.642  25.373  1.00  0.00     0.154 C 
ATOM     11  N   UNL A   1      33.923  25.474  23.969  1.00  0.00    -0.305 N 
ATOM     12  C   UNL A   1      34.239  24.321  23.265  1.00  0.00     0.165 A 
ATOM     13  N   UNL A   1      33.504  25.795  21.852  1.00  0.00    -0.123 NA
ATOM     14  N   UNL A   1      34.028  24.540  21.985  1.00  0.00    -0.129 NA
BRANCH  12  15
ATOM     15  C   UNL A   1      34.815  23.104  23.832  1.00  0.00     0.034 A 
ATOM     16  C   UNL A   1      36.207  22.934  23.749  1.00  0.00     0.013 A 
ATOM     17  C   UNL A   1      34.050  22.114  24.469  1.00  0.00     0.029 A 
ATOM     18  C   UNL A   1      36.828  21.828  24.334  1.00  0.00     0.001 A 
ATOM     19  C   UNL A   1      34.677  21.010  25.060  1.00  0.00     0.016 A 
ATOM     20  Br  UNL A   1      32.151  22.179  24.547  1.00  0.00    -0.050 Br
ATOM     21  C   UNL A   1      36.064  20.873  25.000  1.00  0.00     0.001 A 
ENDBRANCH  12  15
ENDBRANCH   8   9
ENDBRANCH   7   8
ENDBRANCH   4   7
ENDBRANCH   2   3
ENDBRANCH   1   2
BRANCH   1  22
ATOM     22  C   UNL A   1      32.728  32.422  26.990  1.00  0.00     0.118 C 
BRANCH  22  23
ATOM     23  N   UNL A   1      32.652  33.788  27.491  1.00  0.00    -0.352 N 
ATOM     24  C   UNL A   1      33.338  34.400  28.511  1.00  0.00     0.251 C 
ATOM     25  H   UNL A   1      32.004  34.365  27.024  1.00  0.00     0.163 HD
ATOM     26  O   UNL A   1      32.966  35.512  28.892  1.00  0.00    -0.269 OA
BRANCH  24  27
ATOM     27  C   UNL A   1      34.488  33.737  29.162  1.00  0.00     0.039 A 
ATOM     28  C   UNL A   1      34.246  32.729  30.100  1.00  0.00     0.014 A 
ATOM     29  C   UNL A   1      35.802  34.121  28.879  1.00  0.00     0.014 A 
ATOM     30  C   UNL A   1      35.319  32.064  30.700  1.00  0.00     0.010 A 
ATOM     31  C   UNL A   1      36.867  33.399  29.411  1.00  0.00     0.010 A 
ATOM     32  C   UNL A   1      36.640  32.367  30.333  1.00  0.00    -0.014 A 
BRANCH  32  33
ATOM     33  C   UNL A   1      37.793  31.625  30.910  1.00  0.00     0.031 A 
ATOM     34  C   UNL A   1      38.268  31.930  32.306  1.00  0.00     0.074 A 
ATOM     35  C   UNL A   1      38.448  30.717  30.161  1.00  0.00     0.049 A 
ATOM     36  N   UNL A   1      39.290  31.441  32.963  1.00  0.00    -0.248 NA
ATOM     37  C   UNL A   1      37.505  32.943  33.051  1.00  0.00     0.031 C 
ATOM     38  C   UNL A   1      38.108  30.354  28.786  1.00  0.00     0.029 A 
ATOM     39  N   UNL A   1      39.538  29.935  30.449  1.00  0.00    -0.354 N 
ATOM     40  C   UNL A   1      39.298  32.092  34.191  1.00  0.00     0.074 A 
ATOM     41  C   UNL A   1      38.227  33.066  34.152  1.00  0.00     0.031 C 
ATOM     42  C   UNL A   1      38.944  29.393  28.363  1.00  0.00     0.029 A 
ATOM     43  C   UNL A   1      39.915  29.109  29.415  1.00  0.00     0.049 A 
ATOM     44  H   UNL A   1      40.007  29.961  31.315  1.00  0.00     0.167 HD
ATOM     45  C   UNL A   1      40.104  31.879  35.263  1.00  0.00     0.034 A 
ATOM     46  C   UNL A   1      40.933  28.230  29.321  1.00  0.00     0.034 A 
ATOM     47  C   UNL A   1      41.173  30.910  35.281  1.00  0.00     0.049 A 
ATOM     48  C   UNL A   1      41.857  28.053  30.499  1.00  0.00     0.074 A 
ATOM     49  C   UNL A   1      42.031  30.587  36.320  1.00  0.00     0.029 A 
ATOM     50  N   UNL A   1      41.545  30.113  34.204  1.00  0.00    -0.354 N 
ATOM     51  N   UNL A   1      41.830  28.647  31.670  1.00  0.00    -0.248 NA
ATOM     52  C   UNL A   1      42.943  27.080  30.343  1.00  0.00     0.031 C 
ATOM     53  C   UNL A   1      42.964  29.657  35.848  1.00  0.00     0.029 A 
ATOM     54  C   UNL A   1      42.637  29.327  34.543  1.00  0.00     0.049 A 
ATOM     55  H   UNL A   1      41.097  30.107  33.327  1.00  0.00     0.167 HD
ATOM     56  C   UNL A   1      42.872  28.088  32.404  1.00  0.00     0.074 A 
ATOM     57  C   UNL A   1      43.501  27.105  31.545  1.00  0.00     0.031 C 
ATOM     58  C   UNL A   1      43.267  28.356  33.676  1.00  0.00     0.034 A 
BRANCH  45  59
ATOM     59  C   UNL A   1      39.865  32.741  36.485  1.00  0.00     0.023 A 
ATOM     60  C   UNL A   1      39.043  32.309  37.542  1.00  0.00     0.031 A 
ATOM     61  C   UNL A   1      40.412  34.034  36.570  1.00  0.00     0.131 A 
ATOM     62  C   UNL A   1      38.704  33.194  38.576  1.00  0.00     0.055 A 
ATOM     63  C   UNL A   1      40.152  34.875  37.657  1.00  0.00     0.041 A 
ATOM     64  F   UNL A   1      41.188  34.516  35.588  1.00  0.00    -0.206 F 
ATOM     65  C   UNL A   1      39.275  34.465  38.656  1.00  0.00     0.022 A 
BRANCH  62  66
ATOM     66  S   UNL A   1      37.357  32.730  39.701  1.00  0.00     0.124 S 
ATOM     67  O   UNL A   1      37.392  33.824  40.669  1.00  0.00    -0.237 OA
ATOM     68  O   UNL A   1      36.200  32.702  38.813  1.00  0.00    -0.237 OA
ATOM     69  O   UNL A   1      37.778  31.433  40.223  1.00  0.00    -0.744 OA
ENDBRANCH  62  66
ENDBRANCH  45  59
BRANCH  46  70
ATOM     70  C   UNL A   1      41.131  27.440  28.072  1.00  0.00     0.023 A 
ATOM     71  C   UNL A   1      40.794  26.079  28.022  1.00  0.00     0.031 A 
ATOM     72  C   UNL A   1      41.685  28.025  26.919  1.00  0.00     0.131 A 
ATOM     73  C   UNL A   1      41.051  25.336  26.860  1.00  0.00     0.055 A 
ATOM     74  C   UNL A   1      41.888  27.295  25.748  1.00  0.00     0.041 A 
ATOM     75  F   UNL A   1      42.024  29.325  26.913  1.00  0.00    -0.206 F 
ATOM     76  C   UNL A   1      41.581  25.938  25.716  1.00  0.00     0.022 A 
BRANCH  73  77
ATOM     77  S   UNL A   1      40.747  23.547  26.887  1.00  0.00     0.124 S 
ATOM     78  O   UNL A   1      41.120  23.205  28.254  1.00  0.00    -0.237 OA
ATOM     79  O   UNL A   1      39.325  23.475  26.572  1.00  0.00    -0.237 OA
ATOM     80  O   UNL A   1      41.640  23.036  25.849  1.00  0.00    -0.744 OA
ENDBRANCH  73  77
ENDBRANCH  46  70
BRANCH  58  81
ATOM     81  C   UNL A   1      44.402  27.528  34.233  1.00  0.00     0.023 A 
ATOM     82  C   UNL A   1      44.185  26.288  34.859  1.00  0.00     0.031 A 
ATOM     83  C   UNL A   1      45.725  28.002  34.150  1.00  0.00     0.131 A 
ATOM     84  C   UNL A   1      45.264  25.594  35.430  1.00  0.00     0.055 A 
ATOM     85  C   UNL A   1      46.802  27.274  34.659  1.00  0.00     0.041 A 
ATOM     86  F   UNL A   1      45.993  29.182  33.570  1.00  0.00    -0.206 F 
ATOM     87  C   UNL A   1      46.573  26.069  35.316  1.00  0.00     0.022 A 
BRANCH  84  88
ATOM     88  S   UNL A   1      44.923  24.111  36.418  1.00  0.00     0.124 S 
ATOM     89  O   UNL A   1      43.929  23.423  35.599  1.00  0.00    -0.237 OA
ATOM     90  O   UNL A   1      46.235  23.479  36.497  1.00  0.00    -0.237 OA
ATOM     91  O   UNL A   1      44.419  24.649  37.681  1.00  0.00    -0.744 OA
ENDBRANCH  84  88
ENDBRANCH  58  81
ENDBRANCH  32  33
ENDBRANCH  24  27
ENDBRANCH  22  23
ENDBRANCH   1  22
TORSDOF 16
ENDMDL
