MODEL 1
REMARK VINA RESULT:     -11.6      0.000      0.000
REMARK SMILES CC(C)c1ccc(S[C@H](C)[C@@H](C)C(=O)NCCCNC(=O)c2ccc(-c3c4nc(c(-c5cc(S(=O)(=O)[O-])ccc5F)c5ccc([nH]5)c(-c5cc(S(=O)(=O)[O-])ccc5F)c5nc(c(-c6cc(S(=O)(=O)[O-])ccc6F)c6ccc3[nH]6)C=C5)C=C4)cc2)cc1
REMARK SMILES IDX 16 1 15 2 13 3 14 4 11 6 12 7 9 8 10 9 8 10 7 11 4 12 5 13
REMARK SMILES IDX 86 14 6 15 85 16 2 17 1 18 3 19 17 20 18 21 19 22 20 23
REMARK SMILES IDX 21 25 22 26 23 27 84 28 24 29 83 30 25 31 26 32 27 33 77 34
REMARK SMILES IDX 28 35 82 36 76 37 78 38 29 39 81 40 75 41 74 42 30 44 62 45
REMARK SMILES IDX 42 46 61 47 43 48 46 49 60 50 79 51 44 52 45 53 59 55 80 56
REMARK SMILES IDX 47 57 31 58 32 59 40 60 33 61 39 62 41 63 38 64 34 65 35 66
REMARK SMILES IDX 36 67 37 68 63 69 64 70 72 71 65 72 71 73 73 74 70 75 66 76
REMARK SMILES IDX 67 77 68 78 69 79 48 80 49 81 57 82 50 83 56 84 58 85 55 86
REMARK SMILES IDX 51 87 52 88 53 89 54 90
REMARK H PARENT 15 5 19 24 78 43 46 54
REMARK Flexibility Score: inf
ROOT
ATOM      1  C   UNL A   1      32.576  27.064  26.454  1.00  0.00     0.117 C 
ENDROOT
BRANCH   1   2
ATOM      2  N   UNL A   1      31.639  26.044  26.888  1.00  0.00    -0.356 N 
ATOM      3  C   UNL A   1      31.511  24.736  26.542  1.00  0.00     0.223 C 
ATOM      4  O   UNL A   1      30.618  24.087  27.092  1.00  0.00    -0.275 OA
ATOM      5  H   UNL A   1      30.979  26.354  27.549  1.00  0.00     0.163 HD
BRANCH   3   6
ATOM      6  C   UNL A   1      32.475  24.065  25.572  1.00  0.00     0.088 C 
ATOM      7  C   UNL A   1      33.807  23.809  26.294  1.00  0.00     0.019 C 
BRANCH   6   8
ATOM      8  C   UNL A   1      32.533  24.769  24.182  1.00  0.00     0.061 C 
ATOM      9  C   UNL A   1      33.634  24.190  23.303  1.00  0.00     0.020 C 
BRANCH   8  10
ATOM     10  S   UNL A   1      30.781  24.718  23.511  1.00  0.00    -0.122 SA
BRANCH  10  11
ATOM     11  C   UNL A   1      30.096  26.360  23.421  1.00  0.00     0.008 A 
ATOM     12  C   UNL A   1      28.683  28.778  22.846  1.00  0.00    -0.045 A 
ATOM     13  C   UNL A   1      30.028  28.612  22.504  1.00  0.00     0.005 A 
ATOM     14  C   UNL A   1      28.077  27.734  23.563  1.00  0.00     0.005 A 
ATOM     15  C   UNL A   1      30.700  27.412  22.746  1.00  0.00     0.015 A 
ATOM     16  C   UNL A   1      28.773  26.544  23.842  1.00  0.00     0.015 A 
BRANCH  12  17
ATOM     17  C   UNL A   1      27.899  30.017  22.427  1.00  0.00     0.013 C 
ATOM     18  C   UNL A   1      27.579  30.978  23.587  1.00  0.00     0.012 C 
ATOM     19  C   UNL A   1      28.640  30.823  21.349  1.00  0.00     0.012 C 
ENDBRANCH  12  17
ENDBRANCH  10  11
ENDBRANCH   8  10
ENDBRANCH   6   8
ENDBRANCH   3   6
ENDBRANCH   1   2
BRANCH   1  20
ATOM     20  C   UNL A   1      31.873  28.353  26.050  1.00  0.00     0.042 C 
BRANCH  20  21
ATOM     21  C   UNL A   1      32.815  29.433  25.538  1.00  0.00     0.118 C 
BRANCH  21  22
ATOM     22  N   UNL A   1      32.417  30.767  25.966  1.00  0.00    -0.352 N 
ATOM     23  C   UNL A   1      32.943  31.570  26.946  1.00  0.00     0.251 C 
ATOM     24  H   UNL A   1      31.654  31.151  25.478  1.00  0.00     0.163 HD
ATOM     25  O   UNL A   1      32.318  32.568  27.304  1.00  0.00    -0.269 OA
BRANCH  23  26
ATOM     26  C   UNL A   1      34.234  31.228  27.580  1.00  0.00     0.039 A 
ATOM     27  C   UNL A   1      35.154  32.247  27.838  1.00  0.00     0.014 A 
ATOM     28  C   UNL A   1      34.543  29.907  27.914  1.00  0.00     0.014 A 
ATOM     29  C   UNL A   1      36.351  31.948  28.494  1.00  0.00     0.010 A 
ATOM     30  C   UNL A   1      35.690  29.627  28.650  1.00  0.00     0.010 A 
ATOM     31  C   UNL A   1      36.610  30.643  28.944  1.00  0.00    -0.014 A 
BRANCH  31  32
ATOM     32  C   UNL A   1      37.838  30.320  29.716  1.00  0.00     0.031 A 
ATOM     33  C   UNL A   1      38.898  29.436  29.114  1.00  0.00     0.074 A 
ATOM     34  C   UNL A   1      37.972  30.775  30.978  1.00  0.00     0.049 A 
ATOM     35  N   UNL A   1      39.998  28.980  29.652  1.00  0.00    -0.248 NA
ATOM     36  C   UNL A   1      38.674  28.984  27.731  1.00  0.00     0.031 C 
ATOM     37  C   UNL A   1      36.999  31.615  31.681  1.00  0.00     0.029 A 
ATOM     38  N   UNL A   1      38.978  30.599  31.895  1.00  0.00    -0.354 N 
ATOM     39  C   UNL A   1      40.594  28.182  28.680  1.00  0.00     0.074 A 
ATOM     40  C   UNL A   1      39.696  28.162  27.546  1.00  0.00     0.031 C 
ATOM     41  C   UNL A   1      37.473  31.911  32.901  1.00  0.00     0.029 A 
ATOM     42  C   UNL A   1      38.754  31.238  33.093  1.00  0.00     0.049 A 
ATOM     43  H   UNL A   1      39.784  30.065  31.713  1.00  0.00     0.167 HD
ATOM     44  C   UNL A   1      41.791  27.546  28.721  1.00  0.00     0.034 A 
ATOM     45  C   UNL A   1      39.490  31.270  34.222  1.00  0.00     0.034 A 
ATOM     46  C   UNL A   1      42.678  27.581  29.857  1.00  0.00     0.049 A 
ATOM     47  C   UNL A   1      40.793  30.512  34.259  1.00  0.00     0.074 A 
ATOM     48  C   UNL A   1      43.930  27.006  29.991  1.00  0.00     0.029 A 
ATOM     49  N   UNL A   1      42.406  28.220  31.062  1.00  0.00    -0.354 N 
ATOM     50  N   UNL A   1      41.359  29.791  33.319  1.00  0.00    -0.248 NA
ATOM     51  C   UNL A   1      41.563  30.582  35.509  1.00  0.00     0.031 C 
ATOM     52  C   UNL A   1      44.380  27.230  31.296  1.00  0.00     0.029 A 
ATOM     53  C   UNL A   1      43.452  28.024  31.951  1.00  0.00     0.049 A 
ATOM     54  H   UNL A   1      41.591  28.737  31.254  1.00  0.00     0.167 HD
ATOM     55  C   UNL A   1      42.568  29.352  33.853  1.00  0.00     0.074 A 
ATOM     56  C   UNL A   1      42.653  29.901  35.190  1.00  0.00     0.031 C 
ATOM     57  C   UNL A   1      43.523  28.570  33.287  1.00  0.00     0.034 A 
BRANCH  44  58
ATOM     58  C   UNL A   1      42.194  26.743  27.507  1.00  0.00     0.023 A 
ATOM     59  C   UNL A   1      41.888  25.375  27.390  1.00  0.00     0.031 A 
ATOM     60  C   UNL A   1      42.908  27.347  26.456  1.00  0.00     0.131 A 
ATOM     61  C   UNL A   1      42.353  24.643  26.287  1.00  0.00     0.055 A 
ATOM     62  C   UNL A   1      43.294  26.632  25.320  1.00  0.00     0.041 A 
ATOM     63  F   UNL A   1      43.250  28.644  26.518  1.00  0.00    -0.206 F 
ATOM     64  C   UNL A   1      43.030  25.268  25.237  1.00  0.00     0.022 A 
BRANCH  61  65
ATOM     65  S   UNL A   1      42.187  22.838  26.315  1.00  0.00     0.124 S 
ATOM     66  O   UNL A   1      42.723  22.472  25.007  1.00  0.00    -0.237 OA
ATOM     67  O   UNL A   1      43.002  22.463  27.466  1.00  0.00    -0.237 OA
ATOM     68  O   UNL A   1      40.749  22.628  26.474  1.00  0.00    -0.744 OA
ENDBRANCH  61  65
ENDBRANCH  44  58
BRANCH  45  69
ATOM     69  C   UNL A   1      39.021  32.037  35.412  1.00  0.00     0.023 A 
ATOM     70  C   UNL A   1      38.419  31.382  36.499  1.00  0.00     0.031 A 
ATOM     71  C   UNL A   1      39.123  33.439  35.463  1.00  0.00     0.131 A 
ATOM     72  C   UNL A   1      37.896  32.130  37.565  1.00  0.00     0.055 A 
ATOM     73  C   UNL A   1      38.656  34.174  36.553  1.00  0.00     0.041 A 
ATOM     74  F   UNL A   1      39.691  34.116  34.452  1.00  0.00    -0.206 F 
ATOM     75  C   UNL A   1      38.024  33.521  37.607  1.00  0.00     0.022 A 
BRANCH  72  76
ATOM     76  S   UNL A   1      36.958  31.266  38.853  1.00  0.00     0.124 S 
ATOM     77  O   UNL A   1      35.733  32.055  38.907  1.00  0.00    -0.237 OA
ATOM     78  O   UNL A   1      36.836  29.925  38.291  1.00  0.00    -0.237 OA
ATOM     79  O   UNL A   1      37.820  31.370  40.029  1.00  0.00    -0.744 OA
ENDBRANCH  72  76
ENDBRANCH  45  69
BRANCH  57  80
ATOM     80  C   UNL A   1      44.769  28.309  34.098  1.00  0.00     0.023 A 
ATOM     81  C   UNL A   1      45.886  29.162  34.043  1.00  0.00     0.031 A 
ATOM     82  C   UNL A   1      44.842  27.180  34.935  1.00  0.00     0.131 A 
ATOM     83  C   UNL A   1      47.046  28.841  34.762  1.00  0.00     0.055 A 
ATOM     84  C   UNL A   1      45.975  26.904  35.702  1.00  0.00     0.041 A 
ATOM     85  F   UNL A   1      43.809  26.328  35.025  1.00  0.00    -0.206 F 
ATOM     86  C   UNL A   1      47.091  27.730  35.607  1.00  0.00     0.022 A 
BRANCH  83  87
ATOM     87  S   UNL A   1      48.537  29.842  34.499  1.00  0.00     0.124 S 
ATOM     88  O   UNL A   1      48.407  30.856  35.542  1.00  0.00    -0.237 OA
ATOM     89  O   UNL A   1      49.606  28.867  34.687  1.00  0.00    -0.237 OA
ATOM     90  O   UNL A   1      48.381  30.335  33.132  1.00  0.00    -0.744 OA
ENDBRANCH  83  87
ENDBRANCH  57  80
ENDBRANCH  31  32
ENDBRANCH  23  26
ENDBRANCH  21  22
ENDBRANCH  20  21
ENDBRANCH   1  20
TORSDOF 17
ENDMDL
MODEL 2
REMARK VINA RESULT:     -11.5      2.009      2.270
REMARK SMILES CC(C)c1ccc(S[C@H](C)[C@@H](C)C(=O)NCCCNC(=O)c2ccc(-c3c4nc(c(-c5cc(S(=O)(=O)[O-])ccc5F)c5ccc([nH]5)c(-c5cc(S(=O)(=O)[O-])ccc5F)c5nc(c(-c6cc(S(=O)(=O)[O-])ccc6F)c6ccc3[nH]6)C=C5)C=C4)cc2)cc1
REMARK SMILES IDX 16 1 15 2 13 3 14 4 11 6 12 7 9 8 10 9 8 10 7 11 4 12 5 13
REMARK SMILES IDX 86 14 6 15 85 16 2 17 1 18 3 19 17 20 18 21 19 22 20 23
REMARK SMILES IDX 21 25 22 26 23 27 84 28 24 29 83 30 25 31 26 32 27 33 77 34
REMARK SMILES IDX 28 35 82 36 76 37 78 38 29 39 81 40 75 41 74 42 30 44 62 45
REMARK SMILES IDX 42 46 61 47 43 48 46 49 60 50 79 51 44 52 45 53 59 55 80 56
REMARK SMILES IDX 47 57 31 58 32 59 40 60 33 61 39 62 41 63 38 64 34 65 35 66
REMARK SMILES IDX 36 67 37 68 63 69 64 70 72 71 65 72 71 73 73 74 70 75 66 76
REMARK SMILES IDX 67 77 68 78 69 79 48 80 49 81 57 82 50 83 56 84 58 85 55 86
REMARK SMILES IDX 51 87 52 88 53 89 54 90
REMARK H PARENT 15 5 19 24 78 43 46 54
REMARK Flexibility Score: inf
ROOT
ATOM      1  C   UNL A   1      32.759  27.106  26.352  1.00  0.00     0.117 C 
ENDROOT
BRANCH   1   2
ATOM      2  N   UNL A   1      31.895  26.062  26.873  1.00  0.00    -0.356 N 
ATOM      3  C   UNL A   1      31.762  24.753  26.531  1.00  0.00     0.223 C 
ATOM      4  O   UNL A   1      30.945  24.080  27.165  1.00  0.00    -0.275 OA
ATOM      5  H   UNL A   1      31.300  26.353  27.600  1.00  0.00     0.163 HD
BRANCH   3   6
ATOM      6  C   UNL A   1      32.635  24.110  25.462  1.00  0.00     0.088 C 
ATOM      7  C   UNL A   1      34.041  23.885  26.040  1.00  0.00     0.019 C 
BRANCH   6   8
ATOM      8  C   UNL A   1      32.530  24.821  24.078  1.00  0.00     0.061 C 
ATOM      9  C   UNL A   1      33.525  24.250  23.075  1.00  0.00     0.020 C 
BRANCH   8  10
ATOM     10  S   UNL A   1      30.713  24.764  23.613  1.00  0.00    -0.122 SA
BRANCH  10  11
ATOM     11  C   UNL A   1      30.049  26.412  23.478  1.00  0.00     0.008 A 
ATOM     12  C   UNL A   1      28.681  28.836  22.826  1.00  0.00    -0.045 A 
ATOM     13  C   UNL A   1      30.034  28.652  22.529  1.00  0.00     0.005 A 
ATOM     14  C   UNL A   1      28.041  27.810  23.538  1.00  0.00     0.005 A 
ATOM     15  C   UNL A   1      30.685  27.449  22.808  1.00  0.00     0.015 A 
ATOM     16  C   UNL A   1      28.715  26.617  23.855  1.00  0.00     0.015 A 
BRANCH  12  17
ATOM     17  C   UNL A   1      27.924  30.078  22.366  1.00  0.00     0.013 C 
ATOM     18  C   UNL A   1      27.525  31.029  23.510  1.00  0.00     0.012 C 
ATOM     19  C   UNL A   1      28.733  30.895  21.347  1.00  0.00     0.012 C 
ENDBRANCH  12  17
ENDBRANCH  10  11
ENDBRANCH   8  10
ENDBRANCH   6   8
ENDBRANCH   3   6
ENDBRANCH   1   2
BRANCH   1  20
ATOM     20  C   UNL A   1      32.019  28.425  26.175  1.00  0.00     0.042 C 
BRANCH  20  21
ATOM     21  C   UNL A   1      32.868  29.528  25.558  1.00  0.00     0.118 C 
BRANCH  21  22
ATOM     22  N   UNL A   1      32.480  30.853  26.020  1.00  0.00    -0.352 N 
ATOM     23  C   UNL A   1      32.997  31.617  27.036  1.00  0.00     0.251 C 
ATOM     24  H   UNL A   1      31.733  31.264  25.528  1.00  0.00     0.163 HD
ATOM     25  O   UNL A   1      32.378  32.612  27.413  1.00  0.00    -0.269 OA
BRANCH  23  26
ATOM     26  C   UNL A   1      34.268  31.235  27.686  1.00  0.00     0.039 A 
ATOM     27  C   UNL A   1      35.320  32.154  27.711  1.00  0.00     0.014 A 
ATOM     28  C   UNL A   1      34.430  29.972  28.263  1.00  0.00     0.014 A 
ATOM     29  C   UNL A   1      36.505  31.831  28.377  1.00  0.00     0.010 A 
ATOM     30  C   UNL A   1      35.572  29.690  29.005  1.00  0.00     0.010 A 
ATOM     31  C   UNL A   1      36.626  30.613  29.066  1.00  0.00    -0.014 A 
BRANCH  31  32
ATOM     32  C   UNL A   1      37.845  30.284  29.849  1.00  0.00     0.031 A 
ATOM     33  C   UNL A   1      38.855  29.312  29.301  1.00  0.00     0.074 A 
ATOM     34  C   UNL A   1      38.014  30.817  31.076  1.00  0.00     0.049 A 
ATOM     35  N   UNL A   1      39.938  28.841  29.861  1.00  0.00    -0.248 NA
ATOM     36  C   UNL A   1      38.595  28.779  27.953  1.00  0.00     0.031 C 
ATOM     37  C   UNL A   1      37.088  31.747  31.728  1.00  0.00     0.029 A 
ATOM     38  N   UNL A   1      39.019  30.655  31.996  1.00  0.00    -0.354 N 
ATOM     39  C   UNL A   1      40.486  27.951  28.941  1.00  0.00     0.074 A 
ATOM     40  C   UNL A   1      39.575  27.898  27.817  1.00  0.00     0.031 C 
ATOM     41  C   UNL A   1      37.589  32.103  32.921  1.00  0.00     0.029 A 
ATOM     42  C   UNL A   1      38.839  31.383  33.149  1.00  0.00     0.049 A 
ATOM     43  H   UNL A   1      39.798  30.071  31.845  1.00  0.00     0.167 HD
ATOM     44  C   UNL A   1      41.651  27.263  29.016  1.00  0.00     0.034 A 
ATOM     45  C   UNL A   1      39.587  31.456  34.268  1.00  0.00     0.034 A 
ATOM     46  C   UNL A   1      42.551  27.331  30.141  1.00  0.00     0.049 A 
ATOM     47  C   UNL A   1      40.854  30.641  34.347  1.00  0.00     0.074 A 
ATOM     48  C   UNL A   1      43.776  26.708  30.305  1.00  0.00     0.029 A 
ATOM     49  N   UNL A   1      42.322  28.063  31.301  1.00  0.00    -0.354 N 
ATOM     50  N   UNL A   1      41.374  29.831  33.453  1.00  0.00    -0.248 NA
ATOM     51  C   UNL A   1      41.639  30.758  35.583  1.00  0.00     0.031 C 
ATOM     52  C   UNL A   1      44.249  26.997  31.588  1.00  0.00     0.029 A 
ATOM     53  C   UNL A   1      43.367  27.878  32.194  1.00  0.00     0.049 A 
ATOM     54  H   UNL A   1      41.534  28.630  31.464  1.00  0.00     0.167 HD
ATOM     55  C   UNL A   1      42.567  29.372  34.008  1.00  0.00     0.074 A 
ATOM     56  C   UNL A   1      42.692  30.006  35.304  1.00  0.00     0.031 C 
ATOM     57  C   UNL A   1      43.478  28.509  33.489  1.00  0.00     0.034 A 
BRANCH  44  58
ATOM     58  C   UNL A   1      42.003  26.361  27.857  1.00  0.00     0.023 A 
ATOM     59  C   UNL A   1      41.618  25.008  27.828  1.00  0.00     0.031 A 
ATOM     60  C   UNL A   1      42.746  26.854  26.769  1.00  0.00     0.131 A 
ATOM     61  C   UNL A   1      42.037  24.181  26.776  1.00  0.00     0.055 A 
ATOM     62  C   UNL A   1      43.086  26.046  25.682  1.00  0.00     0.041 A 
ATOM     63  F   UNL A   1      43.162  28.131  26.747  1.00  0.00    -0.206 F 
ATOM     64  C   UNL A   1      42.744  24.697  25.687  1.00  0.00     0.022 A 
BRANCH  61  65
ATOM     65  S   UNL A   1      41.768  22.394  26.921  1.00  0.00     0.124 S 
ATOM     66  O   UNL A   1      42.876  21.998  27.786  1.00  0.00    -0.237 OA
ATOM     67  O   UNL A   1      40.437  22.321  27.513  1.00  0.00    -0.237 OA
ATOM     68  O   UNL A   1      41.864  21.920  25.541  1.00  0.00    -0.744 OA
ENDBRANCH  61  65
ENDBRANCH  44  58
BRANCH  45  69
ATOM     69  C   UNL A   1      39.168  32.323  35.407  1.00  0.00     0.023 A 
ATOM     70  C   UNL A   1      39.639  33.641  35.520  1.00  0.00     0.031 A 
ATOM     71  C   UNL A   1      38.329  31.835  36.424  1.00  0.00     0.131 A 
ATOM     72  C   UNL A   1      39.312  34.407  36.649  1.00  0.00     0.055 A 
ATOM     73  C   UNL A   1      37.956  32.621  37.516  1.00  0.00     0.041 A 
ATOM     74  F   UNL A   1      37.848  30.582  36.366  1.00  0.00    -0.206 F 
ATOM     75  C   UNL A   1      38.461  33.911  37.640  1.00  0.00     0.022 A 
BRANCH  72  76
ATOM     76  S   UNL A   1      40.093  36.030  36.853  1.00  0.00     0.124 S 
ATOM     77  O   UNL A   1      39.716  36.698  35.612  1.00  0.00    -0.237 OA
ATOM     78  O   UNL A   1      39.454  36.524  38.068  1.00  0.00    -0.237 OA
ATOM     79  O   UNL A   1      41.513  35.710  36.983  1.00  0.00    -0.744 OA
ENDBRANCH  72  76
ENDBRANCH  45  69
BRANCH  57  80
ATOM     80  C   UNL A   1      44.719  28.244  34.307  1.00  0.00     0.023 A 
ATOM     81  C   UNL A   1      44.768  27.227  35.277  1.00  0.00     0.031 A 
ATOM     82  C   UNL A   1      45.870  29.029  34.116  1.00  0.00     0.131 A 
ATOM     83  C   UNL A   1      45.920  27.063  36.059  1.00  0.00     0.055 A 
ATOM     84  C   UNL A   1      47.038  28.815  34.850  1.00  0.00     0.041 A 
ATOM     85  F   UNL A   1      45.881  30.018  33.207  1.00  0.00    -0.206 F 
ATOM     86  C   UNL A   1      47.062  27.836  35.838  1.00  0.00     0.022 A 
BRANCH  83  87
ATOM     87  S   UNL A   1      45.873  25.890  37.444  1.00  0.00     0.124 S 
ATOM     88  O   UNL A   1      44.772  26.416  38.246  1.00  0.00    -0.237 OA
ATOM     89  O   UNL A   1      45.622  24.621  36.770  1.00  0.00    -0.237 OA
ATOM     90  O   UNL A   1      47.198  26.020  38.048  1.00  0.00    -0.744 OA
ENDBRANCH  83  87
ENDBRANCH  57  80
ENDBRANCH  31  32
ENDBRANCH  23  26
ENDBRANCH  21  22
ENDBRANCH  20  21
ENDBRANCH   1  20
TORSDOF 17
ENDMDL
MODEL 3
REMARK VINA RESULT:     -11.4      2.169      2.549
REMARK SMILES CC(C)c1ccc(S[C@H](C)[C@@H](C)C(=O)NCCCNC(=O)c2ccc(-c3c4nc(c(-c5cc(S(=O)(=O)[O-])ccc5F)c5ccc([nH]5)c(-c5cc(S(=O)(=O)[O-])ccc5F)c5nc(c(-c6cc(S(=O)(=O)[O-])ccc6F)c6ccc3[nH]6)C=C5)C=C4)cc2)cc1
REMARK SMILES IDX 16 1 15 2 13 3 14 4 11 6 12 7 9 8 10 9 8 10 7 11 4 12 5 13
REMARK SMILES IDX 86 14 6 15 85 16 2 17 1 18 3 19 17 20 18 21 19 22 20 23
REMARK SMILES IDX 21 25 22 26 23 27 84 28 24 29 83 30 25 31 26 32 27 33 77 34
REMARK SMILES IDX 28 35 82 36 76 37 78 38 29 39 81 40 75 41 74 42 30 44 62 45
REMARK SMILES IDX 42 46 61 47 43 48 46 49 60 50 79 51 44 52 45 53 59 55 80 56
REMARK SMILES IDX 47 57 31 58 32 59 40 60 33 61 39 62 41 63 38 64 34 65 35 66
REMARK SMILES IDX 36 67 37 68 63 69 64 70 72 71 65 72 71 73 73 74 70 75 66 76
REMARK SMILES IDX 67 77 68 78 69 79 48 80 49 81 57 82 50 83 56 84 58 85 55 86
REMARK SMILES IDX 51 87 52 88 53 89 54 90
REMARK H PARENT 15 5 19 24 78 43 46 54
REMARK Flexibility Score: inf
ROOT
ATOM      1  C   UNL A   1      31.654  29.716  25.578  1.00  0.00     0.117 C 
ENDROOT
BRANCH   1   2
ATOM      2  N   UNL A   1      32.772  29.563  24.665  1.00  0.00    -0.356 N 
ATOM      3  C   UNL A   1      33.299  28.462  24.069  1.00  0.00     0.223 C 
ATOM      4  O   UNL A   1      34.258  28.630  23.310  1.00  0.00    -0.275 OA
ATOM      5  H   UNL A   1      33.228  30.404  24.438  1.00  0.00     0.163 HD
BRANCH   3   6
ATOM      6  C   UNL A   1      32.693  27.078  24.259  1.00  0.00     0.088 C 
ATOM      7  C   UNL A   1      33.764  26.143  24.841  1.00  0.00     0.019 C 
BRANCH   6   8
ATOM      8  C   UNL A   1      31.903  26.580  23.010  1.00  0.00     0.061 C 
ATOM      9  C   UNL A   1      32.442  25.251  22.496  1.00  0.00     0.020 C 
BRANCH   8  10
ATOM     10  S   UNL A   1      30.091  26.643  23.494  1.00  0.00    -0.122 SA
BRANCH  10  11
ATOM     11  C   UNL A   1      29.334  28.140  22.894  1.00  0.00     0.008 A 
ATOM     12  C   UNL A   1      28.395  30.788  22.369  1.00  0.00    -0.045 A 
ATOM     13  C   UNL A   1      27.560  29.805  22.904  1.00  0.00     0.005 A 
ATOM     14  C   UNL A   1      29.697  30.396  22.019  1.00  0.00     0.005 A 
ATOM     15  C   UNL A   1      28.036  28.525  23.201  1.00  0.00     0.015 A 
ATOM     16  C   UNL A   1      30.157  29.093  22.281  1.00  0.00     0.015 A 
BRANCH  12  17
ATOM     17  C   UNL A   1      27.928  32.232  22.208  1.00  0.00     0.013 C 
ATOM     18  C   UNL A   1      28.842  33.266  22.892  1.00  0.00     0.012 C 
ATOM     19  C   UNL A   1      27.806  32.629  20.729  1.00  0.00     0.012 C 
ENDBRANCH  12  17
ENDBRANCH  10  11
ENDBRANCH   8  10
ENDBRANCH   6   8
ENDBRANCH   3   6
ENDBRANCH   1   2
BRANCH   1  20
ATOM     20  C   UNL A   1      31.463  31.164  26.010  1.00  0.00     0.042 C 
BRANCH  20  21
ATOM     21  C   UNL A   1      32.330  31.573  27.193  1.00  0.00     0.118 C 
BRANCH  21  22
ATOM     22  N   UNL A   1      32.522  33.014  27.270  1.00  0.00    -0.352 N 
ATOM     23  C   UNL A   1      33.472  33.741  27.942  1.00  0.00     0.251 C 
ATOM     24  H   UNL A   1      31.870  33.549  26.762  1.00  0.00     0.163 HD
ATOM     25  O   UNL A   1      33.323  34.956  28.065  1.00  0.00    -0.269 OA
BRANCH  23  26
ATOM     26  C   UNL A   1      34.648  33.068  28.533  1.00  0.00     0.039 A 
ATOM     27  C   UNL A   1      35.923  33.569  28.263  1.00  0.00     0.014 A 
ATOM     28  C   UNL A   1      34.499  31.940  29.344  1.00  0.00     0.014 A 
ATOM     29  C   UNL A   1      37.039  32.982  28.865  1.00  0.00     0.010 A 
ATOM     30  C   UNL A   1      35.599  31.417  30.016  1.00  0.00     0.010 A 
ATOM     31  C   UNL A   1      36.883  31.928  29.780  1.00  0.00    -0.014 A 
BRANCH  31  32
ATOM     32  C   UNL A   1      38.048  31.344  30.494  1.00  0.00     0.031 A 
ATOM     33  C   UNL A   1      38.894  30.294  29.826  1.00  0.00     0.074 A 
ATOM     34  C   UNL A   1      38.310  31.719  31.763  1.00  0.00     0.049 A 
ATOM     35  N   UNL A   1      39.901  29.612  30.308  1.00  0.00    -0.248 NA
ATOM     36  C   UNL A   1      38.541  29.944  28.440  1.00  0.00     0.031 C 
ATOM     37  C   UNL A   1      37.543  32.707  32.527  1.00  0.00     0.029 A 
ATOM     38  N   UNL A   1      39.290  31.318  32.635  1.00  0.00    -0.354 N 
ATOM     39  C   UNL A   1      40.297  28.749  29.291  1.00  0.00     0.074 A 
ATOM     40  C   UNL A   1      39.375  28.946  28.192  1.00  0.00     0.031 C 
ATOM     41  C   UNL A   1      38.106  32.861  33.736  1.00  0.00     0.029 A 
ATOM     42  C   UNL A   1      39.236  31.944  33.858  1.00  0.00     0.049 A 
ATOM     43  H   UNL A   1      39.970  30.643  32.406  1.00  0.00     0.167 HD
ATOM     44  C   UNL A   1      41.346  27.890  29.266  1.00  0.00     0.034 A 
ATOM     45  C   UNL A   1      40.000  31.792  34.958  1.00  0.00     0.034 A 
ATOM     46  C   UNL A   1      42.259  27.711  30.368  1.00  0.00     0.049 A 
ATOM     47  C   UNL A   1      41.130  30.794  34.923  1.00  0.00     0.074 A 
ATOM     48  C   UNL A   1      43.377  26.898  30.437  1.00  0.00     0.029 A 
ATOM     49  N   UNL A   1      42.157  28.347  31.600  1.00  0.00    -0.354 N 
ATOM     50  N   UNL A   1      41.512  30.010  33.940  1.00  0.00    -0.248 NA
ATOM     51  C   UNL A   1      41.938  30.666  36.143  1.00  0.00     0.031 C 
ATOM     52  C   UNL A   1      43.905  26.983  31.729  1.00  0.00     0.029 A 
ATOM     53  C   UNL A   1      43.172  27.919  32.442  1.00  0.00     0.049 A 
ATOM     54  H   UNL A   1      41.466  29.006  31.839  1.00  0.00     0.167 HD
ATOM     55  C   UNL A   1      42.628  29.325  34.415  1.00  0.00     0.074 A 
ATOM     56  C   UNL A   1      42.863  29.799  35.763  1.00  0.00     0.031 C 
ATOM     57  C   UNL A   1      43.392  28.393  33.790  1.00  0.00     0.034 A 
BRANCH  44  58
ATOM     58  C   UNL A   1      41.544  27.068  28.015  1.00  0.00     0.023 A 
ATOM     59  C   UNL A   1      41.123  25.729  27.936  1.00  0.00     0.031 A 
ATOM     60  C   UNL A   1      42.176  27.625  26.888  1.00  0.00     0.131 A 
ATOM     61  C   UNL A   1      41.401  24.972  26.788  1.00  0.00     0.055 A 
ATOM     62  C   UNL A   1      42.373  26.891  25.716  1.00  0.00     0.041 A 
ATOM     63  F   UNL A   1      42.621  28.891  26.909  1.00  0.00    -0.206 F 
ATOM     64  C   UNL A   1      41.998  25.551  25.666  1.00  0.00     0.022 A 
BRANCH  61  65
ATOM     65  S   UNL A   1      41.102  23.184  26.837  1.00  0.00     0.124 S 
ATOM     66  O   UNL A   1      41.922  22.717  25.723  1.00  0.00    -0.237 OA
ATOM     67  O   UNL A   1      41.569  22.822  28.170  1.00  0.00    -0.237 OA
ATOM     68  O   UNL A   1      39.659  23.073  26.629  1.00  0.00    -0.744 OA
ENDBRANCH  61  65
ENDBRANCH  44  58
BRANCH  45  69
ATOM     69  C   UNL A   1      39.729  32.592  36.188  1.00  0.00     0.023 A 
ATOM     70  C   UNL A   1      38.811  32.144  37.151  1.00  0.00     0.031 A 
ATOM     71  C   UNL A   1      40.346  33.839  36.397  1.00  0.00     0.131 A 
ATOM     72  C   UNL A   1      38.498  32.956  38.251  1.00  0.00     0.055 A 
ATOM     73  C   UNL A   1      40.076  34.616  37.523  1.00  0.00     0.041 A 
ATOM     74  F   UNL A   1      41.233  34.315  35.508  1.00  0.00    -0.206 F 
ATOM     75  C   UNL A   1      39.136  34.182  38.452  1.00  0.00     0.022 A 
BRANCH  72  76
ATOM     76  S   UNL A   1      37.170  32.430  39.368  1.00  0.00     0.124 S 
ATOM     77  O   UNL A   1      35.982  32.729  38.576  1.00  0.00    -0.237 OA
ATOM     78  O   UNL A   1      37.476  31.016  39.557  1.00  0.00    -0.237 OA
ATOM     79  O   UNL A   1      37.363  33.271  40.547  1.00  0.00    -0.744 OA
ENDBRANCH  72  76
ENDBRANCH  45  69
BRANCH  57  80
ATOM     80  C   UNL A   1      44.589  27.864  34.544  1.00  0.00     0.023 A 
ATOM     81  C   UNL A   1      44.526  26.686  35.308  1.00  0.00     0.031 A 
ATOM     82  C   UNL A   1      45.812  28.559  34.501  1.00  0.00     0.131 A 
ATOM     83  C   UNL A   1      45.644  26.272  36.046  1.00  0.00     0.055 A 
ATOM     84  C   UNL A   1      46.941  28.104  35.182  1.00  0.00     0.041 A 
ATOM     85  F   UNL A   1      45.930  29.693  33.792  1.00  0.00    -0.206 F 
ATOM     86  C   UNL A   1      46.857  26.961  35.972  1.00  0.00     0.022 A 
BRANCH  83  87
ATOM     87  S   UNL A   1      45.464  24.874  37.189  1.00  0.00     0.124 S 
ATOM     88  O   UNL A   1      46.801  24.290  37.165  1.00  0.00    -0.237 OA
ATOM     89  O   UNL A   1      45.077  25.533  38.432  1.00  0.00    -0.237 OA
ATOM     90  O   UNL A   1      44.420  24.058  36.569  1.00  0.00    -0.744 OA
ENDBRANCH  83  87
ENDBRANCH  57  80
ENDBRANCH  31  32
ENDBRANCH  23  26
ENDBRANCH  21  22
ENDBRANCH  20  21
ENDBRANCH   1  20
TORSDOF 17
ENDMDL
