MODEL 1
REMARK VINA RESULT:     -10.8      0.000      0.000
REMARK SMILES CCN(CC(C)(C)O)C(=O)N[C@@H](C(=O)NCCCNC(=O)c1ccc(-c2c3nc(c(-c4cc(S(=O)(=O)[O-])ccc4F)c4ccc([nH]4)c(-c4cc(S(=O)(=O)[O-])ccc4F)c4nc(c(-c5cc(S(=O)(=O)[O-])ccc5F)c5ccc2[nH]5)C=C4)C=C3)cc1)C(C)(C)C
REMARK SMILES IDX 16 1 15 2 13 3 14 4 12 6 11 7 9 8 10 9 3 11 2 12 1 13 4 14
REMARK SMILES IDX 5 15 6 16 7 17 8 18 85 20 86 21 87 22 88 23 17 24 18 25
REMARK SMILES IDX 19 26 20 27 21 29 22 30 23 31 84 32 24 33 83 34 25 35 26 36
REMARK SMILES IDX 27 37 77 38 28 39 82 40 76 41 78 42 29 43 81 44 75 45 74 46
REMARK SMILES IDX 30 48 62 49 42 50 61 51 43 52 46 53 60 54 79 55 44 56 45 57
REMARK SMILES IDX 59 59 80 60 47 61 31 62 32 63 40 64 33 65 39 66 41 67 38 68
REMARK SMILES IDX 34 69 35 70 36 71 37 72 63 73 64 74 72 75 65 76 71 77 73 78
REMARK SMILES IDX 70 79 66 80 67 81 68 82 69 83 48 84 49 85 57 86 50 87 56 88
REMARK SMILES IDX 58 89 55 90 51 91 52 92 53 93 54 94
REMARK H PARENT 15 5 11 10 8 19 19 28 78 47 46 58
REMARK Flexibility Score: inf
ROOT
ATOM      1  C   UNL A   1      31.992  27.663  27.131  1.00  0.00     0.117 C 
ENDROOT
BRANCH   1   2
ATOM      2  N   UNL A   1      31.016  26.727  26.586  1.00  0.00    -0.354 N 
ATOM      3  C   UNL A   1      31.116  25.776  25.609  1.00  0.00     0.243 C 
ATOM      4  O   UNL A   1      30.238  24.906  25.644  1.00  0.00    -0.273 OA
ATOM      5  H   UNL A   1      30.124  26.792  26.996  1.00  0.00     0.163 HD
BRANCH   3   6
ATOM      6  C   UNL A   1      32.360  25.646  24.665  1.00  0.00     0.178 C 
BRANCH   6   7
ATOM      7  N   UNL A   1      32.001  25.734  23.262  1.00  0.00    -0.326 N 
ATOM      8  C   UNL A   1      31.712  26.729  22.411  1.00  0.00     0.318 C 
ATOM      9  O   UNL A   1      31.199  26.338  21.357  1.00  0.00    -0.249 OA
ATOM     10  H   UNL A   1      31.959  24.850  22.830  1.00  0.00     0.166 HD
BRANCH   8  11
ATOM     11  N   UNL A   1      31.888  28.061  22.690  1.00  0.00    -0.322 N 
BRANCH  11  12
ATOM     12  C   UNL A   1      33.248  28.562  22.417  1.00  0.00     0.118 C 
ATOM     13  C   UNL A   1      34.148  28.551  23.651  1.00  0.00     0.027 C 
ENDBRANCH  11  12
BRANCH  11  14
ATOM     14  C   UNL A   1      31.017  29.006  23.429  1.00  0.00     0.155 C 
BRANCH  14  15
ATOM     15  C   UNL A   1      29.756  29.605  22.695  1.00  0.00     0.077 C 
ATOM     16  C   UNL A   1      28.530  28.687  22.665  1.00  0.00     0.043 C 
ATOM     17  C   UNL A   1      29.318  30.884  23.423  1.00  0.00     0.043 C 
BRANCH  15  18
ATOM     18  O   UNL A   1      30.074  29.965  21.348  1.00  0.00    -0.389 OA
ATOM     19  H   UNL A   1      31.013  30.200  21.289  1.00  0.00     0.211 HD
ENDBRANCH  15  18
ENDBRANCH  14  15
ENDBRANCH  11  14
ENDBRANCH   8  11
ENDBRANCH   6   7
BRANCH   6  20
ATOM     20  C   UNL A   1      33.284  24.397  24.926  1.00  0.00    -0.009 C 
ATOM     21  C   UNL A   1      34.741  24.658  24.458  1.00  0.00     0.013 C 
ATOM     22  C   UNL A   1      33.344  24.117  26.441  1.00  0.00     0.013 C 
ATOM     23  C   UNL A   1      32.809  23.131  24.187  1.00  0.00     0.013 C 
ENDBRANCH   6  20
ENDBRANCH   3   6
ENDBRANCH   1   2
BRANCH   1  24
ATOM     24  C   UNL A   1      31.506  29.097  27.167  1.00  0.00     0.042 C 
BRANCH  24  25
ATOM     25  C   UNL A   1      32.407  30.054  26.405  1.00  0.00     0.118 C 
BRANCH  25  26
ATOM     26  N   UNL A   1      32.170  31.457  26.719  1.00  0.00    -0.352 N 
ATOM     27  C   UNL A   1      32.981  32.370  27.374  1.00  0.00     0.251 C 
ATOM     28  H   UNL A   1      31.301  31.811  26.421  1.00  0.00     0.163 HD
ATOM     29  O   UNL A   1      32.550  33.482  27.649  1.00  0.00    -0.269 OA
BRANCH  27  30
ATOM     30  C   UNL A   1      34.345  31.964  27.773  1.00  0.00     0.039 A 
ATOM     31  C   UNL A   1      35.319  32.943  27.982  1.00  0.00     0.014 A 
ATOM     32  C   UNL A   1      34.633  30.625  28.026  1.00  0.00     0.014 A 
ATOM     33  C   UNL A   1      36.541  32.585  28.561  1.00  0.00     0.010 A 
ATOM     34  C   UNL A   1      35.786  30.294  28.724  1.00  0.00     0.010 A 
ATOM     35  C   UNL A   1      36.757  31.268  29.002  1.00  0.00    -0.014 A 
BRANCH  35  36
ATOM     36  C   UNL A   1      37.981  30.875  29.752  1.00  0.00     0.031 A 
ATOM     37  C   UNL A   1      38.963  29.918  29.128  1.00  0.00     0.074 A 
ATOM     38  C   UNL A   1      38.151  31.281  31.026  1.00  0.00     0.049 A 
ATOM     39  N   UNL A   1      40.003  29.328  29.660  1.00  0.00    -0.248 NA
ATOM     40  C   UNL A   1      38.699  29.525  27.736  1.00  0.00     0.031 C 
ATOM     41  C   UNL A   1      37.227  32.136  31.776  1.00  0.00     0.029 A 
ATOM     42  N   UNL A   1      39.153  31.014  31.925  1.00  0.00    -0.354 N 
ATOM     43  C   UNL A   1      40.491  28.470  28.680  1.00  0.00     0.074 A 
ATOM     44  C   UNL A   1      39.576  28.551  27.562  1.00  0.00     0.031 C 
ATOM     45  C   UNL A   1      37.718  32.345  33.008  1.00  0.00     0.029 A 
ATOM     46  C   UNL A   1      38.967  31.606  33.154  1.00  0.00     0.049 A 
ATOM     47  H   UNL A   1      39.931  30.451  31.712  1.00  0.00     0.167 HD
ATOM     48  C   UNL A   1      41.618  27.713  28.692  1.00  0.00     0.034 A 
ATOM     49  C   UNL A   1      39.712  31.550  34.275  1.00  0.00     0.034 A 
ATOM     50  C   UNL A   1      42.535  27.674  29.804  1.00  0.00     0.049 A 
ATOM     51  C   UNL A   1      40.983  30.743  34.259  1.00  0.00     0.074 A 
ATOM     52  C   UNL A   1      43.741  27.004  29.910  1.00  0.00     0.029 A 
ATOM     53  N   UNL A   1      42.346  28.340  31.010  1.00  0.00    -0.354 N 
ATOM     54  N   UNL A   1      41.468  29.984  33.303  1.00  0.00    -0.248 NA
ATOM     55  C   UNL A   1      41.816  30.798  35.467  1.00  0.00     0.031 C 
ATOM     56  C   UNL A   1      44.255  27.222  31.194  1.00  0.00     0.029 A 
ATOM     57  C   UNL A   1      43.404  28.083  31.869  1.00  0.00     0.049 A 
ATOM     58  H   UNL A   1      41.574  28.911  31.223  1.00  0.00     0.167 HD
ATOM     59  C   UNL A   1      42.673  29.485  33.788  1.00  0.00     0.074 A 
ATOM     60  C   UNL A   1      42.849  30.048  35.113  1.00  0.00     0.031 C 
ATOM     61  C   UNL A   1      43.554  28.639  33.194  1.00  0.00     0.034 A 
BRANCH  48  62
ATOM     62  C   UNL A   1      41.894  26.873  27.465  1.00  0.00     0.023 A 
ATOM     63  C   UNL A   1      41.516  25.518  27.402  1.00  0.00     0.031 A 
ATOM     64  C   UNL A   1      42.609  27.401  26.377  1.00  0.00     0.131 A 
ATOM     65  C   UNL A   1      41.959  24.713  26.344  1.00  0.00     0.055 A 
ATOM     66  C   UNL A   1      42.957  26.618  25.274  1.00  0.00     0.041 A 
ATOM     67  F   UNL A   1      43.013  28.682  26.380  1.00  0.00    -0.206 F 
ATOM     68  C   UNL A   1      42.654  25.259  25.263  1.00  0.00     0.022 A 
BRANCH  65  69
ATOM     69  S   UNL A   1      41.782  22.914  26.499  1.00  0.00     0.124 S 
ATOM     70  O   UNL A   1      42.406  22.450  25.261  1.00  0.00    -0.237 OA
ATOM     71  O   UNL A   1      42.514  22.629  27.727  1.00  0.00    -0.237 OA
ATOM     72  O   UNL A   1      40.336  22.716  26.571  1.00  0.00    -0.744 OA
ENDBRANCH  65  69
ENDBRANCH  48  62
BRANCH  49  73
ATOM     73  C   UNL A   1      39.279  32.279  35.500  1.00  0.00     0.023 A 
ATOM     74  C   UNL A   1      38.560  31.628  36.515  1.00  0.00     0.031 A 
ATOM     75  C   UNL A   1      39.573  33.643  35.670  1.00  0.00     0.131 A 
ATOM     76  C   UNL A   1      38.128  32.350  37.640  1.00  0.00     0.055 A 
ATOM     77  C   UNL A   1      39.179  34.347  36.810  1.00  0.00     0.041 A 
ATOM     78  F   UNL A   1      40.269  34.308  34.734  1.00  0.00    -0.206 F 
ATOM     79  C   UNL A   1      38.442  33.701  37.799  1.00  0.00     0.022 A 
BRANCH  76  80
ATOM     80  S   UNL A   1      37.097  31.506  38.871  1.00  0.00     0.124 S 
ATOM     81  O   UNL A   1      35.884  32.317  38.851  1.00  0.00    -0.237 OA
ATOM     82  O   UNL A   1      36.982  30.167  38.304  1.00  0.00    -0.237 OA
ATOM     83  O   UNL A   1      37.887  31.595  40.097  1.00  0.00    -0.744 OA
ENDBRANCH  76  80
ENDBRANCH  49  73
BRANCH  61  84
ATOM     84  C   UNL A   1      44.801  28.303  33.970  1.00  0.00     0.023 A 
ATOM     85  C   UNL A   1      45.977  29.065  33.845  1.00  0.00     0.031 A 
ATOM     86  C   UNL A   1      44.819  27.195  34.837  1.00  0.00     0.131 A 
ATOM     87  C   UNL A   1      47.137  28.676  34.530  1.00  0.00     0.055 A 
ATOM     88  C   UNL A   1      45.960  26.848  35.561  1.00  0.00     0.041 A 
ATOM     89  F   UNL A   1      43.724  26.433  34.993  1.00  0.00    -0.206 F 
ATOM     90  C   UNL A   1      47.131  27.582  35.400  1.00  0.00     0.022 A 
BRANCH  87  91
ATOM     91  S   UNL A   1      48.682  29.567  34.201  1.00  0.00     0.124 S 
ATOM     92  O   UNL A   1      48.320  30.386  33.049  1.00  0.00    -0.237 OA
ATOM     93  O   UNL A   1      48.901  30.285  35.452  1.00  0.00    -0.237 OA
ATOM     94  O   UNL A   1      49.641  28.498  33.924  1.00  0.00    -0.744 OA
ENDBRANCH  87  91
ENDBRANCH  61  84
ENDBRANCH  35  36
ENDBRANCH  27  30
ENDBRANCH  25  26
ENDBRANCH  24  25
ENDBRANCH   1  24
TORSDOF 20
ENDMDL
MODEL 2
REMARK VINA RESULT:     -10.6      2.621      7.978
REMARK SMILES CCN(CC(C)(C)O)C(=O)N[C@@H](C(=O)NCCCNC(=O)c1ccc(-c2c3nc(c(-c4cc(S(=O)(=O)[O-])ccc4F)c4ccc([nH]4)c(-c4cc(S(=O)(=O)[O-])ccc4F)c4nc(c(-c5cc(S(=O)(=O)[O-])ccc5F)c5ccc2[nH]5)C=C4)C=C3)cc1)C(C)(C)C
REMARK SMILES IDX 16 1 15 2 13 3 14 4 12 6 11 7 9 8 10 9 3 11 2 12 1 13 4 14
REMARK SMILES IDX 5 15 6 16 7 17 8 18 85 20 86 21 87 22 88 23 17 24 18 25
REMARK SMILES IDX 19 26 20 27 21 29 22 30 23 31 84 32 24 33 83 34 25 35 26 36
REMARK SMILES IDX 27 37 77 38 28 39 82 40 76 41 78 42 29 43 81 44 75 45 74 46
REMARK SMILES IDX 30 48 62 49 42 50 61 51 43 52 46 53 60 54 79 55 44 56 45 57
REMARK SMILES IDX 59 59 80 60 47 61 31 62 32 63 40 64 33 65 39 66 41 67 38 68
REMARK SMILES IDX 34 69 35 70 36 71 37 72 63 73 64 74 72 75 65 76 71 77 73 78
REMARK SMILES IDX 70 79 66 80 67 81 68 82 69 83 48 84 49 85 57 86 50 87 56 88
REMARK SMILES IDX 58 89 55 90 51 91 52 92 53 93 54 94
REMARK H PARENT 15 5 11 10 8 19 19 28 78 47 46 58
REMARK Flexibility Score: inf
ROOT
ATOM      1  C   UNL A   1      32.182  27.479  27.182  1.00  0.00     0.117 C 
ENDROOT
BRANCH   1   2
ATOM      2  N   UNL A   1      31.037  26.639  26.853  1.00  0.00    -0.354 N 
ATOM      3  C   UNL A   1      30.933  25.490  26.120  1.00  0.00     0.243 C 
ATOM      4  O   UNL A   1      29.913  24.827  26.341  1.00  0.00    -0.273 OA
ATOM      5  H   UNL A   1      30.184  26.958  27.226  1.00  0.00     0.163 HD
BRANCH   3   6
ATOM      6  C   UNL A   1      32.104  24.924  25.246  1.00  0.00     0.178 C 
BRANCH   6   7
ATOM      7  N   UNL A   1      31.790  24.929  23.830  1.00  0.00    -0.326 N 
ATOM      8  C   UNL A   1      31.657  25.870  22.885  1.00  0.00     0.318 C 
ATOM      9  O   UNL A   1      31.117  25.455  21.853  1.00  0.00    -0.249 OA
ATOM     10  H   UNL A   1      31.635  24.022  23.478  1.00  0.00     0.166 HD
BRANCH   8  11
ATOM     11  N   UNL A   1      32.009  27.186  23.049  1.00  0.00    -0.322 N 
BRANCH  11  12
ATOM     12  C   UNL A   1      33.428  27.474  22.764  1.00  0.00     0.118 C 
ATOM     13  C   UNL A   1      33.821  28.914  23.087  1.00  0.00     0.027 C 
ENDBRANCH  11  12
BRANCH  11  14
ATOM     14  C   UNL A   1      31.266  28.303  23.681  1.00  0.00     0.155 C 
BRANCH  14  15
ATOM     15  C   UNL A   1      30.012  28.897  22.932  1.00  0.00     0.077 C 
ATOM     16  C   UNL A   1      28.732  28.064  23.053  1.00  0.00     0.043 C 
ATOM     17  C   UNL A   1      29.686  30.276  23.526  1.00  0.00     0.043 C 
BRANCH  15  18
ATOM     18  O   UNL A   1      30.290  29.083  21.542  1.00  0.00    -0.389 OA
ATOM     19  H   UNL A   1      29.466  29.285  21.072  1.00  0.00     0.211 HD
ENDBRANCH  15  18
ENDBRANCH  14  15
ENDBRANCH  11  14
ENDBRANCH   8  11
ENDBRANCH   6   7
BRANCH   6  20
ATOM     20  C   UNL A   1      32.664  23.519  25.687  1.00  0.00    -0.009 C 
ATOM     21  C   UNL A   1      34.144  23.334  25.257  1.00  0.00     0.013 C 
ATOM     22  C   UNL A   1      32.629  23.418  27.226  1.00  0.00     0.013 C 
ATOM     23  C   UNL A   1      31.882  22.340  25.077  1.00  0.00     0.013 C 
ENDBRANCH   6  20
ENDBRANCH   3   6
ENDBRANCH   1   2
BRANCH   1  24
ATOM     24  C   UNL A   1      31.856  28.957  27.246  1.00  0.00     0.042 C 
BRANCH  24  25
ATOM     25  C   UNL A   1      32.843  29.821  26.479  1.00  0.00     0.118 C 
BRANCH  25  26
ATOM     26  N   UNL A   1      32.745  31.240  26.793  1.00  0.00    -0.352 N 
ATOM     27  C   UNL A   1      33.605  32.053  27.515  1.00  0.00     0.251 C 
ATOM     28  H   UNL A   1      31.946  31.692  26.439  1.00  0.00     0.163 HD
ATOM     29  O   UNL A   1      33.285  33.205  27.771  1.00  0.00    -0.269 OA
BRANCH  27  30
ATOM     30  C   UNL A   1      34.883  31.493  28.005  1.00  0.00     0.039 A 
ATOM     31  C   UNL A   1      35.995  32.327  28.128  1.00  0.00     0.014 A 
ATOM     32  C   UNL A   1      34.951  30.166  28.424  1.00  0.00     0.014 A 
ATOM     33  C   UNL A   1      37.137  31.857  28.785  1.00  0.00     0.010 A 
ATOM     34  C   UNL A   1      36.028  29.748  29.195  1.00  0.00     0.010 A 
ATOM     35  C   UNL A   1      37.136  30.587  29.387  1.00  0.00    -0.014 A 
BRANCH  35  36
ATOM     36  C   UNL A   1      38.272  30.104  30.219  1.00  0.00     0.031 A 
ATOM     37  C   UNL A   1      38.458  30.642  31.613  1.00  0.00     0.074 A 
ATOM     38  C   UNL A   1      39.195  29.279  29.685  1.00  0.00     0.049 A 
ATOM     39  N   UNL A   1      39.456  30.477  32.443  1.00  0.00    -0.248 NA
ATOM     40  C   UNL A   1      37.405  31.538  32.113  1.00  0.00     0.031 C 
ATOM     41  C   UNL A   1      39.180  28.757  28.316  1.00  0.00     0.029 A 
ATOM     42  N   UNL A   1      40.339  28.746  30.225  1.00  0.00    -0.354 N 
ATOM     43  C   UNL A   1      39.166  31.277  33.544  1.00  0.00     0.074 A 
ATOM     44  C   UNL A   1      37.948  31.994  33.230  1.00  0.00     0.031 C 
ATOM     45  C   UNL A   1      40.245  27.960  28.133  1.00  0.00     0.029 A 
ATOM     46  C   UNL A   1      41.044  27.947  29.354  1.00  0.00     0.049 A 
ATOM     47  H   UNL A   1      40.630  28.921  31.149  1.00  0.00     0.167 HD
ATOM     48  C   UNL A   1      39.829  31.378  34.724  1.00  0.00     0.034 A 
ATOM     49  C   UNL A   1      42.206  27.287  29.515  1.00  0.00     0.034 A 
ATOM     50  C   UNL A   1      41.021  30.627  35.030  1.00  0.00     0.049 A 
ATOM     51  C   UNL A   1      42.908  27.372  30.845  1.00  0.00     0.074 A 
ATOM     52  C   UNL A   1      41.743  30.590  36.211  1.00  0.00     0.029 A 
ATOM     53  N   UNL A   1      41.670  29.775  34.144  1.00  0.00    -0.354 N 
ATOM     54  N   UNL A   1      42.590  28.083  31.902  1.00  0.00    -0.248 NA
ATOM     55  C   UNL A   1      44.115  26.552  31.010  1.00  0.00     0.031 C 
ATOM     56  C   UNL A   1      42.853  29.758  36.022  1.00  0.00     0.029 A 
ATOM     57  C   UNL A   1      42.791  29.222  34.746  1.00  0.00     0.049 A 
ATOM     58  H   UNL A   1      41.377  29.592  33.222  1.00  0.00     0.167 HD
ATOM     59  C   UNL A   1      43.549  27.783  32.865  1.00  0.00     0.074 A 
ATOM     60  C   UNL A   1      44.442  26.809  32.268  1.00  0.00     0.031 C 
ATOM     61  C   UNL A   1      43.680  28.266  34.127  1.00  0.00     0.034 A 
BRANCH  48  62
ATOM     62  C   UNL A   1      39.267  32.340  35.747  1.00  0.00     0.023 A 
ATOM     63  C   UNL A   1      39.663  33.691  35.780  1.00  0.00     0.031 A 
ATOM     64  C   UNL A   1      38.389  31.894  36.750  1.00  0.00     0.131 A 
ATOM     65  C   UNL A   1      39.286  34.509  36.853  1.00  0.00     0.055 A 
ATOM     66  C   UNL A   1      37.932  32.744  37.760  1.00  0.00     0.041 A 
ATOM     67  F   UNL A   1      37.985  30.614  36.785  1.00  0.00    -0.206 F 
ATOM     68  C   UNL A   1      38.399  34.054  37.831  1.00  0.00     0.022 A 
BRANCH  65  69
ATOM     69  S   UNL A   1      40.125  36.105  37.056  1.00  0.00     0.124 S 
ATOM     70  O   UNL A   1      39.876  36.733  35.760  1.00  0.00    -0.237 OA
ATOM     71  O   UNL A   1      39.423  36.688  38.192  1.00  0.00    -0.237 OA
ATOM     72  O   UNL A   1      41.516  35.732  37.303  1.00  0.00    -0.744 OA
ENDBRANCH  65  69
ENDBRANCH  48  62
BRANCH  49  73
ATOM     73  C   UNL A   1      42.779  26.490  28.394  1.00  0.00     0.023 A 
ATOM     74  C   UNL A   1      43.854  26.975  27.633  1.00  0.00     0.031 A 
ATOM     75  C   UNL A   1      42.251  25.230  28.062  1.00  0.00     0.131 A 
ATOM     76  C   UNL A   1      44.345  26.222  26.555  1.00  0.00     0.055 A 
ATOM     77  C   UNL A   1      42.771  24.464  27.017  1.00  0.00     0.041 A 
ATOM     78  F   UNL A   1      41.231  24.715  28.768  1.00  0.00    -0.206 F 
ATOM     79  C   UNL A   1      43.819  24.965  26.249  1.00  0.00     0.022 A 
BRANCH  76  80
ATOM     80  S   UNL A   1      45.652  26.935  25.518  1.00  0.00     0.124 S 
ATOM     81  O   UNL A   1      46.688  27.227  26.503  1.00  0.00    -0.237 OA
ATOM     82  O   UNL A   1      45.937  25.842  24.595  1.00  0.00    -0.237 OA
ATOM     83  O   UNL A   1      45.013  28.103  24.918  1.00  0.00    -0.744 OA
ENDBRANCH  76  80
ENDBRANCH  49  73
BRANCH  61  84
ATOM     84  C   UNL A   1      44.818  27.717  34.950  1.00  0.00     0.023 A 
ATOM     85  C   UNL A   1      44.710  26.494  35.636  1.00  0.00     0.031 A 
ATOM     86  C   UNL A   1      46.022  28.435  35.062  1.00  0.00     0.131 A 
ATOM     87  C   UNL A   1      45.765  26.053  36.447  1.00  0.00     0.055 A 
ATOM     88  C   UNL A   1      47.090  27.963  35.825  1.00  0.00     0.041 A 
ATOM     89  F   UNL A   1      46.177  29.609  34.429  1.00  0.00    -0.206 F 
ATOM     90  C   UNL A   1      46.960  26.772  36.533  1.00  0.00     0.022 A 
BRANCH  87  91
ATOM     91  S   UNL A   1      45.522  24.570  37.463  1.00  0.00     0.124 S 
ATOM     92  O   UNL A   1      44.924  25.127  38.673  1.00  0.00    -0.237 OA
ATOM     93  O   UNL A   1      44.639  23.762  36.629  1.00  0.00    -0.237 OA
ATOM     94  O   UNL A   1      46.875  24.042  37.628  1.00  0.00    -0.744 OA
ENDBRANCH  87  91
ENDBRANCH  61  84
ENDBRANCH  35  36
ENDBRANCH  27  30
ENDBRANCH  25  26
ENDBRANCH  24  25
ENDBRANCH   1  24
TORSDOF 20
ENDMDL
MODEL 3
REMARK VINA RESULT:     -10.5      5.070     10.252
REMARK SMILES CCN(CC(C)(C)O)C(=O)N[C@@H](C(=O)NCCCNC(=O)c1ccc(-c2c3nc(c(-c4cc(S(=O)(=O)[O-])ccc4F)c4ccc([nH]4)c(-c4cc(S(=O)(=O)[O-])ccc4F)c4nc(c(-c5cc(S(=O)(=O)[O-])ccc5F)c5ccc2[nH]5)C=C4)C=C3)cc1)C(C)(C)C
REMARK SMILES IDX 16 1 15 2 13 3 14 4 12 6 11 7 9 8 10 9 3 11 2 12 1 13 4 14
REMARK SMILES IDX 5 15 6 16 7 17 8 18 85 20 86 21 87 22 88 23 17 24 18 25
REMARK SMILES IDX 19 26 20 27 21 29 22 30 23 31 84 32 24 33 83 34 25 35 26 36
REMARK SMILES IDX 27 37 77 38 28 39 82 40 76 41 78 42 29 43 81 44 75 45 74 46
REMARK SMILES IDX 30 48 62 49 42 50 61 51 43 52 46 53 60 54 79 55 44 56 45 57
REMARK SMILES IDX 59 59 80 60 47 61 31 62 32 63 40 64 33 65 39 66 41 67 38 68
REMARK SMILES IDX 34 69 35 70 36 71 37 72 63 73 64 74 72 75 65 76 71 77 73 78
REMARK SMILES IDX 70 79 66 80 67 81 68 82 69 83 48 84 49 85 57 86 50 87 56 88
REMARK SMILES IDX 58 89 55 90 51 91 52 92 53 93 54 94
REMARK H PARENT 15 5 11 10 8 19 19 28 78 47 46 58
REMARK Flexibility Score: inf
ROOT
ATOM      1  C   UNL A   1      36.875  22.443  25.384  1.00  0.00     0.117 C 
ENDROOT
BRANCH   1   2
ATOM      2  N   UNL A   1      35.965  22.218  26.500  1.00  0.00    -0.354 N 
ATOM      3  C   UNL A   1      34.620  22.421  26.631  1.00  0.00     0.243 C 
ATOM      4  O   UNL A   1      34.089  21.786  27.551  1.00  0.00    -0.273 OA
ATOM      5  H   UNL A   1      36.398  21.853  27.305  1.00  0.00     0.163 HD
BRANCH   3   6
ATOM      6  C   UNL A   1      33.765  23.200  25.574  1.00  0.00     0.178 C 
BRANCH   6   7
ATOM      7  N   UNL A   1      32.603  23.838  26.163  1.00  0.00    -0.326 N 
ATOM      8  C   UNL A   1      32.147  25.095  26.251  1.00  0.00     0.318 C 
ATOM      9  O   UNL A   1      31.238  25.230  27.078  1.00  0.00    -0.249 OA
ATOM     10  H   UNL A   1      32.006  23.193  26.606  1.00  0.00     0.166 HD
BRANCH   8  11
ATOM     11  N   UNL A   1      32.670  26.158  25.558  1.00  0.00    -0.322 N 
BRANCH  11  12
ATOM     12  C   UNL A   1      32.359  26.153  24.115  1.00  0.00     0.118 C 
ATOM     13  C   UNL A   1      33.449  26.806  23.267  1.00  0.00     0.027 C 
ENDBRANCH  11  12
BRANCH  11  14
ATOM     14  C   UNL A   1      33.675  27.167  25.970  1.00  0.00     0.155 C 
BRANCH  14  15
ATOM     15  C   UNL A   1      33.190  28.430  26.781  1.00  0.00     0.077 C 
ATOM     16  C   UNL A   1      34.309  29.251  27.429  1.00  0.00     0.043 C 
ATOM     17  C   UNL A   1      32.455  29.382  25.825  1.00  0.00     0.043 C 
BRANCH  15  18
ATOM     18  O   UNL A   1      32.266  28.053  27.806  1.00  0.00    -0.389 OA
ATOM     19  H   UNL A   1      32.547  28.436  28.651  1.00  0.00     0.211 HD
ENDBRANCH  15  18
ENDBRANCH  14  15
ENDBRANCH  11  14
ENDBRANCH   8  11
ENDBRANCH   6   7
BRANCH   6  20
ATOM     20  C   UNL A   1      33.358  22.379  24.291  1.00  0.00    -0.009 C 
ATOM     21  C   UNL A   1      31.832  22.466  24.020  1.00  0.00     0.013 C 
ATOM     22  C   UNL A   1      34.066  22.979  23.059  1.00  0.00     0.013 C 
ATOM     23  C   UNL A   1      33.697  20.881  24.401  1.00  0.00     0.013 C 
ENDBRANCH   6  20
ENDBRANCH   3   6
ENDBRANCH   1   2
BRANCH   1  24
ATOM     24  C   UNL A   1      37.825  21.291  25.131  1.00  0.00     0.042 C 
BRANCH  24  25
ATOM     25  C   UNL A   1      39.015  21.278  26.076  1.00  0.00     0.118 C 
BRANCH  25  26
ATOM     26  N   UNL A   1      39.808  20.058  26.002  1.00  0.00    -0.352 N 
ATOM     27  C   UNL A   1      41.181  19.884  26.074  1.00  0.00     0.251 C 
ATOM     28  H   UNL A   1      39.290  19.229  25.884  1.00  0.00     0.163 HD
ATOM     29  O   UNL A   1      41.668  18.781  25.870  1.00  0.00    -0.269 OA
BRANCH  27  30
ATOM     30  C   UNL A   1      42.041  21.055  26.350  1.00  0.00     0.039 A 
ATOM     31  C   UNL A   1      42.487  21.845  25.288  1.00  0.00     0.014 A 
ATOM     32  C   UNL A   1      42.329  21.419  27.664  1.00  0.00     0.014 A 
ATOM     33  C   UNL A   1      43.117  23.064  25.557  1.00  0.00     0.010 A 
ATOM     34  C   UNL A   1      42.828  22.687  27.927  1.00  0.00     0.010 A 
ATOM     35  C   UNL A   1      43.229  23.528  26.879  1.00  0.00    -0.014 A 
BRANCH  35  36
ATOM     36  C   UNL A   1      43.761  24.881  27.200  1.00  0.00     0.031 A 
ATOM     37  C   UNL A   1      42.840  25.928  27.768  1.00  0.00     0.074 A 
ATOM     38  C   UNL A   1      45.030  25.201  26.876  1.00  0.00     0.049 A 
ATOM     39  N   UNL A   1      43.055  27.203  27.973  1.00  0.00    -0.248 NA
ATOM     40  C   UNL A   1      41.473  25.493  28.089  1.00  0.00     0.031 C 
ATOM     41  C   UNL A   1      45.997  24.304  26.238  1.00  0.00     0.029 A 
ATOM     42  N   UNL A   1      45.722  26.378  27.023  1.00  0.00    -0.354 N 
ATOM     43  C   UNL A   1      41.841  27.724  28.410  1.00  0.00     0.074 A 
ATOM     44  C   UNL A   1      40.878  26.645  28.349  1.00  0.00     0.031 C 
ATOM     45  C   UNL A   1      47.161  24.953  26.074  1.00  0.00     0.029 A 
ATOM     46  C   UNL A   1      47.014  26.323  26.552  1.00  0.00     0.049 A 
ATOM     47  H   UNL A   1      45.330  27.186  27.425  1.00  0.00     0.167 HD
ATOM     48  C   UNL A   1      41.561  28.974  28.859  1.00  0.00     0.034 A 
ATOM     49  C   UNL A   1      47.969  27.271  26.502  1.00  0.00     0.034 A 
ATOM     50  C   UNL A   1      42.544  30.025  28.945  1.00  0.00     0.049 A 
ATOM     51  C   UNL A   1      47.658  28.641  27.045  1.00  0.00     0.074 A 
ATOM     52  C   UNL A   1      42.401  31.307  29.445  1.00  0.00     0.029 A 
ATOM     53  N   UNL A   1      43.863  29.912  28.519  1.00  0.00    -0.354 N 
ATOM     54  N   UNL A   1      46.522  29.104  27.515  1.00  0.00    -0.248 NA
ATOM     55  C   UNL A   1      48.761  29.610  27.066  1.00  0.00     0.031 C 
ATOM     56  C   UNL A   1      43.615  31.984  29.275  1.00  0.00     0.029 A 
ATOM     57  C   UNL A   1      44.538  31.106  28.730  1.00  0.00     0.049 A 
ATOM     58  H   UNL A   1      44.261  29.102  28.125  1.00  0.00     0.167 HD
ATOM     59  C   UNL A   1      46.779  30.415  27.904  1.00  0.00     0.074 A 
ATOM     60  C   UNL A   1      48.183  30.658  27.634  1.00  0.00     0.031 C 
ATOM     61  C   UNL A   1      45.934  31.335  28.437  1.00  0.00     0.034 A 
BRANCH  48  62
ATOM     62  C   UNL A   1      40.133  29.250  29.275  1.00  0.00     0.023 A 
ATOM     63  C   UNL A   1      39.755  29.278  30.630  1.00  0.00     0.031 A 
ATOM     64  C   UNL A   1      39.120  29.407  28.312  1.00  0.00     0.131 A 
ATOM     65  C   UNL A   1      38.399  29.334  30.982  1.00  0.00     0.055 A 
ATOM     66  C   UNL A   1      37.780  29.569  28.673  1.00  0.00     0.041 A 
ATOM     67  F   UNL A   1      39.410  29.375  27.002  1.00  0.00    -0.206 F 
ATOM     68  C   UNL A   1      37.409  29.508  30.014  1.00  0.00     0.022 A 
BRANCH  65  69
ATOM     69  S   UNL A   1      37.941  28.979  32.701  1.00  0.00     0.124 S 
ATOM     70  O   UNL A   1      36.690  29.724  32.830  1.00  0.00    -0.237 OA
ATOM     71  O   UNL A   1      37.821  27.527  32.703  1.00  0.00    -0.237 OA
ATOM     72  O   UNL A   1      39.059  29.517  33.473  1.00  0.00    -0.744 OA
ENDBRANCH  65  69
ENDBRANCH  48  62
BRANCH  49  73
ATOM     73  C   UNL A   1      49.305  26.961  25.920  1.00  0.00     0.023 A 
ATOM     74  C   UNL A   1      49.672  27.435  24.651  1.00  0.00     0.031 A 
ATOM     75  C   UNL A   1      50.234  26.176  26.625  1.00  0.00     0.131 A 
ATOM     76  C   UNL A   1      50.921  27.091  24.108  1.00  0.00     0.055 A 
ATOM     77  C   UNL A   1      51.492  25.872  26.101  1.00  0.00     0.041 A 
ATOM     78  F   UNL A   1      49.937  25.708  27.848  1.00  0.00    -0.206 F 
ATOM     79  C   UNL A   1      51.837  26.323  24.830  1.00  0.00     0.022 A 
BRANCH  76  80
ATOM     80  S   UNL A   1      51.310  27.619  22.417  1.00  0.00     0.124 S 
ATOM     81  O   UNL A   1      50.596  28.887  22.328  1.00  0.00    -0.237 OA
ATOM     82  O   UNL A   1      52.767  27.704  22.455  1.00  0.00    -0.237 OA
ATOM     83  O   UNL A   1      50.774  26.540  21.591  1.00  0.00    -0.744 OA
ENDBRANCH  76  80
ENDBRANCH  49  73
BRANCH  61  84
ATOM     84  C   UNL A   1      46.524  32.676  28.790  1.00  0.00     0.023 A 
ATOM     85  C   UNL A   1      47.058  32.936  30.064  1.00  0.00     0.031 A 
ATOM     86  C   UNL A   1      46.538  33.715  27.841  1.00  0.00     0.131 A 
ATOM     87  C   UNL A   1      47.532  34.219  30.374  1.00  0.00     0.055 A 
ATOM     88  C   UNL A   1      47.064  34.972  28.137  1.00  0.00     0.041 A 
ATOM     89  F   UNL A   1      46.040  33.520  26.609  1.00  0.00    -0.206 F 
ATOM     90  C   UNL A   1      47.553  35.234  29.413  1.00  0.00     0.022 A 
BRANCH  87  91
ATOM     91  S   UNL A   1      48.038  34.572  32.080  1.00  0.00     0.124 S 
ATOM     92  O   UNL A   1      48.054  33.239  32.673  1.00  0.00    -0.237 OA
ATOM     93  O   UNL A   1      49.340  35.203  31.894  1.00  0.00    -0.237 OA
ATOM     94  O   UNL A   1      46.985  35.457  32.574  1.00  0.00    -0.744 OA
ENDBRANCH  87  91
ENDBRANCH  61  84
ENDBRANCH  35  36
ENDBRANCH  27  30
ENDBRANCH  25  26
ENDBRANCH  24  25
ENDBRANCH   1  24
TORSDOF 20
ENDMDL
