MODEL 1
REMARK VINA RESULT:     -12.2      0.000      0.000
REMARK SMILES CCn1cccc1C(=O)N1CC[C@H](C(=O)NCCCNC(=O)c2ccc(-c3c4nc(c(-c5cc(S(=O)(=O)[O-])ccc5F)c5ccc([nH]5)c(-c5cc(S(=O)(=O)[O-])ccc5F)c5nc(c(-c6cc(S(=O)(=O)[O-])ccc6F)c6ccc3[nH]6)C=C5)C=C4)cc2)[C@H]1C
REMARK SMILES IDX 18 1 17 2 16 3 14 4 15 5 13 7 10 8 11 9 86 10 12 11 87 12
REMARK SMILES IDX 8 13 9 14 7 15 3 16 4 17 5 18 6 19 2 20 1 21 19 22 20 23
REMARK SMILES IDX 21 24 22 26 23 27 24 28 85 29 25 30 84 31 26 32 27 33 28 34
REMARK SMILES IDX 78 35 29 36 83 37 77 38 79 39 30 40 82 41 76 42 75 43 31 45
REMARK SMILES IDX 63 46 43 47 62 48 44 49 47 50 61 51 80 52 45 53 46 54 60 56
REMARK SMILES IDX 81 57 48 58 32 59 33 60 41 61 34 62 40 63 42 64 39 65 35 66
REMARK SMILES IDX 36 67 37 68 38 69 64 70 65 71 73 72 66 73 72 74 74 75 71 76
REMARK SMILES IDX 67 77 68 78 69 79 70 80 49 81 50 82 58 83 51 84 57 85 59 86
REMARK SMILES IDX 56 87 52 88 53 89 54 90 55 91
REMARK H PARENT 16 6 20 25 79 44 47 55
REMARK Flexibility Score: inf
ROOT
ATOM      1  C   UNL A   1      37.088  23.372  25.189  1.00  0.00     0.042 C 
ENDROOT
BRANCH   1   2
ATOM      2  C   UNL A   1      36.744  21.921  25.496  1.00  0.00     0.117 C 
BRANCH   2   3
ATOM      3  N   UNL A   1      35.714  21.768  26.500  1.00  0.00    -0.356 N 
ATOM      4  C   UNL A   1      34.367  21.690  26.433  1.00  0.00     0.225 C 
ATOM      5  O   UNL A   1      33.787  21.380  27.481  1.00  0.00    -0.275 OA
ATOM      6  H   UNL A   1      36.065  21.708  27.418  1.00  0.00     0.163 HD
BRANCH   4   7
ATOM      7  C   UNL A   1      33.515  22.053  25.225  1.00  0.00     0.102 C 
ATOM      8  N   UNL A   1      32.096  23.963  25.382  1.00  0.00    -0.334 N 
ATOM      9  C   UNL A   1      31.406  22.831  25.991  1.00  0.00     0.121 C 
ATOM     10  C   UNL A   1      33.375  23.515  24.765  1.00  0.00     0.094 C 
ATOM     11  C   UNL A   1      32.072  21.598  25.437  1.00  0.00     0.037 C 
ATOM     12  C   UNL A   1      33.382  23.553  23.240  1.00  0.00     0.032 C 
BRANCH   8  13
ATOM     13  C   UNL A   1      31.642  25.217  25.805  1.00  0.00     0.270 C 
ATOM     14  O   UNL A   1      31.204  25.336  26.952  1.00  0.00    -0.267 OA
BRANCH  13  15
ATOM     15  C   UNL A   1      31.707  26.395  24.962  1.00  0.00     0.107 A 
ATOM     16  N   UNL A   1      30.724  26.888  24.126  1.00  0.00    -0.344 N 
ATOM     17  C   UNL A   1      31.008  28.192  23.784  1.00  0.00     0.086 A 
ATOM     18  C   UNL A   1      32.183  28.555  24.391  1.00  0.00     0.020 A 
ATOM     19  C   UNL A   1      32.621  27.433  25.129  1.00  0.00     0.033 A 
BRANCH  16  20
ATOM     20  C   UNL A   1      29.458  26.252  23.797  1.00  0.00     0.119 C 
ATOM     21  C   UNL A   1      28.340  27.264  23.581  1.00  0.00     0.027 C 
ENDBRANCH  16  20
ENDBRANCH  13  15
ENDBRANCH   8  13
ENDBRANCH   4   7
ENDBRANCH   2   3
ENDBRANCH   1   2
BRANCH   1  22
ATOM     22  C   UNL A   1      37.608  24.058  26.434  1.00  0.00     0.118 C 
BRANCH  22  23
ATOM     23  N   UNL A   1      38.864  23.451  26.876  1.00  0.00    -0.352 N 
ATOM     24  C   UNL A   1      39.964  24.071  27.410  1.00  0.00     0.251 C 
ATOM     25  H   UNL A   1      38.928  22.474  26.778  1.00  0.00     0.163 HD
ATOM     26  O   UNL A   1      41.030  23.472  27.524  1.00  0.00    -0.269 OA
BRANCH  24  27
ATOM     27  C   UNL A   1      39.849  25.482  27.793  1.00  0.00     0.039 A 
ATOM     28  C   UNL A   1      39.519  25.794  29.113  1.00  0.00     0.014 A 
ATOM     29  C   UNL A   1      40.146  26.476  26.855  1.00  0.00     0.014 A 
ATOM     30  C   UNL A   1      39.572  27.118  29.519  1.00  0.00     0.010 A 
ATOM     31  C   UNL A   1      40.279  27.782  27.275  1.00  0.00     0.010 A 
ATOM     32  C   UNL A   1      39.987  28.097  28.605  1.00  0.00    -0.014 A 
BRANCH  32  33
ATOM     33  C   UNL A   1      40.179  29.482  29.066  1.00  0.00     0.031 A 
ATOM     34  C   UNL A   1      38.830  30.147  29.462  1.00  0.00     0.074 A 
ATOM     35  C   UNL A   1      41.488  29.890  29.058  1.00  0.00     0.049 A 
ATOM     36  N   UNL A   1      38.475  31.395  29.480  1.00  0.00    -0.248 NA
ATOM     37  C   UNL A   1      37.663  29.278  29.812  1.00  0.00     0.031 C 
ATOM     38  C   UNL A   1      42.651  29.048  28.653  1.00  0.00     0.029 A 
ATOM     39  N   UNL A   1      42.127  31.061  29.384  1.00  0.00    -0.354 N 
ATOM     40  C   UNL A   1      37.179  31.481  30.057  1.00  0.00     0.074 A 
ATOM     41  C   UNL A   1      36.685  30.140  30.111  1.00  0.00     0.031 C 
ATOM     42  C   UNL A   1      43.806  29.750  28.683  1.00  0.00     0.029 A 
ATOM     43  C   UNL A   1      43.527  31.103  29.107  1.00  0.00     0.049 A 
ATOM     44  H   UNL A   1      41.651  31.824  29.783  1.00  0.00     0.167 HD
ATOM     45  C   UNL A   1      36.663  32.643  30.574  1.00  0.00     0.034 A 
ATOM     46  C   UNL A   1      44.379  32.173  29.166  1.00  0.00     0.034 A 
ATOM     47  C   UNL A   1      37.615  33.687  30.403  1.00  0.00     0.049 A 
ATOM     48  C   UNL A   1      43.548  33.240  29.739  1.00  0.00     0.074 A 
ATOM     49  C   UNL A   1      38.023  34.389  29.302  1.00  0.00     0.029 A 
ATOM     50  N   UNL A   1      38.518  33.878  31.424  1.00  0.00    -0.354 N 
ATOM     51  N   UNL A   1      43.172  33.300  30.979  1.00  0.00    -0.248 NA
ATOM     52  C   UNL A   1      42.990  34.255  28.837  1.00  0.00     0.031 C 
ATOM     53  C   UNL A   1      39.408  34.521  29.519  1.00  0.00     0.029 A 
ATOM     54  C   UNL A   1      39.728  34.139  30.831  1.00  0.00     0.049 A 
ATOM     55  H   UNL A   1      38.333  33.837  32.389  1.00  0.00     0.167 HD
ATOM     56  C   UNL A   1      42.099  34.150  30.928  1.00  0.00     0.074 A 
ATOM     57  C   UNL A   1      42.248  34.925  29.714  1.00  0.00     0.031 C 
ATOM     58  C   UNL A   1      40.939  33.812  31.551  1.00  0.00     0.034 A 
BRANCH  45  59
ATOM     59  C   UNL A   1      35.464  32.996  31.427  1.00  0.00     0.023 A 
ATOM     60  C   UNL A   1      34.636  34.050  30.946  1.00  0.00     0.031 A 
ATOM     61  C   UNL A   1      35.259  32.617  32.757  1.00  0.00     0.131 A 
ATOM     62  C   UNL A   1      33.779  34.768  31.789  1.00  0.00     0.055 A 
ATOM     63  C   UNL A   1      34.348  33.297  33.588  1.00  0.00     0.041 A 
ATOM     64  F   UNL A   1      35.980  31.640  33.324  1.00  0.00    -0.206 F 
ATOM     65  C   UNL A   1      33.634  34.401  33.118  1.00  0.00     0.022 A 
BRANCH  62  66
ATOM     66  S   UNL A   1      33.018  36.293  31.150  1.00  0.00     0.124 S 
ATOM     67  O   UNL A   1      32.927  36.021  29.720  1.00  0.00    -0.237 OA
ATOM     68  O   UNL A   1      31.751  36.329  31.875  1.00  0.00    -0.237 OA
ATOM     69  O   UNL A   1      33.975  37.332  31.524  1.00  0.00    -0.744 OA
ENDBRANCH  62  66
ENDBRANCH  45  59
BRANCH  46  70
ATOM     70  C   UNL A   1      45.783  32.575  28.743  1.00  0.00     0.023 A 
ATOM     71  C   UNL A   1      46.161  33.248  27.568  1.00  0.00     0.031 A 
ATOM     72  C   UNL A   1      46.857  32.333  29.659  1.00  0.00     0.131 A 
ATOM     73  C   UNL A   1      47.503  33.709  27.408  1.00  0.00     0.055 A 
ATOM     74  C   UNL A   1      48.138  32.866  29.540  1.00  0.00     0.041 A 
ATOM     75  F   UNL A   1      46.714  31.560  30.745  1.00  0.00    -0.206 F 
ATOM     76  C   UNL A   1      48.465  33.578  28.413  1.00  0.00     0.022 A 
BRANCH  73  77
ATOM     77  S   UNL A   1      48.057  34.526  25.877  1.00  0.00     0.124 S 
ATOM     78  O   UNL A   1      48.472  35.835  26.367  1.00  0.00    -0.237 OA
ATOM     79  O   UNL A   1      49.121  33.648  25.405  1.00  0.00    -0.237 OA
ATOM     80  O   UNL A   1      46.853  34.531  25.045  1.00  0.00    -0.744 OA
ENDBRANCH  73  77
ENDBRANCH  46  70
BRANCH  58  81
ATOM     81  C   UNL A   1      41.092  32.796  32.690  1.00  0.00     0.023 A 
ATOM     82  C   UNL A   1      40.880  31.424  32.442  1.00  0.00     0.031 A 
ATOM     83  C   UNL A   1      41.329  33.138  34.035  1.00  0.00     0.131 A 
ATOM     84  C   UNL A   1      40.866  30.484  33.493  1.00  0.00     0.055 A 
ATOM     85  C   UNL A   1      41.327  32.205  35.082  1.00  0.00     0.041 A 
ATOM     86  F   UNL A   1      41.567  34.397  34.395  1.00  0.00    -0.206 F 
ATOM     87  C   UNL A   1      41.089  30.866  34.815  1.00  0.00     0.022 A 
BRANCH  84  88
ATOM     88  S   UNL A   1      40.572  28.735  33.114  1.00  0.00     0.124 S 
ATOM     89  O   UNL A   1      39.176  28.728  32.695  1.00  0.00    -0.237 OA
ATOM     90  O   UNL A   1      41.556  28.470  32.068  1.00  0.00    -0.237 OA
ATOM     91  O   UNL A   1      40.837  28.061  34.385  1.00  0.00    -0.744 OA
ENDBRANCH  84  88
ENDBRANCH  58  81
ENDBRANCH  32  33
ENDBRANCH  24  27
ENDBRANCH  22  23
ENDBRANCH   1  22
TORSDOF 16
ENDMDL
MODEL 2
REMARK VINA RESULT:     -12.1      1.595      2.814
REMARK SMILES CCn1cccc1C(=O)N1CC[C@H](C(=O)NCCCNC(=O)c2ccc(-c3c4nc(c(-c5cc(S(=O)(=O)[O-])ccc5F)c5ccc([nH]5)c(-c5cc(S(=O)(=O)[O-])ccc5F)c5nc(c(-c6cc(S(=O)(=O)[O-])ccc6F)c6ccc3[nH]6)C=C5)C=C4)cc2)[C@H]1C
REMARK SMILES IDX 18 1 17 2 16 3 14 4 15 5 13 7 10 8 11 9 86 10 12 11 87 12
REMARK SMILES IDX 8 13 9 14 7 15 3 16 4 17 5 18 6 19 2 20 1 21 19 22 20 23
REMARK SMILES IDX 21 24 22 26 23 27 24 28 85 29 25 30 84 31 26 32 27 33 28 34
REMARK SMILES IDX 78 35 29 36 83 37 77 38 79 39 30 40 82 41 76 42 75 43 31 45
REMARK SMILES IDX 63 46 43 47 62 48 44 49 47 50 61 51 80 52 45 53 46 54 60 56
REMARK SMILES IDX 81 57 48 58 32 59 33 60 41 61 34 62 40 63 42 64 39 65 35 66
REMARK SMILES IDX 36 67 37 68 38 69 64 70 65 71 73 72 66 73 72 74 74 75 71 76
REMARK SMILES IDX 67 77 68 78 69 79 70 80 49 81 50 82 58 83 51 84 57 85 59 86
REMARK SMILES IDX 56 87 52 88 53 89 54 90 55 91
REMARK H PARENT 16 6 20 25 79 44 47 55
REMARK Flexibility Score: inf
ROOT
ATOM      1  C   UNL A   1      36.837  23.688  25.059  1.00  0.00     0.042 C 
ENDROOT
BRANCH   1   2
ATOM      2  C   UNL A   1      35.338  23.944  24.976  1.00  0.00     0.117 C 
BRANCH   2   3
ATOM      3  N   UNL A   1      34.892  24.359  23.664  1.00  0.00    -0.356 N 
ATOM      4  C   UNL A   1      34.055  25.331  23.241  1.00  0.00     0.225 C 
ATOM      5  O   UNL A   1      34.026  25.531  22.021  1.00  0.00    -0.275 OA
ATOM      6  H   UNL A   1      35.275  23.825  22.931  1.00  0.00     0.163 HD
BRANCH   4   7
ATOM      7  C   UNL A   1      33.081  26.108  24.116  1.00  0.00     0.102 C 
ATOM      8  N   UNL A   1      31.758  24.892  25.683  1.00  0.00    -0.334 N 
ATOM      9  C   UNL A   1      31.104  24.819  24.381  1.00  0.00     0.121 C 
ATOM     10  C   UNL A   1      32.940  25.795  25.616  1.00  0.00     0.094 C 
ATOM     11  C   UNL A   1      31.657  25.969  23.579  1.00  0.00     0.037 C 
ATOM     12  C   UNL A   1      32.771  27.106  26.378  1.00  0.00     0.032 C 
BRANCH   8  13
ATOM     13  C   UNL A   1      31.401  23.872  26.571  1.00  0.00     0.270 C 
ATOM     14  O   UNL A   1      30.294  23.915  27.114  1.00  0.00    -0.267 OA
BRANCH  13  15
ATOM     15  C   UNL A   1      32.264  22.740  26.848  1.00  0.00     0.107 A 
ATOM     16  N   UNL A   1      32.567  21.686  26.007  1.00  0.00    -0.344 N 
ATOM     17  C   UNL A   1      33.680  21.020  26.471  1.00  0.00     0.086 A 
ATOM     18  C   UNL A   1      34.105  21.633  27.622  1.00  0.00     0.020 A 
ATOM     19  C   UNL A   1      33.222  22.709  27.859  1.00  0.00     0.033 A 
BRANCH  16  20
ATOM     20  C   UNL A   1      31.973  21.406  24.710  1.00  0.00     0.119 C 
ATOM     21  C   UNL A   1      32.658  20.248  23.996  1.00  0.00     0.027 C 
ENDBRANCH  16  20
ENDBRANCH  13  15
ENDBRANCH   8  13
ENDBRANCH   4   7
ENDBRANCH   2   3
ENDBRANCH   1   2
BRANCH   1  22
ATOM     22  C   UNL A   1      37.358  24.088  26.423  1.00  0.00     0.118 C 
BRANCH  22  23
ATOM     23  N   UNL A   1      38.671  23.494  26.674  1.00  0.00    -0.352 N 
ATOM     24  C   UNL A   1      39.822  24.118  27.079  1.00  0.00     0.251 C 
ATOM     25  H   UNL A   1      38.738  22.522  26.533  1.00  0.00     0.163 HD
ATOM     26  O   UNL A   1      40.904  23.539  27.031  1.00  0.00    -0.269 OA
BRANCH  24  27
ATOM     27  C   UNL A   1      39.735  25.514  27.523  1.00  0.00     0.039 A 
ATOM     28  C   UNL A   1      39.447  25.774  28.864  1.00  0.00     0.014 A 
ATOM     29  C   UNL A   1      40.017  26.543  26.620  1.00  0.00     0.014 A 
ATOM     30  C   UNL A   1      39.527  27.079  29.323  1.00  0.00     0.010 A 
ATOM     31  C   UNL A   1      40.179  27.829  27.089  1.00  0.00     0.010 A 
ATOM     32  C   UNL A   1      39.928  28.091  28.439  1.00  0.00    -0.014 A 
BRANCH  32  33
ATOM     33  C   UNL A   1      40.150  29.453  28.951  1.00  0.00     0.031 A 
ATOM     34  C   UNL A   1      38.812  30.150  29.325  1.00  0.00     0.074 A 
ATOM     35  C   UNL A   1      41.472  29.817  28.998  1.00  0.00     0.049 A 
ATOM     36  N   UNL A   1      38.498  31.408  29.373  1.00  0.00    -0.248 NA
ATOM     37  C   UNL A   1      37.607  29.311  29.611  1.00  0.00     0.031 C 
ATOM     38  C   UNL A   1      42.620  28.950  28.602  1.00  0.00     0.029 A 
ATOM     39  N   UNL A   1      42.138  30.954  29.382  1.00  0.00    -0.354 N 
ATOM     40  C   UNL A   1      37.187  31.520  29.912  1.00  0.00     0.074 A 
ATOM     41  C   UNL A   1      36.648  30.196  29.906  1.00  0.00     0.031 C 
ATOM     42  C   UNL A   1      43.795  29.610  28.692  1.00  0.00     0.029 A 
ATOM     43  C   UNL A   1      43.547  30.958  29.151  1.00  0.00     0.049 A 
ATOM     44  H   UNL A   1      41.674  31.720  29.791  1.00  0.00     0.167 HD
ATOM     45  C   UNL A   1      36.693  32.682  30.451  1.00  0.00     0.034 A 
ATOM     46  C   UNL A   1      44.431  31.996  29.272  1.00  0.00     0.034 A 
ATOM     47  C   UNL A   1      37.684  33.698  30.344  1.00  0.00     0.049 A 
ATOM     48  C   UNL A   1      43.617  33.072  29.854  1.00  0.00     0.074 A 
ATOM     49  C   UNL A   1      38.150  34.420  29.280  1.00  0.00     0.029 A 
ATOM     50  N   UNL A   1      38.559  33.826  31.399  1.00  0.00    -0.354 N 
ATOM     51  N   UNL A   1      43.204  33.105  31.082  1.00  0.00    -0.248 NA
ATOM     52  C   UNL A   1      43.122  34.133  28.968  1.00  0.00     0.031 C 
ATOM     53  C   UNL A   1      39.531  34.498  29.546  1.00  0.00     0.029 A 
ATOM     54  C   UNL A   1      39.795  34.064  30.853  1.00  0.00     0.049 A 
ATOM     55  H   UNL A   1      38.342  33.760  32.356  1.00  0.00     0.167 HD
ATOM     56  C   UNL A   1      42.161  33.992  31.025  1.00  0.00     0.074 A 
ATOM     57  C   UNL A   1      42.375  34.800  29.843  1.00  0.00     0.031 C 
ATOM     58  C   UNL A   1      40.971  33.674  31.600  1.00  0.00     0.034 A 
BRANCH  45  59
ATOM     59  C   UNL A   1      35.479  33.048  31.277  1.00  0.00     0.023 A 
ATOM     60  C   UNL A   1      34.722  34.165  30.824  1.00  0.00     0.031 A 
ATOM     61  C   UNL A   1      35.204  32.609  32.575  1.00  0.00     0.131 A 
ATOM     62  C   UNL A   1      33.867  34.880  31.673  1.00  0.00     0.055 A 
ATOM     63  C   UNL A   1      34.293  33.288  33.408  1.00  0.00     0.041 A 
ATOM     64  F   UNL A   1      35.854  31.569  33.114  1.00  0.00    -0.206 F 
ATOM     65  C   UNL A   1      33.651  34.449  32.974  1.00  0.00     0.022 A 
BRANCH  62  66
ATOM     66  S   UNL A   1      33.206  36.472  31.091  1.00  0.00     0.124 S 
ATOM     67  O   UNL A   1      31.800  36.384  31.470  1.00  0.00    -0.237 OA
ATOM     68  O   UNL A   1      34.011  37.430  31.844  1.00  0.00    -0.237 OA
ATOM     69  O   UNL A   1      33.464  36.442  29.653  1.00  0.00    -0.744 OA
ENDBRANCH  62  66
ENDBRANCH  45  59
BRANCH  46  70
ATOM     70  C   UNL A   1      45.861  32.363  28.907  1.00  0.00     0.023 A 
ATOM     71  C   UNL A   1      46.962  32.475  29.775  1.00  0.00     0.031 A 
ATOM     72  C   UNL A   1      46.179  32.538  27.522  1.00  0.00     0.131 A 
ATOM     73  C   UNL A   1      48.276  32.652  29.245  1.00  0.00     0.055 A 
ATOM     74  C   UNL A   1      47.470  32.617  27.007  1.00  0.00     0.041 A 
ATOM     75  F   UNL A   1      45.234  32.632  26.576  1.00  0.00    -0.206 F 
ATOM     76  C   UNL A   1      48.535  32.656  27.872  1.00  0.00     0.022 A 
BRANCH  73  77
ATOM     77  S   UNL A   1      49.723  32.869  30.329  1.00  0.00     0.124 S 
ATOM     78  O   UNL A   1      49.123  33.466  31.517  1.00  0.00    -0.237 OA
ATOM     79  O   UNL A   1      50.227  31.509  30.478  1.00  0.00    -0.237 OA
ATOM     80  O   UNL A   1      50.589  33.763  29.558  1.00  0.00    -0.744 OA
ENDBRANCH  73  77
ENDBRANCH  46  70
BRANCH  58  81
ATOM     81  C   UNL A   1      41.054  32.617  32.709  1.00  0.00     0.023 A 
ATOM     82  C   UNL A   1      40.847  31.257  32.402  1.00  0.00     0.031 A 
ATOM     83  C   UNL A   1      41.216  32.910  34.077  1.00  0.00     0.131 A 
ATOM     84  C   UNL A   1      40.768  30.280  33.416  1.00  0.00     0.055 A 
ATOM     85  C   UNL A   1      41.150  31.941  35.088  1.00  0.00     0.041 A 
ATOM     86  F   UNL A   1      41.442  34.153  34.494  1.00  0.00    -0.206 F 
ATOM     87  C   UNL A   1      40.919  30.615  34.761  1.00  0.00     0.022 A 
BRANCH  84  88
ATOM     88  S   UNL A   1      40.485  28.548  32.959  1.00  0.00     0.124 S 
ATOM     89  O   UNL A   1      41.492  28.320  31.930  1.00  0.00    -0.237 OA
ATOM     90  O   UNL A   1      40.694  27.850  34.224  1.00  0.00    -0.237 OA
ATOM     91  O   UNL A   1      39.103  28.544  32.481  1.00  0.00    -0.744 OA
ENDBRANCH  84  88
ENDBRANCH  58  81
ENDBRANCH  32  33
ENDBRANCH  24  27
ENDBRANCH  22  23
ENDBRANCH   1  22
TORSDOF 16
ENDMDL
MODEL 3
REMARK VINA RESULT:     -12.0      4.376     10.144
REMARK SMILES CCn1cccc1C(=O)N1CC[C@H](C(=O)NCCCNC(=O)c2ccc(-c3c4nc(c(-c5cc(S(=O)(=O)[O-])ccc5F)c5ccc([nH]5)c(-c5cc(S(=O)(=O)[O-])ccc5F)c5nc(c(-c6cc(S(=O)(=O)[O-])ccc6F)c6ccc3[nH]6)C=C5)C=C4)cc2)[C@H]1C
REMARK SMILES IDX 18 1 17 2 16 3 14 4 15 5 13 7 10 8 11 9 86 10 12 11 87 12
REMARK SMILES IDX 8 13 9 14 7 15 3 16 4 17 5 18 6 19 2 20 1 21 19 22 20 23
REMARK SMILES IDX 21 24 22 26 23 27 24 28 85 29 25 30 84 31 26 32 27 33 28 34
REMARK SMILES IDX 78 35 29 36 83 37 77 38 79 39 30 40 82 41 76 42 75 43 31 45
REMARK SMILES IDX 63 46 43 47 62 48 44 49 47 50 61 51 80 52 45 53 46 54 60 56
REMARK SMILES IDX 81 57 48 58 32 59 33 60 41 61 34 62 40 63 42 64 39 65 35 66
REMARK SMILES IDX 36 67 37 68 38 69 64 70 65 71 73 72 66 73 72 74 74 75 71 76
REMARK SMILES IDX 67 77 68 78 69 79 70 80 49 81 50 82 58 83 51 84 57 85 59 86
REMARK SMILES IDX 56 87 52 88 53 89 54 90 55 91
REMARK H PARENT 16 6 20 25 79 44 47 55
REMARK Flexibility Score: inf
ROOT
ATOM      1  C   UNL A   1      33.496  28.778  27.024  1.00  0.00     0.042 C 
ENDROOT
BRANCH   1   2
ATOM      2  C   UNL A   1      32.718  29.728  26.124  1.00  0.00     0.117 C 
BRANCH   2   3
ATOM      3  N   UNL A   1      33.043  29.594  24.720  1.00  0.00    -0.356 N 
ATOM      4  C   UNL A   1      32.471  28.912  23.704  1.00  0.00     0.225 C 
ATOM      5  O   UNL A   1      32.906  29.156  22.572  1.00  0.00    -0.275 OA
ATOM      6  H   UNL A   1      33.842  30.103  24.451  1.00  0.00     0.163 HD
BRANCH   4   7
ATOM      7  C   UNL A   1      31.432  27.808  23.848  1.00  0.00     0.102 C 
ATOM      8  N   UNL A   1      32.053  25.592  23.225  1.00  0.00    -0.334 N 
ATOM      9  C   UNL A   1      31.659  26.311  22.018  1.00  0.00     0.121 C 
ATOM     10  C   UNL A   1      31.811  26.435  24.428  1.00  0.00     0.094 C 
ATOM     11  C   UNL A   1      30.822  27.473  22.488  1.00  0.00     0.037 C 
ATOM     12  C   UNL A   1      30.673  25.946  25.318  1.00  0.00     0.032 C 
BRANCH   8  13
ATOM     13  C   UNL A   1      32.878  24.485  23.000  1.00  0.00     0.270 C 
ATOM     14  O   UNL A   1      33.502  24.414  21.938  1.00  0.00    -0.267 OA
BRANCH  13  15
ATOM     15  C   UNL A   1      33.065  23.438  23.985  1.00  0.00     0.107 A 
ATOM     16  N   UNL A   1      34.140  23.264  24.836  1.00  0.00    -0.344 N 
ATOM     17  C   UNL A   1      33.798  22.400  25.853  1.00  0.00     0.086 A 
ATOM     18  C   UNL A   1      32.499  22.002  25.668  1.00  0.00     0.020 A 
ATOM     19  C   UNL A   1      32.038  22.650  24.501  1.00  0.00     0.033 A 
BRANCH  16  20
ATOM     20  C   UNL A   1      35.387  24.010  24.831  1.00  0.00     0.119 C 
ATOM     21  C   UNL A   1      36.338  23.559  25.932  1.00  0.00     0.027 C 
ENDBRANCH  16  20
ENDBRANCH  13  15
ENDBRANCH   8  13
ENDBRANCH   4   7
ENDBRANCH   2   3
ENDBRANCH   1   2
BRANCH   1  22
ATOM     22  C   UNL A   1      34.981  29.042  26.899  1.00  0.00     0.118 C 
BRANCH  22  23
ATOM     23  N   UNL A   1      35.316  30.379  27.390  1.00  0.00    -0.352 N 
ATOM     24  C   UNL A   1      36.388  30.759  28.155  1.00  0.00     0.251 C 
ATOM     25  H   UNL A   1      34.692  31.098  27.140  1.00  0.00     0.163 HD
ATOM     26  O   UNL A   1      36.424  31.867  28.683  1.00  0.00    -0.269 OA
BRANCH  24  27
ATOM     27  C   UNL A   1      37.468  29.788  28.368  1.00  0.00     0.039 A 
ATOM     28  C   UNL A   1      38.564  29.805  27.504  1.00  0.00     0.014 A 
ATOM     29  C   UNL A   1      37.412  28.927  29.468  1.00  0.00     0.014 A 
ATOM     30  C   UNL A   1      39.657  29.006  27.799  1.00  0.00     0.010 A 
ATOM     31  C   UNL A   1      38.528  28.194  29.809  1.00  0.00     0.010 A 
ATOM     32  C   UNL A   1      39.645  28.234  28.969  1.00  0.00    -0.014 A 
BRANCH  32  33
ATOM     33  C   UNL A   1      40.855  27.493  29.360  1.00  0.00     0.031 A 
ATOM     34  C   UNL A   1      41.169  26.341  28.364  1.00  0.00     0.074 A 
ATOM     35  C   UNL A   1      41.449  27.968  30.501  1.00  0.00     0.049 A 
ATOM     36  N   UNL A   1      41.808  25.225  28.536  1.00  0.00    -0.248 NA
ATOM     37  C   UNL A   1      40.609  26.402  26.978  1.00  0.00     0.031 C 
ATOM     38  C   UNL A   1      40.974  29.136  31.299  1.00  0.00     0.029 A 
ATOM     39  N   UNL A   1      42.557  27.603  31.227  1.00  0.00    -0.354 N 
ATOM     40  C   UNL A   1      41.940  24.588  27.271  1.00  0.00     0.074 A 
ATOM     41  C   UNL A   1      41.065  25.293  26.386  1.00  0.00     0.031 C 
ATOM     42  C   UNL A   1      41.726  29.318  32.407  1.00  0.00     0.029 A 
ATOM     43  C   UNL A   1      42.758  28.308  32.451  1.00  0.00     0.049 A 
ATOM     44  H   UNL A   1      43.172  26.897  30.923  1.00  0.00     0.167 HD
ATOM     45  C   UNL A   1      42.867  23.609  27.016  1.00  0.00     0.034 A 
ATOM     46  C   UNL A   1      43.661  28.052  33.448  1.00  0.00     0.034 A 
ATOM     47  C   UNL A   1      43.606  23.353  28.205  1.00  0.00     0.049 A 
ATOM     48  C   UNL A   1      44.488  26.974  32.890  1.00  0.00     0.074 A 
ATOM     49  C   UNL A   1      43.284  22.709  29.368  1.00  0.00     0.029 A 
ATOM     50  N   UNL A   1      44.750  24.095  28.398  1.00  0.00    -0.354 N 
ATOM     51  N   UNL A   1      45.368  27.127  31.950  1.00  0.00    -0.248 NA
ATOM     52  C   UNL A   1      44.231  25.596  33.327  1.00  0.00     0.031 C 
ATOM     53  C   UNL A   1      43.913  23.508  30.343  1.00  0.00     0.029 A 
ATOM     54  C   UNL A   1      44.784  24.421  29.730  1.00  0.00     0.049 A 
ATOM     55  H   UNL A   1      45.413  24.342  27.714  1.00  0.00     0.167 HD
ATOM     56  C   UNL A   1      45.523  25.852  31.472  1.00  0.00     0.074 A 
ATOM     57  C   UNL A   1      45.086  24.964  32.528  1.00  0.00     0.031 C 
ATOM     58  C   UNL A   1      45.482  25.622  30.133  1.00  0.00     0.034 A 
BRANCH  45  59
ATOM     59  C   UNL A   1      43.391  22.928  25.770  1.00  0.00     0.023 A 
ATOM     60  C   UNL A   1      43.373  21.505  25.774  1.00  0.00     0.031 A 
ATOM     61  C   UNL A   1      44.157  23.527  24.766  1.00  0.00     0.131 A 
ATOM     62  C   UNL A   1      44.191  20.747  24.927  1.00  0.00     0.055 A 
ATOM     63  C   UNL A   1      44.929  22.763  23.869  1.00  0.00     0.041 A 
ATOM     64  F   UNL A   1      44.255  24.859  24.661  1.00  0.00    -0.206 F 
ATOM     65  C   UNL A   1      44.980  21.371  23.972  1.00  0.00     0.022 A 
BRANCH  62  66
ATOM     66  S   UNL A   1      44.334  18.959  25.236  1.00  0.00     0.124 S 
ATOM     67  O   UNL A   1      43.466  18.773  26.393  1.00  0.00    -0.237 OA
ATOM     68  O   UNL A   1      43.853  18.393  23.979  1.00  0.00    -0.237 OA
ATOM     69  O   UNL A   1      45.760  18.772  25.493  1.00  0.00    -0.744 OA
ENDBRANCH  62  66
ENDBRANCH  45  59
BRANCH  46  70
ATOM     70  C   UNL A   1      43.961  28.448  34.884  1.00  0.00     0.023 A 
ATOM     71  C   UNL A   1      44.365  27.607  35.936  1.00  0.00     0.031 A 
ATOM     72  C   UNL A   1      43.921  29.840  35.222  1.00  0.00     0.131 A 
ATOM     73  C   UNL A   1      44.780  28.167  37.182  1.00  0.00     0.055 A 
ATOM     74  C   UNL A   1      44.415  30.385  36.404  1.00  0.00     0.041 A 
ATOM     75  F   UNL A   1      43.401  30.762  34.400  1.00  0.00    -0.206 F 
ATOM     76  C   UNL A   1      44.868  29.546  37.391  1.00  0.00     0.022 A 
BRANCH  73  77
ATOM     77  S   UNL A   1      45.247  27.116  38.594  1.00  0.00     0.124 S 
ATOM     78  O   UNL A   1      45.944  26.018  37.936  1.00  0.00    -0.237 OA
ATOM     79  O   UNL A   1      46.070  28.006  39.406  1.00  0.00    -0.237 OA
ATOM     80  O   UNL A   1      43.958  26.762  39.190  1.00  0.00    -0.744 OA
ENDBRANCH  73  77
ENDBRANCH  46  70
BRANCH  58  81
ATOM     81  C   UNL A   1      45.806  26.841  29.260  1.00  0.00     0.023 A 
ATOM     82  C   UNL A   1      44.761  27.620  28.723  1.00  0.00     0.031 A 
ATOM     83  C   UNL A   1      47.102  27.199  28.843  1.00  0.00     0.131 A 
ATOM     84  C   UNL A   1      45.018  28.654  27.798  1.00  0.00     0.055 A 
ATOM     85  C   UNL A   1      47.364  28.234  27.933  1.00  0.00     0.041 A 
ATOM     86  F   UNL A   1      48.175  26.556  29.298  1.00  0.00    -0.206 F 
ATOM     87  C   UNL A   1      46.316  28.966  27.399  1.00  0.00     0.022 A 
BRANCH  84  88
ATOM     88  S   UNL A   1      43.630  29.611  27.130  1.00  0.00     0.124 S 
ATOM     89  O   UNL A   1      42.921  28.626  26.323  1.00  0.00    -0.237 OA
ATOM     90  O   UNL A   1      42.946  30.060  28.339  1.00  0.00    -0.237 OA
ATOM     91  O   UNL A   1      44.285  30.675  26.369  1.00  0.00    -0.744 OA
ENDBRANCH  84  88
ENDBRANCH  58  81
ENDBRANCH  32  33
ENDBRANCH  24  27
ENDBRANCH  22  23
ENDBRANCH   1  22
TORSDOF 16
ENDMDL
