MODEL 1
REMARK VINA RESULT:     -10.5      0.000      0.000
REMARK SMILES Cc1ccc(S(=O)(=O)n2cc(C(=O)C(=O)NCC(=O)N[C@@H](Cc3c[nH]c4ccccc34)C(=O)NCCCNC(=O)c3ccc(-c4c5nc(c(-c6cc(S(=O)(=O)[O-])ccc6F)c6ccc([nH]6)c(-c6cc(S(=O)(=O)[O-])ccc6F)c6nc(c(-c7cc(S(=O)(=O)[O-])ccc7F)c7ccc4[nH]7)C=C6)C=C5)cc3)c3ccccc32)cc1
REMARK SMILES IDX 32 1 33 2 34 3 21 5 20 6 18 7 19 8 17 10 16 11 14 12 15 13
REMARK SMILES IDX 12 15 13 16 11 17 9 18 10 19 109 20 104 21 108 22 105 23
REMARK SMILES IDX 107 24 106 25 6 26 7 27 8 28 5 29 1 30 2 31 3 32 111 33 4 34
REMARK SMILES IDX 110 35 22 36 23 37 24 38 31 39 25 40 26 41 30 42 27 44 29 45
REMARK SMILES IDX 28 46 35 47 36 48 37 49 38 50 39 51 40 53 41 54 42 55 103 56
REMARK SMILES IDX 43 57 102 58 44 59 45 60 46 61 96 62 47 63 101 64 95 65
REMARK SMILES IDX 97 66 48 67 100 68 94 69 93 70 49 72 81 73 61 74 80 75 62 76
REMARK SMILES IDX 65 77 79 78 98 79 63 80 64 81 78 83 99 84 66 85 50 86 51 87
REMARK SMILES IDX 59 88 52 89 58 90 60 91 57 92 53 93 54 94 55 95 56 96 82 97
REMARK SMILES IDX 83 98 91 99 84 100 90 101 92 102 89 103 85 104 86 105 87 106
REMARK SMILES IDX 88 107 67 108 68 109 76 110 69 111 75 112 77 113 74 114
REMARK SMILES IDX 70 115 71 116 72 117 73 118
REMARK H PARENT 34 4 20 9 16 14 25 43 38 52 97 71 65 82
REMARK Flexibility Score: inf
ROOT
ATOM      1  C   UNL A   1      43.384  27.582  33.869  1.00  0.00     0.242 C 
ATOM      2  O   UNL A   1      42.435  27.462  33.085  1.00  0.00    -0.273 OA
ATOM      3  N   UNL A   1      44.213  28.655  33.710  1.00  0.00    -0.354 N 
ATOM      4  H   UNL A   1      44.146  29.117  32.843  1.00  0.00     0.163 HD
ENDROOT
BRANCH   1   5
ATOM      5  C   UNL A   1      43.610  26.495  34.942  1.00  0.00     0.175 C 
BRANCH   5   6
ATOM      6  N   UNL A   1      42.353  26.140  35.616  1.00  0.00    -0.342 N 
ATOM      7  C   UNL A   1      42.192  25.815  36.937  1.00  0.00     0.240 C 
ATOM      8  O   UNL A   1      41.064  25.878  37.430  1.00  0.00    -0.273 OA
ATOM      9  H   UNL A   1      41.540  26.135  35.059  1.00  0.00     0.164 HD
BRANCH   7  10
ATOM     10  C   UNL A   1      43.425  25.444  37.787  1.00  0.00     0.216 C 
BRANCH  10  11
ATOM     11  N   UNL A   1      44.383  26.555  37.833  1.00  0.00    -0.340 N 
ATOM     12  C   UNL A   1      45.712  26.524  38.215  1.00  0.00     0.292 C 
ATOM     13  O   UNL A   1      46.364  27.557  38.320  1.00  0.00    -0.265 OA
ATOM     14  H   UNL A   1      44.035  27.433  37.556  1.00  0.00     0.164 HD
BRANCH  12  15
ATOM     15  C   UNL A   1      46.376  25.169  38.482  1.00  0.00     0.252 C 
ATOM     16  O   UNL A   1      46.754  24.978  39.640  1.00  0.00    -0.283 OA
BRANCH  15  17
ATOM     17  C   UNL A   1      46.662  24.218  37.400  1.00  0.00     0.054 A 
ATOM     18  N   UNL A   1      46.688  22.486  35.942  1.00  0.00    -0.240 N 
ATOM     19  C   UNL A   1      46.001  23.042  37.024  1.00  0.00     0.117 A 
ATOM     20  C   UNL A   1      47.588  23.455  35.478  1.00  0.00     0.065 A 
ATOM     21  C   UNL A   1      47.803  24.321  36.547  1.00  0.00     0.012 A 
ATOM     22  C   UNL A   1      48.405  23.477  34.333  1.00  0.00     0.028 A 
ATOM     23  C   UNL A   1      48.982  25.095  36.558  1.00  0.00     0.011 A 
ATOM     24  C   UNL A   1      49.591  24.208  34.392  1.00  0.00     0.002 A 
ATOM     25  C   UNL A   1      49.898  24.974  35.508  1.00  0.00     0.001 A 
BRANCH  18  26
ATOM     26  S   UNL A   1      47.417  20.889  35.967  1.00  0.00     0.268 S 
ATOM     27  O   UNL A   1      46.676  20.155  34.954  1.00  0.00    -0.201 OA
ATOM     28  O   UNL A   1      47.352  20.509  37.370  1.00  0.00    -0.201 OA
BRANCH  26  29
ATOM     29  C   UNL A   1      49.115  20.599  35.599  1.00  0.00     0.088 A 
ATOM     30  C   UNL A   1      52.965  19.736  33.837  1.00  0.00     0.044 C 
ATOM     31  C   UNL A   1      51.648  20.071  34.478  1.00  0.00    -0.051 A 
ATOM     32  C   UNL A   1      50.527  20.084  33.659  1.00  0.00     0.005 A 
ATOM     33  C   UNL A   1      51.490  20.324  35.858  1.00  0.00     0.005 A 
ATOM     34  C   UNL A   1      49.289  20.355  34.215  1.00  0.00     0.022 A 
ATOM     35  C   UNL A   1      50.220  20.588  36.433  1.00  0.00     0.022 A 
ENDBRANCH  26  29
ENDBRANCH  18  26
ENDBRANCH  15  17
ENDBRANCH  12  15
ENDBRANCH  10  11
ENDBRANCH   7  10
ENDBRANCH   5   6
BRANCH   5  36
ATOM     36  C   UNL A   1      44.539  25.304  34.636  1.00  0.00     0.072 C 
BRANCH  36  37
ATOM     37  C   UNL A   1      44.145  24.378  33.535  1.00  0.00    -0.020 A 
ATOM     38  C   UNL A   1      43.369  23.251  33.705  1.00  0.00     0.087 A 
ATOM     39  C   UNL A   1      44.439  24.456  32.133  1.00  0.00     0.003 A 
ATOM     40  N   UNL A   1      43.335  22.553  32.525  1.00  0.00    -0.361 N 
ATOM     41  C   UNL A   1      43.976  23.274  31.546  1.00  0.00     0.046 A 
ATOM     42  C   UNL A   1      45.076  25.403  31.302  1.00  0.00     0.010 A 
ATOM     43  H   UNL A   1      42.915  21.672  32.398  1.00  0.00     0.166 HD
ATOM     44  C   UNL A   1      44.169  22.966  30.195  1.00  0.00     0.026 A 
ATOM     45  C   UNL A   1      45.225  25.135  29.933  1.00  0.00     0.001 A 
ATOM     46  C   UNL A   1      44.793  23.925  29.394  1.00  0.00     0.002 A 
ENDBRANCH  36  37
ENDBRANCH   5  36
ENDBRANCH   1   5
BRANCH   3  47
ATOM     47  C   UNL A   1      45.178  29.208  34.642  1.00  0.00     0.117 C 
BRANCH  47  48
ATOM     48  C   UNL A   1      46.599  28.731  34.426  1.00  0.00     0.042 C 
BRANCH  48  49
ATOM     49  C   UNL A   1      47.181  29.261  33.127  1.00  0.00     0.118 C 
BRANCH  49  50
ATOM     50  N   UNL A   1      48.546  29.788  33.221  1.00  0.00    -0.352 N 
ATOM     51  C   UNL A   1      49.517  29.878  32.227  1.00  0.00     0.251 C 
ATOM     52  H   UNL A   1      48.811  30.124  34.107  1.00  0.00     0.163 HD
ATOM     53  O   UNL A   1      50.635  30.296  32.472  1.00  0.00    -0.269 OA
BRANCH  51  54
ATOM     54  C   UNL A   1      49.132  29.550  30.831  1.00  0.00     0.039 A 
ATOM     55  C   UNL A   1      48.624  30.572  30.022  1.00  0.00     0.014 A 
ATOM     56  C   UNL A   1      49.005  28.223  30.449  1.00  0.00     0.014 A 
ATOM     57  C   UNL A   1      47.753  30.243  28.983  1.00  0.00     0.010 A 
ATOM     58  C   UNL A   1      48.021  27.903  29.542  1.00  0.00     0.010 A 
ATOM     59  C   UNL A   1      47.357  28.915  28.841  1.00  0.00    -0.014 A 
BRANCH  59  60
ATOM     60  C   UNL A   1      46.176  28.495  28.096  1.00  0.00     0.031 A 
ATOM     61  C   UNL A   1      44.862  28.397  28.764  1.00  0.00     0.074 A 
ATOM     62  C   UNL A   1      46.257  28.315  26.759  1.00  0.00     0.049 A 
ATOM     63  N   UNL A   1      43.905  27.630  28.365  1.00  0.00    -0.248 NA
ATOM     64  C   UNL A   1      44.526  29.156  29.965  1.00  0.00     0.031 C 
ATOM     65  C   UNL A   1      45.151  28.195  25.813  1.00  0.00     0.029 A 
ATOM     66  N   UNL A   1      47.391  27.999  26.010  1.00  0.00    -0.354 N 
ATOM     67  C   UNL A   1      42.770  28.001  29.045  1.00  0.00     0.074 A 
ATOM     68  C   UNL A   1      43.219  28.914  30.069  1.00  0.00     0.031 C 
ATOM     69  C   UNL A   1      45.596  27.594  24.699  1.00  0.00     0.029 A 
ATOM     70  C   UNL A   1      46.964  27.177  24.950  1.00  0.00     0.049 A 
ATOM     71  H   UNL A   1      48.313  28.293  26.189  1.00  0.00     0.167 HD
ATOM     72  C   UNL A   1      41.545  27.619  28.588  1.00  0.00     0.034 A 
ATOM     73  C   UNL A   1      47.427  25.900  24.825  1.00  0.00     0.034 A 
ATOM     74  C   UNL A   1      41.646  26.821  27.370  1.00  0.00     0.049 A 
ATOM     75  C   UNL A   1      46.348  24.847  24.929  1.00  0.00     0.074 A 
ATOM     76  C   UNL A   1      41.479  27.131  26.029  1.00  0.00     0.029 A 
ATOM     77  N   UNL A   1      42.261  25.575  27.409  1.00  0.00    -0.354 N 
ATOM     78  N   UNL A   1      45.144  25.069  25.378  1.00  0.00    -0.248 NA
ATOM     79  C   UNL A   1      46.556  23.455  24.551  1.00  0.00     0.031 C 
ATOM     80  C   UNL A   1      42.046  26.081  25.262  1.00  0.00     0.029 A 
ATOM     81  C   UNL A   1      42.529  25.120  26.133  1.00  0.00     0.049 A 
ATOM     82  H   UNL A   1      42.476  25.085  28.235  1.00  0.00     0.167 HD
ATOM     83  C   UNL A   1      44.437  23.892  25.407  1.00  0.00     0.074 A 
ATOM     84  C   UNL A   1      45.357  22.920  24.837  1.00  0.00     0.031 C 
ATOM     85  C   UNL A   1      43.170  23.825  25.921  1.00  0.00     0.034 A 
BRANCH  72  86
ATOM     86  C   UNL A   1      40.265  28.252  29.078  1.00  0.00     0.023 A 
ATOM     87  C   UNL A   1      39.899  28.125  30.432  1.00  0.00     0.031 A 
ATOM     88  C   UNL A   1      39.353  28.952  28.265  1.00  0.00     0.131 A 
ATOM     89  C   UNL A   1      38.648  28.566  30.897  1.00  0.00     0.055 A 
ATOM     90  C   UNL A   1      38.079  29.331  28.706  1.00  0.00     0.041 A 
ATOM     91  F   UNL A   1      39.676  29.328  27.018  1.00  0.00    -0.206 F 
ATOM     92  C   UNL A   1      37.712  29.124  30.029  1.00  0.00     0.022 A 
BRANCH  89  93
ATOM     93  S   UNL A   1      38.265  28.420  32.663  1.00  0.00     0.124 S 
ATOM     94  O   UNL A   1      38.190  26.974  32.845  1.00  0.00    -0.237 OA
ATOM     95  O   UNL A   1      39.404  29.091  33.280  1.00  0.00    -0.237 OA
ATOM     96  O   UNL A   1      36.991  29.124  32.793  1.00  0.00    -0.744 OA
ENDBRANCH  89  93
ENDBRANCH  72  86
BRANCH  73  97
ATOM     97  C   UNL A   1      48.839  25.747  25.273  1.00  0.00     0.023 A 
ATOM     98  C   UNL A   1      49.824  26.409  24.512  1.00  0.00     0.031 A 
ATOM     99  C   UNL A   1      49.164  25.366  26.580  1.00  0.00     0.131 A 
ATOM    100  C   UNL A   1      51.024  26.820  25.110  1.00  0.00     0.055 A 
ATOM    101  C   UNL A   1      50.389  25.731  27.158  1.00  0.00     0.041 A 
ATOM    102  F   UNL A   1      48.257  24.764  27.363  1.00  0.00    -0.206 F 
ATOM    103  C   UNL A   1      51.304  26.504  26.440  1.00  0.00     0.022 A 
BRANCH 100 104
ATOM    104  S   UNL A   1      52.089  27.976  24.212  1.00  0.00     0.124 S 
ATOM    105  O   UNL A   1      52.891  27.089  23.382  1.00  0.00    -0.237 OA
ATOM    106  O   UNL A   1      51.136  28.824  23.503  1.00  0.00    -0.237 OA
ATOM    107  O   UNL A   1      52.826  28.680  25.263  1.00  0.00    -0.744 OA
ENDBRANCH 100 104
ENDBRANCH  73  97
BRANCH  85 108
ATOM    108  C   UNL A   1      42.378  22.560  26.209  1.00  0.00     0.023 A 
ATOM    109  C   UNL A   1      42.959  21.290  26.337  1.00  0.00     0.031 A 
ATOM    110  C   UNL A   1      40.977  22.605  26.430  1.00  0.00     0.131 A 
ATOM    111  C   UNL A   1      42.178  20.144  26.577  1.00  0.00     0.055 A 
ATOM    112  C   UNL A   1      40.214  21.477  26.753  1.00  0.00     0.041 A 
ATOM    113  F   UNL A   1      40.282  23.749  26.356  1.00  0.00    -0.206 F 
ATOM    114  C   UNL A   1      40.810  20.229  26.810  1.00  0.00     0.022 A 
BRANCH 111 115
ATOM    115  S   UNL A   1      42.993  18.527  26.507  1.00  0.00     0.124 S 
ATOM    116  O   UNL A   1      42.073  17.764  25.670  1.00  0.00    -0.237 OA
ATOM    117  O   UNL A   1      44.280  18.851  25.899  1.00  0.00    -0.237 OA
ATOM    118  O   UNL A   1      43.053  18.109  27.905  1.00  0.00    -0.744 OA
ENDBRANCH 111 115
ENDBRANCH  85 108
ENDBRANCH  59  60
ENDBRANCH  51  54
ENDBRANCH  49  50
ENDBRANCH  48  49
ENDBRANCH  47  48
ENDBRANCH   3  47
TORSDOF 22
ENDMDL
MODEL 2
REMARK VINA RESULT:     -10.2      1.704      2.282
REMARK SMILES Cc1ccc(S(=O)(=O)n2cc(C(=O)C(=O)NCC(=O)N[C@@H](Cc3c[nH]c4ccccc34)C(=O)NCCCNC(=O)c3ccc(-c4c5nc(c(-c6cc(S(=O)(=O)[O-])ccc6F)c6ccc([nH]6)c(-c6cc(S(=O)(=O)[O-])ccc6F)c6nc(c(-c7cc(S(=O)(=O)[O-])ccc7F)c7ccc4[nH]7)C=C6)C=C5)cc3)c3ccccc32)cc1
REMARK SMILES IDX 32 1 33 2 34 3 21 5 20 6 18 7 19 8 17 10 16 11 14 12 15 13
REMARK SMILES IDX 12 15 13 16 11 17 9 18 10 19 109 20 104 21 108 22 105 23
REMARK SMILES IDX 107 24 106 25 6 26 7 27 8 28 5 29 1 30 2 31 3 32 111 33 4 34
REMARK SMILES IDX 110 35 22 36 23 37 24 38 31 39 25 40 26 41 30 42 27 44 29 45
REMARK SMILES IDX 28 46 35 47 36 48 37 49 38 50 39 51 40 53 41 54 42 55 103 56
REMARK SMILES IDX 43 57 102 58 44 59 45 60 46 61 96 62 47 63 101 64 95 65
REMARK SMILES IDX 97 66 48 67 100 68 94 69 93 70 49 72 81 73 61 74 80 75 62 76
REMARK SMILES IDX 65 77 79 78 98 79 63 80 64 81 78 83 99 84 66 85 50 86 51 87
REMARK SMILES IDX 59 88 52 89 58 90 60 91 57 92 53 93 54 94 55 95 56 96 82 97
REMARK SMILES IDX 83 98 91 99 84 100 90 101 92 102 89 103 85 104 86 105 87 106
REMARK SMILES IDX 88 107 67 108 68 109 76 110 69 111 75 112 77 113 74 114
REMARK SMILES IDX 70 115 71 116 72 117 73 118
REMARK H PARENT 34 4 20 9 16 14 25 43 38 52 97 71 65 82
REMARK Flexibility Score: inf
ROOT
ATOM      1  C   UNL A   1      44.168  27.620  34.199  1.00  0.00     0.242 C 
ATOM      2  O   UNL A   1      43.215  27.594  33.413  1.00  0.00    -0.273 OA
ATOM      3  N   UNL A   1      44.975  28.722  34.190  1.00  0.00    -0.354 N 
ATOM      4  H   UNL A   1      44.891  29.301  33.398  1.00  0.00     0.163 HD
ENDROOT
BRANCH   1   5
ATOM      5  C   UNL A   1      44.425  26.396  35.105  1.00  0.00     0.175 C 
BRANCH   5   6
ATOM      6  N   UNL A   1      43.238  26.065  35.905  1.00  0.00    -0.342 N 
ATOM      7  C   UNL A   1      43.162  25.987  37.271  1.00  0.00     0.240 C 
ATOM      8  O   UNL A   1      42.054  26.041  37.807  1.00  0.00    -0.273 OA
ATOM      9  H   UNL A   1      42.408  25.879  35.407  1.00  0.00     0.164 HD
BRANCH   7  10
ATOM     10  C   UNL A   1      44.458  25.900  38.102  1.00  0.00     0.216 C 
BRANCH  10  11
ATOM     11  N   UNL A   1      44.409  24.766  39.032  1.00  0.00    -0.340 N 
ATOM     12  C   UNL A   1      45.450  24.195  39.743  1.00  0.00     0.292 C 
ATOM     13  O   UNL A   1      45.284  23.170  40.393  1.00  0.00    -0.265 OA
ATOM     14  H   UNL A   1      43.522  24.360  39.167  1.00  0.00     0.164 HD
BRANCH  12  15
ATOM     15  C   UNL A   1      46.821  24.880  39.729  1.00  0.00     0.252 C 
ATOM     16  O   UNL A   1      46.946  25.840  40.491  1.00  0.00    -0.283 OA
BRANCH  15  17
ATOM     17  C   UNL A   1      47.869  24.498  38.774  1.00  0.00     0.054 A 
ATOM     18  N   UNL A   1      49.303  24.331  37.030  1.00  0.00    -0.240 N 
ATOM     19  C   UNL A   1      48.280  25.107  37.583  1.00  0.00     0.117 A 
ATOM     20  C   UNL A   1      49.710  23.418  38.011  1.00  0.00     0.065 A 
ATOM     21  C   UNL A   1      48.637  23.298  38.891  1.00  0.00     0.012 A 
ATOM     22  C   UNL A   1      50.791  22.519  38.038  1.00  0.00     0.028 A 
ATOM     23  C   UNL A   1      48.547  22.138  39.688  1.00  0.00     0.011 A 
ATOM     24  C   UNL A   1      50.653  21.354  38.792  1.00  0.00     0.002 A 
ATOM     25  C   UNL A   1      49.525  21.144  39.574  1.00  0.00     0.001 A 
BRANCH  18  26
ATOM     26  S   UNL A   1      49.207  23.578  35.447  1.00  0.00     0.268 S 
ATOM     27  O   UNL A   1      50.592  23.273  35.125  1.00  0.00    -0.201 OA
ATOM     28  O   UNL A   1      48.444  24.536  34.661  1.00  0.00    -0.201 OA
BRANCH  26  29
ATOM     29  C   UNL A   1      48.322  22.085  35.142  1.00  0.00     0.088 A 
ATOM     30  C   UNL A   1      45.553  18.771  35.014  1.00  0.00     0.044 C 
ATOM     31  C   UNL A   1      46.523  19.918  35.009  1.00  0.00    -0.051 A 
ATOM     32  C   UNL A   1      46.218  21.013  35.807  1.00  0.00     0.005 A 
ATOM     33  C   UNL A   1      47.732  19.919  34.280  1.00  0.00     0.005 A 
ATOM     34  C   UNL A   1      47.101  22.077  35.859  1.00  0.00     0.022 A 
ATOM     35  C   UNL A   1      48.646  21.002  34.342  1.00  0.00     0.022 A 
ENDBRANCH  26  29
ENDBRANCH  18  26
ENDBRANCH  15  17
ENDBRANCH  12  15
ENDBRANCH  10  11
ENDBRANCH   7  10
ENDBRANCH   5   6
BRANCH   5  36
ATOM     36  C   UNL A   1      45.188  25.180  34.544  1.00  0.00     0.072 C 
BRANCH  36  37
ATOM     37  C   UNL A   1      44.518  24.364  33.490  1.00  0.00    -0.020 A 
ATOM     38  C   UNL A   1      43.613  23.355  33.744  1.00  0.00     0.087 A 
ATOM     39  C   UNL A   1      44.632  24.453  32.062  1.00  0.00     0.003 A 
ATOM     40  N   UNL A   1      43.319  22.715  32.567  1.00  0.00    -0.361 N 
ATOM     41  C   UNL A   1      43.925  23.374  31.523  1.00  0.00     0.046 A 
ATOM     42  C   UNL A   1      45.286  25.329  31.170  1.00  0.00     0.010 A 
ATOM     43  H   UNL A   1      42.760  21.910  32.483  1.00  0.00     0.166 HD
ATOM     44  C   UNL A   1      43.889  23.093  30.153  1.00  0.00     0.026 A 
ATOM     45  C   UNL A   1      45.210  25.095  29.789  1.00  0.00     0.001 A 
ATOM     46  C   UNL A   1      44.536  23.982  29.292  1.00  0.00     0.002 A 
ENDBRANCH  36  37
ENDBRANCH   5  36
ENDBRANCH   1   5
BRANCH   3  47
ATOM     47  C   UNL A   1      45.938  29.155  35.185  1.00  0.00     0.117 C 
BRANCH  47  48
ATOM     48  C   UNL A   1      47.296  28.496  35.068  1.00  0.00     0.042 C 
BRANCH  48  49
ATOM     49  C   UNL A   1      48.091  29.042  33.896  1.00  0.00     0.118 C 
BRANCH  49  50
ATOM     50  N   UNL A   1      49.547  28.922  34.014  1.00  0.00    -0.352 N 
ATOM     51  C   UNL A   1      50.481  28.625  33.026  1.00  0.00     0.251 C 
ATOM     52  H   UNL A   1      49.914  29.070  34.915  1.00  0.00     0.163 HD
ATOM     53  O   UNL A   1      51.665  28.507  33.290  1.00  0.00    -0.269 OA
BRANCH  51  54
ATOM     54  C   UNL A   1      50.022  28.558  31.615  1.00  0.00     0.039 A 
ATOM     55  C   UNL A   1      49.795  29.757  30.930  1.00  0.00     0.014 A 
ATOM     56  C   UNL A   1      49.553  27.357  31.104  1.00  0.00     0.014 A 
ATOM     57  C   UNL A   1      48.867  29.776  29.889  1.00  0.00     0.010 A 
ATOM     58  C   UNL A   1      48.517  27.401  30.199  1.00  0.00     0.010 A 
ATOM     59  C   UNL A   1      48.139  28.619  29.624  1.00  0.00    -0.014 A 
BRANCH  59  60
ATOM     60  C   UNL A   1      46.887  28.600  28.876  1.00  0.00     0.031 A 
ATOM     61  C   UNL A   1      45.591  28.721  29.575  1.00  0.00     0.074 A 
ATOM     62  C   UNL A   1      46.916  28.598  27.524  1.00  0.00     0.049 A 
ATOM     63  N   UNL A   1      44.477  28.266  29.113  1.00  0.00    -0.248 NA
ATOM     64  C   UNL A   1      45.454  29.358  30.881  1.00  0.00     0.031 C 
ATOM     65  C   UNL A   1      45.807  28.878  26.616  1.00  0.00     0.029 A 
ATOM     66  N   UNL A   1      47.937  28.133  26.695  1.00  0.00    -0.354 N 
ATOM     67  C   UNL A   1      43.467  28.794  29.881  1.00  0.00     0.074 A 
ATOM     68  C   UNL A   1      44.127  29.420  31.002  1.00  0.00     0.031 C 
ATOM     69  C   UNL A   1      46.090  28.355  25.413  1.00  0.00     0.029 A 
ATOM     70  C   UNL A   1      47.319  27.595  25.550  1.00  0.00     0.049 A 
ATOM     71  H   UNL A   1      48.904  28.173  26.876  1.00  0.00     0.167 HD
ATOM     72  C   UNL A   1      42.183  28.782  29.425  1.00  0.00     0.034 A 
ATOM     73  C   UNL A   1      47.463  26.276  25.234  1.00  0.00     0.034 A 
ATOM     74  C   UNL A   1      42.085  28.164  28.106  1.00  0.00     0.049 A 
ATOM     75  C   UNL A   1      46.164  25.504  25.235  1.00  0.00     0.074 A 
ATOM     76  C   UNL A   1      41.989  28.692  26.828  1.00  0.00     0.029 A 
ATOM     77  N   UNL A   1      42.383  26.815  27.950  1.00  0.00    -0.354 N 
ATOM     78  N   UNL A   1      45.050  25.937  25.757  1.00  0.00    -0.248 NA
ATOM     79  C   UNL A   1      46.031  24.170  24.662  1.00  0.00     0.031 C 
ATOM     80  C   UNL A   1      42.285  27.658  25.902  1.00  0.00     0.029 A 
ATOM     81  C   UNL A   1      42.528  26.496  26.614  1.00  0.00     0.049 A 
ATOM     82  H   UNL A   1      42.480  26.176  28.692  1.00  0.00     0.167 HD
ATOM     83  C   UNL A   1      44.083  24.969  25.652  1.00  0.00     0.074 A 
ATOM     84  C   UNL A   1      44.740  23.898  24.919  1.00  0.00     0.031 C 
ATOM     85  C   UNL A   1      42.839  25.131  26.202  1.00  0.00     0.034 A 
BRANCH  72  86
ATOM     86  C   UNL A   1      41.095  29.622  30.047  1.00  0.00     0.023 A 
ATOM     87  C   UNL A   1      40.109  29.007  30.843  1.00  0.00     0.031 A 
ATOM     88  C   UNL A   1      40.952  31.011  29.866  1.00  0.00     0.131 A 
ATOM     89  C   UNL A   1      38.996  29.726  31.314  1.00  0.00     0.055 A 
ATOM     90  C   UNL A   1      39.812  31.716  30.274  1.00  0.00     0.041 A 
ATOM     91  F   UNL A   1      41.929  31.748  29.315  1.00  0.00    -0.206 F 
ATOM     92  C   UNL A   1      38.816  31.069  30.991  1.00  0.00     0.022 A 
BRANCH  89  93
ATOM     93  S   UNL A   1      37.793  28.884  32.378  1.00  0.00     0.124 S 
ATOM     94  O   UNL A   1      36.527  29.205  31.728  1.00  0.00    -0.237 OA
ATOM     95  O   UNL A   1      38.229  27.494  32.293  1.00  0.00    -0.237 OA
ATOM     96  O   UNL A   1      37.995  29.514  33.682  1.00  0.00    -0.744 OA
ENDBRANCH  89  93
ENDBRANCH  72  86
BRANCH  73  97
ATOM     97  C   UNL A   1      48.800  25.732  25.601  1.00  0.00     0.023 A 
ATOM     98  C   UNL A   1      49.901  26.184  24.845  1.00  0.00     0.031 A 
ATOM     99  C   UNL A   1      49.051  25.170  26.858  1.00  0.00     0.131 A 
ATOM    100  C   UNL A   1      51.181  26.224  25.415  1.00  0.00     0.055 A 
ATOM    101  C   UNL A   1      50.344  25.161  27.403  1.00  0.00     0.041 A 
ATOM    102  F   UNL A   1      48.041  24.754  27.636  1.00  0.00    -0.206 F 
ATOM    103  C   UNL A   1      51.407  25.735  26.702  1.00  0.00     0.022 A 
BRANCH 100 104
ATOM    104  S   UNL A   1      52.483  27.144  24.557  1.00  0.00     0.124 S 
ATOM    105  O   UNL A   1      52.533  26.486  23.258  1.00  0.00    -0.237 OA
ATOM    106  O   UNL A   1      51.979  28.513  24.558  1.00  0.00    -0.237 OA
ATOM    107  O   UNL A   1      53.670  26.958  25.393  1.00  0.00    -0.744 OA
ENDBRANCH 100 104
ENDBRANCH  73  97
BRANCH  85 108
ATOM    108  C   UNL A   1      41.769  24.060  26.345  1.00  0.00     0.023 A 
ATOM    109  C   UNL A   1      42.044  22.686  26.393  1.00  0.00     0.031 A 
ATOM    110  C   UNL A   1      40.402  24.405  26.502  1.00  0.00     0.131 A 
ATOM    111  C   UNL A   1      41.014  21.732  26.498  1.00  0.00     0.055 A 
ATOM    112  C   UNL A   1      39.388  23.460  26.692  1.00  0.00     0.041 A 
ATOM    113  F   UNL A   1      39.984  25.679  26.492  1.00  0.00    -0.206 F 
ATOM    114  C   UNL A   1      39.687  22.109  26.672  1.00  0.00     0.022 A 
BRANCH 111 115
ATOM    115  S   UNL A   1      41.452  19.982  26.331  1.00  0.00     0.124 S 
ATOM    116  O   UNL A   1      40.231  19.420  25.761  1.00  0.00    -0.237 OA
ATOM    117  O   UNL A   1      42.603  20.032  25.435  1.00  0.00    -0.237 OA
ATOM    118  O   UNL A   1      41.747  19.567  27.700  1.00  0.00    -0.744 OA
ENDBRANCH 111 115
ENDBRANCH  85 108
ENDBRANCH  59  60
ENDBRANCH  51  54
ENDBRANCH  49  50
ENDBRANCH  48  49
ENDBRANCH  47  48
ENDBRANCH   3  47
TORSDOF 22
ENDMDL
MODEL 3
REMARK VINA RESULT:     -10.2      3.920     11.629
REMARK SMILES Cc1ccc(S(=O)(=O)n2cc(C(=O)C(=O)NCC(=O)N[C@@H](Cc3c[nH]c4ccccc34)C(=O)NCCCNC(=O)c3ccc(-c4c5nc(c(-c6cc(S(=O)(=O)[O-])ccc6F)c6ccc([nH]6)c(-c6cc(S(=O)(=O)[O-])ccc6F)c6nc(c(-c7cc(S(=O)(=O)[O-])ccc7F)c7ccc4[nH]7)C=C6)C=C5)cc3)c3ccccc32)cc1
REMARK SMILES IDX 32 1 33 2 34 3 21 5 20 6 18 7 19 8 17 10 16 11 14 12 15 13
REMARK SMILES IDX 12 15 13 16 11 17 9 18 10 19 109 20 104 21 108 22 105 23
REMARK SMILES IDX 107 24 106 25 6 26 7 27 8 28 5 29 1 30 2 31 3 32 111 33 4 34
REMARK SMILES IDX 110 35 22 36 23 37 24 38 31 39 25 40 26 41 30 42 27 44 29 45
REMARK SMILES IDX 28 46 35 47 36 48 37 49 38 50 39 51 40 53 41 54 42 55 103 56
REMARK SMILES IDX 43 57 102 58 44 59 45 60 46 61 96 62 47 63 101 64 95 65
REMARK SMILES IDX 97 66 48 67 100 68 94 69 93 70 49 72 81 73 61 74 80 75 62 76
REMARK SMILES IDX 65 77 79 78 98 79 63 80 64 81 78 83 99 84 66 85 50 86 51 87
REMARK SMILES IDX 59 88 52 89 58 90 60 91 57 92 53 93 54 94 55 95 56 96 82 97
REMARK SMILES IDX 83 98 91 99 84 100 90 101 92 102 89 103 85 104 86 105 87 106
REMARK SMILES IDX 88 107 67 108 68 109 76 110 69 111 75 112 77 113 74 114
REMARK SMILES IDX 70 115 71 116 72 117 73 118
REMARK H PARENT 34 4 20 9 16 14 25 43 38 52 97 71 65 82
REMARK Flexibility Score: inf
ROOT
ATOM      1  C   UNL A   1      42.407  28.110  25.815  1.00  0.00     0.242 C 
ATOM      2  O   UNL A   1      42.265  28.158  24.588  1.00  0.00    -0.273 OA
ATOM      3  N   UNL A   1      43.636  28.409  26.328  1.00  0.00    -0.354 N 
ATOM      4  H   UNL A   1      44.379  28.401  25.682  1.00  0.00     0.163 HD
ENDROOT
BRANCH   1   5
ATOM      5  C   UNL A   1      41.214  27.666  26.690  1.00  0.00     0.175 C 
BRANCH   5   6
ATOM      6  N   UNL A   1      40.272  28.772  26.909  1.00  0.00    -0.342 N 
ATOM      7  C   UNL A   1      39.461  28.957  27.997  1.00  0.00     0.240 C 
ATOM      8  O   UNL A   1      38.991  30.078  28.203  1.00  0.00    -0.273 OA
ATOM      9  H   UNL A   1      40.218  29.453  26.199  1.00  0.00     0.164 HD
BRANCH   7  10
ATOM     10  C   UNL A   1      39.207  27.784  28.968  1.00  0.00     0.216 C 
BRANCH  10  11
ATOM     11  N   UNL A   1      40.191  27.783  30.055  1.00  0.00    -0.340 N 
ATOM     12  C   UNL A   1      40.010  28.158  31.375  1.00  0.00     0.292 C 
ATOM     13  O   UNL A   1      40.958  28.221  32.150  1.00  0.00    -0.265 OA
ATOM     14  H   UNL A   1      41.095  27.475  29.816  1.00  0.00     0.164 HD
BRANCH  12  15
ATOM     15  C   UNL A   1      38.594  28.474  31.869  1.00  0.00     0.252 C 
ATOM     16  O   UNL A   1      38.006  27.548  32.431  1.00  0.00    -0.283 OA
BRANCH  15  17
ATOM     17  C   UNL A   1      37.936  29.752  31.572  1.00  0.00     0.054 A 
ATOM     18  N   UNL A   1      36.494  31.413  31.031  1.00  0.00    -0.240 N 
ATOM     19  C   UNL A   1      36.603  30.037  31.251  1.00  0.00     0.117 A 
ATOM     20  C   UNL A   1      37.679  32.003  31.490  1.00  0.00     0.065 A 
ATOM     21  C   UNL A   1      38.638  30.993  31.480  1.00  0.00     0.012 A 
ATOM     22  C   UNL A   1      38.032  33.355  31.647  1.00  0.00     0.028 A 
ATOM     23  C   UNL A   1      40.000  31.360  31.428  1.00  0.00     0.011 A 
ATOM     24  C   UNL A   1      39.380  33.695  31.538  1.00  0.00     0.002 A 
ATOM     25  C   UNL A   1      40.350  32.713  31.386  1.00  0.00     0.001 A 
BRANCH  18  26
ATOM     26  S   UNL A   1      35.969  32.118  29.512  1.00  0.00     0.268 S 
ATOM     27  O   UNL A   1      37.210  32.340  28.787  1.00  0.00    -0.201 OA
ATOM     28  O   UNL A   1      35.130  33.232  29.929  1.00  0.00    -0.201 OA
BRANCH  26  29
ATOM     29  C   UNL A   1      34.912  31.284  28.377  1.00  0.00     0.088 A 
ATOM     30  C   UNL A   1      33.019  28.629  25.541  1.00  0.00     0.044 C 
ATOM     31  C   UNL A   1      33.632  29.559  26.549  1.00  0.00    -0.051 A 
ATOM     32  C   UNL A   1      34.883  29.222  27.048  1.00  0.00     0.005 A 
ATOM     33  C   UNL A   1      33.030  30.764  26.972  1.00  0.00     0.005 A 
ATOM     34  C   UNL A   1      35.500  30.067  27.953  1.00  0.00     0.022 A 
ATOM     35  C   UNL A   1      33.666  31.641  27.889  1.00  0.00     0.022 A 
ENDBRANCH  26  29
ENDBRANCH  18  26
ENDBRANCH  15  17
ENDBRANCH  12  15
ENDBRANCH  10  11
ENDBRANCH   7  10
ENDBRANCH   5   6
BRANCH   5  36
ATOM     36  C   UNL A   1      40.556  26.294  26.441  1.00  0.00     0.072 C 
BRANCH  36  37
ATOM     37  C   UNL A   1      41.294  25.077  26.887  1.00  0.00    -0.020 A 
ATOM     38  C   UNL A   1      41.020  24.381  28.045  1.00  0.00     0.087 A 
ATOM     39  C   UNL A   1      42.370  24.380  26.243  1.00  0.00     0.003 A 
ATOM     40  N   UNL A   1      41.982  23.421  28.225  1.00  0.00    -0.361 N 
ATOM     41  C   UNL A   1      42.815  23.395  27.131  1.00  0.00     0.046 A 
ATOM     42  C   UNL A   1      43.029  24.500  25.001  1.00  0.00     0.010 A 
ATOM     43  H   UNL A   1      42.064  22.838  29.014  1.00  0.00     0.166 HD
ATOM     44  C   UNL A   1      43.916  22.572  26.869  1.00  0.00     0.026 A 
ATOM     45  C   UNL A   1      44.098  23.642  24.699  1.00  0.00     0.001 A 
ATOM     46  C   UNL A   1      44.544  22.706  25.629  1.00  0.00     0.002 A 
ENDBRANCH  36  37
ENDBRANCH   5  36
ENDBRANCH   1   5
BRANCH   3  47
ATOM     47  C   UNL A   1      43.998  28.737  27.695  1.00  0.00     0.117 C 
BRANCH  47  48
ATOM     48  C   UNL A   1      45.385  29.324  27.849  1.00  0.00     0.042 C 
BRANCH  48  49
ATOM     49  C   UNL A   1      46.345  28.345  28.501  1.00  0.00     0.118 C 
BRANCH  49  50
ATOM     50  N   UNL A   1      47.030  27.431  27.582  1.00  0.00    -0.352 N 
ATOM     51  C   UNL A   1      47.377  26.097  27.776  1.00  0.00     0.251 C 
ATOM     52  H   UNL A   1      47.278  27.813  26.710  1.00  0.00     0.163 HD
ATOM     53  O   UNL A   1      47.998  25.477  26.930  1.00  0.00    -0.269 OA
BRANCH  51  54
ATOM     54  C   UNL A   1      46.885  25.408  28.996  1.00  0.00     0.039 A 
ATOM     55  C   UNL A   1      45.609  24.833  28.967  1.00  0.00     0.014 A 
ATOM     56  C   UNL A   1      47.546  25.592  30.201  1.00  0.00     0.014 A 
ATOM     57  C   UNL A   1      44.898  24.705  30.160  1.00  0.00     0.010 A 
ATOM     58  C   UNL A   1      46.792  25.628  31.352  1.00  0.00     0.010 A 
ATOM     59  C   UNL A   1      45.451  25.230  31.325  1.00  0.00    -0.014 A 
BRANCH  59  60
ATOM     60  C   UNL A   1      44.680  25.536  32.525  1.00  0.00     0.031 A 
ATOM     61  C   UNL A   1      44.397  26.936  32.899  1.00  0.00     0.074 A 
ATOM     62  C   UNL A   1      44.114  24.531  33.230  1.00  0.00     0.049 A 
ATOM     63  N   UNL A   1      44.158  27.326  34.105  1.00  0.00    -0.248 NA
ATOM     64  C   UNL A   1      44.380  28.027  31.930  1.00  0.00     0.031 C 
ATOM     65  C   UNL A   1      43.081  24.643  34.256  1.00  0.00     0.029 A 
ATOM     66  N   UNL A   1      44.522  23.198  33.291  1.00  0.00    -0.354 N 
ATOM     67  C   UNL A   1      43.675  28.611  34.034  1.00  0.00     0.074 A 
ATOM     68  C   UNL A   1      43.886  29.023  32.667  1.00  0.00     0.031 C 
ATOM     69  C   UNL A   1      43.103  23.538  35.015  1.00  0.00     0.029 A 
ATOM     70  C   UNL A   1      44.245  22.746  34.595  1.00  0.00     0.049 A 
ATOM     71  H   UNL A   1      44.927  22.675  32.562  1.00  0.00     0.167 HD
ATOM     72  C   UNL A   1      43.012  29.152  35.094  1.00  0.00     0.034 A 
ATOM     73  C   UNL A   1      45.249  22.325  35.416  1.00  0.00     0.034 A 
ATOM     74  C   UNL A   1      42.919  28.214  36.209  1.00  0.00     0.049 A 
ATOM     75  C   UNL A   1      45.401  23.155  36.669  1.00  0.00     0.074 A 
ATOM     76  C   UNL A   1      41.902  27.385  36.654  1.00  0.00     0.029 A 
ATOM     77  N   UNL A   1      44.075  27.802  36.863  1.00  0.00    -0.354 N 
ATOM     78  N   UNL A   1      44.852  24.325  36.849  1.00  0.00    -0.248 NA
ATOM     79  C   UNL A   1      46.204  22.735  37.810  1.00  0.00     0.031 C 
ATOM     80  C   UNL A   1      42.467  26.436  37.545  1.00  0.00     0.029 A 
ATOM     81  C   UNL A   1      43.819  26.707  37.666  1.00  0.00     0.049 A 
ATOM     82  H   UNL A   1      44.954  28.232  36.766  1.00  0.00     0.167 HD
ATOM     83  C   UNL A   1      45.244  24.839  38.060  1.00  0.00     0.074 A 
ATOM     84  C   UNL A   1      46.057  23.782  38.640  1.00  0.00     0.031 C 
ATOM     85  C   UNL A   1      44.883  26.098  38.459  1.00  0.00     0.034 A 
BRANCH  72  86
ATOM     86  C   UNL A   1      42.181  30.405  34.974  1.00  0.00     0.023 A 
ATOM     87  C   UNL A   1      42.816  31.663  34.944  1.00  0.00     0.031 A 
ATOM     88  C   UNL A   1      40.774  30.434  34.925  1.00  0.00     0.131 A 
ATOM     89  C   UNL A   1      42.076  32.857  34.987  1.00  0.00     0.055 A 
ATOM     90  C   UNL A   1      40.034  31.618  35.037  1.00  0.00     0.041 A 
ATOM     91  F   UNL A   1      40.059  29.315  34.731  1.00  0.00    -0.206 F 
ATOM     92  C   UNL A   1      40.687  32.842  35.084  1.00  0.00     0.022 A 
BRANCH  89  93
ATOM     93  S   UNL A   1      42.957  34.440  34.891  1.00  0.00     0.124 S 
ATOM     94  O   UNL A   1      42.705  34.851  33.514  1.00  0.00    -0.237 OA
ATOM     95  O   UNL A   1      42.296  35.222  35.931  1.00  0.00    -0.237 OA
ATOM     96  O   UNL A   1      44.342  34.075  35.182  1.00  0.00    -0.744 OA
ENDBRANCH  89  93
ENDBRANCH  72  86
BRANCH  73  97
ATOM     97  C   UNL A   1      46.352  21.643  34.684  1.00  0.00     0.023 A 
ATOM     98  C   UNL A   1      47.489  22.419  34.379  1.00  0.00     0.031 A 
ATOM     99  C   UNL A   1      46.486  20.250  34.677  1.00  0.00     0.131 A 
ATOM    100  C   UNL A   1      48.745  21.812  34.244  1.00  0.00     0.055 A 
ATOM    101  C   UNL A   1      47.737  19.643  34.486  1.00  0.00     0.041 A 
ATOM    102  F   UNL A   1      45.449  19.461  34.993  1.00  0.00    -0.206 F 
ATOM    103  C   UNL A   1      48.881  20.426  34.319  1.00  0.00     0.022 A 
BRANCH 100 104
ATOM    104  S   UNL A   1      50.219  22.864  34.221  1.00  0.00     0.124 S 
ATOM    105  O   UNL A   1      50.907  22.471  35.443  1.00  0.00    -0.237 OA
ATOM    106  O   UNL A   1      50.875  22.492  32.972  1.00  0.00    -0.237 OA
ATOM    107  O   UNL A   1      49.690  24.229  34.218  1.00  0.00    -0.744 OA
ENDBRANCH 100 104
ENDBRANCH  73  97
BRANCH  85 108
ATOM    108  C   UNL A   1      45.426  26.855  39.660  1.00  0.00     0.023 A 
ATOM    109  C   UNL A   1      46.499  27.755  39.593  1.00  0.00     0.031 A 
ATOM    110  C   UNL A   1      44.822  26.735  40.938  1.00  0.00     0.131 A 
ATOM    111  C   UNL A   1      46.983  28.411  40.740  1.00  0.00     0.055 A 
ATOM    112  C   UNL A   1      45.250  27.453  42.060  1.00  0.00     0.041 A 
ATOM    113  F   UNL A   1      43.777  25.925  41.157  1.00  0.00    -0.206 F 
ATOM    114  C   UNL A   1      46.352  28.286  41.972  1.00  0.00     0.022 A 
BRANCH 111 115
ATOM    115  S   UNL A   1      48.507  29.380  40.589  1.00  0.00     0.124 S 
ATOM    116  O   UNL A   1      49.484  28.352  40.244  1.00  0.00    -0.237 OA
ATOM    117  O   UNL A   1      48.176  30.321  39.524  1.00  0.00    -0.237 OA
ATOM    118  O   UNL A   1      48.672  29.973  41.914  1.00  0.00    -0.744 OA
ENDBRANCH 111 115
ENDBRANCH  85 108
ENDBRANCH  59  60
ENDBRANCH  51  54
ENDBRANCH  49  50
ENDBRANCH  48  49
ENDBRANCH  47  48
ENDBRANCH   3  47
TORSDOF 22
ENDMDL
