MODEL 1
REMARK VINA RESULT:     -10.8      0.000      0.000
REMARK SMILES CN(CCc1cccs1)C(=O)N[C@@H]1COC[C@H]1C(=O)NCCCNC(=O)c1ccc(-c2c3nc(c(-c4cc(S(=O)(=O)[O-])ccc4F)c4ccc([nH]4)c(-c4cc(S(=O)(=O)[O-])ccc4F)c4nc(c(-c5cc(S(=O)(=O)[O-])ccc5F)c5ccc2[nH]5)C=C4)C=C3)cc1
REMARK SMILES IDX 21 1 20 2 18 3 19 4 17 6 13 7 14 8 15 9 16 10 12 11 10 12
REMARK SMILES IDX 11 13 2 15 1 16 3 17 4 18 5 19 6 20 9 21 7 22 8 23 22 24
REMARK SMILES IDX 23 25 24 26 25 27 26 29 27 30 28 31 89 32 29 33 88 34 30 35
REMARK SMILES IDX 31 36 32 37 82 38 33 39 87 40 81 41 83 42 34 43 86 44 80 45
REMARK SMILES IDX 79 46 35 48 67 49 47 50 66 51 48 52 51 53 65 54 84 55 49 56
REMARK SMILES IDX 50 57 64 59 85 60 52 61 36 62 37 63 45 64 38 65 44 66 46 67
REMARK SMILES IDX 43 68 39 69 40 70 41 71 42 72 68 73 69 74 77 75 70 76 76 77
REMARK SMILES IDX 78 78 75 79 71 80 72 81 73 82 74 83 53 84 54 85 62 86 55 87
REMARK SMILES IDX 61 88 63 89 60 90 56 91 57 92 58 93 59 94
REMARK H PARENT 20 5 12 14 24 28 83 47 51 58
REMARK Flexibility Score: inf
ROOT
ATOM      1  C   UNL A   1      31.977  27.810  24.528  1.00  0.00     0.117 C 
ENDROOT
BRANCH   1   2
ATOM      2  N   UNL A   1      32.738  27.444  23.342  1.00  0.00    -0.356 N 
ATOM      3  C   UNL A   1      33.105  26.270  22.773  1.00  0.00     0.227 C 
ATOM      4  O   UNL A   1      33.671  26.359  21.677  1.00  0.00    -0.275 OA
ATOM      5  H   UNL A   1      33.059  28.226  22.838  1.00  0.00     0.163 HD
BRANCH   3   6
ATOM      6  C   UNL A   1      32.869  24.893  23.358  1.00  0.00     0.129 C 
ATOM      7  C   UNL A   1      31.465  24.326  23.213  1.00  0.00     0.124 C 
ATOM      8  C   UNL A   1      31.717  22.814  23.267  1.00  0.00     0.186 C 
ATOM      9  O   UNL A   1      33.120  22.567  23.088  1.00  0.00    -0.378 OA
ATOM     10  C   UNL A   1      33.769  23.811  22.816  1.00  0.00     0.176 C 
BRANCH   7  11
ATOM     11  N   UNL A   1      30.571  24.770  24.287  1.00  0.00    -0.332 N 
ATOM     12  C   UNL A   1      30.627  24.773  25.635  1.00  0.00     0.317 C 
ATOM     13  O   UNL A   1      29.853  25.562  26.189  1.00  0.00    -0.249 OA
ATOM     14  H   UNL A   1      29.733  25.155  23.943  1.00  0.00     0.165 HD
BRANCH  12  15
ATOM     15  N   UNL A   1      31.491  23.982  26.347  1.00  0.00    -0.328 N 
ATOM     16  C   UNL A   1      31.058  22.614  26.621  1.00  0.00     0.148 C 
BRANCH  15  17
ATOM     17  C   UNL A   1      32.916  24.228  26.571  1.00  0.00     0.126 C 
BRANCH  17  18
ATOM     18  C   UNL A   1      33.777  22.991  26.893  1.00  0.00     0.068 C 
BRANCH  18  19
ATOM     19  C   UNL A   1      35.075  22.887  26.144  1.00  0.00     0.006 A 
ATOM     20  C   UNL A   1      35.949  23.907  25.819  1.00  0.00     0.015 A 
ATOM     21  S   UNL A   1      35.629  21.397  25.522  1.00  0.00    -0.149 S 
ATOM     22  C   UNL A   1      37.112  23.439  25.146  1.00  0.00     0.012 A 
ATOM     23  C   UNL A   1      37.080  22.079  24.947  1.00  0.00     0.065 A 
ENDBRANCH  18  19
ENDBRANCH  17  18
ENDBRANCH  15  17
ENDBRANCH  12  15
ENDBRANCH   7  11
ENDBRANCH   3   6
ENDBRANCH   1   2
BRANCH   1  24
ATOM     24  C   UNL A   1      32.787  27.833  25.834  1.00  0.00     0.042 C 
BRANCH  24  25
ATOM     25  C   UNL A   1      34.032  28.725  25.874  1.00  0.00     0.118 C 
BRANCH  25  26
ATOM     26  N   UNL A   1      33.749  30.048  26.410  1.00  0.00    -0.352 N 
ATOM     27  C   UNL A   1      34.371  30.721  27.436  1.00  0.00     0.251 C 
ATOM     28  H   UNL A   1      33.006  30.528  25.978  1.00  0.00     0.163 HD
ATOM     29  O   UNL A   1      33.837  31.729  27.900  1.00  0.00    -0.269 OA
BRANCH  27  30
ATOM     30  C   UNL A   1      35.659  30.246  28.002  1.00  0.00     0.039 A 
ATOM     31  C   UNL A   1      35.668  29.695  29.288  1.00  0.00     0.014 A 
ATOM     32  C   UNL A   1      36.864  30.399  27.307  1.00  0.00     0.014 A 
ATOM     33  C   UNL A   1      36.870  29.247  29.853  1.00  0.00     0.010 A 
ATOM     34  C   UNL A   1      38.058  29.920  27.859  1.00  0.00     0.010 A 
ATOM     35  C   UNL A   1      38.074  29.331  29.135  1.00  0.00    -0.014 A 
BRANCH  35  36
ATOM     36  C   UNL A   1      39.343  28.772  29.686  1.00  0.00     0.031 A 
ATOM     37  C   UNL A   1      40.080  29.479  30.794  1.00  0.00     0.074 A 
ATOM     38  C   UNL A   1      39.870  27.658  29.139  1.00  0.00     0.049 A 
ATOM     39  N   UNL A   1      41.240  29.191  31.328  1.00  0.00    -0.248 NA
ATOM     40  C   UNL A   1      39.435  30.669  31.368  1.00  0.00     0.031 C 
ATOM     41  C   UNL A   1      39.266  26.889  28.049  1.00  0.00     0.029 A 
ATOM     42  N   UNL A   1      41.042  26.989  29.402  1.00  0.00    -0.354 N 
ATOM     43  C   UNL A   1      41.477  30.171  32.285  1.00  0.00     0.074 A 
ATOM     44  C   UNL A   1      40.345  31.075  32.243  1.00  0.00     0.031 C 
ATOM     45  C   UNL A   1      40.075  25.865  27.731  1.00  0.00     0.029 A 
ATOM     46  C   UNL A   1      41.277  25.928  28.557  1.00  0.00     0.049 A 
ATOM     47  H   UNL A   1      41.657  27.246  30.127  1.00  0.00     0.167 HD
ATOM     48  C   UNL A   1      42.535  30.302  33.123  1.00  0.00     0.034 A 
ATOM     49  C   UNL A   1      42.350  25.119  28.430  1.00  0.00     0.034 A 
ATOM     50  C   UNL A   1      43.647  29.383  33.176  1.00  0.00     0.049 A 
ATOM     51  C   UNL A   1      43.534  25.318  29.345  1.00  0.00     0.074 A 
ATOM     52  C   UNL A   1      44.707  29.367  34.068  1.00  0.00     0.029 A 
ATOM     53  N   UNL A   1      43.860  28.335  32.292  1.00  0.00    -0.354 N 
ATOM     54  N   UNL A   1      43.699  26.203  30.300  1.00  0.00    -0.248 NA
ATOM     55  C   UNL A   1      44.676  24.410  29.165  1.00  0.00     0.031 C 
ATOM     56  C   UNL A   1      45.597  28.362  33.677  1.00  0.00     0.029 A 
ATOM     57  C   UNL A   1      45.060  27.704  32.583  1.00  0.00     0.049 A 
ATOM     58  H   UNL A   1      43.248  28.078  31.565  1.00  0.00     0.167 HD
ATOM     59  C   UNL A   1      44.954  25.944  30.844  1.00  0.00     0.074 A 
ATOM     60  C   UNL A   1      45.495  24.809  30.127  1.00  0.00     0.031 C 
ATOM     61  C   UNL A   1      45.602  26.587  31.848  1.00  0.00     0.034 A 
BRANCH  48  62
ATOM     62  C   UNL A   1      42.573  31.500  34.038  1.00  0.00     0.023 A 
ATOM     63  C   UNL A   1      42.049  31.461  35.341  1.00  0.00     0.031 A 
ATOM     64  C   UNL A   1      43.189  32.691  33.608  1.00  0.00     0.131 A 
ATOM     65  C   UNL A   1      42.115  32.603  36.154  1.00  0.00     0.055 A 
ATOM     66  C   UNL A   1      43.303  33.803  34.443  1.00  0.00     0.041 A 
ATOM     67  F   UNL A   1      43.694  32.788  32.369  1.00  0.00    -0.206 F 
ATOM     68  C   UNL A   1      42.758  33.766  35.723  1.00  0.00     0.022 A 
BRANCH  65  69
ATOM     69  S   UNL A   1      41.273  32.577  37.761  1.00  0.00     0.124 S 
ATOM     70  O   UNL A   1      39.948  32.085  37.394  1.00  0.00    -0.237 OA
ATOM     71  O   UNL A   1      42.103  31.661  38.537  1.00  0.00    -0.237 OA
ATOM     72  O   UNL A   1      41.315  33.972  38.194  1.00  0.00    -0.744 OA
ENDBRANCH  65  69
ENDBRANCH  48  62
BRANCH  49  73
ATOM     73  C   UNL A   1      42.397  24.083  27.358  1.00  0.00     0.023 A 
ATOM     74  C   UNL A   1      41.790  22.828  27.531  1.00  0.00     0.031 A 
ATOM     75  C   UNL A   1      43.117  24.308  26.171  1.00  0.00     0.131 A 
ATOM     76  C   UNL A   1      41.960  21.831  26.558  1.00  0.00     0.055 A 
ATOM     77  C   UNL A   1      43.236  23.331  25.181  1.00  0.00     0.041 A 
ATOM     78  F   UNL A   1      43.718  25.489  25.954  1.00  0.00    -0.206 F 
ATOM     79  C   UNL A   1      42.668  22.077  25.380  1.00  0.00     0.022 A 
BRANCH  76  80
ATOM     80  S   UNL A   1      41.335  20.163  26.908  1.00  0.00     0.124 S 
ATOM     81  O   UNL A   1      42.516  19.346  26.678  1.00  0.00    -0.237 OA
ATOM     82  O   UNL A   1      40.900  20.292  28.297  1.00  0.00    -0.237 OA
ATOM     83  O   UNL A   1      40.256  19.995  25.935  1.00  0.00    -0.744 OA
ENDBRANCH  76  80
ENDBRANCH  49  73
BRANCH  61  84
ATOM     84  C   UNL A   1      46.960  26.059  32.239  1.00  0.00     0.023 A 
ATOM     85  C   UNL A   1      47.111  25.119  33.272  1.00  0.00     0.031 A 
ATOM     86  C   UNL A   1      48.115  26.504  31.573  1.00  0.00     0.131 A 
ATOM     87  C   UNL A   1      48.394  24.686  33.642  1.00  0.00     0.055 A 
ATOM     88  C   UNL A   1      49.384  26.029  31.908  1.00  0.00     0.041 A 
ATOM     89  F   UNL A   1      48.028  27.403  30.580  1.00  0.00    -0.206 F 
ATOM     90  C   UNL A   1      49.530  25.124  32.955  1.00  0.00     0.022 A 
BRANCH  87  91
ATOM     91  S   UNL A   1      48.567  23.590  35.077  1.00  0.00     0.124 S 
ATOM     92  O   UNL A   1      47.267  23.731  35.724  1.00  0.00    -0.237 OA
ATOM     93  O   UNL A   1      48.832  22.297  34.454  1.00  0.00    -0.237 OA
ATOM     94  O   UNL A   1      49.693  24.163  35.813  1.00  0.00    -0.744 OA
ENDBRANCH  87  91
ENDBRANCH  61  84
ENDBRANCH  35  36
ENDBRANCH  27  30
ENDBRANCH  25  26
ENDBRANCH  24  25
ENDBRANCH   1  24
TORSDOF 18
ENDMDL
MODEL 2
REMARK VINA RESULT:     -10.7      4.714      7.510
REMARK SMILES CN(CCc1cccs1)C(=O)N[C@@H]1COC[C@H]1C(=O)NCCCNC(=O)c1ccc(-c2c3nc(c(-c4cc(S(=O)(=O)[O-])ccc4F)c4ccc([nH]4)c(-c4cc(S(=O)(=O)[O-])ccc4F)c4nc(c(-c5cc(S(=O)(=O)[O-])ccc5F)c5ccc2[nH]5)C=C4)C=C3)cc1
REMARK SMILES IDX 21 1 20 2 18 3 19 4 17 6 13 7 14 8 15 9 16 10 12 11 10 12
REMARK SMILES IDX 11 13 2 15 1 16 3 17 4 18 5 19 6 20 9 21 7 22 8 23 22 24
REMARK SMILES IDX 23 25 24 26 25 27 26 29 27 30 28 31 89 32 29 33 88 34 30 35
REMARK SMILES IDX 31 36 32 37 82 38 33 39 87 40 81 41 83 42 34 43 86 44 80 45
REMARK SMILES IDX 79 46 35 48 67 49 47 50 66 51 48 52 51 53 65 54 84 55 49 56
REMARK SMILES IDX 50 57 64 59 85 60 52 61 36 62 37 63 45 64 38 65 44 66 46 67
REMARK SMILES IDX 43 68 39 69 40 70 41 71 42 72 68 73 69 74 77 75 70 76 76 77
REMARK SMILES IDX 78 78 75 79 71 80 72 81 73 82 74 83 53 84 54 85 62 86 55 87
REMARK SMILES IDX 61 88 63 89 60 90 56 91 57 92 58 93 59 94
REMARK H PARENT 20 5 12 14 24 28 83 47 51 58
REMARK Flexibility Score: inf
ROOT
ATOM      1  C   UNL A   1      34.298  23.558  26.398  1.00  0.00     0.117 C 
ENDROOT
BRANCH   1   2
ATOM      2  N   UNL A   1      32.960  23.361  26.936  1.00  0.00    -0.356 N 
ATOM      3  C   UNL A   1      31.729  23.829  26.617  1.00  0.00     0.227 C 
ATOM      4  O   UNL A   1      30.787  23.338  27.252  1.00  0.00    -0.275 OA
ATOM      5  H   UNL A   1      32.945  22.746  27.705  1.00  0.00     0.163 HD
BRANCH   3   6
ATOM      6  C   UNL A   1      31.427  24.874  25.564  1.00  0.00     0.129 C 
ATOM      7  C   UNL A   1      31.128  24.359  24.164  1.00  0.00     0.124 C 
ATOM      8  C   UNL A   1      30.268  25.486  23.579  1.00  0.00     0.186 C 
ATOM      9  O   UNL A   1      29.833  26.344  24.645  1.00  0.00    -0.378 OA
ATOM     10  C   UNL A   1      30.267  25.782  25.886  1.00  0.00     0.176 C 
BRANCH   7  11
ATOM     11  N   UNL A   1      32.347  24.138  23.379  1.00  0.00    -0.332 N 
ATOM     12  C   UNL A   1      32.897  23.080  22.748  1.00  0.00     0.317 C 
ATOM     13  O   UNL A   1      33.736  23.363  21.887  1.00  0.00    -0.249 OA
ATOM     14  H   UNL A   1      32.892  24.953  23.294  1.00  0.00     0.165 HD
BRANCH  12  15
ATOM     15  N   UNL A   1      32.541  21.784  23.019  1.00  0.00    -0.328 N 
ATOM     16  C   UNL A   1      31.781  21.081  21.989  1.00  0.00     0.148 C 
BRANCH  15  17
ATOM     17  C   UNL A   1      33.111  20.921  24.054  1.00  0.00     0.126 C 
BRANCH  17  18
ATOM     18  C   UNL A   1      32.151  19.893  24.686  1.00  0.00     0.068 C 
BRANCH  18  19
ATOM     19  C   UNL A   1      32.623  18.467  24.672  1.00  0.00     0.006 A 
ATOM     20  C   UNL A   1      32.794  17.621  25.752  1.00  0.00     0.015 A 
ATOM     21  S   UNL A   1      33.081  17.693  23.221  1.00  0.00    -0.149 S 
ATOM     22  C   UNL A   1      33.208  16.315  25.365  1.00  0.00     0.012 A 
ATOM     23  C   UNL A   1      33.373  16.209  24.005  1.00  0.00     0.065 A 
ENDBRANCH  18  19
ENDBRANCH  17  18
ENDBRANCH  15  17
ENDBRANCH  12  15
ENDBRANCH   7  11
ENDBRANCH   3   6
ENDBRANCH   1   2
BRANCH   1  24
ATOM     24  C   UNL A   1      35.169  22.293  26.352  1.00  0.00     0.042 C 
BRANCH  24  25
ATOM     25  C   UNL A   1      36.273  22.236  25.291  1.00  0.00     0.118 C 
BRANCH  25  26
ATOM     26  N   UNL A   1      37.161  21.098  25.476  1.00  0.00    -0.352 N 
ATOM     27  C   UNL A   1      38.495  21.083  25.812  1.00  0.00     0.251 C 
ATOM     28  H   UNL A   1      36.748  20.215  25.341  1.00  0.00     0.163 HD
ATOM     29  O   UNL A   1      39.130  20.035  25.689  1.00  0.00    -0.269 OA
BRANCH  27  30
ATOM     30  C   UNL A   1      39.182  22.304  26.301  1.00  0.00     0.039 A 
ATOM     31  C   UNL A   1      40.270  22.164  27.170  1.00  0.00     0.014 A 
ATOM     32  C   UNL A   1      38.726  23.585  25.966  1.00  0.00     0.014 A 
ATOM     33  C   UNL A   1      40.934  23.299  27.655  1.00  0.00     0.010 A 
ATOM     34  C   UNL A   1      39.411  24.716  26.425  1.00  0.00     0.010 A 
ATOM     35  C   UNL A   1      40.528  24.587  27.269  1.00  0.00    -0.014 A 
BRANCH  35  36
ATOM     36  C   UNL A   1      41.283  25.798  27.703  1.00  0.00     0.031 A 
ATOM     37  C   UNL A   1      40.594  26.908  28.453  1.00  0.00     0.074 A 
ATOM     38  C   UNL A   1      42.581  25.929  27.361  1.00  0.00     0.049 A 
ATOM     39  N   UNL A   1      41.068  28.071  28.824  1.00  0.00    -0.248 NA
ATOM     40  C   UNL A   1      39.188  26.687  28.823  1.00  0.00     0.031 C 
ATOM     41  C   UNL A   1      43.360  24.936  26.620  1.00  0.00     0.029 A 
ATOM     42  N   UNL A   1      43.470  26.958  27.565  1.00  0.00    -0.354 N 
ATOM     43  C   UNL A   1      40.017  28.731  29.453  1.00  0.00     0.074 A 
ATOM     44  C   UNL A   1      38.874  27.843  29.394  1.00  0.00     0.031 C 
ATOM     45  C   UNL A   1      44.602  25.407  26.423  1.00  0.00     0.029 A 
ATOM     46  C   UNL A   1      44.699  26.753  26.979  1.00  0.00     0.049 A 
ATOM     47  H   UNL A   1      43.248  27.766  28.083  1.00  0.00     0.167 HD
ATOM     48  C   UNL A   1      40.009  29.959  30.029  1.00  0.00     0.034 A 
ATOM     49  C   UNL A   1      45.770  27.567  26.865  1.00  0.00     0.034 A 
ATOM     50  C   UNL A   1      41.160  30.827  30.106  1.00  0.00     0.049 A 
ATOM     51  C   UNL A   1      45.716  28.946  27.474  1.00  0.00     0.074 A 
ATOM     52  C   UNL A   1      41.280  32.037  30.769  1.00  0.00     0.029 A 
ATOM     53  N   UNL A   1      42.378  30.595  29.483  1.00  0.00    -0.354 N 
ATOM     54  N   UNL A   1      44.737  29.517  28.137  1.00  0.00    -0.248 NA
ATOM     55  C   UNL A   1      46.909  29.791  27.321  1.00  0.00     0.031 C 
ATOM     56  C   UNL A   1      42.540  32.572  30.484  1.00  0.00     0.029 A 
ATOM     57  C   UNL A   1      43.233  31.665  29.700  1.00  0.00     0.049 A 
ATOM     58  H   UNL A   1      42.601  29.790  28.963  1.00  0.00     0.167 HD
ATOM     59  C   UNL A   1      45.206  30.779  28.494  1.00  0.00     0.074 A 
ATOM     60  C   UNL A   1      46.560  30.878  27.993  1.00  0.00     0.031 C 
ATOM     61  C   UNL A   1      44.574  31.766  29.176  1.00  0.00     0.034 A 
BRANCH  48  62
ATOM     62  C   UNL A   1      38.709  30.467  30.600  1.00  0.00     0.023 A 
ATOM     63  C   UNL A   1      37.774  31.166  29.819  1.00  0.00     0.031 A 
ATOM     64  C   UNL A   1      38.384  30.206  31.944  1.00  0.00     0.131 A 
ATOM     65  C   UNL A   1      36.576  31.613  30.398  1.00  0.00     0.055 A 
ATOM     66  C   UNL A   1      37.166  30.602  32.498  1.00  0.00     0.041 A 
ATOM     67  F   UNL A   1      39.247  29.554  32.740  1.00  0.00    -0.206 F 
ATOM     68  C   UNL A   1      36.256  31.316  31.726  1.00  0.00     0.022 A 
BRANCH  65  69
ATOM     69  S   UNL A   1      35.472  32.663  29.413  1.00  0.00     0.124 S 
ATOM     70  O   UNL A   1      35.213  31.814  28.253  1.00  0.00    -0.237 OA
ATOM     71  O   UNL A   1      34.346  32.871  30.317  1.00  0.00    -0.237 OA
ATOM     72  O   UNL A   1      36.280  33.849  29.140  1.00  0.00    -0.744 OA
ENDBRANCH  65  69
ENDBRANCH  48  62
BRANCH  49  73
ATOM     73  C   UNL A   1      46.969  27.137  26.089  1.00  0.00     0.023 A 
ATOM     74  C   UNL A   1      48.075  26.549  26.724  1.00  0.00     0.031 A 
ATOM     75  C   UNL A   1      47.056  27.379  24.705  1.00  0.00     0.131 A 
ATOM     76  C   UNL A   1      49.238  26.273  25.989  1.00  0.00     0.055 A 
ATOM     77  C   UNL A   1      48.195  27.050  23.968  1.00  0.00     0.041 A 
ATOM     78  F   UNL A   1      46.029  27.939  24.047  1.00  0.00    -0.206 F 
ATOM     79  C   UNL A   1      49.302  26.508  24.614  1.00  0.00     0.022 A 
BRANCH  76  80
ATOM     80  S   UNL A   1      50.713  25.704  26.880  1.00  0.00     0.124 S 
ATOM     81  O   UNL A   1      50.945  26.803  27.805  1.00  0.00    -0.237 OA
ATOM     82  O   UNL A   1      50.242  24.453  27.469  1.00  0.00    -0.237 OA
ATOM     83  O   UNL A   1      51.711  25.554  25.822  1.00  0.00    -0.744 OA
ENDBRANCH  76  80
ENDBRANCH  49  73
BRANCH  61  84
ATOM     84  C   UNL A   1      45.354  33.031  29.435  1.00  0.00     0.023 A 
ATOM     85  C   UNL A   1      45.302  34.119  28.548  1.00  0.00     0.031 A 
ATOM     86  C   UNL A   1      46.163  33.146  30.579  1.00  0.00     0.131 A 
ATOM     87  C   UNL A   1      46.080  35.261  28.795  1.00  0.00     0.055 A 
ATOM     88  C   UNL A   1      46.893  34.305  30.848  1.00  0.00     0.041 A 
ATOM     89  F   UNL A   1      46.252  32.135  31.457  1.00  0.00    -0.206 F 
ATOM     90  C   UNL A   1      46.862  35.367  29.949  1.00  0.00     0.022 A 
BRANCH  87  91
ATOM     91  S   UNL A   1      46.107  36.586  27.557  1.00  0.00     0.124 S 
ATOM     92  O   UNL A   1      45.269  36.029  26.500  1.00  0.00    -0.237 OA
ATOM     93  O   UNL A   1      45.542  37.714  28.291  1.00  0.00    -0.237 OA
ATOM     94  O   UNL A   1      47.524  36.715  27.222  1.00  0.00    -0.744 OA
ENDBRANCH  87  91
ENDBRANCH  61  84
ENDBRANCH  35  36
ENDBRANCH  27  30
ENDBRANCH  25  26
ENDBRANCH  24  25
ENDBRANCH   1  24
TORSDOF 18
ENDMDL
MODEL 3
REMARK VINA RESULT:     -10.7      5.518      8.253
REMARK SMILES CN(CCc1cccs1)C(=O)N[C@@H]1COC[C@H]1C(=O)NCCCNC(=O)c1ccc(-c2c3nc(c(-c4cc(S(=O)(=O)[O-])ccc4F)c4ccc([nH]4)c(-c4cc(S(=O)(=O)[O-])ccc4F)c4nc(c(-c5cc(S(=O)(=O)[O-])ccc5F)c5ccc2[nH]5)C=C4)C=C3)cc1
REMARK SMILES IDX 21 1 20 2 18 3 19 4 17 6 13 7 14 8 15 9 16 10 12 11 10 12
REMARK SMILES IDX 11 13 2 15 1 16 3 17 4 18 5 19 6 20 9 21 7 22 8 23 22 24
REMARK SMILES IDX 23 25 24 26 25 27 26 29 27 30 28 31 89 32 29 33 88 34 30 35
REMARK SMILES IDX 31 36 32 37 82 38 33 39 87 40 81 41 83 42 34 43 86 44 80 45
REMARK SMILES IDX 79 46 35 48 67 49 47 50 66 51 48 52 51 53 65 54 84 55 49 56
REMARK SMILES IDX 50 57 64 59 85 60 52 61 36 62 37 63 45 64 38 65 44 66 46 67
REMARK SMILES IDX 43 68 39 69 40 70 41 71 42 72 68 73 69 74 77 75 70 76 76 77
REMARK SMILES IDX 78 78 75 79 71 80 72 81 73 82 74 83 53 84 54 85 62 86 55 87
REMARK SMILES IDX 61 88 63 89 60 90 56 91 57 92 58 93 59 94
REMARK H PARENT 20 5 12 14 24 28 83 47 51 58
REMARK Flexibility Score: inf
ROOT
ATOM      1  C   UNL A   1      36.892  20.681  24.737  1.00  0.00     0.117 C 
ENDROOT
BRANCH   1   2
ATOM      2  N   UNL A   1      36.911  21.892  25.545  1.00  0.00    -0.356 N 
ATOM      3  C   UNL A   1      36.129  22.996  25.621  1.00  0.00     0.227 C 
ATOM      4  O   UNL A   1      36.404  23.786  26.533  1.00  0.00    -0.275 OA
ATOM      5  H   UNL A   1      37.661  21.914  26.181  1.00  0.00     0.163 HD
BRANCH   3   6
ATOM      6  C   UNL A   1      34.967  23.320  24.705  1.00  0.00     0.129 C 
ATOM      7  C   UNL A   1      34.293  24.667  24.918  1.00  0.00     0.124 C 
ATOM      8  C   UNL A   1      33.695  24.953  23.535  1.00  0.00     0.186 C 
ATOM      9  O   UNL A   1      34.282  24.059  22.577  1.00  0.00    -0.378 OA
ATOM     10  C   UNL A   1      35.294  23.291  23.233  1.00  0.00     0.176 C 
BRANCH   7  11
ATOM     11  N   UNL A   1      33.261  24.616  25.959  1.00  0.00    -0.332 N 
ATOM     12  C   UNL A   1      32.308  23.730  26.315  1.00  0.00     0.317 C 
ATOM     13  O   UNL A   1      31.876  23.861  27.465  1.00  0.00    -0.249 OA
ATOM     14  H   UNL A   1      33.265  25.416  26.532  1.00  0.00     0.165 HD
BRANCH  12  15
ATOM     15  N   UNL A   1      31.862  22.740  25.479  1.00  0.00    -0.328 N 
ATOM     16  C   UNL A   1      31.043  23.156  24.343  1.00  0.00     0.148 C 
BRANCH  15  17
ATOM     17  C   UNL A   1      32.377  21.373  25.392  1.00  0.00     0.126 C 
BRANCH  17  18
ATOM     18  C   UNL A   1      32.280  20.696  24.011  1.00  0.00     0.068 C 
BRANCH  18  19
ATOM     19  C   UNL A   1      32.944  19.353  23.895  1.00  0.00     0.006 A 
ATOM     20  C   UNL A   1      34.011  18.871  24.629  1.00  0.00     0.015 A 
ATOM     21  S   UNL A   1      32.450  18.212  22.726  1.00  0.00    -0.149 S 
ATOM     22  C   UNL A   1      34.351  17.531  24.287  1.00  0.00     0.012 A 
ATOM     23  C   UNL A   1      33.554  17.039  23.280  1.00  0.00     0.065 A 
ENDBRANCH  18  19
ENDBRANCH  17  18
ENDBRANCH  15  17
ENDBRANCH  12  15
ENDBRANCH   7  11
ENDBRANCH   3   6
ENDBRANCH   1   2
BRANCH   1  24
ATOM     24  C   UNL A   1      38.011  19.676  25.052  1.00  0.00     0.042 C 
BRANCH  24  25
ATOM     25  C   UNL A   1      39.215  20.190  25.849  1.00  0.00     0.118 C 
BRANCH  25  26
ATOM     26  N   UNL A   1      40.278  19.202  25.944  1.00  0.00    -0.352 N 
ATOM     27  C   UNL A   1      41.631  19.394  26.105  1.00  0.00     0.251 C 
ATOM     28  H   UNL A   1      39.988  18.263  25.884  1.00  0.00     0.163 HD
ATOM     29  O   UNL A   1      42.394  18.445  25.926  1.00  0.00    -0.269 OA
BRANCH  27  30
ATOM     30  C   UNL A   1      42.183  20.721  26.473  1.00  0.00     0.039 A 
ATOM     31  C   UNL A   1      42.644  21.565  25.456  1.00  0.00     0.014 A 
ATOM     32  C   UNL A   1      42.314  21.116  27.809  1.00  0.00     0.014 A 
ATOM     33  C   UNL A   1      43.179  22.821  25.772  1.00  0.00     0.010 A 
ATOM     34  C   UNL A   1      42.819  22.384  28.120  1.00  0.00     0.010 A 
ATOM     35  C   UNL A   1      43.250  23.255  27.105  1.00  0.00    -0.014 A 
BRANCH  35  36
ATOM     36  C   UNL A   1      43.730  24.625  27.449  1.00  0.00     0.031 A 
ATOM     37  C   UNL A   1      42.773  25.675  27.950  1.00  0.00     0.074 A 
ATOM     38  C   UNL A   1      45.024  24.945  27.244  1.00  0.00     0.049 A 
ATOM     39  N   UNL A   1      42.995  26.940  28.206  1.00  0.00    -0.248 NA
ATOM     40  C   UNL A   1      41.384  25.251  28.183  1.00  0.00     0.031 C 
ATOM     41  C   UNL A   1      46.050  24.027  26.745  1.00  0.00     0.029 A 
ATOM     42  N   UNL A   1      45.697  26.134  27.402  1.00  0.00    -0.354 N 
ATOM     43  C   UNL A   1      41.775  27.470  28.610  1.00  0.00     0.074 A 
ATOM     44  C   UNL A   1      40.810  26.391  28.545  1.00  0.00     0.031 C 
ATOM     45  C   UNL A   1      47.214  24.687  26.629  1.00  0.00     0.029 A 
ATOM     46  C   UNL A   1      47.012  26.085  26.997  1.00  0.00     0.049 A 
ATOM     47  H   UNL A   1      45.278  26.945  27.772  1.00  0.00     0.167 HD
ATOM     48  C   UNL A   1      41.488  28.736  29.003  1.00  0.00     0.034 A 
ATOM     49  C   UNL A   1      47.942  27.057  26.894  1.00  0.00     0.034 A 
ATOM     50  C   UNL A   1      42.460  29.800  29.089  1.00  0.00     0.049 A 
ATOM     51  C   UNL A   1      47.580  28.468  27.293  1.00  0.00     0.074 A 
ATOM     52  C   UNL A   1      42.289  31.082  29.584  1.00  0.00     0.029 A 
ATOM     53  N   UNL A   1      43.774  29.718  28.650  1.00  0.00    -0.354 N 
ATOM     54  N   UNL A   1      46.440  28.928  27.751  1.00  0.00    -0.248 NA
ATOM     55  C   UNL A   1      48.630  29.488  27.161  1.00  0.00     0.031 C 
ATOM     56  C   UNL A   1      43.473  31.797  29.374  1.00  0.00     0.029 A 
ATOM     57  C   UNL A   1      44.406  30.942  28.811  1.00  0.00     0.049 A 
ATOM     58  H   UNL A   1      44.195  28.910  28.278  1.00  0.00     0.167 HD
ATOM     59  C   UNL A   1      46.644  30.287  27.978  1.00  0.00     0.074 A 
ATOM     60  C   UNL A   1      48.020  30.568  27.628  1.00  0.00     0.031 C 
ATOM     61  C   UNL A   1      45.771  31.219  28.437  1.00  0.00     0.034 A 
BRANCH  48  62
ATOM     62  C   UNL A   1      40.056  29.068  29.343  1.00  0.00     0.023 A 
ATOM     63  C   UNL A   1      39.611  29.182  30.670  1.00  0.00     0.031 A 
ATOM     64  C   UNL A   1      39.132  29.317  28.312  1.00  0.00     0.131 A 
ATOM     65  C   UNL A   1      38.269  29.498  30.932  1.00  0.00     0.055 A 
ATOM     66  C   UNL A   1      37.813  29.689  28.579  1.00  0.00     0.041 A 
ATOM     67  F   UNL A   1      39.499  29.209  27.025  1.00  0.00    -0.206 F 
ATOM     68  C   UNL A   1      37.373  29.774  29.896  1.00  0.00     0.022 A 
BRANCH  65  69
ATOM     69  S   UNL A   1      37.686  29.463  32.649  1.00  0.00     0.124 S 
ATOM     70  O   UNL A   1      37.577  28.028  32.897  1.00  0.00    -0.237 OA
ATOM     71  O   UNL A   1      38.755  30.156  33.360  1.00  0.00    -0.237 OA
ATOM     72  O   UNL A   1      36.412  30.177  32.593  1.00  0.00    -0.744 OA
ENDBRANCH  65  69
ENDBRANCH  48  62
BRANCH  49  73
ATOM     73  C   UNL A   1      49.290  26.761  26.330  1.00  0.00     0.023 A 
ATOM     74  C   UNL A   1      49.694  27.288  25.092  1.00  0.00     0.031 A 
ATOM     75  C   UNL A   1      50.169  25.881  26.989  1.00  0.00     0.131 A 
ATOM     76  C   UNL A   1      50.916  26.890  24.528  1.00  0.00     0.055 A 
ATOM     77  C   UNL A   1      51.408  25.532  26.450  1.00  0.00     0.041 A 
ATOM     78  F   UNL A   1      49.834  25.348  28.174  1.00  0.00    -0.206 F 
ATOM     79  C   UNL A   1      51.781  26.025  25.203  1.00  0.00     0.022 A 
BRANCH  76  80
ATOM     80  S   UNL A   1      51.310  27.431  22.842  1.00  0.00     0.124 S 
ATOM     81  O   UNL A   1      52.742  27.183  22.775  1.00  0.00    -0.237 OA
ATOM     82  O   UNL A   1      50.464  26.550  22.040  1.00  0.00    -0.237 OA
ATOM     83  O   UNL A   1      50.917  28.840  22.838  1.00  0.00    -0.744 OA
ENDBRANCH  76  80
ENDBRANCH  49  73
BRANCH  61  84
ATOM     84  C   UNL A   1      46.292  32.625  28.603  1.00  0.00     0.023 A 
ATOM     85  C   UNL A   1      46.279  33.542  27.540  1.00  0.00     0.031 A 
ATOM     86  C   UNL A   1      46.813  33.049  29.838  1.00  0.00     0.131 A 
ATOM     87  C   UNL A   1      46.817  34.826  27.717  1.00  0.00     0.055 A 
ATOM     88  C   UNL A   1      47.297  34.344  30.025  1.00  0.00     0.041 A 
ATOM     89  F   UNL A   1      46.852  32.211  30.887  1.00  0.00    -0.206 F 
ATOM     90  C   UNL A   1      47.311  35.238  28.958  1.00  0.00     0.022 A 
BRANCH  87  91
ATOM     91  S   UNL A   1      46.923  35.936  26.286  1.00  0.00     0.124 S 
ATOM     92  O   UNL A   1      46.493  37.208  26.856  1.00  0.00    -0.237 OA
ATOM     93  O   UNL A   1      48.333  35.844  25.921  1.00  0.00    -0.237 OA
ATOM     94  O   UNL A   1      45.996  35.343  25.323  1.00  0.00    -0.744 OA
ENDBRANCH  87  91
ENDBRANCH  61  84
ENDBRANCH  35  36
ENDBRANCH  27  30
ENDBRANCH  25  26
ENDBRANCH  24  25
ENDBRANCH   1  24
TORSDOF 18
ENDMDL
