MODEL 1
REMARK VINA RESULT:     -11.8      0.000      0.000
REMARK SMILES Cc1n[nH]c(C(=O)N[C@@H](CC(C)C)C(=O)NCCCNC(=O)c2ccc(-c3c4nc(c(-c5cc(S(=O)(=O)[O-])ccc5F)c5ccc([nH]5)c(-c5cc(S(=O)(=O)[O-])ccc5F)c5nc(c(-c6cc(S(=O)(=O)[O-])ccc6F)c6ccc3[nH]6)C=C5)C=C4)cc2)n1
REMARK SMILES IDX 18 1 17 2 16 3 14 4 15 5 9 7 8 8 6 9 7 10 5 12 1 13 2 14
REMARK SMILES IDX 3 15 86 16 4 17 10 19 11 20 12 21 13 22 19 23 20 24 21 25
REMARK SMILES IDX 22 27 23 28 24 29 85 30 25 31 84 32 26 33 27 34 28 35 78 36
REMARK SMILES IDX 29 37 83 38 77 39 79 40 30 41 82 42 76 43 75 44 31 46 63 47
REMARK SMILES IDX 43 48 62 49 44 50 47 51 61 52 80 53 45 54 46 55 60 57 81 58
REMARK SMILES IDX 48 59 32 60 33 61 41 62 34 63 40 64 42 65 39 66 35 67 36 68
REMARK SMILES IDX 37 69 38 70 64 71 65 72 73 73 66 74 72 75 74 76 71 77 67 78
REMARK SMILES IDX 68 79 69 80 70 81 49 82 50 83 58 84 51 85 57 86 59 87 56 88
REMARK SMILES IDX 52 89 53 90 54 91 55 92
REMARK H PARENT 16 6 8 11 4 18 20 26 79 45 47 56
REMARK Flexibility Score: inf
ROOT
ATOM      1  C   UNL A   1      33.381  29.470  27.105  1.00  0.00     0.042 C 
ENDROOT
BRANCH   1   2
ATOM      2  C   UNL A   1      32.948  28.310  26.215  1.00  0.00     0.117 C 
BRANCH   2   3
ATOM      3  N   UNL A   1      33.685  27.071  26.395  1.00  0.00    -0.354 N 
ATOM      4  C   UNL A   1      33.763  25.968  25.590  1.00  0.00     0.242 C 
ATOM      5  O   UNL A   1      34.710  25.194  25.762  1.00  0.00    -0.273 OA
ATOM      6  H   UNL A   1      34.211  27.017  27.227  1.00  0.00     0.163 HD
BRANCH   4   7
ATOM      7  C   UNL A   1      32.752  25.664  24.461  1.00  0.00     0.172 C 
BRANCH   7   8
ATOM      8  N   UNL A   1      33.274  26.104  23.169  1.00  0.00    -0.338 N 
ATOM      9  C   UNL A   1      32.992  27.156  22.329  1.00  0.00     0.289 C 
ATOM     10  O   UNL A   1      33.852  27.316  21.455  1.00  0.00    -0.266 OA
ATOM     11  H   UNL A   1      33.985  25.517  22.822  1.00  0.00     0.164 HD
BRANCH   9  12
ATOM     12  C   UNL A   1      31.786  27.968  22.385  1.00  0.00     0.214 A 
ATOM     13  C   UNL A   1      28.322  28.350  23.074  1.00  0.00     0.092 C 
ATOM     14  C   UNL A   1      29.752  28.501  22.738  1.00  0.00     0.148 A 
ATOM     15  N   UNL A   1      30.313  29.672  22.433  1.00  0.00    -0.159 NA
ATOM     16  N   UNL A   1      30.615  27.444  22.729  1.00  0.00    -0.207 NA
ATOM     17  N   UNL A   1      31.577  29.300  22.160  1.00  0.00    -0.255 N 
ATOM     18  H   UNL A   1      32.273  29.916  21.834  1.00  0.00     0.192 HD
ENDBRANCH   9  12
ENDBRANCH   7   8
BRANCH   7  19
ATOM     19  C   UNL A   1      32.069  24.278  24.400  1.00  0.00     0.038 C 
BRANCH  19  20
ATOM     20  C   UNL A   1      30.734  24.039  25.123  1.00  0.00    -0.015 C 
ATOM     21  C   UNL A   1      30.851  22.980  26.225  1.00  0.00     0.007 C 
ATOM     22  C   UNL A   1      30.217  25.337  25.757  1.00  0.00     0.007 C 
ENDBRANCH  19  20
ENDBRANCH   7  19
ENDBRANCH   4   7
ENDBRANCH   2   3
ENDBRANCH   1   2
BRANCH   1  23
ATOM     23  C   UNL A   1      34.829  29.359  27.552  1.00  0.00     0.118 C 
BRANCH  23  24
ATOM     24  N   UNL A   1      35.184  30.295  28.624  1.00  0.00    -0.352 N 
ATOM     25  C   UNL A   1      36.333  30.277  29.397  1.00  0.00     0.251 C 
ATOM     26  H   UNL A   1      34.536  31.013  28.815  1.00  0.00     0.163 HD
ATOM     27  O   UNL A   1      36.426  30.946  30.420  1.00  0.00    -0.269 OA
BRANCH  25  28
ATOM     28  C   UNL A   1      37.419  29.387  28.953  1.00  0.00     0.039 A 
ATOM     29  C   UNL A   1      38.126  29.673  27.786  1.00  0.00     0.014 A 
ATOM     30  C   UNL A   1      37.873  28.440  29.865  1.00  0.00     0.014 A 
ATOM     31  C   UNL A   1      39.384  29.098  27.607  1.00  0.00     0.010 A 
ATOM     32  C   UNL A   1      39.168  27.977  29.742  1.00  0.00     0.010 A 
ATOM     33  C   UNL A   1      39.939  28.295  28.618  1.00  0.00    -0.014 A 
BRANCH  33  34
ATOM     34  C   UNL A   1      41.361  27.920  28.562  1.00  0.00     0.031 A 
ATOM     35  C   UNL A   1      41.732  26.725  27.738  1.00  0.00     0.074 A 
ATOM     36  C   UNL A   1      42.370  28.700  29.007  1.00  0.00     0.049 A 
ATOM     37  N   UNL A   1      42.279  25.623  28.136  1.00  0.00    -0.248 NA
ATOM     38  C   UNL A   1      41.415  26.731  26.302  1.00  0.00     0.031 C 
ATOM     39  C   UNL A   1      42.298  30.045  29.587  1.00  0.00     0.029 A 
ATOM     40  N   UNL A   1      43.715  28.485  28.910  1.00  0.00    -0.354 N 
ATOM     41  C   UNL A   1      42.557  24.867  26.996  1.00  0.00     0.074 A 
ATOM     42  C   UNL A   1      41.883  25.540  25.915  1.00  0.00     0.031 C 
ATOM     43  C   UNL A   1      43.517  30.621  29.546  1.00  0.00     0.029 A 
ATOM     44  C   UNL A   1      44.481  29.617  29.142  1.00  0.00     0.049 A 
ATOM     45  H   UNL A   1      44.105  27.607  28.693  1.00  0.00     0.167 HD
ATOM     46  C   UNL A   1      43.455  23.837  27.015  1.00  0.00     0.034 A 
ATOM     47  C   UNL A   1      45.823  29.748  29.037  1.00  0.00     0.034 A 
ATOM     48  C   UNL A   1      43.767  23.445  28.370  1.00  0.00     0.049 A 
ATOM     49  C   UNL A   1      46.405  28.402  29.226  1.00  0.00     0.074 A 
ATOM     50  C   UNL A   1      43.035  22.981  29.445  1.00  0.00     0.029 A 
ATOM     51  N   UNL A   1      44.975  23.837  28.898  1.00  0.00    -0.354 N 
ATOM     52  N   UNL A   1      46.286  27.725  30.337  1.00  0.00    -0.248 NA
ATOM     53  C   UNL A   1      46.759  27.610  28.060  1.00  0.00     0.031 C 
ATOM     54  C   UNL A   1      43.625  23.609  30.584  1.00  0.00     0.029 A 
ATOM     55  C   UNL A   1      44.710  24.366  30.137  1.00  0.00     0.049 A 
ATOM     56  H   UNL A   1      45.858  23.755  28.471  1.00  0.00     0.167 HD
ATOM     57  C   UNL A   1      46.112  26.411  29.939  1.00  0.00     0.074 A 
ATOM     58  C   UNL A   1      46.554  26.382  28.548  1.00  0.00     0.031 C 
ATOM     59  C   UNL A   1      45.370  25.536  30.683  1.00  0.00     0.034 A 
BRANCH  46  60
ATOM     60  C   UNL A   1      44.298  23.345  25.850  1.00  0.00     0.023 A 
ATOM     61  C   UNL A   1      44.153  21.994  25.460  1.00  0.00     0.031 A 
ATOM     62  C   UNL A   1      45.407  24.018  25.296  1.00  0.00     0.131 A 
ATOM     63  C   UNL A   1      45.118  21.353  24.661  1.00  0.00     0.055 A 
ATOM     64  C   UNL A   1      46.326  23.396  24.440  1.00  0.00     0.041 A 
ATOM     65  F   UNL A   1      45.718  25.278  25.618  1.00  0.00    -0.206 F 
ATOM     66  C   UNL A   1      46.205  22.048  24.145  1.00  0.00     0.022 A 
BRANCH  63  67
ATOM     67  S   UNL A   1      45.035  19.549  24.481  1.00  0.00     0.124 S 
ATOM     68  O   UNL A   1      44.035  19.195  25.483  1.00  0.00    -0.237 OA
ATOM     69  O   UNL A   1      44.630  19.405  23.087  1.00  0.00    -0.237 OA
ATOM     70  O   UNL A   1      46.398  19.115  24.783  1.00  0.00    -0.744 OA
ENDBRANCH  63  67
ENDBRANCH  46  60
BRANCH  47  71
ATOM     71  C   UNL A   1      46.542  30.946  28.549  1.00  0.00     0.023 A 
ATOM     72  C   UNL A   1      46.059  31.764  27.513  1.00  0.00     0.031 A 
ATOM     73  C   UNL A   1      47.671  31.415  29.263  1.00  0.00     0.131 A 
ATOM     74  C   UNL A   1      46.705  32.985  27.221  1.00  0.00     0.055 A 
ATOM     75  C   UNL A   1      48.312  32.616  28.963  1.00  0.00     0.041 A 
ATOM     76  F   UNL A   1      48.141  30.746  30.330  1.00  0.00    -0.206 F 
ATOM     77  C   UNL A   1      47.825  33.412  27.939  1.00  0.00     0.022 A 
BRANCH  74  78
ATOM     78  S   UNL A   1      46.025  34.086  25.941  1.00  0.00     0.124 S 
ATOM     79  O   UNL A   1      45.319  35.085  26.734  1.00  0.00    -0.237 OA
ATOM     80  O   UNL A   1      47.227  34.536  25.248  1.00  0.00    -0.237 OA
ATOM     81  O   UNL A   1      45.162  33.202  25.155  1.00  0.00    -0.744 OA
ENDBRANCH  74  78
ENDBRANCH  47  71
BRANCH  59  82
ATOM     82  C   UNL A   1      44.981  25.933  32.093  1.00  0.00     0.023 A 
ATOM     83  C   UNL A   1      43.792  26.617  32.426  1.00  0.00     0.031 A 
ATOM     84  C   UNL A   1      45.778  25.458  33.150  1.00  0.00     0.131 A 
ATOM     85  C   UNL A   1      43.441  26.812  33.776  1.00  0.00     0.055 A 
ATOM     86  C   UNL A   1      45.419  25.637  34.487  1.00  0.00     0.041 A 
ATOM     87  F   UNL A   1      46.901  24.765  32.898  1.00  0.00    -0.206 F 
ATOM     88  C   UNL A   1      44.249  26.318  34.805  1.00  0.00     0.022 A 
BRANCH  85  89
ATOM     89  S   UNL A   1      41.910  27.700  34.212  1.00  0.00     0.124 S 
ATOM     90  O   UNL A   1      41.060  26.656  34.771  1.00  0.00    -0.237 OA
ATOM     91  O   UNL A   1      42.383  28.713  35.153  1.00  0.00    -0.237 OA
ATOM     92  O   UNL A   1      41.450  28.236  32.929  1.00  0.00    -0.744 OA
ENDBRANCH  85  89
ENDBRANCH  59  82
ENDBRANCH  33  34
ENDBRANCH  25  28
ENDBRANCH  23  24
ENDBRANCH   1  23
TORSDOF 17
ENDMDL
MODEL 2
REMARK VINA RESULT:     -11.8      1.641      2.949
REMARK SMILES Cc1n[nH]c(C(=O)N[C@@H](CC(C)C)C(=O)NCCCNC(=O)c2ccc(-c3c4nc(c(-c5cc(S(=O)(=O)[O-])ccc5F)c5ccc([nH]5)c(-c5cc(S(=O)(=O)[O-])ccc5F)c5nc(c(-c6cc(S(=O)(=O)[O-])ccc6F)c6ccc3[nH]6)C=C5)C=C4)cc2)n1
REMARK SMILES IDX 18 1 17 2 16 3 14 4 15 5 9 7 8 8 6 9 7 10 5 12 1 13 2 14
REMARK SMILES IDX 3 15 86 16 4 17 10 19 11 20 12 21 13 22 19 23 20 24 21 25
REMARK SMILES IDX 22 27 23 28 24 29 85 30 25 31 84 32 26 33 27 34 28 35 78 36
REMARK SMILES IDX 29 37 83 38 77 39 79 40 30 41 82 42 76 43 75 44 31 46 63 47
REMARK SMILES IDX 43 48 62 49 44 50 47 51 61 52 80 53 45 54 46 55 60 57 81 58
REMARK SMILES IDX 48 59 32 60 33 61 41 62 34 63 40 64 42 65 39 66 35 67 36 68
REMARK SMILES IDX 37 69 38 70 64 71 65 72 73 73 66 74 72 75 74 76 71 77 67 78
REMARK SMILES IDX 68 79 69 80 70 81 49 82 50 83 58 84 51 85 57 86 59 87 56 88
REMARK SMILES IDX 52 89 53 90 54 91 55 92
REMARK H PARENT 16 6 8 11 4 18 20 26 79 45 47 56
REMARK Flexibility Score: inf
ROOT
ATOM      1  C   UNL A   1      33.337  28.926  27.243  1.00  0.00     0.042 C 
ENDROOT
BRANCH   1   2
ATOM      2  C   UNL A   1      32.947  27.647  26.514  1.00  0.00     0.117 C 
BRANCH   2   3
ATOM      3  N   UNL A   1      31.526  27.342  26.494  1.00  0.00    -0.354 N 
ATOM      4  C   UNL A   1      30.876  26.195  26.132  1.00  0.00     0.242 C 
ATOM      5  O   UNL A   1      29.716  26.040  26.526  1.00  0.00    -0.273 OA
ATOM      6  H   UNL A   1      30.939  28.077  26.788  1.00  0.00     0.163 HD
BRANCH   4   7
ATOM      7  C   UNL A   1      31.530  25.074  25.290  1.00  0.00     0.172 C 
BRANCH   7   8
ATOM      8  N   UNL A   1      30.773  23.830  25.412  1.00  0.00    -0.338 N 
ATOM      9  C   UNL A   1      31.034  22.601  25.973  1.00  0.00     0.289 C 
ATOM     10  O   UNL A   1      30.019  21.905  26.093  1.00  0.00    -0.266 OA
ATOM     11  H   UNL A   1      29.880  23.882  25.000  1.00  0.00     0.164 HD
BRANCH   9  12
ATOM     12  C   UNL A   1      32.357  22.109  26.327  1.00  0.00     0.214 A 
ATOM     13  C   UNL A   1      35.610  21.006  25.426  1.00  0.00     0.092 C 
ATOM     14  C   UNL A   1      34.367  21.440  26.093  1.00  0.00     0.148 A 
ATOM     15  N   UNL A   1      34.245  21.545  27.418  1.00  0.00    -0.159 NA
ATOM     16  N   UNL A   1      33.246  21.783  25.396  1.00  0.00    -0.207 NA
ATOM     17  N   UNL A   1      32.956  21.912  27.539  1.00  0.00    -0.255 N 
ATOM     18  H   UNL A   1      32.496  22.025  28.403  1.00  0.00     0.192 HD
ENDBRANCH   9  12
ENDBRANCH   7   8
BRANCH   7  19
ATOM     19  C   UNL A   1      31.982  25.372  23.842  1.00  0.00     0.038 C 
BRANCH  19  20
ATOM     20  C   UNL A   1      33.477  25.398  23.485  1.00  0.00    -0.015 C 
ATOM     21  C   UNL A   1      34.367  25.066  24.688  1.00  0.00     0.007 C 
ATOM     22  C   UNL A   1      33.787  24.396  22.366  1.00  0.00     0.007 C 
ENDBRANCH  19  20
ENDBRANCH   7  19
ENDBRANCH   4   7
ENDBRANCH   2   3
ENDBRANCH   1   2
BRANCH   1  23
ATOM     23  C   UNL A   1      34.840  29.065  27.426  1.00  0.00     0.118 C 
BRANCH  23  24
ATOM     24  N   UNL A   1      35.218  30.057  28.438  1.00  0.00    -0.352 N 
ATOM     25  C   UNL A   1      36.410  30.116  29.139  1.00  0.00     0.251 C 
ATOM     26  H   UNL A   1      34.553  30.756  28.641  1.00  0.00     0.163 HD
ATOM     27  O   UNL A   1      36.535  30.829  30.128  1.00  0.00    -0.269 OA
BRANCH  25  28
ATOM     28  C   UNL A   1      37.505  29.253  28.664  1.00  0.00     0.039 A 
ATOM     29  C   UNL A   1      38.253  29.622  27.546  1.00  0.00     0.014 A 
ATOM     30  C   UNL A   1      37.921  28.234  29.514  1.00  0.00     0.014 A 
ATOM     31  C   UNL A   1      39.513  29.050  27.366  1.00  0.00     0.010 A 
ATOM     32  C   UNL A   1      39.216  27.769  29.399  1.00  0.00     0.010 A 
ATOM     33  C   UNL A   1      40.027  28.166  28.329  1.00  0.00    -0.014 A 
BRANCH  33  34
ATOM     34  C   UNL A   1      41.448  27.784  28.292  1.00  0.00     0.031 A 
ATOM     35  C   UNL A   1      41.814  26.549  27.526  1.00  0.00     0.074 A 
ATOM     36  C   UNL A   1      42.460  28.580  28.699  1.00  0.00     0.049 A 
ATOM     37  N   UNL A   1      42.357  25.465  27.976  1.00  0.00    -0.248 NA
ATOM     38  C   UNL A   1      41.497  26.489  26.090  1.00  0.00     0.031 C 
ATOM     39  C   UNL A   1      42.393  29.951  29.215  1.00  0.00     0.029 A 
ATOM     40  N   UNL A   1      43.804  28.355  28.613  1.00  0.00    -0.354 N 
ATOM     41  C   UNL A   1      42.631  24.655  26.872  1.00  0.00     0.074 A 
ATOM     42  C   UNL A   1      41.961  25.279  25.761  1.00  0.00     0.031 C 
ATOM     43  C   UNL A   1      43.614  30.520  29.148  1.00  0.00     0.029 A 
ATOM     44  C   UNL A   1      44.574  29.494  28.792  1.00  0.00     0.049 A 
ATOM     45  H   UNL A   1      44.190  27.466  28.439  1.00  0.00     0.167 HD
ATOM     46  C   UNL A   1      43.525  23.623  26.941  1.00  0.00     0.034 A 
ATOM     47  C   UNL A   1      45.916  29.615  28.681  1.00  0.00     0.034 A 
ATOM     48  C   UNL A   1      43.836  23.295  28.313  1.00  0.00     0.049 A 
ATOM     49  C   UNL A   1      46.493  28.276  28.934  1.00  0.00     0.074 A 
ATOM     50  C   UNL A   1      43.101  22.885  29.409  1.00  0.00     0.029 A 
ATOM     51  N   UNL A   1      45.045  23.707  28.823  1.00  0.00    -0.354 N 
ATOM     52  N   UNL A   1      46.371  27.653  30.076  1.00  0.00    -0.248 NA
ATOM     53  C   UNL A   1      46.845  27.429  27.807  1.00  0.00     0.031 C 
ATOM     54  C   UNL A   1      43.693  23.564  30.517  1.00  0.00     0.029 A 
ATOM     55  C   UNL A   1      44.782  24.295  30.035  1.00  0.00     0.049 A 
ATOM     56  H   UNL A   1      45.928  23.601  28.400  1.00  0.00     0.167 HD
ATOM     57  C   UNL A   1      46.192  26.323  29.741  1.00  0.00     0.074 A 
ATOM     58  C   UNL A   1      46.635  26.226  28.353  1.00  0.00     0.031 C 
ATOM     59  C   UNL A   1      45.447  25.487  30.525  1.00  0.00     0.034 A 
BRANCH  46  60
ATOM     60  C   UNL A   1      44.367  23.074  25.801  1.00  0.00     0.023 A 
ATOM     61  C   UNL A   1      44.331  21.679  25.574  1.00  0.00     0.031 A 
ATOM     62  C   UNL A   1      45.389  23.770  25.124  1.00  0.00     0.131 A 
ATOM     63  C   UNL A   1      45.321  21.034  24.808  1.00  0.00     0.055 A 
ATOM     64  C   UNL A   1      46.329  23.134  24.302  1.00  0.00     0.041 A 
ATOM     65  F   UNL A   1      45.596  25.081  25.286  1.00  0.00    -0.206 F 
ATOM     66  C   UNL A   1      46.321  21.755  24.166  1.00  0.00     0.022 A 
BRANCH  63  67
ATOM     67  S   UNL A   1      45.396  19.221  24.837  1.00  0.00     0.124 S 
ATOM     68  O   UNL A   1      46.725  18.987  25.395  1.00  0.00    -0.237 OA
ATOM     69  O   UNL A   1      44.267  18.886  25.698  1.00  0.00    -0.237 OA
ATOM     70  O   UNL A   1      45.239  18.853  23.431  1.00  0.00    -0.744 OA
ENDBRANCH  63  67
ENDBRANCH  46  60
BRANCH  47  71
ATOM     71  C   UNL A   1      46.641  30.785  28.137  1.00  0.00     0.023 A 
ATOM     72  C   UNL A   1      46.061  31.698  27.240  1.00  0.00     0.031 A 
ATOM     73  C   UNL A   1      47.907  31.125  28.671  1.00  0.00     0.131 A 
ATOM     74  C   UNL A   1      46.748  32.885  26.902  1.00  0.00     0.055 A 
ATOM     75  C   UNL A   1      48.586  32.293  28.325  1.00  0.00     0.041 A 
ATOM     76  F   UNL A   1      48.491  30.359  29.608  1.00  0.00    -0.206 F 
ATOM     77  C   UNL A   1      48.003  33.184  27.439  1.00  0.00     0.022 A 
BRANCH  74  78
ATOM     78  S   UNL A   1      45.957  34.110  25.813  1.00  0.00     0.124 S 
ATOM     79  O   UNL A   1      45.241  34.954  26.762  1.00  0.00    -0.237 OA
ATOM     80  O   UNL A   1      47.103  34.713  25.142  1.00  0.00    -0.237 OA
ATOM     81  O   UNL A   1      45.103  33.295  24.947  1.00  0.00    -0.744 OA
ENDBRANCH  74  78
ENDBRANCH  47  71
BRANCH  59  82
ATOM     82  C   UNL A   1      45.059  25.951  31.914  1.00  0.00     0.023 A 
ATOM     83  C   UNL A   1      43.879  26.669  32.212  1.00  0.00     0.031 A 
ATOM     84  C   UNL A   1      45.843  25.511  32.995  1.00  0.00     0.131 A 
ATOM     85  C   UNL A   1      43.527  26.929  33.550  1.00  0.00     0.055 A 
ATOM     86  C   UNL A   1      45.482  25.755  34.321  1.00  0.00     0.041 A 
ATOM     87  F   UNL A   1      46.956  24.789  32.778  1.00  0.00    -0.206 F 
ATOM     88  C   UNL A   1      44.323  26.468  34.603  1.00  0.00     0.022 A 
BRANCH  85  89
ATOM     89  S   UNL A   1      42.009  27.860  33.940  1.00  0.00     0.124 S 
ATOM     90  O   UNL A   1      42.478  28.918  34.826  1.00  0.00    -0.237 OA
ATOM     91  O   UNL A   1      41.547  28.287  32.621  1.00  0.00    -0.237 OA
ATOM     92  O   UNL A   1      41.153  26.861  34.584  1.00  0.00    -0.744 OA
ENDBRANCH  85  89
ENDBRANCH  59  82
ENDBRANCH  33  34
ENDBRANCH  25  28
ENDBRANCH  23  24
ENDBRANCH   1  23
TORSDOF 17
ENDMDL
MODEL 3
REMARK VINA RESULT:     -11.5      1.938      2.810
REMARK SMILES Cc1n[nH]c(C(=O)N[C@@H](CC(C)C)C(=O)NCCCNC(=O)c2ccc(-c3c4nc(c(-c5cc(S(=O)(=O)[O-])ccc5F)c5ccc([nH]5)c(-c5cc(S(=O)(=O)[O-])ccc5F)c5nc(c(-c6cc(S(=O)(=O)[O-])ccc6F)c6ccc3[nH]6)C=C5)C=C4)cc2)n1
REMARK SMILES IDX 18 1 17 2 16 3 14 4 15 5 9 7 8 8 6 9 7 10 5 12 1 13 2 14
REMARK SMILES IDX 3 15 86 16 4 17 10 19 11 20 12 21 13 22 19 23 20 24 21 25
REMARK SMILES IDX 22 27 23 28 24 29 85 30 25 31 84 32 26 33 27 34 28 35 78 36
REMARK SMILES IDX 29 37 83 38 77 39 79 40 30 41 82 42 76 43 75 44 31 46 63 47
REMARK SMILES IDX 43 48 62 49 44 50 47 51 61 52 80 53 45 54 46 55 60 57 81 58
REMARK SMILES IDX 48 59 32 60 33 61 41 62 34 63 40 64 42 65 39 66 35 67 36 68
REMARK SMILES IDX 37 69 38 70 64 71 65 72 73 73 66 74 72 75 74 76 71 77 67 78
REMARK SMILES IDX 68 79 69 80 70 81 49 82 50 83 58 84 51 85 57 86 59 87 56 88
REMARK SMILES IDX 52 89 53 90 54 91 55 92
REMARK H PARENT 16 6 8 11 4 18 20 26 79 45 47 56
REMARK Flexibility Score: inf
ROOT
ATOM      1  C   UNL A   1      33.941  30.066  26.897  1.00  0.00     0.042 C 
ENDROOT
BRANCH   1   2
ATOM      2  C   UNL A   1      33.504  29.135  25.772  1.00  0.00     0.117 C 
BRANCH   2   3
ATOM      3  N   UNL A   1      32.563  29.701  24.819  1.00  0.00    -0.354 N 
ATOM      4  C   UNL A   1      31.556  29.101  24.115  1.00  0.00     0.242 C 
ATOM      5  O   UNL A   1      30.671  29.824  23.645  1.00  0.00    -0.273 OA
ATOM      6  H   UNL A   1      32.669  30.666  24.654  1.00  0.00     0.163 HD
BRANCH   4   7
ATOM      7  C   UNL A   1      31.450  27.571  23.913  1.00  0.00     0.172 C 
BRANCH   7   8
ATOM      8  N   UNL A   1      30.054  27.166  23.764  1.00  0.00    -0.338 N 
ATOM      9  C   UNL A   1      29.236  26.284  24.431  1.00  0.00     0.289 C 
ATOM     10  O   UNL A   1      28.041  26.436  24.153  1.00  0.00    -0.266 OA
ATOM     11  H   UNL A   1      29.599  27.625  23.021  1.00  0.00     0.164 HD
BRANCH   9  12
ATOM     12  C   UNL A   1      29.697  25.225  25.316  1.00  0.00     0.214 A 
ATOM     13  C   UNL A   1      31.837  22.482  26.034  1.00  0.00     0.092 C 
ATOM     14  C   UNL A   1      30.851  23.582  26.032  1.00  0.00     0.148 A 
ATOM     15  N   UNL A   1      30.109  23.904  27.092  1.00  0.00    -0.159 NA
ATOM     16  N   UNL A   1      30.637  24.367  24.937  1.00  0.00    -0.207 NA
ATOM     17  N   UNL A   1      29.353  24.900  26.598  1.00  0.00    -0.255 N 
ATOM     18  H   UNL A   1      28.633  25.345  27.101  1.00  0.00     0.192 HD
ENDBRANCH   9  12
ENDBRANCH   7   8
BRANCH   7  19
ATOM     19  C   UNL A   1      32.397  26.866  22.915  1.00  0.00     0.038 C 
BRANCH  19  20
ATOM     20  C   UNL A   1      33.685  26.190  23.413  1.00  0.00    -0.015 C 
ATOM     21  C   UNL A   1      33.683  25.984  24.932  1.00  0.00     0.007 C 
ATOM     22  C   UNL A   1      33.875  24.823  22.743  1.00  0.00     0.007 C 
ENDBRANCH  19  20
ENDBRANCH   7  19
ENDBRANCH   4   7
ENDBRANCH   2   3
ENDBRANCH   1   2
BRANCH   1  23
ATOM     23  C   UNL A   1      35.082  29.494  27.723  1.00  0.00     0.118 C 
BRANCH  23  24
ATOM     24  N   UNL A   1      35.504  30.368  28.823  1.00  0.00    -0.352 N 
ATOM     25  C   UNL A   1      36.674  30.273  29.557  1.00  0.00     0.251 C 
ATOM     26  H   UNL A   1      34.890  31.100  29.065  1.00  0.00     0.163 HD
ATOM     27  O   UNL A   1      36.822  30.892  30.605  1.00  0.00    -0.269 OA
BRANCH  25  28
ATOM     28  C   UNL A   1      37.712  29.365  29.041  1.00  0.00     0.039 A 
ATOM     29  C   UNL A   1      38.402  29.682  27.873  1.00  0.00     0.014 A 
ATOM     30  C   UNL A   1      38.147  28.354  29.892  1.00  0.00     0.014 A 
ATOM     31  C   UNL A   1      39.631  29.067  27.633  1.00  0.00     0.010 A 
ATOM     32  C   UNL A   1      39.418  27.846  29.713  1.00  0.00     0.010 A 
ATOM     33  C   UNL A   1      40.176  28.191  28.587  1.00  0.00    -0.014 A 
BRANCH  33  34
ATOM     34  C   UNL A   1      41.580  27.763  28.476  1.00  0.00     0.031 A 
ATOM     35  C   UNL A   1      41.866  26.525  27.682  1.00  0.00     0.074 A 
ATOM     36  C   UNL A   1      42.636  28.522  28.840  1.00  0.00     0.049 A 
ATOM     37  N   UNL A   1      42.395  25.419  28.096  1.00  0.00    -0.248 NA
ATOM     38  C   UNL A   1      41.478  26.490  26.264  1.00  0.00     0.031 C 
ATOM     39  C   UNL A   1      42.639  29.889  29.370  1.00  0.00     0.029 A 
ATOM     40  N   UNL A   1      43.966  28.254  28.686  1.00  0.00    -0.354 N 
ATOM     41  C   UNL A   1      42.588  24.612  26.973  1.00  0.00     0.074 A 
ATOM     42  C   UNL A   1      41.885  25.269  25.902  1.00  0.00     0.031 C 
ATOM     43  C   UNL A   1      43.874  30.418  29.248  1.00  0.00     0.029 A 
ATOM     44  C   UNL A   1      44.781  29.365  28.836  1.00  0.00     0.049 A 
ATOM     45  H   UNL A   1      44.314  27.355  28.485  1.00  0.00     0.167 HD
ATOM     46  C   UNL A   1      43.450  23.551  26.988  1.00  0.00     0.034 A 
ATOM     47  C   UNL A   1      46.120  29.444  28.660  1.00  0.00     0.034 A 
ATOM     48  C   UNL A   1      43.816  23.199  28.341  1.00  0.00     0.049 A 
ATOM     49  C   UNL A   1      46.664  28.085  28.872  1.00  0.00     0.074 A 
ATOM     50  C   UNL A   1      43.124  22.802  29.468  1.00  0.00     0.029 A 
ATOM     51  N   UNL A   1      45.062  23.566  28.793  1.00  0.00    -0.354 N 
ATOM     52  N   UNL A   1      46.578  27.455  30.014  1.00  0.00    -0.248 NA
ATOM     53  C   UNL A   1      46.931  27.238  27.723  1.00  0.00     0.031 C 
ATOM     54  C   UNL A   1      43.792  23.450  30.551  1.00  0.00     0.029 A 
ATOM     55  C   UNL A   1      44.879  24.150  30.022  1.00  0.00     0.049 A 
ATOM     56  H   UNL A   1      45.920  23.436  28.327  1.00  0.00     0.167 HD
ATOM     57  C   UNL A   1      46.339  26.134  29.677  1.00  0.00     0.074 A 
ATOM     58  C   UNL A   1      46.709  26.037  28.267  1.00  0.00     0.031 C 
ATOM     59  C   UNL A   1      45.605  25.315  30.489  1.00  0.00     0.034 A 
BRANCH  46  60
ATOM     60  C   UNL A   1      44.216  22.987  25.803  1.00  0.00     0.023 A 
ATOM     61  C   UNL A   1      44.179  21.587  25.606  1.00  0.00     0.031 A 
ATOM     62  C   UNL A   1      45.181  23.679  25.043  1.00  0.00     0.131 A 
ATOM     63  C   UNL A   1      45.120  20.936  24.787  1.00  0.00     0.055 A 
ATOM     64  C   UNL A   1      46.069  23.034  24.170  1.00  0.00     0.041 A 
ATOM     65  F   UNL A   1      45.385  24.994  25.164  1.00  0.00    -0.206 F 
ATOM     66  C   UNL A   1      46.066  21.653  24.062  1.00  0.00     0.022 A 
BRANCH  63  67
ATOM     67  S   UNL A   1      45.217  19.125  24.845  1.00  0.00     0.124 S 
ATOM     68  O   UNL A   1      44.089  18.795  25.711  1.00  0.00    -0.237 OA
ATOM     69  O   UNL A   1      45.074  18.770  23.437  1.00  0.00    -0.237 OA
ATOM     70  O   UNL A   1      46.536  18.874  25.421  1.00  0.00    -0.744 OA
ENDBRANCH  63  67
ENDBRANCH  46  60
BRANCH  47  71
ATOM     71  C   UNL A   1      46.854  30.595  28.091  1.00  0.00     0.023 A 
ATOM     72  C   UNL A   1      46.245  31.575  27.290  1.00  0.00     0.031 A 
ATOM     73  C   UNL A   1      48.183  30.844  28.510  1.00  0.00     0.131 A 
ATOM     74  C   UNL A   1      46.963  32.737  26.930  1.00  0.00     0.055 A 
ATOM     75  C   UNL A   1      48.892  31.988  28.143  1.00  0.00     0.041 A 
ATOM     76  F   UNL A   1      48.809  30.010  29.357  1.00  0.00    -0.206 F 
ATOM     77  C   UNL A   1      48.279  32.946  27.352  1.00  0.00     0.022 A 
BRANCH  74  78
ATOM     78  S   UNL A   1      46.143  34.047  25.969  1.00  0.00     0.124 S 
ATOM     79  O   UNL A   1      45.140  33.301  25.219  1.00  0.00    -0.237 OA
ATOM     80  O   UNL A   1      45.647  34.934  27.014  1.00  0.00    -0.237 OA
ATOM     81  O   UNL A   1      47.228  34.605  25.159  1.00  0.00    -0.744 OA
ENDBRANCH  74  78
ENDBRANCH  47  71
BRANCH  59  82
ATOM     82  C   UNL A   1      45.302  25.777  31.900  1.00  0.00     0.023 A 
ATOM     83  C   UNL A   1      46.204  25.669  32.982  1.00  0.00     0.031 A 
ATOM     84  C   UNL A   1      44.112  26.495  32.113  1.00  0.00     0.131 A 
ATOM     85  C   UNL A   1      45.896  26.260  34.223  1.00  0.00     0.055 A 
ATOM     86  C   UNL A   1      43.817  27.094  33.338  1.00  0.00     0.041 A 
ATOM     87  F   UNL A   1      43.233  26.666  31.111  1.00  0.00    -0.206 F 
ATOM     88  C   UNL A   1      44.708  26.976  34.399  1.00  0.00     0.022 A 
BRANCH  85  89
ATOM     89  S   UNL A   1      47.052  26.119  35.624  1.00  0.00     0.124 S 
ATOM     90  O   UNL A   1      47.776  27.384  35.596  1.00  0.00    -0.237 OA
ATOM     91  O   UNL A   1      46.155  25.920  36.761  1.00  0.00    -0.237 OA
ATOM     92  O   UNL A   1      47.861  24.947  35.281  1.00  0.00    -0.744 OA
ENDBRANCH  85  89
ENDBRANCH  59  82
ENDBRANCH  33  34
ENDBRANCH  25  28
ENDBRANCH  23  24
ENDBRANCH   1  23
TORSDOF 17
ENDMDL
