MODEL 1
REMARK VINA RESULT:     -11.6      0.000      0.000
REMARK SMILES O=C(Cn1cccc1C(=O)NCCC(=O)NC1CC1)NCCCNC(=O)c1ccc(-c2c3nc(c(-c4cc(S(=O)(=O)[O-])ccc4F)c4ccc([nH]4)c(-c4cc(S(=O)(=O)[O-])ccc4F)c4nc(c(-c5cc(S(=O)(=O)[O-])ccc5F)c5ccc2[nH]5)C=C4)C=C3)cc1
REMARK SMILES IDX 1 1 2 2 20 3 3 5 4 6 5 7 8 8 6 9 7 10 9 11 10 12 11 13 12 15
REMARK SMILES IDX 13 16 14 17 15 18 16 19 17 21 18 22 19 23 21 24 22 25 23 26
REMARK SMILES IDX 24 27 25 28 26 30 27 31 28 32 89 33 29 34 88 35 30 36 31 37
REMARK SMILES IDX 32 38 82 39 33 40 87 41 81 42 83 43 34 44 86 45 80 46 79 47
REMARK SMILES IDX 35 49 67 50 47 51 66 52 48 53 51 54 65 55 84 56 49 57 50 58
REMARK SMILES IDX 64 60 85 61 52 62 36 63 37 64 45 65 38 66 44 67 46 68 43 69
REMARK SMILES IDX 39 70 40 71 41 72 42 73 68 74 69 75 77 76 70 77 76 78 78 79
REMARK SMILES IDX 75 80 71 81 72 82 73 83 74 84 53 85 54 86 62 87 55 88 61 89
REMARK SMILES IDX 63 90 60 91 56 92 57 93 58 94 59 95
REMARK H PARENT 20 4 11 14 16 20 24 29 83 48 51 59
REMARK Flexibility Score: inf
ROOT
ATOM      1  O   UNL A   1      34.360  24.167  22.773  1.00  0.00    -0.273 OA
ATOM      2  C   UNL A   1      34.383  24.653  23.901  1.00  0.00     0.239 C 
ATOM      3  N   UNL A   1      35.015  24.059  24.969  1.00  0.00    -0.354 N 
ATOM      4  H   UNL A   1      34.936  24.479  25.857  1.00  0.00     0.163 HD
ENDROOT
BRANCH   2   5
ATOM      5  C   UNL A   1      33.833  26.027  24.193  1.00  0.00     0.222 C 
BRANCH   5   6
ATOM      6  N   UNL A   1      32.428  26.274  23.932  1.00  0.00    -0.334 N 
ATOM      7  C   UNL A   1      31.939  26.635  22.695  1.00  0.00     0.087 A 
ATOM      8  C   UNL A   1      31.383  26.140  24.844  1.00  0.00     0.107 A 
ATOM      9  C   UNL A   1      30.581  26.779  22.781  1.00  0.00     0.020 A 
ATOM     10  C   UNL A   1      30.240  26.490  24.111  1.00  0.00     0.033 A 
BRANCH   8  11
ATOM     11  C   UNL A   1      31.259  25.749  26.249  1.00  0.00     0.267 C 
ATOM     12  O   UNL A   1      31.580  26.553  27.136  1.00  0.00    -0.268 OA
ATOM     13  N   UNL A   1      30.812  24.579  26.790  1.00  0.00    -0.350 N 
ATOM     14  H   UNL A   1      30.722  24.680  27.765  1.00  0.00     0.163 HD
BRANCH  13  15
ATOM     15  C   UNL A   1      30.426  23.235  26.402  1.00  0.00     0.126 C 
BRANCH  15  16
ATOM     16  C   UNL A   1      31.491  22.505  25.588  1.00  0.00     0.121 C 
BRANCH  16  17
ATOM     17  C   UNL A   1      32.667  22.028  26.410  1.00  0.00     0.221 C 
ATOM     18  O   UNL A   1      33.183  22.753  27.260  1.00  0.00    -0.275 OA
ATOM     19  N   UNL A   1      33.149  20.763  26.220  1.00  0.00    -0.353 N 
ATOM     20  H   UNL A   1      33.856  20.476  26.842  1.00  0.00     0.163 HD
BRANCH  19  21
ATOM     21  C   UNL A   1      32.760  19.809  25.238  1.00  0.00     0.082 C 
ATOM     22  C   UNL A   1      33.781  18.882  24.638  1.00  0.00     0.027 C 
ATOM     23  C   UNL A   1      32.696  18.332  25.512  1.00  0.00     0.027 C 
ENDBRANCH  19  21
ENDBRANCH  16  17
ENDBRANCH  15  16
ENDBRANCH  13  15
ENDBRANCH   8  11
ENDBRANCH   5   6
ENDBRANCH   2   5
BRANCH   3  24
ATOM     24  C   UNL A   1      35.790  22.845  24.842  1.00  0.00     0.117 C 
BRANCH  24  25
ATOM     25  C   UNL A   1      37.287  23.122  24.991  1.00  0.00     0.042 C 
BRANCH  25  26
ATOM     26  C   UNL A   1      37.632  23.938  26.239  1.00  0.00     0.118 C 
BRANCH  26  27
ATOM     27  N   UNL A   1      38.819  23.411  26.889  1.00  0.00    -0.352 N 
ATOM     28  C   UNL A   1      39.925  24.043  27.394  1.00  0.00     0.251 C 
ATOM     29  H   UNL A   1      38.830  22.431  26.984  1.00  0.00     0.163 HD
ATOM     30  O   UNL A   1      40.937  23.371  27.564  1.00  0.00    -0.269 OA
BRANCH  28  31
ATOM     31  C   UNL A   1      39.942  25.486  27.722  1.00  0.00     0.039 A 
ATOM     32  C   UNL A   1      39.490  25.854  28.998  1.00  0.00     0.014 A 
ATOM     33  C   UNL A   1      40.275  26.474  26.789  1.00  0.00     0.014 A 
ATOM     34  C   UNL A   1      39.423  27.196  29.360  1.00  0.00     0.010 A 
ATOM     35  C   UNL A   1      40.219  27.820  27.150  1.00  0.00     0.010 A 
ATOM     36  C   UNL A   1      39.814  28.179  28.444  1.00  0.00    -0.014 A 
BRANCH  36  37
ATOM     37  C   UNL A   1      40.045  29.558  28.938  1.00  0.00     0.031 A 
ATOM     38  C   UNL A   1      38.681  30.275  29.204  1.00  0.00     0.074 A 
ATOM     39  C   UNL A   1      41.350  29.964  29.073  1.00  0.00     0.049 A 
ATOM     40  N   UNL A   1      38.386  31.536  29.291  1.00  0.00    -0.248 NA
ATOM     41  C   UNL A   1      37.436  29.452  29.331  1.00  0.00     0.031 C 
ATOM     42  C   UNL A   1      42.544  29.125  28.786  1.00  0.00     0.029 A 
ATOM     43  N   UNL A   1      41.958  31.138  29.479  1.00  0.00    -0.354 N 
ATOM     44  C   UNL A   1      37.044  31.638  29.752  1.00  0.00     0.074 A 
ATOM     45  C   UNL A   1      36.479  30.336  29.613  1.00  0.00     0.031 C 
ATOM     46  C   UNL A   1      43.694  29.825  28.946  1.00  0.00     0.029 A 
ATOM     47  C   UNL A   1      43.388  31.172  29.387  1.00  0.00     0.049 A 
ATOM     48  H   UNL A   1      41.439  31.905  29.812  1.00  0.00     0.167 HD
ATOM     49  C   UNL A   1      36.543  32.750  30.374  1.00  0.00     0.034 A 
ATOM     50  C   UNL A   1      44.246  32.220  29.634  1.00  0.00     0.034 A 
ATOM     51  C   UNL A   1      37.535  33.769  30.377  1.00  0.00     0.049 A 
ATOM     52  C   UNL A   1      43.381  33.225  30.262  1.00  0.00     0.074 A 
ATOM     53  C   UNL A   1      38.094  34.517  29.378  1.00  0.00     0.029 A 
ATOM     54  N   UNL A   1      38.313  33.865  31.508  1.00  0.00    -0.354 N 
ATOM     55  N   UNL A   1      42.938  33.152  31.478  1.00  0.00    -0.248 NA
ATOM     56  C   UNL A   1      42.943  34.380  29.468  1.00  0.00     0.031 C 
ATOM     57  C   UNL A   1      39.446  34.575  29.765  1.00  0.00     0.029 A 
ATOM     58  C   UNL A   1      39.589  34.102  31.077  1.00  0.00     0.049 A 
ATOM     59  H   UNL A   1      38.011  33.779  32.442  1.00  0.00     0.167 HD
ATOM     60  C   UNL A   1      41.918  34.064  31.472  1.00  0.00     0.074 A 
ATOM     61  C   UNL A   1      42.193  34.985  30.387  1.00  0.00     0.031 C 
ATOM     62  C   UNL A   1      40.692  33.684  31.914  1.00  0.00     0.034 A 
BRANCH  49  63
ATOM     63  C   UNL A   1      35.329  33.011  31.239  1.00  0.00     0.023 A 
ATOM     64  C   UNL A   1      34.472  34.059  30.806  1.00  0.00     0.031 A 
ATOM     65  C   UNL A   1      35.155  32.580  32.559  1.00  0.00     0.131 A 
ATOM     66  C   UNL A   1      33.635  34.744  31.696  1.00  0.00     0.055 A 
ATOM     67  C   UNL A   1      34.252  33.215  33.430  1.00  0.00     0.041 A 
ATOM     68  F   UNL A   1      35.901  31.601  33.084  1.00  0.00    -0.206 F 
ATOM     69  C   UNL A   1      33.521  34.329  33.015  1.00  0.00     0.022 A 
BRANCH  66  70
ATOM     70  S   UNL A   1      32.878  36.299  31.134  1.00  0.00     0.124 S 
ATOM     71  O   UNL A   1      31.760  36.445  32.059  1.00  0.00    -0.237 OA
ATOM     72  O   UNL A   1      33.973  37.248  31.301  1.00  0.00    -0.237 OA
ATOM     73  O   UNL A   1      32.508  36.014  29.750  1.00  0.00    -0.744 OA
ENDBRANCH  66  70
ENDBRANCH  49  63
BRANCH  50  74
ATOM     74  C   UNL A   1      45.704  32.670  29.474  1.00  0.00     0.023 A 
ATOM     75  C   UNL A   1      46.344  33.120  28.307  1.00  0.00     0.031 A 
ATOM     76  C   UNL A   1      46.524  32.750  30.653  1.00  0.00     0.131 A 
ATOM     77  C   UNL A   1      47.659  33.682  28.379  1.00  0.00     0.055 A 
ATOM     78  C   UNL A   1      47.760  33.390  30.735  1.00  0.00     0.041 A 
ATOM     79  F   UNL A   1      46.163  32.200  31.821  1.00  0.00    -0.206 F 
ATOM     80  C   UNL A   1      48.331  33.878  29.591  1.00  0.00     0.022 A 
BRANCH  77  81
ATOM     81  S   UNL A   1      48.575  34.202  26.894  1.00  0.00     0.124 S 
ATOM     82  O   UNL A   1      48.589  35.654  27.041  1.00  0.00    -0.237 OA
ATOM     83  O   UNL A   1      49.858  33.528  27.045  1.00  0.00    -0.237 OA
ATOM     84  O   UNL A   1      47.744  33.702  25.797  1.00  0.00    -0.744 OA
ENDBRANCH  77  81
ENDBRANCH  50  74
BRANCH  62  85
ATOM     85  C   UNL A   1      40.699  32.543  32.933  1.00  0.00     0.023 A 
ATOM     86  C   UNL A   1      40.564  31.209  32.501  1.00  0.00     0.031 A 
ATOM     87  C   UNL A   1      40.724  32.731  34.328  1.00  0.00     0.131 A 
ATOM     88  C   UNL A   1      40.428  30.151  33.426  1.00  0.00     0.055 A 
ATOM     89  C   UNL A   1      40.593  31.683  35.250  1.00  0.00     0.041 A 
ATOM     90  F   UNL A   1      40.864  33.945  34.856  1.00  0.00    -0.206 F 
ATOM     91  C   UNL A   1      40.439  30.382  34.800  1.00  0.00     0.022 A 
BRANCH  88  92
ATOM     92  S   UNL A   1      40.262  28.451  32.814  1.00  0.00     0.124 S 
ATOM     93  O   UNL A   1      38.931  28.451  32.218  1.00  0.00    -0.237 OA
ATOM     94  O   UNL A   1      41.381  28.340  31.883  1.00  0.00    -0.237 OA
ATOM     95  O   UNL A   1      40.395  27.639  34.025  1.00  0.00    -0.744 OA
ENDBRANCH  88  92
ENDBRANCH  62  85
ENDBRANCH  36  37
ENDBRANCH  28  31
ENDBRANCH  26  27
ENDBRANCH  25  26
ENDBRANCH  24  25
ENDBRANCH   3  24
TORSDOF 19
ENDMDL
MODEL 2
REMARK VINA RESULT:     -11.1      4.417      9.577
REMARK SMILES O=C(Cn1cccc1C(=O)NCCC(=O)NC1CC1)NCCCNC(=O)c1ccc(-c2c3nc(c(-c4cc(S(=O)(=O)[O-])ccc4F)c4ccc([nH]4)c(-c4cc(S(=O)(=O)[O-])ccc4F)c4nc(c(-c5cc(S(=O)(=O)[O-])ccc5F)c5ccc2[nH]5)C=C4)C=C3)cc1
REMARK SMILES IDX 1 1 2 2 20 3 3 5 4 6 5 7 8 8 6 9 7 10 9 11 10 12 11 13 12 15
REMARK SMILES IDX 13 16 14 17 15 18 16 19 17 21 18 22 19 23 21 24 22 25 23 26
REMARK SMILES IDX 24 27 25 28 26 30 27 31 28 32 89 33 29 34 88 35 30 36 31 37
REMARK SMILES IDX 32 38 82 39 33 40 87 41 81 42 83 43 34 44 86 45 80 46 79 47
REMARK SMILES IDX 35 49 67 50 47 51 66 52 48 53 51 54 65 55 84 56 49 57 50 58
REMARK SMILES IDX 64 60 85 61 52 62 36 63 37 64 45 65 38 66 44 67 46 68 43 69
REMARK SMILES IDX 39 70 40 71 41 72 42 73 68 74 69 75 77 76 70 77 76 78 78 79
REMARK SMILES IDX 75 80 71 81 72 82 73 83 74 84 53 85 54 86 62 87 55 88 61 89
REMARK SMILES IDX 63 90 60 91 56 92 57 93 58 94 59 95
REMARK H PARENT 20 4 11 14 16 20 24 29 83 48 51 59
REMARK Flexibility Score: inf
ROOT
ATOM      1  O   UNL A   1      31.269  28.142  23.868  1.00  0.00    -0.273 OA
ATOM      2  C   UNL A   1      32.471  27.921  23.989  1.00  0.00     0.239 C 
ATOM      3  N   UNL A   1      33.132  27.964  25.196  1.00  0.00    -0.354 N 
ATOM      4  H   UNL A   1      34.108  27.837  25.204  1.00  0.00     0.163 HD
ENDROOT
BRANCH   2   5
ATOM      5  C   UNL A   1      33.319  27.442  22.837  1.00  0.00     0.222 C 
BRANCH   5   6
ATOM      6  N   UNL A   1      33.172  26.067  22.401  1.00  0.00    -0.334 N 
ATOM      7  C   UNL A   1      32.788  25.712  21.126  1.00  0.00     0.087 A 
ATOM      8  C   UNL A   1      33.436  24.928  23.159  1.00  0.00     0.107 A 
ATOM      9  C   UNL A   1      32.759  24.347  21.035  1.00  0.00     0.020 A 
ATOM     10  C   UNL A   1      33.142  23.863  22.295  1.00  0.00     0.033 A 
BRANCH   8  11
ATOM     11  C   UNL A   1      33.908  24.658  24.518  1.00  0.00     0.267 C 
ATOM     12  O   UNL A   1      35.125  24.550  24.730  1.00  0.00    -0.268 OA
ATOM     13  N   UNL A   1      33.197  24.503  25.671  1.00  0.00    -0.350 N 
ATOM     14  H   UNL A   1      33.814  24.468  26.438  1.00  0.00     0.163 HD
BRANCH  13  15
ATOM     15  C   UNL A   1      31.830  24.372  26.141  1.00  0.00     0.126 C 
BRANCH  15  16
ATOM     16  C   UNL A   1      31.455  22.945  26.537  1.00  0.00     0.121 C 
BRANCH  16  17
ATOM     17  C   UNL A   1      32.562  22.196  27.243  1.00  0.00     0.221 C 
ATOM     18  O   UNL A   1      32.879  22.472  28.400  1.00  0.00    -0.275 OA
ATOM     19  N   UNL A   1      33.207  21.182  26.591  1.00  0.00    -0.353 N 
ATOM     20  H   UNL A   1      33.856  20.673  27.127  1.00  0.00     0.163 HD
BRANCH  19  21
ATOM     21  C   UNL A   1      33.059  20.769  25.237  1.00  0.00     0.082 C 
ATOM     22  C   UNL A   1      33.999  19.753  24.649  1.00  0.00     0.027 C 
ATOM     23  C   UNL A   1      32.556  19.407  24.847  1.00  0.00     0.027 C 
ENDBRANCH  19  21
ENDBRANCH  16  17
ENDBRANCH  15  16
ENDBRANCH  13  15
ENDBRANCH   8  11
ENDBRANCH   5   6
ENDBRANCH   2   5
BRANCH   3  24
ATOM     24  C   UNL A   1      32.451  28.189  26.451  1.00  0.00     0.117 C 
BRANCH  24  25
ATOM     25  C   UNL A   1      33.164  29.253  27.288  1.00  0.00     0.042 C 
BRANCH  25  26
ATOM     26  C   UNL A   1      34.690  29.169  27.202  1.00  0.00     0.118 C 
BRANCH  26  27
ATOM     27  N   UNL A   1      35.291  30.479  27.379  1.00  0.00    -0.352 N 
ATOM     28  C   UNL A   1      36.420  30.869  28.051  1.00  0.00     0.251 C 
ATOM     29  H   UNL A   1      34.803  31.213  26.941  1.00  0.00     0.163 HD
ATOM     30  O   UNL A   1      36.521  32.053  28.356  1.00  0.00    -0.269 OA
BRANCH  28  31
ATOM     31  C   UNL A   1      37.495  29.923  28.424  1.00  0.00     0.039 A 
ATOM     32  C   UNL A   1      38.579  29.810  27.540  1.00  0.00     0.014 A 
ATOM     33  C   UNL A   1      37.414  29.081  29.538  1.00  0.00     0.014 A 
ATOM     34  C   UNL A   1      39.601  28.901  27.794  1.00  0.00     0.010 A 
ATOM     35  C   UNL A   1      38.441  28.174  29.802  1.00  0.00     0.010 A 
ATOM     36  C   UNL A   1      39.546  28.102  28.941  1.00  0.00    -0.014 A 
BRANCH  36  37
ATOM     37  C   UNL A   1      40.771  27.383  29.366  1.00  0.00     0.031 A 
ATOM     38  C   UNL A   1      41.039  26.162  28.427  1.00  0.00     0.074 A 
ATOM     39  C   UNL A   1      41.439  27.880  30.459  1.00  0.00     0.049 A 
ATOM     40  N   UNL A   1      41.745  25.088  28.610  1.00  0.00    -0.248 NA
ATOM     41  C   UNL A   1      40.356  26.102  27.095  1.00  0.00     0.031 C 
ATOM     42  C   UNL A   1      41.043  29.086  31.232  1.00  0.00     0.029 A 
ATOM     43  N   UNL A   1      42.576  27.499  31.148  1.00  0.00    -0.354 N 
ATOM     44  C   UNL A   1      41.823  24.403  27.366  1.00  0.00     0.074 A 
ATOM     45  C   UNL A   1      40.833  24.994  26.526  1.00  0.00     0.031 C 
ATOM     46  C   UNL A   1      41.857  29.283  32.298  1.00  0.00     0.029 A 
ATOM     47  C   UNL A   1      42.887  28.263  32.321  1.00  0.00     0.049 A 
ATOM     48  H   UNL A   1      43.139  26.748  30.851  1.00  0.00     0.167 HD
ATOM     49  C   UNL A   1      42.812  23.508  27.058  1.00  0.00     0.034 A 
ATOM     50  C   UNL A   1      43.892  28.065  33.241  1.00  0.00     0.034 A 
ATOM     51  C   UNL A   1      43.643  23.323  28.198  1.00  0.00     0.049 A 
ATOM     52  C   UNL A   1      44.733  27.042  32.609  1.00  0.00     0.074 A 
ATOM     53  C   UNL A   1      43.425  22.741  29.416  1.00  0.00     0.029 A 
ATOM     54  N   UNL A   1      44.783  24.092  28.257  1.00  0.00    -0.354 N 
ATOM     55  N   UNL A   1      45.532  27.265  31.614  1.00  0.00    -0.248 NA
ATOM     56  C   UNL A   1      44.652  25.658  33.094  1.00  0.00     0.031 C 
ATOM     57  C   UNL A   1      44.105  23.609  30.290  1.00  0.00     0.029 A 
ATOM     58  C   UNL A   1      44.903  24.499  29.557  1.00  0.00     0.049 A 
ATOM     59  H   UNL A   1      45.390  24.307  27.512  1.00  0.00     0.167 HD
ATOM     60  C   UNL A   1      45.784  26.001  31.153  1.00  0.00     0.074 A 
ATOM     61  C   UNL A   1      45.524  25.099  32.258  1.00  0.00     0.031 C 
ATOM     62  C   UNL A   1      45.604  25.733  29.835  1.00  0.00     0.034 A 
BRANCH  49  63
ATOM     63  C   UNL A   1      43.329  22.918  25.764  1.00  0.00     0.023 A 
ATOM     64  C   UNL A   1      43.439  21.501  25.727  1.00  0.00     0.031 A 
ATOM     65  C   UNL A   1      44.016  23.614  24.763  1.00  0.00     0.131 A 
ATOM     66  C   UNL A   1      44.326  20.852  24.860  1.00  0.00     0.055 A 
ATOM     67  C   UNL A   1      44.842  22.952  23.838  1.00  0.00     0.041 A 
ATOM     68  F   UNL A   1      43.991  24.951  24.691  1.00  0.00    -0.206 F 
ATOM     69  C   UNL A   1      45.037  21.573  23.911  1.00  0.00     0.022 A 
BRANCH  66  70
ATOM     70  S   UNL A   1      44.674  19.091  25.152  1.00  0.00     0.124 S 
ATOM     71  O   UNL A   1      43.625  18.726  26.098  1.00  0.00    -0.237 OA
ATOM     72  O   UNL A   1      44.548  18.529  23.812  1.00  0.00    -0.237 OA
ATOM     73  O   UNL A   1      46.029  19.100  25.698  1.00  0.00    -0.744 OA
ENDBRANCH  66  70
ENDBRANCH  49  63
BRANCH  50  74
ATOM     74  C   UNL A   1      44.392  28.513  34.620  1.00  0.00     0.023 A 
ATOM     75  C   UNL A   1      44.687  27.707  35.734  1.00  0.00     0.031 A 
ATOM     76  C   UNL A   1      44.704  29.904  34.813  1.00  0.00     0.131 A 
ATOM     77  C   UNL A   1      45.326  28.274  36.883  1.00  0.00     0.055 A 
ATOM     78  C   UNL A   1      45.417  30.430  35.888  1.00  0.00     0.041 A 
ATOM     79  F   UNL A   1      44.327  30.853  33.945  1.00  0.00    -0.206 F 
ATOM     80  C   UNL A   1      45.749  29.607  36.930  1.00  0.00     0.022 A 
BRANCH  77  81
ATOM     81  S   UNL A   1      45.655  27.304  38.388  1.00  0.00     0.124 S 
ATOM     82  O   UNL A   1      44.696  27.873  39.329  1.00  0.00    -0.237 OA
ATOM     83  O   UNL A   1      45.399  25.934  37.959  1.00  0.00    -0.237 OA
ATOM     84  O   UNL A   1      47.057  27.604  38.680  1.00  0.00    -0.744 OA
ENDBRANCH  77  81
ENDBRANCH  50  74
BRANCH  62  85
ATOM     85  C   UNL A   1      45.760  26.937  28.905  1.00  0.00     0.023 A 
ATOM     86  C   UNL A   1      44.624  27.659  28.486  1.00  0.00     0.031 A 
ATOM     87  C   UNL A   1      46.980  27.334  28.325  1.00  0.00     0.131 A 
ATOM     88  C   UNL A   1      44.725  28.684  27.521  1.00  0.00     0.055 A 
ATOM     89  C   UNL A   1      47.085  28.355  27.370  1.00  0.00     0.041 A 
ATOM     90  F   UNL A   1      48.124  26.738  28.655  1.00  0.00    -0.206 F 
ATOM     91  C   UNL A   1      45.951  29.035  26.958  1.00  0.00     0.022 A 
BRANCH  88  92
ATOM     92  S   UNL A   1      43.231  29.585  27.022  1.00  0.00     0.124 S 
ATOM     93  O   UNL A   1      42.676  30.020  28.299  1.00  0.00    -0.237 OA
ATOM     94  O   UNL A   1      43.768  30.637  26.165  1.00  0.00    -0.237 OA
ATOM     95  O   UNL A   1      42.441  28.572  26.320  1.00  0.00    -0.744 OA
ENDBRANCH  88  92
ENDBRANCH  62  85
ENDBRANCH  36  37
ENDBRANCH  28  31
ENDBRANCH  26  27
ENDBRANCH  25  26
ENDBRANCH  24  25
ENDBRANCH   3  24
TORSDOF 19
ENDMDL
MODEL 3
REMARK VINA RESULT:     -10.7      3.816      7.882
REMARK SMILES O=C(Cn1cccc1C(=O)NCCC(=O)NC1CC1)NCCCNC(=O)c1ccc(-c2c3nc(c(-c4cc(S(=O)(=O)[O-])ccc4F)c4ccc([nH]4)c(-c4cc(S(=O)(=O)[O-])ccc4F)c4nc(c(-c5cc(S(=O)(=O)[O-])ccc5F)c5ccc2[nH]5)C=C4)C=C3)cc1
REMARK SMILES IDX 1 1 2 2 20 3 3 5 4 6 5 7 8 8 6 9 7 10 9 11 10 12 11 13 12 15
REMARK SMILES IDX 13 16 14 17 15 18 16 19 17 21 18 22 19 23 21 24 22 25 23 26
REMARK SMILES IDX 24 27 25 28 26 30 27 31 28 32 89 33 29 34 88 35 30 36 31 37
REMARK SMILES IDX 32 38 82 39 33 40 87 41 81 42 83 43 34 44 86 45 80 46 79 47
REMARK SMILES IDX 35 49 67 50 47 51 66 52 48 53 51 54 65 55 84 56 49 57 50 58
REMARK SMILES IDX 64 60 85 61 52 62 36 63 37 64 45 65 38 66 44 67 46 68 43 69
REMARK SMILES IDX 39 70 40 71 41 72 42 73 68 74 69 75 77 76 70 77 76 78 78 79
REMARK SMILES IDX 75 80 71 81 72 82 73 83 74 84 53 85 54 86 62 87 55 88 61 89
REMARK SMILES IDX 63 90 60 91 56 92 57 93 58 94 59 95
REMARK H PARENT 20 4 11 14 16 20 24 29 83 48 51 59
REMARK Flexibility Score: inf
ROOT
ATOM      1  O   UNL A   1      32.213  28.202  26.619  1.00  0.00    -0.273 OA
ATOM      2  C   UNL A   1      32.983  28.850  25.915  1.00  0.00     0.239 C 
ATOM      3  N   UNL A   1      33.402  30.124  26.226  1.00  0.00    -0.354 N 
ATOM      4  H   UNL A   1      33.970  30.604  25.581  1.00  0.00     0.163 HD
ENDROOT
BRANCH   2   5
ATOM      5  C   UNL A   1      33.658  28.256  24.704  1.00  0.00     0.222 C 
BRANCH   5   6
ATOM      6  N   UNL A   1      33.558  26.824  24.496  1.00  0.00    -0.334 N 
ATOM      7  C   UNL A   1      34.291  25.902  25.210  1.00  0.00     0.087 A 
ATOM      8  C   UNL A   1      32.700  26.177  23.610  1.00  0.00     0.107 A 
ATOM      9  C   UNL A   1      33.957  24.645  24.785  1.00  0.00     0.020 A 
ATOM     10  C   UNL A   1      32.988  24.815  23.785  1.00  0.00     0.033 A 
BRANCH   8  11
ATOM     11  C   UNL A   1      31.676  26.590  22.649  1.00  0.00     0.267 C 
ATOM     12  O   UNL A   1      31.740  26.186  21.479  1.00  0.00    -0.268 OA
ATOM     13  N   UNL A   1      30.583  27.385  22.831  1.00  0.00    -0.350 N 
ATOM     14  H   UNL A   1      30.018  27.359  22.025  1.00  0.00     0.163 HD
BRANCH  13  15
ATOM     15  C   UNL A   1      29.979  28.259  23.820  1.00  0.00     0.126 C 
BRANCH  15  16
ATOM     16  C   UNL A   1      29.410  29.547  23.231  1.00  0.00     0.121 C 
BRANCH  16  17
ATOM     17  C   UNL A   1      28.064  29.372  22.567  1.00  0.00     0.221 C 
ATOM     18  O   UNL A   1      27.325  28.433  22.866  1.00  0.00    -0.275 OA
ATOM     19  N   UNL A   1      27.651  30.283  21.635  1.00  0.00    -0.353 N 
ATOM     20  H   UNL A   1      26.732  30.170  21.301  1.00  0.00     0.163 HD
BRANCH  19  21
ATOM     21  C   UNL A   1      28.381  31.376  21.086  1.00  0.00     0.082 C 
ATOM     22  C   UNL A   1      27.653  32.581  20.557  1.00  0.00     0.027 C 
ATOM     23  C   UNL A   1      28.509  32.704  21.779  1.00  0.00     0.027 C 
ENDBRANCH  19  21
ENDBRANCH  16  17
ENDBRANCH  15  16
ENDBRANCH  13  15
ENDBRANCH   8  11
ENDBRANCH   5   6
ENDBRANCH   2   5
BRANCH   3  24
ATOM     24  C   UNL A   1      33.040  30.786  27.460  1.00  0.00     0.117 C 
BRANCH  24  25
ATOM     25  C   UNL A   1      31.979  31.862  27.223  1.00  0.00     0.042 C 
BRANCH  25  26
ATOM     26  C   UNL A   1      32.566  33.215  26.814  1.00  0.00     0.118 C 
BRANCH  26  27
ATOM     27  N   UNL A   1      32.539  34.148  27.926  1.00  0.00    -0.352 N 
ATOM     28  C   UNL A   1      33.286  34.205  29.074  1.00  0.00     0.251 C 
ATOM     29  H   UNL A   1      31.866  34.863  27.842  1.00  0.00     0.163 HD
ATOM     30  O   UNL A   1      32.842  34.858  30.012  1.00  0.00    -0.269 OA
BRANCH  28  31
ATOM     31  C   UNL A   1      34.582  33.506  29.219  1.00  0.00     0.039 A 
ATOM     32  C   UNL A   1      35.472  33.582  28.136  1.00  0.00     0.014 A 
ATOM     33  C   UNL A   1      34.893  32.701  30.320  1.00  0.00     0.014 A 
ATOM     34  C   UNL A   1      36.686  32.905  28.175  1.00  0.00     0.010 A 
ATOM     35  C   UNL A   1      36.114  32.028  30.369  1.00  0.00     0.010 A 
ATOM     36  C   UNL A   1      37.020  32.149  29.304  1.00  0.00    -0.014 A 
BRANCH  36  37
ATOM     37  C   UNL A   1      38.425  31.705  29.472  1.00  0.00     0.031 A 
ATOM     38  C   UNL A   1      39.303  32.875  30.021  1.00  0.00     0.074 A 
ATOM     39  C   UNL A   1      38.713  30.405  29.135  1.00  0.00     0.049 A 
ATOM     40  N   UNL A   1      40.587  33.063  29.987  1.00  0.00    -0.248 NA
ATOM     41  C   UNL A   1      38.633  34.056  30.654  1.00  0.00     0.031 C 
ATOM     42  C   UNL A   1      37.729  29.408  28.638  1.00  0.00     0.029 A 
ATOM     43  N   UNL A   1      39.866  29.641  29.139  1.00  0.00    -0.354 N 
ATOM     44  C   UNL A   1      40.885  34.184  30.812  1.00  0.00     0.074 A 
ATOM     45  C   UNL A   1      39.639  34.829  31.066  1.00  0.00     0.031 C 
ATOM     46  C   UNL A   1      38.327  28.232  28.324  1.00  0.00     0.029 A 
ATOM     47  C   UNL A   1      39.746  28.314  28.611  1.00  0.00     0.049 A 
ATOM     48  H   UNL A   1      40.721  29.989  29.484  1.00  0.00     0.167 HD
ATOM     49  C   UNL A   1      42.116  34.405  31.367  1.00  0.00     0.034 A 
ATOM     50  C   UNL A   1      40.727  27.370  28.410  1.00  0.00     0.034 A 
ATOM     51  C   UNL A   1      43.022  33.413  30.901  1.00  0.00     0.049 A 
ATOM     52  C   UNL A   1      41.891  27.940  29.099  1.00  0.00     0.074 A 
ATOM     53  C   UNL A   1      43.566  33.162  29.671  1.00  0.00     0.029 A 
ATOM     54  N   UNL A   1      43.197  32.313  31.709  1.00  0.00    -0.354 N 
ATOM     55  N   UNL A   1      42.032  27.978  30.387  1.00  0.00    -0.248 NA
ATOM     56  C   UNL A   1      42.962  28.548  28.299  1.00  0.00     0.031 C 
ATOM     57  C   UNL A   1      43.542  31.756  29.612  1.00  0.00     0.029 A 
ATOM     58  C   UNL A   1      43.244  31.229  30.877  1.00  0.00     0.049 A 
ATOM     59  H   UNL A   1      43.273  32.308  32.691  1.00  0.00     0.167 HD
ATOM     60  C   UNL A   1      43.031  28.900  30.543  1.00  0.00     0.074 A 
ATOM     61  C   UNL A   1      43.760  28.936  29.291  1.00  0.00     0.031 C 
ATOM     62  C   UNL A   1      42.839  29.941  31.394  1.00  0.00     0.034 A 
BRANCH  49  63
ATOM     63  C   UNL A   1      42.614  35.268  32.506  1.00  0.00     0.023 A 
ATOM     64  C   UNL A   1      41.996  35.050  33.767  1.00  0.00     0.031 A 
ATOM     65  C   UNL A   1      43.344  36.455  32.376  1.00  0.00     0.131 A 
ATOM     66  C   UNL A   1      41.963  36.042  34.755  1.00  0.00     0.055 A 
ATOM     67  C   UNL A   1      43.379  37.416  33.402  1.00  0.00     0.041 A 
ATOM     68  F   UNL A   1      43.971  36.775  31.238  1.00  0.00    -0.206 F 
ATOM     69  C   UNL A   1      42.651  37.234  34.579  1.00  0.00     0.022 A 
BRANCH  66  70
ATOM     70  S   UNL A   1      40.832  35.812  36.160  1.00  0.00     0.124 S 
ATOM     71  O   UNL A   1      41.709  36.057  37.300  1.00  0.00    -0.237 OA
ATOM     72  O   UNL A   1      39.818  36.830  35.905  1.00  0.00    -0.237 OA
ATOM     73  O   UNL A   1      40.379  34.431  36.008  1.00  0.00    -0.744 OA
ENDBRANCH  66  70
ENDBRANCH  49  63
BRANCH  50  74
ATOM     74  C   UNL A   1      41.004  26.017  27.742  1.00  0.00     0.023 A 
ATOM     75  C   UNL A   1      42.112  25.654  26.957  1.00  0.00     0.031 A 
ATOM     76  C   UNL A   1      40.097  24.931  28.003  1.00  0.00     0.131 A 
ATOM     77  C   UNL A   1      42.302  24.288  26.570  1.00  0.00     0.055 A 
ATOM     78  C   UNL A   1      40.340  23.590  27.713  1.00  0.00     0.041 A 
ATOM     79  F   UNL A   1      38.898  25.115  28.571  1.00  0.00    -0.206 F 
ATOM     80  C   UNL A   1      41.462  23.257  27.003  1.00  0.00     0.022 A 
BRANCH  77  81
ATOM     81  S   UNL A   1      43.668  23.769  25.483  1.00  0.00     0.124 S 
ATOM     82  O   UNL A   1      44.635  23.247  26.442  1.00  0.00    -0.237 OA
ATOM     83  O   UNL A   1      43.037  22.790  24.607  1.00  0.00    -0.237 OA
ATOM     84  O   UNL A   1      44.063  25.015  24.825  1.00  0.00    -0.744 OA
ENDBRANCH  77  81
ENDBRANCH  50  74
BRANCH  62  85
ATOM     85  C   UNL A   1      41.857  29.669  32.534  1.00  0.00     0.023 A 
ATOM     86  C   UNL A   1      40.678  30.433  32.648  1.00  0.00     0.031 A 
ATOM     87  C   UNL A   1      42.093  28.756  33.579  1.00  0.00     0.131 A 
ATOM     88  C   UNL A   1      39.825  30.298  33.765  1.00  0.00     0.055 A 
ATOM     89  C   UNL A   1      41.247  28.616  34.689  1.00  0.00     0.041 A 
ATOM     90  F   UNL A   1      43.165  27.967  33.574  1.00  0.00    -0.206 F 
ATOM     91  C   UNL A   1      40.105  29.394  34.789  1.00  0.00     0.022 A 
BRANCH  88  92
ATOM     92  S   UNL A   1      38.317  31.303  33.858  1.00  0.00     0.124 S 
ATOM     93  O   UNL A   1      37.845  31.050  35.214  1.00  0.00    -0.237 OA
ATOM     94  O   UNL A   1      38.819  32.649  33.595  1.00  0.00    -0.237 OA
ATOM     95  O   UNL A   1      37.473  30.750  32.798  1.00  0.00    -0.744 OA
ENDBRANCH  88  92
ENDBRANCH  62  85
ENDBRANCH  36  37
ENDBRANCH  28  31
ENDBRANCH  26  27
ENDBRANCH  25  26
ENDBRANCH  24  25
ENDBRANCH   3  24
TORSDOF 19
ENDMDL
