MODEL 1
REMARK VINA RESULT:     -12.7      0.000      0.000
REMARK SMILES Cc1c(Cl)ccc2c1C=C(C(=O)NCCCNC(=O)c1ccc(-c3c4nc(c(-c5cc(S(=O)(=O)[O-])ccc5F)c5ccc([nH]5)c(-c5cc(S(=O)(=O)[O-])ccc5F)c5nc(c(-c6cc(S(=O)(=O)[O-])ccc6F)c6ccc3[nH]6)C=C5)C=C4)cc1)[C@@H](C(F)(F)F)O2
REMARK SMILES IDX 16 1 15 2 14 3 13 4 11 5 12 6 10 8 1 9 2 10 3 11 8 12 4 13
REMARK SMILES IDX 5 14 7 15 9 16 6 17 88 18 83 19 84 20 85 21 86 22 87 23
REMARK SMILES IDX 17 24 18 25 19 27 20 28 21 29 82 30 22 31 81 32 23 33 24 34
REMARK SMILES IDX 25 35 75 36 26 37 80 38 74 39 76 40 27 41 79 42 73 43 72 44
REMARK SMILES IDX 28 46 60 47 40 48 59 49 41 50 44 51 58 52 77 53 42 54 43 55
REMARK SMILES IDX 57 57 78 58 45 59 29 60 30 61 38 62 31 63 37 64 39 65 36 66
REMARK SMILES IDX 32 67 33 68 34 69 35 70 61 71 62 72 70 73 63 74 69 75 71 76
REMARK SMILES IDX 68 77 64 78 65 79 66 80 67 81 46 82 47 83 55 84 48 85 54 86
REMARK SMILES IDX 56 87 53 88 49 89 50 90 51 91 52 92
REMARK H PARENT 13 7 17 26 76 45 44 56
REMARK Flexibility Score: inf
ROOT
ATOM      1  C   UNL A   1      36.026  22.480  25.808  1.00  0.00     0.118 C 
ENDROOT
BRANCH   1   2
ATOM      2  C   UNL A   1      34.969  22.326  26.896  1.00  0.00     0.042 C 
BRANCH   2   3
ATOM      3  C   UNL A   1      33.793  21.479  26.433  1.00  0.00     0.118 C 
BRANCH   3   4
ATOM      4  N   UNL A   1      32.525  22.005  26.918  1.00  0.00    -0.352 N 
ATOM      5  C   UNL A   1      31.811  23.148  26.808  1.00  0.00     0.251 C 
ATOM      6  O   UNL A   1      30.744  23.156  27.430  1.00  0.00    -0.270 OA
ATOM      7  H   UNL A   1      32.059  21.348  27.483  1.00  0.00     0.163 HD
BRANCH   5   8
ATOM      8  C   UNL A   1      32.203  24.337  25.997  1.00  0.00     0.067 C 
ATOM      9  C   UNL A   1      31.477  28.294  27.738  1.00  0.00     0.047 C 
ATOM     10  C   UNL A   1      32.158  28.058  26.412  1.00  0.00    -0.021 A 
ATOM     11  C   UNL A   1      32.503  29.174  25.615  1.00  0.00     0.044 A 
ATOM     12  C   UNL A   1      32.430  26.764  25.907  1.00  0.00     0.022 A 
ATOM     13  Cl  UNL A   1      32.164  30.797  26.118  1.00  0.00    -0.084 Cl
ATOM     14  C   UNL A   1      33.127  29.018  24.376  1.00  0.00     0.024 A 
ATOM     15  C   UNL A   1      33.042  26.633  24.650  1.00  0.00     0.128 A 
ATOM     16  C   UNL A   1      32.133  25.523  26.631  1.00  0.00     0.026 C 
ATOM     17  C   UNL A   1      33.405  27.746  23.897  1.00  0.00     0.048 A 
ATOM     18  O   UNL A   1      33.358  25.428  24.090  1.00  0.00    -0.475 OA
ATOM     19  C   UNL A   1      32.609  24.277  24.557  1.00  0.00     0.314 C 
BRANCH  19  20
ATOM     20  C   UNL A   1      31.418  24.027  23.614  1.00  0.00     0.429 C 
ATOM     21  F   UNL A   1      31.311  22.709  23.314  1.00  0.00    -0.167 F 
ATOM     22  F   UNL A   1      30.232  24.391  24.159  1.00  0.00    -0.167 F 
ATOM     23  F   UNL A   1      31.529  24.698  22.444  1.00  0.00    -0.167 F 
ENDBRANCH  19  20
ENDBRANCH   5   8
ENDBRANCH   3   4
ENDBRANCH   2   3
ENDBRANCH   1   2
BRANCH   1  24
ATOM     24  N   UNL A   1      36.974  21.369  25.823  1.00  0.00    -0.352 N 
ATOM     25  C   UNL A   1      38.345  21.400  25.909  1.00  0.00     0.251 C 
ATOM     26  H   UNL A   1      36.575  20.470  25.764  1.00  0.00     0.163 HD
ATOM     27  O   UNL A   1      39.004  20.409  25.605  1.00  0.00    -0.269 OA
BRANCH  25  28
ATOM     28  C   UNL A   1      39.013  22.631  26.367  1.00  0.00     0.039 A 
ATOM     29  C   UNL A   1      40.039  22.554  27.311  1.00  0.00     0.014 A 
ATOM     30  C   UNL A   1      38.605  23.869  25.862  1.00  0.00     0.014 A 
ATOM     31  C   UNL A   1      40.695  23.722  27.706  1.00  0.00     0.010 A 
ATOM     32  C   UNL A   1      39.311  25.016  26.193  1.00  0.00     0.010 A 
ATOM     33  C   UNL A   1      40.348  24.956  27.134  1.00  0.00    -0.014 A 
BRANCH  33  34
ATOM     34  C   UNL A   1      41.025  26.210  27.536  1.00  0.00     0.031 A 
ATOM     35  C   UNL A   1      42.450  26.449  27.125  1.00  0.00     0.074 A 
ATOM     36  C   UNL A   1      40.380  27.096  28.319  1.00  0.00     0.049 A 
ATOM     37  N   UNL A   1      43.223  27.468  27.393  1.00  0.00    -0.248 NA
ATOM     38  C   UNL A   1      43.102  25.393  26.332  1.00  0.00     0.031 C 
ATOM     39  C   UNL A   1      39.019  26.932  28.832  1.00  0.00     0.029 A 
ATOM     40  N   UNL A   1      40.785  28.303  28.829  1.00  0.00    -0.354 N 
ATOM     41  C   UNL A   1      44.448  27.173  26.808  1.00  0.00     0.074 A 
ATOM     42  C   UNL A   1      44.339  25.854  26.231  1.00  0.00     0.031 C 
ATOM     43  C   UNL A   1      38.692  28.009  29.563  1.00  0.00     0.029 A 
ATOM     44  C   UNL A   1      39.827  28.931  29.592  1.00  0.00     0.049 A 
ATOM     45  H   UNL A   1      41.677  28.686  28.664  1.00  0.00     0.167 HD
ATOM     46  C   UNL A   1      45.553  27.950  26.728  1.00  0.00     0.034 A 
ATOM     47  C   UNL A   1      39.857  30.118  30.230  1.00  0.00     0.034 A 
ATOM     48  C   UNL A   1      45.636  29.273  27.284  1.00  0.00     0.049 A 
ATOM     49  C   UNL A   1      41.085  30.984  30.096  1.00  0.00     0.074 A 
ATOM     50  C   UNL A   1      46.692  30.164  27.215  1.00  0.00     0.029 A 
ATOM     51  N   UNL A   1      44.626  29.899  27.998  1.00  0.00    -0.354 N 
ATOM     52  N   UNL A   1      42.204  30.731  29.458  1.00  0.00    -0.248 NA
ATOM     53  C   UNL A   1      41.049  32.303  30.742  1.00  0.00     0.031 C 
ATOM     54  C   UNL A   1      46.334  31.314  27.920  1.00  0.00     0.029 A 
ATOM     55  C   UNL A   1      45.034  31.163  28.380  1.00  0.00     0.049 A 
ATOM     56  H   UNL A   1      43.749  29.502  28.202  1.00  0.00     0.167 HD
ATOM     57  C   UNL A   1      42.988  31.873  29.592  1.00  0.00     0.074 A 
ATOM     58  C   UNL A   1      42.212  32.821  30.365  1.00  0.00     0.031 C 
ATOM     59  C   UNL A   1      44.235  32.113  29.117  1.00  0.00     0.034 A 
BRANCH  46  60
ATOM     60  C   UNL A   1      46.746  27.418  25.981  1.00  0.00     0.023 A 
ATOM     61  C   UNL A   1      46.985  27.813  24.653  1.00  0.00     0.031 A 
ATOM     62  C   UNL A   1      47.586  26.443  26.550  1.00  0.00     0.131 A 
ATOM     63  C   UNL A   1      48.023  27.216  23.928  1.00  0.00     0.055 A 
ATOM     64  C   UNL A   1      48.643  25.880  25.835  1.00  0.00     0.041 A 
ATOM     65  F   UNL A   1      47.400  26.039  27.817  1.00  0.00    -0.206 F 
ATOM     66  C   UNL A   1      48.858  26.259  24.514  1.00  0.00     0.022 A 
BRANCH  63  67
ATOM     67  S   UNL A   1      48.310  27.635  22.187  1.00  0.00     0.124 S 
ATOM     68  O   UNL A   1      48.516  26.318  21.590  1.00  0.00    -0.237 OA
ATOM     69  O   UNL A   1      47.060  28.297  21.826  1.00  0.00    -0.237 OA
ATOM     70  O   UNL A   1      49.492  28.490  22.224  1.00  0.00    -0.744 OA
ENDBRANCH  63  67
ENDBRANCH  46  60
BRANCH  47  71
ATOM     71  C   UNL A   1      38.642  30.582  30.958  1.00  0.00     0.023 A 
ATOM     72  C   UNL A   1      37.593  31.229  30.283  1.00  0.00     0.031 A 
ATOM     73  C   UNL A   1      38.564  30.472  32.357  1.00  0.00     0.131 A 
ATOM     74  C   UNL A   1      36.534  31.784  31.014  1.00  0.00     0.055 A 
ATOM     75  C   UNL A   1      37.480  30.975  33.076  1.00  0.00     0.041 A 
ATOM     76  F   UNL A   1      39.553  29.877  33.043  1.00  0.00    -0.206 F 
ATOM     77  C   UNL A   1      36.461  31.645  32.405  1.00  0.00     0.022 A 
BRANCH  74  78
ATOM     78  S   UNL A   1      35.262  32.786  30.198  1.00  0.00     0.124 S 
ATOM     79  O   UNL A   1      36.035  33.916  29.693  1.00  0.00    -0.237 OA
ATOM     80  O   UNL A   1      34.761  31.859  29.186  1.00  0.00    -0.237 OA
ATOM     81  O   UNL A   1      34.326  33.097  31.274  1.00  0.00    -0.744 OA
ENDBRANCH  74  78
ENDBRANCH  47  71
BRANCH  59  82
ATOM     82  C   UNL A   1      44.858  33.463  29.366  1.00  0.00     0.023 A 
ATOM     83  C   UNL A   1      44.746  34.468  28.387  1.00  0.00     0.031 A 
ATOM     84  C   UNL A   1      45.689  33.695  30.474  1.00  0.00     0.131 A 
ATOM     85  C   UNL A   1      45.486  35.649  28.517  1.00  0.00     0.055 A 
ATOM     86  C   UNL A   1      46.391  34.891  30.620  1.00  0.00     0.041 A 
ATOM     87  F   UNL A   1      45.836  32.758  31.425  1.00  0.00    -0.206 F 
ATOM     88  C   UNL A   1      46.302  35.870  29.631  1.00  0.00     0.022 A 
BRANCH  85  89
ATOM     89  S   UNL A   1      45.479  36.905  27.208  1.00  0.00     0.124 S 
ATOM     90  O   UNL A   1      46.230  36.239  26.146  1.00  0.00    -0.237 OA
ATOM     91  O   UNL A   1      44.051  37.072  26.951  1.00  0.00    -0.237 OA
ATOM     92  O   UNL A   1      46.146  38.051  27.815  1.00  0.00    -0.744 OA
ENDBRANCH  85  89
ENDBRANCH  59  82
ENDBRANCH  33  34
ENDBRANCH  25  28
ENDBRANCH   1  24
TORSDOF 14
ENDMDL
MODEL 2
REMARK VINA RESULT:     -12.6      5.675      8.457
REMARK SMILES Cc1c(Cl)ccc2c1C=C(C(=O)NCCCNC(=O)c1ccc(-c3c4nc(c(-c5cc(S(=O)(=O)[O-])ccc5F)c5ccc([nH]5)c(-c5cc(S(=O)(=O)[O-])ccc5F)c5nc(c(-c6cc(S(=O)(=O)[O-])ccc6F)c6ccc3[nH]6)C=C5)C=C4)cc1)[C@@H](C(F)(F)F)O2
REMARK SMILES IDX 16 1 15 2 14 3 13 4 11 5 12 6 10 8 1 9 2 10 3 11 8 12 4 13
REMARK SMILES IDX 5 14 7 15 9 16 6 17 88 18 83 19 84 20 85 21 86 22 87 23
REMARK SMILES IDX 17 24 18 25 19 27 20 28 21 29 82 30 22 31 81 32 23 33 24 34
REMARK SMILES IDX 25 35 75 36 26 37 80 38 74 39 76 40 27 41 79 42 73 43 72 44
REMARK SMILES IDX 28 46 60 47 40 48 59 49 41 50 44 51 58 52 77 53 42 54 43 55
REMARK SMILES IDX 57 57 78 58 45 59 29 60 30 61 38 62 31 63 37 64 39 65 36 66
REMARK SMILES IDX 32 67 33 68 34 69 35 70 61 71 62 72 70 73 63 74 69 75 71 76
REMARK SMILES IDX 68 77 64 78 65 79 66 80 67 81 46 82 47 83 55 84 48 85 54 86
REMARK SMILES IDX 56 87 53 88 49 89 50 90 51 91 52 92
REMARK H PARENT 13 7 17 26 76 45 44 56
REMARK Flexibility Score: inf
ROOT
ATOM      1  C   UNL A   1      32.732  32.473  27.171  1.00  0.00     0.118 C 
ENDROOT
BRANCH   1   2
ATOM      2  C   UNL A   1      31.444  32.025  26.489  1.00  0.00     0.042 C 
BRANCH   2   3
ATOM      3  C   UNL A   1      31.394  30.517  26.296  1.00  0.00     0.118 C 
BRANCH   3   4
ATOM      4  N   UNL A   1      32.405  30.059  25.353  1.00  0.00    -0.352 N 
ATOM      5  C   UNL A   1      32.926  28.882  24.942  1.00  0.00     0.251 C 
ATOM      6  O   UNL A   1      33.816  28.976  24.090  1.00  0.00    -0.270 OA
ATOM      7  H   UNL A   1      32.826  30.816  24.886  1.00  0.00     0.163 HD
BRANCH   5   8
ATOM      8  C   UNL A   1      32.493  27.533  25.412  1.00  0.00     0.067 C 
ATOM      9  C   UNL A   1      35.490  24.335  25.397  1.00  0.00     0.047 C 
ATOM     10  C   UNL A   1      34.080  24.179  25.911  1.00  0.00    -0.021 A 
ATOM     11  C   UNL A   1      33.644  22.900  26.327  1.00  0.00     0.044 A 
ATOM     12  C   UNL A   1      33.156  25.250  25.956  1.00  0.00     0.022 A 
ATOM     13  Cl  UNL A   1      34.680  21.513  26.260  1.00  0.00    -0.084 Cl
ATOM     14  C   UNL A   1      32.348  22.693  26.804  1.00  0.00     0.024 A 
ATOM     15  C   UNL A   1      31.853  25.012  26.423  1.00  0.00     0.128 A 
ATOM     16  C   UNL A   1      33.477  26.627  25.563  1.00  0.00     0.026 C 
ATOM     17  C   UNL A   1      31.454  23.753  26.861  1.00  0.00     0.048 A 
ATOM     18  O   UNL A   1      30.900  25.986  26.519  1.00  0.00    -0.475 OA
ATOM     19  C   UNL A   1      31.069  27.149  25.669  1.00  0.00     0.314 C 
BRANCH  19  20
ATOM     20  C   UNL A   1      30.264  26.953  24.370  1.00  0.00     0.429 C 
ATOM     21  F   UNL A   1      29.846  28.146  23.880  1.00  0.00    -0.167 F 
ATOM     22  F   UNL A   1      30.989  26.369  23.387  1.00  0.00    -0.167 F 
ATOM     23  F   UNL A   1      29.165  26.184  24.550  1.00  0.00    -0.167 F 
ENDBRANCH  19  20
ENDBRANCH   5   8
ENDBRANCH   3   4
ENDBRANCH   2   3
ENDBRANCH   1   2
BRANCH   1  24
ATOM     24  N   UNL A   1      32.654  33.869  27.596  1.00  0.00    -0.352 N 
ATOM     25  C   UNL A   1      33.262  34.484  28.662  1.00  0.00     0.251 C 
ATOM     26  H   UNL A   1      32.086  34.450  27.040  1.00  0.00     0.163 HD
ATOM     27  O   UNL A   1      32.859  35.576  29.055  1.00  0.00    -0.269 OA
BRANCH  25  28
ATOM     28  C   UNL A   1      34.399  33.823  29.328  1.00  0.00     0.039 A 
ATOM     29  C   UNL A   1      35.705  34.207  29.016  1.00  0.00     0.014 A 
ATOM     30  C   UNL A   1      34.161  32.806  30.257  1.00  0.00     0.014 A 
ATOM     31  C   UNL A   1      36.773  33.605  29.684  1.00  0.00     0.010 A 
ATOM     32  C   UNL A   1      35.218  32.268  30.976  1.00  0.00     0.010 A 
ATOM     33  C   UNL A   1      36.534  32.647  30.682  1.00  0.00    -0.014 A 
BRANCH  33  34
ATOM     34  C   UNL A   1      37.648  31.990  31.403  1.00  0.00     0.031 A 
ATOM     35  C   UNL A   1      38.392  30.861  30.747  1.00  0.00     0.074 A 
ATOM     36  C   UNL A   1      37.944  32.366  32.662  1.00  0.00     0.049 A 
ATOM     37  N   UNL A   1      39.378  30.144  31.217  1.00  0.00    -0.248 NA
ATOM     38  C   UNL A   1      37.953  30.466  29.398  1.00  0.00     0.031 C 
ATOM     39  C   UNL A   1      37.240  33.404  33.417  1.00  0.00     0.029 A 
ATOM     40  N   UNL A   1      38.902  31.912  33.531  1.00  0.00    -0.354 N 
ATOM     41  C   UNL A   1      39.672  29.215  30.227  1.00  0.00     0.074 A 
ATOM     42  C   UNL A   1      38.718  29.412  29.161  1.00  0.00     0.031 C 
ATOM     43  C   UNL A   1      37.807  33.525  34.628  1.00  0.00     0.029 A 
ATOM     44  C   UNL A   1      38.898  32.558  34.746  1.00  0.00     0.049 A 
ATOM     45  H   UNL A   1      39.535  31.192  33.307  1.00  0.00     0.167 HD
ATOM     46  C   UNL A   1      40.672  28.305  30.195  1.00  0.00     0.034 A 
ATOM     47  C   UNL A   1      39.691  32.398  35.824  1.00  0.00     0.034 A 
ATOM     48  C   UNL A   1      41.631  28.140  31.253  1.00  0.00     0.049 A 
ATOM     49  C   UNL A   1      40.822  31.403  35.753  1.00  0.00     0.074 A 
ATOM     50  C   UNL A   1      42.714  27.280  31.299  1.00  0.00     0.029 A 
ATOM     51  N   UNL A   1      41.631  28.853  32.443  1.00  0.00    -0.354 N 
ATOM     52  N   UNL A   1      41.146  30.596  34.770  1.00  0.00    -0.248 NA
ATOM     53  C   UNL A   1      41.711  31.313  36.920  1.00  0.00     0.031 C 
ATOM     54  C   UNL A   1      43.346  27.447  32.532  1.00  0.00     0.029 A 
ATOM     55  C   UNL A   1      42.693  28.450  33.232  1.00  0.00     0.049 A 
ATOM     56  H   UNL A   1      40.974  29.543  32.688  1.00  0.00     0.167 HD
ATOM     57  C   UNL A   1      42.298  29.932  35.183  1.00  0.00     0.074 A 
ATOM     58  C   UNL A   1      42.618  30.439  36.502  1.00  0.00     0.031 C 
ATOM     59  C   UNL A   1      43.023  28.991  34.529  1.00  0.00     0.034 A 
BRANCH  46  60
ATOM     60  C   UNL A   1      40.815  27.445  28.969  1.00  0.00     0.023 A 
ATOM     61  C   UNL A   1      41.806  27.731  28.014  1.00  0.00     0.031 A 
ATOM     62  C   UNL A   1      39.904  26.407  28.696  1.00  0.00     0.131 A 
ATOM     63  C   UNL A   1      41.848  27.004  26.819  1.00  0.00     0.055 A 
ATOM     64  C   UNL A   1      39.975  25.661  27.520  1.00  0.00     0.041 A 
ATOM     65  F   UNL A   1      38.944  26.094  29.581  1.00  0.00    -0.206 F 
ATOM     66  C   UNL A   1      40.944  25.965  26.571  1.00  0.00     0.022 A 
BRANCH  63  67
ATOM     67  S   UNL A   1      43.057  27.398  25.525  1.00  0.00     0.124 S 
ATOM     68  O   UNL A   1      43.386  26.073  25.005  1.00  0.00    -0.237 OA
ATOM     69  O   UNL A   1      42.275  28.245  24.630  1.00  0.00    -0.237 OA
ATOM     70  O   UNL A   1      44.136  28.064  26.247  1.00  0.00    -0.744 OA
ENDBRANCH  63  67
ENDBRANCH  46  60
BRANCH  47  71
ATOM     71  C   UNL A   1      39.490  33.279  37.010  1.00  0.00     0.023 A 
ATOM     72  C   UNL A   1      38.813  32.817  38.152  1.00  0.00     0.031 A 
ATOM     73  C   UNL A   1      39.887  34.626  36.972  1.00  0.00     0.131 A 
ATOM     74  C   UNL A   1      38.511  33.710  39.189  1.00  0.00     0.055 A 
ATOM     75  C   UNL A   1      39.635  35.498  38.032  1.00  0.00     0.041 A 
ATOM     76  F   UNL A   1      40.520  35.113  35.894  1.00  0.00    -0.206 F 
ATOM     77  C   UNL A   1      38.934  35.043  39.145  1.00  0.00     0.022 A 
BRANCH  74  78
ATOM     78  S   UNL A   1      37.479  33.198  40.589  1.00  0.00     0.124 S 
ATOM     79  O   UNL A   1      38.283  32.142  41.195  1.00  0.00    -0.237 OA
ATOM     80  O   UNL A   1      37.384  34.439  41.354  1.00  0.00    -0.237 OA
ATOM     81  O   UNL A   1      36.237  32.760  39.960  1.00  0.00    -0.744 OA
ENDBRANCH  74  78
ENDBRANCH  47  71
BRANCH  59  82
ATOM     82  C   UNL A   1      44.268  28.452  35.183  1.00  0.00     0.023 A 
ATOM     83  C   UNL A   1      44.154  27.478  36.194  1.00  0.00     0.031 A 
ATOM     84  C   UNL A   1      45.532  29.010  34.931  1.00  0.00     0.131 A 
ATOM     85  C   UNL A   1      45.280  27.120  36.943  1.00  0.00     0.055 A 
ATOM     86  C   UNL A   1      46.659  28.619  35.653  1.00  0.00     0.041 A 
ATOM     87  F   UNL A   1      45.684  29.952  33.986  1.00  0.00    -0.206 F 
ATOM     88  C   UNL A   1      46.533  27.679  36.674  1.00  0.00     0.022 A 
BRANCH  85  89
ATOM     89  S   UNL A   1      45.144  25.977  38.345  1.00  0.00     0.124 S 
ATOM     90  O   UNL A   1      46.529  25.897  38.805  1.00  0.00    -0.237 OA
ATOM     91  O   UNL A   1      44.232  26.690  39.235  1.00  0.00    -0.237 OA
ATOM     92  O   UNL A   1      44.616  24.753  37.753  1.00  0.00    -0.744 OA
ENDBRANCH  85  89
ENDBRANCH  59  82
ENDBRANCH  33  34
ENDBRANCH  25  28
ENDBRANCH   1  24
TORSDOF 14
ENDMDL
MODEL 3
REMARK VINA RESULT:     -12.5      5.171      9.972
REMARK SMILES Cc1c(Cl)ccc2c1C=C(C(=O)NCCCNC(=O)c1ccc(-c3c4nc(c(-c5cc(S(=O)(=O)[O-])ccc5F)c5ccc([nH]5)c(-c5cc(S(=O)(=O)[O-])ccc5F)c5nc(c(-c6cc(S(=O)(=O)[O-])ccc6F)c6ccc3[nH]6)C=C5)C=C4)cc1)[C@@H](C(F)(F)F)O2
REMARK SMILES IDX 16 1 15 2 14 3 13 4 11 5 12 6 10 8 1 9 2 10 3 11 8 12 4 13
REMARK SMILES IDX 5 14 7 15 9 16 6 17 88 18 83 19 84 20 85 21 86 22 87 23
REMARK SMILES IDX 17 24 18 25 19 27 20 28 21 29 82 30 22 31 81 32 23 33 24 34
REMARK SMILES IDX 25 35 75 36 26 37 80 38 74 39 76 40 27 41 79 42 73 43 72 44
REMARK SMILES IDX 28 46 60 47 40 48 59 49 41 50 44 51 58 52 77 53 42 54 43 55
REMARK SMILES IDX 57 57 78 58 45 59 29 60 30 61 38 62 31 63 37 64 39 65 36 66
REMARK SMILES IDX 32 67 33 68 34 69 35 70 61 71 62 72 70 73 63 74 69 75 71 76
REMARK SMILES IDX 68 77 64 78 65 79 66 80 67 81 46 82 47 83 55 84 48 85 54 86
REMARK SMILES IDX 56 87 53 88 49 89 50 90 51 91 52 92
REMARK H PARENT 13 7 17 26 76 45 44 56
REMARK Flexibility Score: inf
ROOT
ATOM      1  C   UNL A   1      33.175  29.148  25.462  1.00  0.00     0.118 C 
ENDROOT
BRANCH   1   2
ATOM      2  C   UNL A   1      33.462  29.054  23.968  1.00  0.00     0.042 C 
BRANCH   2   3
ATOM      3  C   UNL A   1      32.251  28.569  23.184  1.00  0.00     0.118 C 
BRANCH   3   4
ATOM      4  N   UNL A   1      32.627  27.625  22.140  1.00  0.00    -0.352 N 
ATOM      5  C   UNL A   1      33.046  26.343  22.059  1.00  0.00     0.251 C 
ATOM      6  O   UNL A   1      33.268  25.940  20.912  1.00  0.00    -0.270 OA
ATOM      7  H   UNL A   1      32.558  28.034  21.248  1.00  0.00     0.163 HD
BRANCH   5   8
ATOM      8  C   UNL A   1      33.222  25.416  23.214  1.00  0.00     0.067 C 
ATOM      9  C   UNL A   1      36.654  22.690  23.107  1.00  0.00     0.047 C 
ATOM     10  C   UNL A   1      35.689  22.800  24.261  1.00  0.00    -0.021 A 
ATOM     11  C   UNL A   1      35.821  21.904  25.348  1.00  0.00     0.044 A 
ATOM     12  C   UNL A   1      34.625  23.734  24.288  1.00  0.00     0.022 A 
ATOM     13  Cl  UNL A   1      37.055  20.689  25.387  1.00  0.00    -0.084 Cl
ATOM     14  C   UNL A   1      34.953  21.953  26.441  1.00  0.00     0.024 A 
ATOM     15  C   UNL A   1      33.755  23.750  25.390  1.00  0.00     0.128 A 
ATOM     16  C   UNL A   1      34.377  24.724  23.234  1.00  0.00     0.026 C 
ATOM     17  C   UNL A   1      33.924  22.884  26.465  1.00  0.00     0.048 A 
ATOM     18  O   UNL A   1      32.713  24.626  25.511  1.00  0.00    -0.475 OA
ATOM     19  C   UNL A   1      32.196  25.197  24.283  1.00  0.00     0.314 C 
BRANCH  19  20
ATOM     20  C   UNL A   1      31.000  24.359  23.794  1.00  0.00     0.429 C 
ATOM     21  F   UNL A   1      30.111  25.134  23.125  1.00  0.00    -0.167 F 
ATOM     22  F   UNL A   1      31.365  23.373  22.939  1.00  0.00    -0.167 F 
ATOM     23  F   UNL A   1      30.332  23.764  24.809  1.00  0.00    -0.167 F 
ENDBRANCH  19  20
ENDBRANCH   5   8
ENDBRANCH   3   4
ENDBRANCH   2   3
ENDBRANCH   1   2
BRANCH   1  24
ATOM     24  N   UNL A   1      32.764  30.498  25.843  1.00  0.00    -0.352 N 
ATOM     25  C   UNL A   1      33.194  31.270  26.895  1.00  0.00     0.251 C 
ATOM     26  H   UNL A   1      32.084  30.913  25.265  1.00  0.00     0.163 HD
ATOM     27  O   UNL A   1      32.539  32.246  27.250  1.00  0.00    -0.269 OA
BRANCH  25  28
ATOM     28  C   UNL A   1      34.444  30.915  27.589  1.00  0.00     0.039 A 
ATOM     29  C   UNL A   1      35.468  31.859  27.701  1.00  0.00     0.014 A 
ATOM     30  C   UNL A   1      34.602  29.630  28.118  1.00  0.00     0.014 A 
ATOM     31  C   UNL A   1      36.631  31.527  28.398  1.00  0.00     0.010 A 
ATOM     32  C   UNL A   1      35.723  29.331  28.879  1.00  0.00     0.010 A 
ATOM     33  C   UNL A   1      36.756  30.268  29.008  1.00  0.00    -0.014 A 
BRANCH  33  34
ATOM     34  C   UNL A   1      37.980  29.889  29.751  1.00  0.00     0.031 A 
ATOM     35  C   UNL A   1      38.234  30.475  31.111  1.00  0.00     0.074 A 
ATOM     36  C   UNL A   1      38.884  29.072  29.177  1.00  0.00     0.049 A 
ATOM     37  N   UNL A   1      39.251  30.287  31.909  1.00  0.00    -0.248 NA
ATOM     38  C   UNL A   1      37.228  31.417  31.630  1.00  0.00     0.031 C 
ATOM     39  C   UNL A   1      38.769  28.501  27.834  1.00  0.00     0.029 A 
ATOM     40  N   UNL A   1      40.080  28.590  29.643  1.00  0.00    -0.354 N 
ATOM     41  C   UNL A   1      39.010  31.089  33.018  1.00  0.00     0.074 A 
ATOM     42  C   UNL A   1      37.789  31.816  32.762  1.00  0.00     0.031 C 
ATOM     43  C   UNL A   1      39.839  27.726  27.594  1.00  0.00     0.029 A 
ATOM     44  C   UNL A   1      40.728  27.763  28.754  1.00  0.00     0.049 A 
ATOM     45  H   UNL A   1      40.442  28.814  30.531  1.00  0.00     0.167 HD
ATOM     46  C   UNL A   1      39.724  31.181  34.163  1.00  0.00     0.034 A 
ATOM     47  C   UNL A   1      41.897  27.102  28.867  1.00  0.00     0.034 A 
ATOM     48  C   UNL A   1      40.923  30.429  34.415  1.00  0.00     0.049 A 
ATOM     49  C   UNL A   1      42.658  27.190  30.166  1.00  0.00     0.074 A 
ATOM     50  C   UNL A   1      41.697  30.412  35.561  1.00  0.00     0.029 A 
ATOM     51  N   UNL A   1      41.517  29.557  33.514  1.00  0.00    -0.354 N 
ATOM     52  N   UNL A   1      42.367  27.879  31.245  1.00  0.00    -0.248 NA
ATOM     53  C   UNL A   1      43.888  26.393  30.278  1.00  0.00     0.031 C 
ATOM     54  C   UNL A   1      42.778  29.557  35.341  1.00  0.00     0.029 A 
ATOM     55  C   UNL A   1      42.649  28.998  34.078  1.00  0.00     0.049 A 
ATOM     56  H   UNL A   1      41.181  29.364  32.610  1.00  0.00     0.167 HD
ATOM     57  C   UNL A   1      43.355  27.569  32.176  1.00  0.00     0.074 A 
ATOM     58  C   UNL A   1      44.246  26.624  31.536  1.00  0.00     0.031 C 
ATOM     59  C   UNL A   1      43.507  28.027  33.443  1.00  0.00     0.034 A 
BRANCH  46  60
ATOM     60  C   UNL A   1      39.215  32.088  35.251  1.00  0.00     0.023 A 
ATOM     61  C   UNL A   1      39.727  33.391  35.384  1.00  0.00     0.031 A 
ATOM     62  C   UNL A   1      38.301  31.627  36.215  1.00  0.00     0.131 A 
ATOM     63  C   UNL A   1      39.340  34.179  36.473  1.00  0.00     0.055 A 
ATOM     64  C   UNL A   1      37.889  32.432  37.278  1.00  0.00     0.041 A 
ATOM     65  F   UNL A   1      37.781  30.393  36.126  1.00  0.00    -0.206 F 
ATOM     66  C   UNL A   1      38.417  33.711  37.415  1.00  0.00     0.022 A 
BRANCH  63  67
ATOM     67  S   UNL A   1      40.042  35.832  36.728  1.00  0.00     0.124 S 
ATOM     68  O   UNL A   1      39.655  36.518  35.497  1.00  0.00    -0.237 OA
ATOM     69  O   UNL A   1      39.347  36.273  37.933  1.00  0.00    -0.237 OA
ATOM     70  O   UNL A   1      41.473  35.586  36.874  1.00  0.00    -0.744 OA
ENDBRANCH  63  67
ENDBRANCH  46  60
BRANCH  47  71
ATOM     71  C   UNL A   1      42.347  26.225  27.749  1.00  0.00     0.023 A 
ATOM     72  C   UNL A   1      41.890  24.900  27.635  1.00  0.00     0.031 A 
ATOM     73  C   UNL A   1      43.319  26.674  26.839  1.00  0.00     0.131 A 
ATOM     74  C   UNL A   1      42.443  24.057  26.662  1.00  0.00     0.055 A 
ATOM     75  C   UNL A   1      43.823  25.848  25.834  1.00  0.00     0.041 A 
ATOM     76  F   UNL A   1      43.795  27.925  26.922  1.00  0.00    -0.206 F 
ATOM     77  C   UNL A   1      43.393  24.527  25.749  1.00  0.00     0.022 A 
BRANCH  74  78
ATOM     78  S   UNL A   1      42.016  22.295  26.605  1.00  0.00     0.124 S 
ATOM     79  O   UNL A   1      40.557  22.331  26.594  1.00  0.00    -0.237 OA
ATOM     80  O   UNL A   1      42.647  21.880  25.354  1.00  0.00    -0.237 OA
ATOM     81  O   UNL A   1      42.623  21.755  27.817  1.00  0.00    -0.744 OA
ENDBRANCH  74  78
ENDBRANCH  47  71
BRANCH  59  82
ATOM     82  C   UNL A   1      44.650  27.499  34.271  1.00  0.00     0.023 A 
ATOM     83  C   UNL A   1      44.442  26.389  35.112  1.00  0.00     0.031 A 
ATOM     84  C   UNL A   1      45.873  28.183  34.355  1.00  0.00     0.131 A 
ATOM     85  C   UNL A   1      45.431  26.018  36.029  1.00  0.00     0.055 A 
ATOM     86  C   UNL A   1      46.873  27.784  35.242  1.00  0.00     0.041 A 
ATOM     87  F   UNL A   1      46.109  29.256  33.583  1.00  0.00    -0.206 F 
ATOM     88  C   UNL A   1      46.648  26.704  36.095  1.00  0.00     0.022 A 
BRANCH  85  89
ATOM     89  S   UNL A   1      45.144  24.684  37.225  1.00  0.00     0.124 S 
ATOM     90  O   UNL A   1      44.740  23.581  36.355  1.00  0.00    -0.237 OA
ATOM     91  O   UNL A   1      46.459  24.540  37.845  1.00  0.00    -0.237 OA
ATOM     92  O   UNL A   1      44.095  25.207  38.092  1.00  0.00    -0.744 OA
ENDBRANCH  85  89
ENDBRANCH  59  82
ENDBRANCH  33  34
ENDBRANCH  25  28
ENDBRANCH   1  24
TORSDOF 14
ENDMDL
