MODEL 1
REMARK VINA RESULT:     -11.3      0.000      0.000
REMARK SMILES COCc1cccc(C(=O)N2C[C@@H](O)C[C@@H]2C(=O)NCCCNC(=O)c2ccc(-c3c4nc(c(-c5cc(S(=O)(=O)[O-])ccc5F)c5ccc([nH]5)c(-c5cc(S(=O)(=O)[O-])ccc5F)c5nc(c(-c6cc(S(=O)(=O)[O-])ccc6F)c6ccc3[nH]6)C=C5)C=C4)cc2)c1
REMARK SMILES IDX 20 1 19 2 17 3 18 4 16 6 11 7 12 8 13 9 15 10 9 11 10 12
REMARK SMILES IDX 8 13 4 14 5 15 89 16 6 17 7 18 3 19 2 20 1 21 14 22 21 24
REMARK SMILES IDX 22 25 23 26 24 27 25 29 26 30 27 31 88 32 28 33 87 34 29 35
REMARK SMILES IDX 30 36 31 37 81 38 32 39 86 40 80 41 82 42 33 43 85 44 79 45
REMARK SMILES IDX 78 46 34 48 66 49 46 50 65 51 47 52 50 53 64 54 83 55 48 56
REMARK SMILES IDX 49 57 63 59 84 60 51 61 35 62 36 63 44 64 37 65 43 66 45 67
REMARK SMILES IDX 42 68 38 69 39 70 40 71 41 72 67 73 68 74 76 75 69 76 75 77
REMARK SMILES IDX 77 78 74 79 70 80 71 81 72 82 73 83 52 84 53 85 61 86 54 87
REMARK SMILES IDX 60 88 62 89 59 90 55 91 56 92 57 93 58 94
REMARK H PARENT 19 5 14 23 23 28 82 47 50 58
REMARK Flexibility Score: inf
ROOT
ATOM      1  C   UNL A   1      31.044  30.595  25.637  1.00  0.00     0.117 C 
ENDROOT
BRANCH   1   2
ATOM      2  N   UNL A   1      32.351  30.039  25.342  1.00  0.00    -0.354 N 
ATOM      3  C   UNL A   1      32.650  28.849  24.741  1.00  0.00     0.242 C 
ATOM      4  O   UNL A   1      33.828  28.610  24.467  1.00  0.00    -0.273 OA
ATOM      5  H   UNL A   1      33.122  30.589  25.611  1.00  0.00     0.163 HD
BRANCH   3   6
ATOM      6  C   UNL A   1      31.490  27.918  24.331  1.00  0.00     0.177 C 
ATOM      7  N   UNL A   1      31.852  26.513  24.495  1.00  0.00    -0.324 N 
ATOM      8  C   UNL A   1      31.729  25.791  23.242  1.00  0.00     0.152 C 
ATOM      9  C   UNL A   1      31.976  26.881  22.205  1.00  0.00     0.136 C 
ATOM     10  C   UNL A   1      31.245  28.078  22.821  1.00  0.00     0.069 C 
BRANCH   7  11
ATOM     11  C   UNL A   1      32.155  26.027  25.753  1.00  0.00     0.254 C 
ATOM     12  O   UNL A   1      31.744  26.586  26.767  1.00  0.00    -0.269 OA
BRANCH  11  13
ATOM     13  C   UNL A   1      33.179  24.938  25.867  1.00  0.00     0.040 A 
ATOM     14  C   UNL A   1      33.728  22.547  25.999  1.00  0.00    -0.022 A 
ATOM     15  C   UNL A   1      35.068  22.863  25.751  1.00  0.00     0.006 A 
ATOM     16  C   UNL A   1      32.806  23.599  26.033  1.00  0.00     0.020 A 
ATOM     17  C   UNL A   1      35.462  24.192  25.555  1.00  0.00     0.001 A 
ATOM     18  C   UNL A   1      34.523  25.227  25.619  1.00  0.00     0.014 A 
BRANCH  14  19
ATOM     19  C   UNL A   1      33.287  21.127  26.278  1.00  0.00     0.195 C 
BRANCH  19  20
ATOM     20  O   UNL A   1      32.172  20.677  25.507  1.00  0.00    -0.380 OA
ATOM     21  C   UNL A   1      32.485  19.758  24.470  1.00  0.00     0.195 C 
ENDBRANCH  19  20
ENDBRANCH  14  19
ENDBRANCH  11  13
ENDBRANCH   7  11
BRANCH   9  22
ATOM     22  O   UNL A   1      31.488  26.559  20.916  1.00  0.00    -0.391 OA
ATOM     23  H   UNL A   1      30.524  26.676  20.897  1.00  0.00     0.211 HD
ENDBRANCH   9  22
ENDBRANCH   3   6
ENDBRANCH   1   2
BRANCH   1  24
ATOM     24  C   UNL A   1      31.114  32.030  26.140  1.00  0.00     0.042 C 
BRANCH  24  25
ATOM     25  C   UNL A   1      32.409  32.366  26.874  1.00  0.00     0.118 C 
BRANCH  25  26
ATOM     26  N   UNL A   1      32.434  33.736  27.368  1.00  0.00    -0.352 N 
ATOM     27  C   UNL A   1      33.222  34.325  28.329  1.00  0.00     0.251 C 
ATOM     28  H   UNL A   1      31.781  34.339  26.945  1.00  0.00     0.163 HD
ATOM     29  O   UNL A   1      32.934  35.450  28.724  1.00  0.00    -0.269 OA
BRANCH  27  30
ATOM     30  C   UNL A   1      34.385  33.609  28.897  1.00  0.00     0.039 A 
ATOM     31  C   UNL A   1      35.672  34.033  28.549  1.00  0.00     0.014 A 
ATOM     32  C   UNL A   1      34.221  32.511  29.745  1.00  0.00     0.014 A 
ATOM     33  C   UNL A   1      36.786  33.403  29.108  1.00  0.00     0.010 A 
ATOM     34  C   UNL A   1      35.329  31.939  30.366  1.00  0.00     0.010 A 
ATOM     35  C   UNL A   1      36.624  32.378  30.054  1.00  0.00    -0.014 A 
BRANCH  35  36
ATOM     36  C   UNL A   1      37.799  31.760  30.728  1.00  0.00     0.031 A 
ATOM     37  C   UNL A   1      38.615  30.709  30.022  1.00  0.00     0.074 A 
ATOM     38  C   UNL A   1      38.091  32.100  31.999  1.00  0.00     0.049 A 
ATOM     39  N   UNL A   1      39.626  30.009  30.468  1.00  0.00    -0.248 NA
ATOM     40  C   UNL A   1      38.220  30.384  28.645  1.00  0.00     0.031 C 
ATOM     41  C   UNL A   1      37.345  33.070  32.805  1.00  0.00     0.029 A 
ATOM     42  N   UNL A   1      39.081  31.661  32.844  1.00  0.00    -0.354 N 
ATOM     43  C   UNL A   1      39.979  29.150  29.432  1.00  0.00     0.074 A 
ATOM     44  C   UNL A   1      39.030  29.376  28.362  1.00  0.00     0.031 C 
ATOM     45  C   UNL A   1      37.915  33.167  34.015  1.00  0.00     0.029 A 
ATOM     46  C   UNL A   1      39.031  32.231  34.096  1.00  0.00     0.049 A 
ATOM     47  H   UNL A   1      39.762  31.001  32.578  1.00  0.00     0.167 HD
ATOM     48  C   UNL A   1      41.010  28.269  29.373  1.00  0.00     0.034 A 
ATOM     49  C   UNL A   1      39.784  32.010  35.192  1.00  0.00     0.034 A 
ATOM     50  C   UNL A   1      41.947  28.061  30.451  1.00  0.00     0.049 A 
ATOM     51  C   UNL A   1      40.908  31.009  35.114  1.00  0.00     0.074 A 
ATOM     52  C   UNL A   1      43.066  27.245  30.474  1.00  0.00     0.029 A 
ATOM     53  N   UNL A   1      41.868  28.658  31.704  1.00  0.00    -0.354 N 
ATOM     54  N   UNL A   1      41.272  30.253  34.103  1.00  0.00    -0.248 NA
ATOM     55  C   UNL A   1      41.732  30.842  36.318  1.00  0.00     0.031 C 
ATOM     56  C   UNL A   1      43.610  27.282  31.763  1.00  0.00     0.029 A 
ATOM     57  C   UNL A   1      42.891  28.194  32.519  1.00  0.00     0.049 A 
ATOM     58  H   UNL A   1      41.186  29.314  31.975  1.00  0.00     0.167 HD
ATOM     59  C   UNL A   1      42.385  29.540  34.544  1.00  0.00     0.074 A 
ATOM     60  C   UNL A   1      42.641  29.972  35.902  1.00  0.00     0.031 C 
ATOM     61  C   UNL A   1      43.130  28.617  33.881  1.00  0.00     0.034 A 
BRANCH  48  62
ATOM     62  C   UNL A   1      41.149  27.444  28.113  1.00  0.00     0.023 A 
ATOM     63  C   UNL A   1      40.777  26.088  28.067  1.00  0.00     0.031 A 
ATOM     64  C   UNL A   1      41.695  28.011  26.947  1.00  0.00     0.131 A 
ATOM     65  C   UNL A   1      41.035  25.326  26.919  1.00  0.00     0.055 A 
ATOM     66  C   UNL A   1      41.863  27.270  25.776  1.00  0.00     0.041 A 
ATOM     67  F   UNL A   1      42.090  29.293  26.930  1.00  0.00    -0.206 F 
ATOM     68  C   UNL A   1      41.551  25.915  25.762  1.00  0.00     0.022 A 
BRANCH  65  69
ATOM     69  S   UNL A   1      40.848  23.524  27.015  1.00  0.00     0.124 S 
ATOM     70  O   UNL A   1      41.394  23.242  28.341  1.00  0.00    -0.237 OA
ATOM     71  O   UNL A   1      39.407  23.349  26.867  1.00  0.00    -0.237 OA
ATOM     72  O   UNL A   1      41.655  23.035  25.900  1.00  0.00    -0.744 OA
ENDBRANCH  65  69
ENDBRANCH  48  62
BRANCH  49  73
ATOM     73  C   UNL A   1      39.485  32.730  36.464  1.00  0.00     0.023 A 
ATOM     74  C   UNL A   1      38.589  32.206  37.408  1.00  0.00     0.031 A 
ATOM     75  C   UNL A   1      40.077  33.977  36.740  1.00  0.00     0.131 A 
ATOM     76  C   UNL A   1      38.278  32.943  38.563  1.00  0.00     0.055 A 
ATOM     77  C   UNL A   1      39.809  34.679  37.916  1.00  0.00     0.041 A 
ATOM     78  F   UNL A   1      40.945  34.523  35.874  1.00  0.00    -0.206 F 
ATOM     79  C   UNL A   1      38.894  34.167  38.831  1.00  0.00     0.022 A 
BRANCH  76  80
ATOM     80  S   UNL A   1      36.989  32.315  39.676  1.00  0.00     0.124 S 
ATOM     81  O   UNL A   1      35.780  32.570  38.902  1.00  0.00    -0.237 OA
ATOM     82  O   UNL A   1      37.373  30.916  39.825  1.00  0.00    -0.237 OA
ATOM     83  O   UNL A   1      37.148  33.134  40.875  1.00  0.00    -0.744 OA
ENDBRANCH  76  80
ENDBRANCH  49  73
BRANCH  61  84
ATOM     84  C   UNL A   1      44.323  28.044  34.610  1.00  0.00     0.023 A 
ATOM     85  C   UNL A   1      44.241  26.855  35.355  1.00  0.00     0.031 A 
ATOM     86  C   UNL A   1      45.562  28.710  34.565  1.00  0.00     0.131 A 
ATOM     87  C   UNL A   1      45.360  26.399  36.071  1.00  0.00     0.055 A 
ATOM     88  C   UNL A   1      46.689  28.214  35.222  1.00  0.00     0.041 A 
ATOM     89  F   UNL A   1      45.701  29.854  33.876  1.00  0.00    -0.206 F 
ATOM     90  C   UNL A   1      46.587  27.060  35.993  1.00  0.00     0.022 A 
BRANCH  87  91
ATOM     91  S   UNL A   1      45.159  24.988  37.195  1.00  0.00     0.124 S 
ATOM     92  O   UNL A   1      44.211  24.153  36.466  1.00  0.00    -0.237 OA
ATOM     93  O   UNL A   1      46.520  24.472  37.294  1.00  0.00    -0.237 OA
ATOM     94  O   UNL A   1      44.637  25.597  38.417  1.00  0.00    -0.744 OA
ENDBRANCH  87  91
ENDBRANCH  61  84
ENDBRANCH  35  36
ENDBRANCH  27  30
ENDBRANCH  25  26
ENDBRANCH  24  25
ENDBRANCH   1  24
TORSDOF 18
ENDMDL
MODEL 2
REMARK VINA RESULT:     -11.2      2.686      8.279
REMARK SMILES COCc1cccc(C(=O)N2C[C@@H](O)C[C@@H]2C(=O)NCCCNC(=O)c2ccc(-c3c4nc(c(-c5cc(S(=O)(=O)[O-])ccc5F)c5ccc([nH]5)c(-c5cc(S(=O)(=O)[O-])ccc5F)c5nc(c(-c6cc(S(=O)(=O)[O-])ccc6F)c6ccc3[nH]6)C=C5)C=C4)cc2)c1
REMARK SMILES IDX 20 1 19 2 17 3 18 4 16 6 11 7 12 8 13 9 15 10 9 11 10 12
REMARK SMILES IDX 8 13 4 14 5 15 89 16 6 17 7 18 3 19 2 20 1 21 14 22 21 24
REMARK SMILES IDX 22 25 23 26 24 27 25 29 26 30 27 31 88 32 28 33 87 34 29 35
REMARK SMILES IDX 30 36 31 37 81 38 32 39 86 40 80 41 82 42 33 43 85 44 79 45
REMARK SMILES IDX 78 46 34 48 66 49 46 50 65 51 47 52 50 53 64 54 83 55 48 56
REMARK SMILES IDX 49 57 63 59 84 60 51 61 35 62 36 63 44 64 37 65 43 66 45 67
REMARK SMILES IDX 42 68 38 69 39 70 40 71 41 72 67 73 68 74 76 75 69 76 75 77
REMARK SMILES IDX 77 78 74 79 70 80 71 81 72 82 73 83 52 84 53 85 61 86 54 87
REMARK SMILES IDX 60 88 62 89 59 90 55 91 56 92 57 93 58 94
REMARK H PARENT 19 5 14 23 23 28 82 47 50 58
REMARK Flexibility Score: inf
ROOT
ATOM      1  C   UNL A   1      32.171  27.591  24.310  1.00  0.00     0.117 C 
ENDROOT
BRANCH   1   2
ATOM      2  N   UNL A   1      32.153  26.274  23.703  1.00  0.00    -0.354 N 
ATOM      3  C   UNL A   1      32.185  25.055  24.320  1.00  0.00     0.242 C 
ATOM      4  O   UNL A   1      32.037  24.045  23.630  1.00  0.00    -0.273 OA
ATOM      5  H   UNL A   1      32.114  26.256  22.720  1.00  0.00     0.163 HD
BRANCH   3   6
ATOM      6  C   UNL A   1      32.289  25.011  25.859  1.00  0.00     0.177 C 
ATOM      7  N   UNL A   1      33.134  23.906  26.303  1.00  0.00    -0.324 N 
ATOM      8  C   UNL A   1      32.406  23.016  27.190  1.00  0.00     0.152 C 
ATOM      9  C   UNL A   1      30.965  23.186  26.722  1.00  0.00     0.136 C 
ATOM     10  C   UNL A   1      30.899  24.688  26.433  1.00  0.00     0.069 C 
BRANCH   7  11
ATOM     11  C   UNL A   1      34.467  23.876  25.943  1.00  0.00     0.254 C 
ATOM     12  O   UNL A   1      35.075  24.908  25.667  1.00  0.00    -0.269 OA
BRANCH  11  13
ATOM     13  C   UNL A   1      35.102  22.545  25.677  1.00  0.00     0.040 A 
ATOM     14  C   UNL A   1      34.922  20.230  24.875  1.00  0.00    -0.022 A 
ATOM     15  C   UNL A   1      36.318  20.148  24.862  1.00  0.00     0.006 A 
ATOM     16  C   UNL A   1      34.343  21.442  25.268  1.00  0.00     0.020 A 
ATOM     17  C   UNL A   1      37.100  21.246  25.242  1.00  0.00     0.001 A 
ATOM     18  C   UNL A   1      36.495  22.438  25.654  1.00  0.00     0.014 A 
BRANCH  14  19
ATOM     19  C   UNL A   1      34.055  19.039  24.532  1.00  0.00     0.195 C 
BRANCH  19  20
ATOM     20  O   UNL A   1      34.766  17.867  24.130  1.00  0.00    -0.380 OA
ATOM     21  C   UNL A   1      33.978  16.869  23.495  1.00  0.00     0.195 C 
ENDBRANCH  19  20
ENDBRANCH  14  19
ENDBRANCH  11  13
ENDBRANCH   7  11
BRANCH   9  22
ATOM     22  O   UNL A   1      30.006  22.781  27.681  1.00  0.00    -0.391 OA
ATOM     23  H   UNL A   1      29.344  23.482  27.792  1.00  0.00     0.211 HD
ENDBRANCH   9  22
ENDBRANCH   3   6
ENDBRANCH   1   2
BRANCH   1  24
ATOM     24  C   UNL A   1      33.575  28.168  24.425  1.00  0.00     0.042 C 
BRANCH  24  25
ATOM     25  C   UNL A   1      34.025  28.422  25.861  1.00  0.00     0.118 C 
BRANCH  25  26
ATOM     26  N   UNL A   1      33.716  29.771  26.316  1.00  0.00    -0.352 N 
ATOM     27  C   UNL A   1      34.322  30.553  27.270  1.00  0.00     0.251 C 
ATOM     28  H   UNL A   1      32.947  30.191  25.867  1.00  0.00     0.163 HD
ATOM     29  O   UNL A   1      33.768  31.587  27.629  1.00  0.00    -0.269 OA
BRANCH  27  30
ATOM     30  C   UNL A   1      35.610  30.148  27.874  1.00  0.00     0.039 A 
ATOM     31  C   UNL A   1      35.619  29.693  29.197  1.00  0.00     0.014 A 
ATOM     32  C   UNL A   1      36.808  30.235  27.162  1.00  0.00     0.014 A 
ATOM     33  C   UNL A   1      36.814  29.260  29.775  1.00  0.00     0.010 A 
ATOM     34  C   UNL A   1      37.983  29.725  27.710  1.00  0.00     0.010 A 
ATOM     35  C   UNL A   1      38.000  29.233  29.023  1.00  0.00    -0.014 A 
BRANCH  35  36
ATOM     36  C   UNL A   1      39.261  28.688  29.595  1.00  0.00     0.031 A 
ATOM     37  C   UNL A   1      39.932  29.378  30.753  1.00  0.00     0.074 A 
ATOM     38  C   UNL A   1      39.837  27.608  29.029  1.00  0.00     0.049 A 
ATOM     39  N   UNL A   1      41.066  29.096  31.341  1.00  0.00    -0.248 NA
ATOM     40  C   UNL A   1      39.249  30.559  31.301  1.00  0.00     0.031 C 
ATOM     41  C   UNL A   1      39.308  26.881  27.872  1.00  0.00     0.029 A 
ATOM     42  N   UNL A   1      40.996  26.940  29.336  1.00  0.00    -0.354 N 
ATOM     43  C   UNL A   1      41.241  30.072  32.317  1.00  0.00     0.074 A 
ATOM     44  C   UNL A   1      40.126  30.988  32.195  1.00  0.00     0.031 C 
ATOM     45  C   UNL A   1      40.128  25.859  27.582  1.00  0.00     0.029 A 
ATOM     46  C   UNL A   1      41.267  25.887  28.493  1.00  0.00     0.049 A 
ATOM     47  H   UNL A   1      41.578  27.191  30.090  1.00  0.00     0.167 HD
ATOM     48  C   UNL A   1      42.229  30.182  33.241  1.00  0.00     0.034 A 
ATOM     49  C   UNL A   1      42.323  25.050  28.443  1.00  0.00     0.034 A 
ATOM     50  C   UNL A   1      43.332  29.256  33.347  1.00  0.00     0.049 A 
ATOM     51  C   UNL A   1      43.423  25.205  29.461  1.00  0.00     0.074 A 
ATOM     52  C   UNL A   1      44.351  29.234  34.284  1.00  0.00     0.029 A 
ATOM     53  N   UNL A   1      43.573  28.199  32.477  1.00  0.00    -0.354 N 
ATOM     54  N   UNL A   1      43.540  26.093  30.423  1.00  0.00    -0.248 NA
ATOM     55  C   UNL A   1      44.526  24.238  29.398  1.00  0.00     0.031 C 
ATOM     56  C   UNL A   1      45.250  28.222  33.931  1.00  0.00     0.029 A 
ATOM     57  C   UNL A   1      44.746  27.548  32.831  1.00  0.00     0.049 A 
ATOM     58  H   UNL A   1      42.996  27.949  31.720  1.00  0.00     0.167 HD
ATOM     59  C   UNL A   1      44.718  25.772  31.094  1.00  0.00     0.074 A 
ATOM     60  C   UNL A   1      45.261  24.600  30.440  1.00  0.00     0.031 C 
ATOM     61  C   UNL A   1      45.292  26.389  32.160  1.00  0.00     0.034 A 
BRANCH  48  62
ATOM     62  C   UNL A   1      42.175  31.366  34.181  1.00  0.00     0.023 A 
ATOM     63  C   UNL A   1      41.302  31.401  35.283  1.00  0.00     0.031 A 
ATOM     64  C   UNL A   1      42.986  32.493  33.954  1.00  0.00     0.131 A 
ATOM     65  C   UNL A   1      41.193  32.565  36.058  1.00  0.00     0.055 A 
ATOM     66  C   UNL A   1      42.940  33.614  34.785  1.00  0.00     0.041 A 
ATOM     67  F   UNL A   1      43.825  32.533  32.908  1.00  0.00    -0.206 F 
ATOM     68  C   UNL A   1      42.027  33.663  35.834  1.00  0.00     0.022 A 
BRANCH  65  69
ATOM     69  S   UNL A   1      39.832  32.687  37.251  1.00  0.00     0.124 S 
ATOM     70  O   UNL A   1      40.552  32.672  38.522  1.00  0.00    -0.237 OA
ATOM     71  O   UNL A   1      39.207  33.953  36.885  1.00  0.00    -0.237 OA
ATOM     72  O   UNL A   1      39.032  31.495  36.983  1.00  0.00    -0.744 OA
ENDBRANCH  65  69
ENDBRANCH  48  62
BRANCH  49  73
ATOM     73  C   UNL A   1      42.405  24.009  27.378  1.00  0.00     0.023 A 
ATOM     74  C   UNL A   1      41.848  22.734  27.557  1.00  0.00     0.031 A 
ATOM     75  C   UNL A   1      43.073  24.272  26.167  1.00  0.00     0.131 A 
ATOM     76  C   UNL A   1      42.004  21.755  26.561  1.00  0.00     0.055 A 
ATOM     77  C   UNL A   1      43.175  23.315  25.156  1.00  0.00     0.041 A 
ATOM     78  F   UNL A   1      43.621  25.476  25.941  1.00  0.00    -0.206 F 
ATOM     79  C   UNL A   1      42.648  22.043  25.356  1.00  0.00     0.022 A 
BRANCH  76  80
ATOM     80  S   UNL A   1      41.420  20.070  26.896  1.00  0.00     0.124 S 
ATOM     81  O   UNL A   1      40.497  19.850  25.789  1.00  0.00    -0.237 OA
ATOM     82  O   UNL A   1      42.663  19.307  26.859  1.00  0.00    -0.237 OA
ATOM     83  O   UNL A   1      40.800  20.182  28.215  1.00  0.00    -0.744 OA
ENDBRANCH  76  80
ENDBRANCH  49  73
BRANCH  61  84
ATOM     84  C   UNL A   1      46.559  25.774  32.711  1.00  0.00     0.023 A 
ATOM     85  C   UNL A   1      46.534  24.769  33.693  1.00  0.00     0.031 A 
ATOM     86  C   UNL A   1      47.813  26.213  32.248  1.00  0.00     0.131 A 
ATOM     87  C   UNL A   1      47.737  24.278  34.223  1.00  0.00     0.055 A 
ATOM     88  C   UNL A   1      49.006  25.672  32.729  1.00  0.00     0.041 A 
ATOM     89  F   UNL A   1      47.902  27.176  31.317  1.00  0.00    -0.206 F 
ATOM     90  C   UNL A   1      48.972  24.709  33.733  1.00  0.00     0.022 A 
BRANCH  87  91
ATOM     91  S   UNL A   1      47.669  23.146  35.640  1.00  0.00     0.124 S 
ATOM     92  O   UNL A   1      46.233  23.048  35.879  1.00  0.00    -0.237 OA
ATOM     93  O   UNL A   1      48.311  21.947  35.112  1.00  0.00    -0.237 OA
ATOM     94  O   UNL A   1      48.423  23.849  36.676  1.00  0.00    -0.744 OA
ENDBRANCH  87  91
ENDBRANCH  61  84
ENDBRANCH  35  36
ENDBRANCH  27  30
ENDBRANCH  25  26
ENDBRANCH  24  25
ENDBRANCH   1  24
TORSDOF 18
ENDMDL
MODEL 3
REMARK VINA RESULT:     -11.2      1.607      2.101
REMARK SMILES COCc1cccc(C(=O)N2C[C@@H](O)C[C@@H]2C(=O)NCCCNC(=O)c2ccc(-c3c4nc(c(-c5cc(S(=O)(=O)[O-])ccc5F)c5ccc([nH]5)c(-c5cc(S(=O)(=O)[O-])ccc5F)c5nc(c(-c6cc(S(=O)(=O)[O-])ccc6F)c6ccc3[nH]6)C=C5)C=C4)cc2)c1
REMARK SMILES IDX 20 1 19 2 17 3 18 4 16 6 11 7 12 8 13 9 15 10 9 11 10 12
REMARK SMILES IDX 8 13 4 14 5 15 89 16 6 17 7 18 3 19 2 20 1 21 14 22 21 24
REMARK SMILES IDX 22 25 23 26 24 27 25 29 26 30 27 31 88 32 28 33 87 34 29 35
REMARK SMILES IDX 30 36 31 37 81 38 32 39 86 40 80 41 82 42 33 43 85 44 79 45
REMARK SMILES IDX 78 46 34 48 66 49 46 50 65 51 47 52 50 53 64 54 83 55 48 56
REMARK SMILES IDX 49 57 63 59 84 60 51 61 35 62 36 63 44 64 37 65 43 66 45 67
REMARK SMILES IDX 42 68 38 69 39 70 40 71 41 72 67 73 68 74 76 75 69 76 75 77
REMARK SMILES IDX 77 78 74 79 70 80 71 81 72 82 73 83 52 84 53 85 61 86 54 87
REMARK SMILES IDX 60 88 62 89 59 90 55 91 56 92 57 93 58 94
REMARK H PARENT 19 5 14 23 23 28 82 47 50 58
REMARK Flexibility Score: inf
ROOT
ATOM      1  C   UNL A   1      31.571  30.282  26.798  1.00  0.00     0.117 C 
ENDROOT
BRANCH   1   2
ATOM      2  N   UNL A   1      32.856  29.615  26.704  1.00  0.00    -0.354 N 
ATOM      3  C   UNL A   1      33.260  28.679  25.794  1.00  0.00     0.242 C 
ATOM      4  O   UNL A   1      34.439  28.320  25.807  1.00  0.00    -0.273 OA
ATOM      5  H   UNL A   1      33.522  29.868  27.383  1.00  0.00     0.163 HD
BRANCH   3   6
ATOM      6  C   UNL A   1      32.253  28.206  24.726  1.00  0.00     0.177 C 
ATOM      7  N   UNL A   1      32.237  26.749  24.618  1.00  0.00    -0.324 N 
ATOM      8  C   UNL A   1      32.552  26.322  23.267  1.00  0.00     0.152 C 
ATOM      9  C   UNL A   1      33.430  27.458  22.755  1.00  0.00     0.136 C 
ATOM     10  C   UNL A   1      32.738  28.689  23.349  1.00  0.00     0.069 C 
BRANCH   7  11
ATOM     11  C   UNL A   1      31.855  25.987  25.704  1.00  0.00     0.254 C 
ATOM     12  O   UNL A   1      30.984  26.374  26.479  1.00  0.00    -0.269 OA
BRANCH  11  13
ATOM     13  C   UNL A   1      32.676  24.781  26.051  1.00  0.00     0.040 A 
ATOM     14  C   UNL A   1      34.873  23.710  26.299  1.00  0.00    -0.022 A 
ATOM     15  C   UNL A   1      34.261  22.665  26.998  1.00  0.00     0.006 A 
ATOM     16  C   UNL A   1      34.062  24.760  25.854  1.00  0.00     0.020 A 
ATOM     17  C   UNL A   1      32.880  22.675  27.230  1.00  0.00     0.001 A 
ATOM     18  C   UNL A   1      32.089  23.726  26.754  1.00  0.00     0.014 A 
BRANCH  14  19
ATOM     19  C   UNL A   1      36.352  23.690  25.978  1.00  0.00     0.195 C 
BRANCH  19  20
ATOM     20  O   UNL A   1      36.779  22.602  25.158  1.00  0.00    -0.380 OA
ATOM     21  C   UNL A   1      36.070  22.450  23.937  1.00  0.00     0.195 C 
ENDBRANCH  19  20
ENDBRANCH  14  19
ENDBRANCH  11  13
ENDBRANCH   7  11
BRANCH   9  22
ATOM     22  O   UNL A   1      33.515  27.519  21.344  1.00  0.00    -0.391 OA
ATOM     23  H   UNL A   1      34.034  28.297  21.083  1.00  0.00     0.211 HD
ENDBRANCH   9  22
ENDBRANCH   3   6
ENDBRANCH   1   2
BRANCH   1  24
ATOM     24  C   UNL A   1      31.673  31.787  26.592  1.00  0.00     0.042 C 
BRANCH  24  25
ATOM     25  C   UNL A   1      32.901  32.419  27.239  1.00  0.00     0.118 C 
BRANCH  25  26
ATOM     26  N   UNL A   1      32.681  33.806  27.626  1.00  0.00    -0.352 N 
ATOM     27  C   UNL A   1      33.250  34.556  28.629  1.00  0.00     0.251 C 
ATOM     28  H   UNL A   1      32.017  34.285  27.081  1.00  0.00     0.163 HD
ATOM     29  O   UNL A   1      32.767  35.650  28.898  1.00  0.00    -0.269 OA
BRANCH  27  30
ATOM     30  C   UNL A   1      34.412  34.044  29.389  1.00  0.00     0.039 A 
ATOM     31  C   UNL A   1      34.183  33.190  30.473  1.00  0.00     0.014 A 
ATOM     32  C   UNL A   1      35.717  34.418  29.063  1.00  0.00     0.014 A 
ATOM     33  C   UNL A   1      35.264  32.657  31.178  1.00  0.00     0.010 A 
ATOM     34  C   UNL A   1      36.796  33.820  29.712  1.00  0.00     0.010 A 
ATOM     35  C   UNL A   1      36.581  32.933  30.778  1.00  0.00    -0.014 A 
BRANCH  35  36
ATOM     36  C   UNL A   1      37.742  32.300  31.460  1.00  0.00     0.031 A 
ATOM     37  C   UNL A   1      38.475  31.156  30.810  1.00  0.00     0.074 A 
ATOM     38  C   UNL A   1      38.094  32.712  32.694  1.00  0.00     0.049 A 
ATOM     39  N   UNL A   1      39.461  30.433  31.275  1.00  0.00    -0.248 NA
ATOM     40  C   UNL A   1      38.017  30.757  29.472  1.00  0.00     0.031 C 
ATOM     41  C   UNL A   1      37.429  33.777  33.449  1.00  0.00     0.029 A 
ATOM     42  N   UNL A   1      39.086  32.279  33.540  1.00  0.00    -0.354 N 
ATOM     43  C   UNL A   1      39.732  29.484  30.296  1.00  0.00     0.074 A 
ATOM     44  C   UNL A   1      38.761  29.686  29.240  1.00  0.00     0.031 C 
ATOM     45  C   UNL A   1      38.044  33.929  34.632  1.00  0.00     0.029 A 
ATOM     46  C   UNL A   1      39.109  32.938  34.747  1.00  0.00     0.049 A 
ATOM     47  H   UNL A   1      39.720  31.564  33.303  1.00  0.00     0.167 HD
ATOM     48  C   UNL A   1      40.711  28.544  30.271  1.00  0.00     0.034 A 
ATOM     49  C   UNL A   1      39.885  32.754  35.835  1.00  0.00     0.034 A 
ATOM     50  C   UNL A   1      41.671  28.361  31.334  1.00  0.00     0.049 A 
ATOM     51  C   UNL A   1      40.949  31.688  35.797  1.00  0.00     0.074 A 
ATOM     52  C   UNL A   1      42.743  27.486  31.384  1.00  0.00     0.029 A 
ATOM     53  N   UNL A   1      41.666  29.048  32.541  1.00  0.00    -0.354 N 
ATOM     54  N   UNL A   1      41.238  30.842  34.834  1.00  0.00    -0.248 NA
ATOM     55  C   UNL A   1      41.802  31.560  36.986  1.00  0.00     0.031 C 
ATOM     56  C   UNL A   1      43.331  27.583  32.650  1.00  0.00     0.029 A 
ATOM     57  C   UNL A   1      42.689  28.587  33.358  1.00  0.00     0.049 A 
ATOM     58  H   UNL A   1      41.030  29.759  32.783  1.00  0.00     0.167 HD
ATOM     59  C   UNL A   1      42.323  30.100  35.293  1.00  0.00     0.074 A 
ATOM     60  C   UNL A   1      42.648  30.612  36.608  1.00  0.00     0.031 C 
ATOM     61  C   UNL A   1      42.995  29.091  34.678  1.00  0.00     0.034 A 
BRANCH  48  62
ATOM     62  C   UNL A   1      40.763  27.625  29.071  1.00  0.00     0.023 A 
ATOM     63  C   UNL A   1      41.699  27.804  28.037  1.00  0.00     0.031 A 
ATOM     64  C   UNL A   1      39.840  26.571  28.941  1.00  0.00     0.131 A 
ATOM     65  C   UNL A   1      41.636  27.007  26.885  1.00  0.00     0.055 A 
ATOM     66  C   UNL A   1      39.842  25.721  27.833  1.00  0.00     0.041 A 
ATOM     67  F   UNL A   1      38.907  26.358  29.881  1.00  0.00    -0.206 F 
ATOM     68  C   UNL A   1      40.731  25.948  26.787  1.00  0.00     0.022 A 
BRANCH  65  69
ATOM     69  S   UNL A   1      42.637  27.482  25.447  1.00  0.00     0.124 S 
ATOM     70  O   UNL A   1      42.564  26.275  24.626  1.00  0.00    -0.237 OA
ATOM     71  O   UNL A   1      41.921  28.646  24.937  1.00  0.00    -0.237 OA
ATOM     72  O   UNL A   1      43.951  27.758  26.020  1.00  0.00    -0.744 OA
ENDBRANCH  65  69
ENDBRANCH  48  62
BRANCH  49  73
ATOM     73  C   UNL A   1      39.668  33.578  37.059  1.00  0.00     0.023 A 
ATOM     74  C   UNL A   1      39.145  33.019  38.235  1.00  0.00     0.031 A 
ATOM     75  C   UNL A   1      39.958  34.956  37.058  1.00  0.00     0.131 A 
ATOM     76  C   UNL A   1      38.889  33.838  39.347  1.00  0.00     0.055 A 
ATOM     77  C   UNL A   1      39.755  35.755  38.184  1.00  0.00     0.041 A 
ATOM     78  F   UNL A   1      40.463  35.542  35.961  1.00  0.00    -0.206 F 
ATOM     79  C   UNL A   1      39.206  35.198  39.334  1.00  0.00     0.022 A 
BRANCH  76  80
ATOM     80  S   UNL A   1      38.056  33.115  40.788  1.00  0.00     0.124 S 
ATOM     81  O   UNL A   1      36.854  33.935  40.877  1.00  0.00    -0.237 OA
ATOM     82  O   UNL A   1      37.861  31.733  40.363  1.00  0.00    -0.237 OA
ATOM     83  O   UNL A   1      39.023  33.302  41.867  1.00  0.00    -0.744 OA
ENDBRANCH  76  80
ENDBRANCH  49  73
BRANCH  61  84
ATOM     84  C   UNL A   1      44.179  28.504  35.411  1.00  0.00     0.023 A 
ATOM     85  C   UNL A   1      44.034  27.475  36.358  1.00  0.00     0.031 A 
ATOM     86  C   UNL A   1      45.474  28.995  35.164  1.00  0.00     0.131 A 
ATOM     87  C   UNL A   1      45.155  27.010  37.063  1.00  0.00     0.055 A 
ATOM     88  C   UNL A   1      46.594  28.481  35.819  1.00  0.00     0.041 A 
ATOM     89  F   UNL A   1      45.675  29.984  34.277  1.00  0.00    -0.206 F 
ATOM     90  C   UNL A   1      46.436  27.493  36.785  1.00  0.00     0.022 A 
BRANCH  87  91
ATOM     91  S   UNL A   1      44.903  25.842  38.429  1.00  0.00     0.124 S 
ATOM     92  O   UNL A   1      46.274  25.512  38.801  1.00  0.00    -0.237 OA
ATOM     93  O   UNL A   1      44.155  26.644  39.391  1.00  0.00    -0.237 OA
ATOM     94  O   UNL A   1      44.149  24.752  37.812  1.00  0.00    -0.744 OA
ENDBRANCH  87  91
ENDBRANCH  61  84
ENDBRANCH  35  36
ENDBRANCH  27  30
ENDBRANCH  25  26
ENDBRANCH  24  25
ENDBRANCH   1  24
TORSDOF 18
ENDMDL
