MODEL 1
REMARK VINA RESULT:     -11.1      0.000      0.000
REMARK SMILES CC(C)(C)OC(=O)[C@]1(C(=O)NCCCNC(=O)c2ccc(-c3c4nc(c(-c5cc(S(=O)(=O)[O-])ccc5F)c5ccc([nH]5)c(-c5cc(S(=O)(=O)[O-])ccc5F)c5nc(c(-c6cc(S(=O)(=O)[O-])ccc6F)c6ccc3[nH]6)C=C5)C=C4)cc2)CC=CC[C@@H]1[NH3+]
REMARK SMILES IDX 13 1 12 2 11 3 9 4 10 5 8 7 81 8 85 9 82 10 84 11 83 12 6 13
REMARK SMILES IDX 7 14 5 15 2 16 1 17 3 18 4 19 86 20 14 24 15 25 16 26 17 28
REMARK SMILES IDX 18 29 19 30 80 31 20 32 79 33 21 34 22 35 23 36 73 37 24 38
REMARK SMILES IDX 78 39 72 40 74 41 25 42 77 43 71 44 70 45 26 47 58 48 38 49
REMARK SMILES IDX 57 50 39 51 42 52 56 53 75 54 40 55 41 56 55 58 76 59 43 60
REMARK SMILES IDX 27 61 28 62 36 63 29 64 35 65 37 66 34 67 30 68 31 69 32 70
REMARK SMILES IDX 33 71 59 72 60 73 68 74 61 75 67 76 69 77 66 78 62 79 63 80
REMARK SMILES IDX 64 81 65 82 44 83 45 84 53 85 46 86 52 87 54 88 51 89 47 90
REMARK SMILES IDX 48 91 49 92 50 93
REMARK H PARENT 11 6 86 21 86 22 86 23 15 27 74 46 42 57
REMARK Flexibility Score: inf
ROOT
ATOM      1  C   UNL A   1      33.575  27.921  26.046  1.00  0.00     0.042 C 
ENDROOT
BRANCH   1   2
ATOM      2  C   UNL A   1      32.470  27.102  25.383  1.00  0.00     0.117 C 
BRANCH   2   3
ATOM      3  N   UNL A   1      31.955  26.024  26.208  1.00  0.00    -0.355 N 
ATOM      4  C   UNL A   1      32.148  24.687  26.307  1.00  0.00     0.244 C 
ATOM      5  O   UNL A   1      31.575  24.197  27.297  1.00  0.00    -0.274 OA
ATOM      6  H   UNL A   1      31.296  26.348  26.863  1.00  0.00     0.163 HD
BRANCH   4   7
ATOM      7  C   UNL A   1      32.916  23.742  25.333  1.00  0.00     0.201 C 
ATOM      8  C   UNL A   1      32.608  22.334  25.963  1.00  0.00     0.062 C 
ATOM      9  C   UNL A   1      32.533  23.818  23.827  1.00  0.00     0.212 C 
ATOM     10  C   UNL A   1      32.404  21.171  25.047  1.00  0.00    -0.029 C 
ATOM     11  C   UNL A   1      32.761  22.527  23.005  1.00  0.00     0.093 C 
ATOM     12  C   UNL A   1      32.462  21.256  23.718  1.00  0.00    -0.025 C 
BRANCH   7  13
ATOM     13  C   UNL A   1      34.436  23.928  25.447  1.00  0.00     0.328 C 
ATOM     14  O   UNL A   1      34.998  25.014  25.372  1.00  0.00    -0.251 OA
BRANCH  13  15
ATOM     15  O   UNL A   1      35.082  22.749  25.650  1.00  0.00    -0.459 OA
BRANCH  15  16
ATOM     16  C   UNL A   1      36.299  22.383  24.948  1.00  0.00     0.104 C 
ATOM     17  C   UNL A   1      36.359  20.850  25.030  1.00  0.00     0.056 C 
ATOM     18  C   UNL A   1      37.485  22.977  25.712  1.00  0.00     0.056 C 
ATOM     19  C   UNL A   1      36.323  22.781  23.468  1.00  0.00     0.056 C 
ENDBRANCH  15  16
ENDBRANCH  13  15
ENDBRANCH   7  13
BRANCH   9  20
ATOM     20  N   UNL A   1      33.196  24.893  23.056  1.00  0.00    -0.353 N 
ATOM     21  H   UNL A   1      32.742  24.990  22.148  1.00  0.00     0.344 HD
ATOM     22  H   UNL A   1      34.179  24.656  22.920  1.00  0.00     0.344 HD
ATOM     23  H   UNL A   1      33.126  25.772  23.567  1.00  0.00     0.344 HD
ENDBRANCH   9  20
ENDBRANCH   4   7
ENDBRANCH   2   3
ENDBRANCH   1   2
BRANCH   1  24
ATOM     24  C   UNL A   1      33.123  28.687  27.286  1.00  0.00     0.118 C 
BRANCH  24  25
ATOM     25  N   UNL A   1      33.358  30.118  27.164  1.00  0.00    -0.352 N 
ATOM     26  C   UNL A   1      34.352  30.921  27.664  1.00  0.00     0.251 C 
ATOM     27  H   UNL A   1      32.682  30.595  26.630  1.00  0.00     0.163 HD
ATOM     28  O   UNL A   1      34.181  32.139  27.641  1.00  0.00    -0.269 OA
BRANCH  26  29
ATOM     29  C   UNL A   1      35.604  30.360  28.221  1.00  0.00     0.039 A 
ATOM     30  C   UNL A   1      36.747  30.349  27.414  1.00  0.00     0.014 A 
ATOM     31  C   UNL A   1      35.651  29.776  29.490  1.00  0.00     0.014 A 
ATOM     32  C   UNL A   1      37.937  29.797  27.892  1.00  0.00     0.010 A 
ATOM     33  C   UNL A   1      36.860  29.300  29.997  1.00  0.00     0.010 A 
ATOM     34  C   UNL A   1      38.013  29.294  29.201  1.00  0.00    -0.014 A 
BRANCH  34  35
ATOM     35  C   UNL A   1      39.291  28.762  29.742  1.00  0.00     0.031 A 
ATOM     36  C   UNL A   1      39.968  29.434  30.904  1.00  0.00     0.074 A 
ATOM     37  C   UNL A   1      39.870  27.707  29.140  1.00  0.00     0.049 A 
ATOM     38  N   UNL A   1      41.103  29.139  31.487  1.00  0.00    -0.248 NA
ATOM     39  C   UNL A   1      39.297  30.616  31.462  1.00  0.00     0.031 C 
ATOM     40  C   UNL A   1      39.339  27.014  27.963  1.00  0.00     0.029 A 
ATOM     41  N   UNL A   1      41.034  27.038  29.421  1.00  0.00    -0.354 N 
ATOM     42  C   UNL A   1      41.290  30.107  32.469  1.00  0.00     0.074 A 
ATOM     43  C   UNL A   1      40.184  31.034  32.352  1.00  0.00     0.031 C 
ATOM     44  C   UNL A   1      40.164  26.007  27.637  1.00  0.00     0.029 A 
ATOM     45  C   UNL A   1      41.299  26.006  28.554  1.00  0.00     0.049 A 
ATOM     46  H   UNL A   1      41.623  27.276  30.174  1.00  0.00     0.167 HD
ATOM     47  C   UNL A   1      42.278  30.199  33.396  1.00  0.00     0.034 A 
ATOM     48  C   UNL A   1      42.345  25.159  28.493  1.00  0.00     0.034 A 
ATOM     49  C   UNL A   1      43.371  29.258  33.493  1.00  0.00     0.049 A 
ATOM     50  C   UNL A   1      43.429  25.271  29.529  1.00  0.00     0.074 A 
ATOM     51  C   UNL A   1      44.384  29.204  34.434  1.00  0.00     0.029 A 
ATOM     52  N   UNL A   1      43.604  28.214  32.604  1.00  0.00    -0.354 N 
ATOM     53  N   UNL A   1      43.553  26.142  30.504  1.00  0.00    -0.248 NA
ATOM     54  C   UNL A   1      44.505  24.276  29.466  1.00  0.00     0.031 C 
ATOM     55  C   UNL A   1      45.267  28.178  34.072  1.00  0.00     0.029 A 
ATOM     56  C   UNL A   1      44.765  27.538  32.950  1.00  0.00     0.049 A 
ATOM     57  H   UNL A   1      43.028  27.987  31.839  1.00  0.00     0.167 HD
ATOM     58  C   UNL A   1      44.717  25.792  31.181  1.00  0.00     0.074 A 
ATOM     59  C   UNL A   1      45.241  24.614  30.515  1.00  0.00     0.031 C 
ATOM     60  C   UNL A   1      45.300  26.387  32.254  1.00  0.00     0.034 A 
BRANCH  47  61
ATOM     61  C   UNL A   1      42.228  31.377  34.345  1.00  0.00     0.023 A 
ATOM     62  C   UNL A   1      41.351  31.404  35.446  1.00  0.00     0.031 A 
ATOM     63  C   UNL A   1      43.019  32.517  34.114  1.00  0.00     0.131 A 
ATOM     64  C   UNL A   1      41.207  32.578  36.202  1.00  0.00     0.055 A 
ATOM     65  C   UNL A   1      42.941  33.648  34.931  1.00  0.00     0.041 A 
ATOM     66  F   UNL A   1      43.863  32.564  33.072  1.00  0.00    -0.206 F 
ATOM     67  C   UNL A   1      42.014  33.692  35.969  1.00  0.00     0.022 A 
BRANCH  64  68
ATOM     68  S   UNL A   1      39.818  32.689  37.365  1.00  0.00     0.124 S 
ATOM     69  O   UNL A   1      40.506  32.639  38.653  1.00  0.00    -0.237 OA
ATOM     70  O   UNL A   1      39.214  33.968  37.011  1.00  0.00    -0.237 OA
ATOM     71  O   UNL A   1      39.013  31.509  37.052  1.00  0.00    -0.744 OA
ENDBRANCH  64  68
ENDBRANCH  47  61
BRANCH  48  72
ATOM     72  C   UNL A   1      42.410  24.143  27.407  1.00  0.00     0.023 A 
ATOM     73  C   UNL A   1      41.775  22.899  27.536  1.00  0.00     0.031 A 
ATOM     74  C   UNL A   1      43.098  24.416  26.210  1.00  0.00     0.131 A 
ATOM     75  C   UNL A   1      41.858  21.963  26.493  1.00  0.00     0.055 A 
ATOM     76  C   UNL A   1      43.143  23.499  25.161  1.00  0.00     0.041 A 
ATOM     77  F   UNL A   1      43.708  25.599  26.035  1.00  0.00    -0.206 F 
ATOM     78  C   UNL A   1      42.526  22.260  25.301  1.00  0.00     0.022 A 
BRANCH  75  79
ATOM     79  S   UNL A   1      41.106  20.329  26.727  1.00  0.00     0.124 S 
ATOM     80  O   UNL A   1      40.914  20.294  28.172  1.00  0.00    -0.237 OA
ATOM     81  O   UNL A   1      39.894  20.435  25.920  1.00  0.00    -0.237 OA
ATOM     82  O   UNL A   1      42.117  19.411  26.207  1.00  0.00    -0.744 OA
ENDBRANCH  75  79
ENDBRANCH  48  72
BRANCH  60  83
ATOM     83  C   UNL A   1      46.570  25.756  32.773  1.00  0.00     0.023 A 
ATOM     84  C   UNL A   1      47.800  25.926  32.111  1.00  0.00     0.031 A 
ATOM     85  C   UNL A   1      46.546  24.949  33.923  1.00  0.00     0.131 A 
ATOM     86  C   UNL A   1      48.938  25.243  32.565  1.00  0.00     0.055 A 
ATOM     87  C   UNL A   1      47.695  24.325  34.408  1.00  0.00     0.041 A 
ATOM     88  F   UNL A   1      45.399  24.746  34.592  1.00  0.00    -0.206 F 
ATOM     89  C   UNL A   1      48.898  24.458  33.720  1.00  0.00     0.022 A 
BRANCH  86  90
ATOM     90  S   UNL A   1      50.447  25.304  31.560  1.00  0.00     0.124 S 
ATOM     91  O   UNL A   1      49.925  25.691  30.253  1.00  0.00    -0.237 OA
ATOM     92  O   UNL A   1      51.243  26.312  32.252  1.00  0.00    -0.237 OA
ATOM     93  O   UNL A   1      50.968  23.941  31.640  1.00  0.00    -0.744 OA
ENDBRANCH  86  90
ENDBRANCH  60  83
ENDBRANCH  34  35
ENDBRANCH  26  29
ENDBRANCH  24  25
ENDBRANCH   1  24
TORSDOF 17
ENDMDL
MODEL 2
REMARK VINA RESULT:     -11.0      4.268      9.332
REMARK SMILES CC(C)(C)OC(=O)[C@]1(C(=O)NCCCNC(=O)c2ccc(-c3c4nc(c(-c5cc(S(=O)(=O)[O-])ccc5F)c5ccc([nH]5)c(-c5cc(S(=O)(=O)[O-])ccc5F)c5nc(c(-c6cc(S(=O)(=O)[O-])ccc6F)c6ccc3[nH]6)C=C5)C=C4)cc2)CC=CC[C@@H]1[NH3+]
REMARK SMILES IDX 13 1 12 2 11 3 9 4 10 5 8 7 81 8 85 9 82 10 84 11 83 12 6 13
REMARK SMILES IDX 7 14 5 15 2 16 1 17 3 18 4 19 86 20 14 24 15 25 16 26 17 28
REMARK SMILES IDX 18 29 19 30 80 31 20 32 79 33 21 34 22 35 23 36 73 37 24 38
REMARK SMILES IDX 78 39 72 40 74 41 25 42 77 43 71 44 70 45 26 47 58 48 38 49
REMARK SMILES IDX 57 50 39 51 42 52 56 53 75 54 40 55 41 56 55 58 76 59 43 60
REMARK SMILES IDX 27 61 28 62 36 63 29 64 35 65 37 66 34 67 30 68 31 69 32 70
REMARK SMILES IDX 33 71 59 72 60 73 68 74 61 75 67 76 69 77 66 78 62 79 63 80
REMARK SMILES IDX 64 81 65 82 44 83 45 84 53 85 46 86 52 87 54 88 51 89 47 90
REMARK SMILES IDX 48 91 49 92 50 93
REMARK H PARENT 11 6 86 21 86 22 86 23 15 27 74 46 42 57
REMARK Flexibility Score: inf
ROOT
ATOM      1  C   UNL A   1      34.994  21.660  26.657  1.00  0.00     0.042 C 
ENDROOT
BRANCH   1   2
ATOM      2  C   UNL A   1      33.625  21.569  25.987  1.00  0.00     0.117 C 
BRANCH   2   3
ATOM      3  N   UNL A   1      32.559  22.219  26.728  1.00  0.00    -0.355 N 
ATOM      4  C   UNL A   1      31.825  23.351  26.603  1.00  0.00     0.244 C 
ATOM      5  O   UNL A   1      30.896  23.408  27.429  1.00  0.00    -0.274 OA
ATOM      6  H   UNL A   1      32.303  21.704  27.527  1.00  0.00     0.163 HD
BRANCH   4   7
ATOM      7  C   UNL A   1      32.050  24.550  25.632  1.00  0.00     0.201 C 
ATOM      8  C   UNL A   1      33.604  24.760  25.756  1.00  0.00     0.062 C 
ATOM      9  C   UNL A   1      31.590  24.361  24.158  1.00  0.00     0.212 C 
ATOM     10  C   UNL A   1      34.371  25.158  24.537  1.00  0.00    -0.029 C 
ATOM     11  C   UNL A   1      32.355  25.191  23.099  1.00  0.00     0.093 C 
ATOM     12  C   UNL A   1      33.815  25.344  23.340  1.00  0.00    -0.025 C 
BRANCH   7  13
ATOM     13  C   UNL A   1      31.410  25.839  26.169  1.00  0.00     0.328 C 
ATOM     14  O   UNL A   1      30.202  26.004  26.281  1.00  0.00    -0.251 OA
BRANCH  13  15
ATOM     15  O   UNL A   1      32.341  26.768  26.513  1.00  0.00    -0.459 OA
BRANCH  15  16
ATOM     16  C   UNL A   1      32.274  28.152  26.080  1.00  0.00     0.104 C 
ATOM     17  C   UNL A   1      33.728  28.541  25.766  1.00  0.00     0.056 C 
ATOM     18  C   UNL A   1      31.768  28.993  27.253  1.00  0.00     0.056 C 
ATOM     19  C   UNL A   1      31.438  28.383  24.816  1.00  0.00     0.056 C 
ENDBRANCH  15  16
ENDBRANCH  13  15
ENDBRANCH   7  13
BRANCH   9  20
ATOM     20  N   UNL A   1      30.157  24.626  23.900  1.00  0.00    -0.353 N 
ATOM     21  H   UNL A   1      29.647  24.623  24.783  1.00  0.00     0.344 HD
ATOM     22  H   UNL A   1      29.782  23.900  23.289  1.00  0.00     0.344 HD
ATOM     23  H   UNL A   1      30.055  25.535  23.451  1.00  0.00     0.344 HD
ENDBRANCH   9  20
ENDBRANCH   4   7
ENDBRANCH   2   3
ENDBRANCH   1   2
BRANCH   1  24
ATOM     24  C   UNL A   1      36.144  21.920  25.689  1.00  0.00     0.118 C 
BRANCH  24  25
ATOM     25  N   UNL A   1      37.202  20.928  25.812  1.00  0.00    -0.352 N 
ATOM     26  C   UNL A   1      38.561  21.061  25.947  1.00  0.00     0.251 C 
ATOM     27  H   UNL A   1      36.887  19.996  25.795  1.00  0.00     0.163 HD
ATOM     28  O   UNL A   1      39.262  20.067  25.766  1.00  0.00    -0.269 OA
BRANCH  26  29
ATOM     29  C   UNL A   1      39.189  22.355  26.299  1.00  0.00     0.039 A 
ATOM     30  C   UNL A   1      40.248  22.355  27.213  1.00  0.00     0.014 A 
ATOM     31  C   UNL A   1      38.702  23.570  25.808  1.00  0.00     0.014 A 
ATOM     32  C   UNL A   1      40.843  23.560  27.595  1.00  0.00     0.010 A 
ATOM     33  C   UNL A   1      39.350  24.764  26.126  1.00  0.00     0.010 A 
ATOM     34  C   UNL A   1      40.419  24.774  27.032  1.00  0.00    -0.014 A 
BRANCH  34  35
ATOM     35  C   UNL A   1      41.086  26.054  27.384  1.00  0.00     0.031 A 
ATOM     36  C   UNL A   1      42.512  26.311  26.978  1.00  0.00     0.074 A 
ATOM     37  C   UNL A   1      40.421  26.959  28.126  1.00  0.00     0.049 A 
ATOM     38  N   UNL A   1      43.271  27.347  27.228  1.00  0.00    -0.248 NA
ATOM     39  C   UNL A   1      43.181  25.244  26.223  1.00  0.00     0.031 C 
ATOM     40  C   UNL A   1      39.057  26.791  28.634  1.00  0.00     0.029 A 
ATOM     41  N   UNL A   1      40.800  28.191  28.594  1.00  0.00    -0.354 N 
ATOM     42  C   UNL A   1      44.512  27.052  26.674  1.00  0.00     0.074 A 
ATOM     43  C   UNL A   1      44.418  25.710  26.138  1.00  0.00     0.031 C 
ATOM     44  C   UNL A   1      38.708  27.887  29.324  1.00  0.00     0.029 A 
ATOM     45  C   UNL A   1      39.832  28.817  29.342  1.00  0.00     0.049 A 
ATOM     46  H   UNL A   1      41.682  28.589  28.410  1.00  0.00     0.167 HD
ATOM     47  C   UNL A   1      45.619  27.836  26.598  1.00  0.00     0.034 A 
ATOM     48  C   UNL A   1      39.849  30.002  29.982  1.00  0.00     0.034 A 
ATOM     49  C   UNL A   1      45.687  29.175  27.138  1.00  0.00     0.049 A 
ATOM     50  C   UNL A   1      41.079  30.861  29.885  1.00  0.00     0.074 A 
ATOM     51  C   UNL A   1      46.722  30.089  27.055  1.00  0.00     0.029 A 
ATOM     52  N   UNL A   1      44.682  29.785  27.882  1.00  0.00    -0.354 N 
ATOM     53  N   UNL A   1      42.221  30.604  29.288  1.00  0.00    -0.248 NA
ATOM     54  C   UNL A   1      41.018  32.175  30.533  1.00  0.00     0.031 C 
ATOM     55  C   UNL A   1      46.374  31.218  27.808  1.00  0.00     0.029 A 
ATOM     56  C   UNL A   1      45.089  31.045  28.297  1.00  0.00     0.049 A 
ATOM     57  H   UNL A   1      43.807  29.381  28.084  1.00  0.00     0.167 HD
ATOM     58  C   UNL A   1      43.012  31.732  29.479  1.00  0.00     0.074 A 
ATOM     59  C   UNL A   1      42.204  32.679  30.224  1.00  0.00     0.031 C 
ATOM     60  C   UNL A   1      44.288  31.965  29.075  1.00  0.00     0.034 A 
BRANCH  47  61
ATOM     61  C   UNL A   1      46.843  27.241  25.935  1.00  0.00     0.023 A 
ATOM     62  C   UNL A   1      47.824  26.553  26.673  1.00  0.00     0.031 A 
ATOM     63  C   UNL A   1      47.069  27.418  24.558  1.00  0.00     0.131 A 
ATOM     64  C   UNL A   1      49.026  26.166  26.059  1.00  0.00     0.055 A 
ATOM     65  C   UNL A   1      48.225  26.944  23.932  1.00  0.00     0.041 A 
ATOM     66  F   UNL A   1      46.182  28.081  23.799  1.00  0.00    -0.206 F 
ATOM     67  C   UNL A   1      49.223  26.334  24.687  1.00  0.00     0.022 A 
BRANCH  64  68
ATOM     68  S   UNL A   1      50.397  25.620  27.113  1.00  0.00     0.124 S 
ATOM     69  O   UNL A   1      49.885  24.353  27.631  1.00  0.00    -0.237 OA
ATOM     70  O   UNL A   1      51.503  25.526  26.168  1.00  0.00    -0.237 OA
ATOM     71  O   UNL A   1      50.512  26.687  28.107  1.00  0.00    -0.744 OA
ENDBRANCH  64  68
ENDBRANCH  47  61
BRANCH  48  72
ATOM     72  C   UNL A   1      38.662  30.432  30.772  1.00  0.00     0.023 A 
ATOM     73  C   UNL A   1      37.626  31.172  30.184  1.00  0.00     0.031 A 
ATOM     74  C   UNL A   1      38.542  30.085  32.130  1.00  0.00     0.131 A 
ATOM     75  C   UNL A   1      36.522  31.563  30.959  1.00  0.00     0.055 A 
ATOM     76  C   UNL A   1      37.425  30.440  32.885  1.00  0.00     0.041 A 
ATOM     77  F   UNL A   1      39.501  29.365  32.733  1.00  0.00    -0.206 F 
ATOM     78  C   UNL A   1      36.409  31.190  32.301  1.00  0.00     0.022 A 
BRANCH  75  79
ATOM     79  S   UNL A   1      35.245  32.599  30.195  1.00  0.00     0.124 S 
ATOM     80  O   UNL A   1      34.278  32.728  31.279  1.00  0.00    -0.237 OA
ATOM     81  O   UNL A   1      35.994  33.804  29.855  1.00  0.00    -0.237 OA
ATOM     82  O   UNL A   1      34.800  31.803  29.053  1.00  0.00    -0.744 OA
ENDBRANCH  75  79
ENDBRANCH  48  72
BRANCH  60  83
ATOM     83  C   UNL A   1      44.877  33.310  29.431  1.00  0.00     0.023 A 
ATOM     84  C   UNL A   1      44.742  34.421  28.578  1.00  0.00     0.031 A 
ATOM     85  C   UNL A   1      45.610  33.475  30.618  1.00  0.00     0.131 A 
ATOM     86  C   UNL A   1      45.387  35.627  28.892  1.00  0.00     0.055 A 
ATOM     87  C   UNL A   1      46.194  34.696  30.958  1.00  0.00     0.041 A 
ATOM     88  F   UNL A   1      45.777  32.449  31.468  1.00  0.00    -0.206 F 
ATOM     89  C   UNL A   1      46.098  35.777  30.086  1.00  0.00     0.022 A 
BRANCH  86  90
ATOM     90  S   UNL A   1      45.380  36.962  27.665  1.00  0.00     0.124 S 
ATOM     91  O   UNL A   1      45.957  38.070  28.420  1.00  0.00    -0.237 OA
ATOM     92  O   UNL A   1      46.214  36.413  26.601  1.00  0.00    -0.237 OA
ATOM     93  O   UNL A   1      43.965  37.112  27.329  1.00  0.00    -0.744 OA
ENDBRANCH  86  90
ENDBRANCH  60  83
ENDBRANCH  34  35
ENDBRANCH  26  29
ENDBRANCH  24  25
ENDBRANCH   1  24
TORSDOF 17
ENDMDL
MODEL 3
REMARK VINA RESULT:     -10.9      2.600      8.024
REMARK SMILES CC(C)(C)OC(=O)[C@]1(C(=O)NCCCNC(=O)c2ccc(-c3c4nc(c(-c5cc(S(=O)(=O)[O-])ccc5F)c5ccc([nH]5)c(-c5cc(S(=O)(=O)[O-])ccc5F)c5nc(c(-c6cc(S(=O)(=O)[O-])ccc6F)c6ccc3[nH]6)C=C5)C=C4)cc2)CC=CC[C@@H]1[NH3+]
REMARK SMILES IDX 13 1 12 2 11 3 9 4 10 5 8 7 81 8 85 9 82 10 84 11 83 12 6 13
REMARK SMILES IDX 7 14 5 15 2 16 1 17 3 18 4 19 86 20 14 24 15 25 16 26 17 28
REMARK SMILES IDX 18 29 19 30 80 31 20 32 79 33 21 34 22 35 23 36 73 37 24 38
REMARK SMILES IDX 78 39 72 40 74 41 25 42 77 43 71 44 70 45 26 47 58 48 38 49
REMARK SMILES IDX 57 50 39 51 42 52 56 53 75 54 40 55 41 56 55 58 76 59 43 60
REMARK SMILES IDX 27 61 28 62 36 63 29 64 35 65 37 66 34 67 30 68 31 69 32 70
REMARK SMILES IDX 33 71 59 72 60 73 68 74 61 75 67 76 69 77 66 78 62 79 63 80
REMARK SMILES IDX 64 81 65 82 44 83 45 84 53 85 46 86 52 87 54 88 51 89 47 90
REMARK SMILES IDX 48 91 49 92 50 93
REMARK H PARENT 11 6 86 21 86 22 86 23 15 27 74 46 42 57
REMARK Flexibility Score: inf
ROOT
ATOM      1  C   UNL A   1      31.634  28.358  25.842  1.00  0.00     0.042 C 
ENDROOT
BRANCH   1   2
ATOM      2  C   UNL A   1      31.789  26.976  25.212  1.00  0.00     0.117 C 
BRANCH   2   3
ATOM      3  N   UNL A   1      31.393  25.882  26.081  1.00  0.00    -0.355 N 
ATOM      4  C   UNL A   1      31.745  24.584  26.247  1.00  0.00     0.244 C 
ATOM      5  O   UNL A   1      31.216  24.074  27.251  1.00  0.00    -0.274 OA
ATOM      6  H   UNL A   1      30.687  26.153  26.711  1.00  0.00     0.163 HD
BRANCH   4   7
ATOM      7  C   UNL A   1      32.640  23.697  25.329  1.00  0.00     0.201 C 
ATOM      8  C   UNL A   1      32.556  22.309  26.066  1.00  0.00     0.062 C 
ATOM      9  C   UNL A   1      32.237  23.600  23.830  1.00  0.00     0.212 C 
ATOM     10  C   UNL A   1      32.525  21.063  25.242  1.00  0.00    -0.029 C 
ATOM     11  C   UNL A   1      32.653  22.300  23.100  1.00  0.00     0.093 C 
ATOM     12  C   UNL A   1      32.559  21.056  23.910  1.00  0.00    -0.025 C 
BRANCH   7  13
ATOM     13  C   UNL A   1      34.114  24.120  25.399  1.00  0.00     0.328 C 
ATOM     14  O   UNL A   1      34.515  25.244  25.123  1.00  0.00    -0.251 OA
BRANCH  13  15
ATOM     15  O   UNL A   1      34.919  23.104  25.813  1.00  0.00    -0.459 OA
BRANCH  15  16
ATOM     16  C   UNL A   1      36.124  22.713  25.105  1.00  0.00     0.104 C 
ATOM     17  C   UNL A   1      36.251  21.200  25.343  1.00  0.00     0.056 C 
ATOM     18  C   UNL A   1      37.311  23.428  25.753  1.00  0.00     0.056 C 
ATOM     19  C   UNL A   1      36.078  22.952  23.591  1.00  0.00     0.056 C 
ENDBRANCH  15  16
ENDBRANCH  13  15
ENDBRANCH   7  13
BRANCH   9  20
ATOM     20  N   UNL A   1      32.721  24.702  22.969  1.00  0.00    -0.353 N 
ATOM     21  H   UNL A   1      33.413  24.341  22.312  1.00  0.00     0.344 HD
ATOM     22  H   UNL A   1      33.148  25.424  23.549  1.00  0.00     0.344 HD
ATOM     23  H   UNL A   1      31.938  25.100  22.452  1.00  0.00     0.344 HD
ENDBRANCH   9  20
ENDBRANCH   4   7
ENDBRANCH   2   3
ENDBRANCH   1   2
BRANCH   1  24
ATOM     24  C   UNL A   1      32.712  29.354  25.428  1.00  0.00     0.118 C 
BRANCH  24  25
ATOM     25  N   UNL A   1      32.397  30.713  25.847  1.00  0.00    -0.352 N 
ATOM     26  C   UNL A   1      32.869  31.475  26.886  1.00  0.00     0.251 C 
ATOM     27  H   UNL A   1      31.725  31.163  25.287  1.00  0.00     0.163 HD
ATOM     28  O   UNL A   1      32.251  32.496  27.184  1.00  0.00    -0.269 OA
BRANCH  26  29
ATOM     29  C   UNL A   1      34.086  31.099  27.642  1.00  0.00     0.039 A 
ATOM     30  C   UNL A   1      35.025  32.095  27.930  1.00  0.00     0.014 A 
ATOM     31  C   UNL A   1      34.353  29.775  28.001  1.00  0.00     0.014 A 
ATOM     32  C   UNL A   1      36.201  31.772  28.612  1.00  0.00     0.010 A 
ATOM     33  C   UNL A   1      35.486  29.468  28.753  1.00  0.00     0.010 A 
ATOM     34  C   UNL A   1      36.429  30.460  29.056  1.00  0.00    -0.014 A 
BRANCH  34  35
ATOM     35  C   UNL A   1      37.646  30.118  29.837  1.00  0.00     0.031 A 
ATOM     36  C   UNL A   1      38.686  29.192  29.268  1.00  0.00     0.074 A 
ATOM     37  C   UNL A   1      37.780  30.599  31.087  1.00  0.00     0.049 A 
ATOM     38  N   UNL A   1      39.790  28.750  29.813  1.00  0.00    -0.248 NA
ATOM     39  C   UNL A   1      38.429  28.667  27.920  1.00  0.00     0.031 C 
ATOM     40  C   UNL A   1      36.805  31.452  31.770  1.00  0.00     0.029 A 
ATOM     41  N   UNL A   1      38.778  30.431  32.012  1.00  0.00    -0.354 N 
ATOM     42  C   UNL A   1      40.354  27.882  28.883  1.00  0.00     0.074 A 
ATOM     43  C   UNL A   1      39.430  27.812  27.770  1.00  0.00     0.031 C 
ATOM     44  C   UNL A   1      37.262  31.749  32.995  1.00  0.00     0.029 A 
ATOM     45  C   UNL A   1      38.541  31.078  33.201  1.00  0.00     0.049 A 
ATOM     46  H   UNL A   1      39.588  29.897  31.840  1.00  0.00     0.167 HD
ATOM     47  C   UNL A   1      41.541  27.225  28.941  1.00  0.00     0.034 A 
ATOM     48  C   UNL A   1      39.266  31.118  34.336  1.00  0.00     0.034 A 
ATOM     49  C   UNL A   1      42.448  27.315  30.063  1.00  0.00     0.049 A 
ATOM     50  C   UNL A   1      40.580  30.389  34.385  1.00  0.00     0.074 A 
ATOM     51  C   UNL A   1      43.708  26.760  30.203  1.00  0.00     0.029 A 
ATOM     52  N   UNL A   1      42.182  27.990  31.250  1.00  0.00    -0.354 N 
ATOM     53  N   UNL A   1      41.141  29.637  33.466  1.00  0.00    -0.248 NA
ATOM     54  C   UNL A   1      41.366  30.529  35.615  1.00  0.00     0.031 C 
ATOM     55  C   UNL A   1      44.170  27.036  31.496  1.00  0.00     0.029 A 
ATOM     56  C   UNL A   1      43.235  27.831  32.140  1.00  0.00     0.049 A 
ATOM     57  H   UNL A   1      41.364  28.507  31.432  1.00  0.00     0.167 HD
ATOM     58  C   UNL A   1      42.355  29.222  34.004  1.00  0.00     0.074 A 
ATOM     59  C   UNL A   1      42.452  29.832  35.316  1.00  0.00     0.031 C 
ATOM     60  C   UNL A   1      43.302  28.412  33.463  1.00  0.00     0.034 A 
BRANCH  47  61
ATOM     61  C   UNL A   1      41.896  26.333  27.771  1.00  0.00     0.023 A 
ATOM     62  C   UNL A   1      41.579  24.962  27.761  1.00  0.00     0.031 A 
ATOM     63  C   UNL A   1      42.617  26.843  26.676  1.00  0.00     0.131 A 
ATOM     64  C   UNL A   1      42.073  24.132  26.742  1.00  0.00     0.055 A 
ATOM     65  C   UNL A   1      43.023  26.029  25.615  1.00  0.00     0.041 A 
ATOM     66  F   UNL A   1      42.967  28.138  26.629  1.00  0.00    -0.206 F 
ATOM     67  C   UNL A   1      42.771  24.660  25.655  1.00  0.00     0.022 A 
BRANCH  64  68
ATOM     68  S   UNL A   1      41.956  22.335  26.961  1.00  0.00     0.124 S 
ATOM     69  O   UNL A   1      43.255  21.891  26.461  1.00  0.00    -0.237 OA
ATOM     70  O   UNL A   1      41.744  22.206  28.398  1.00  0.00    -0.237 OA
ATOM     71  O   UNL A   1      40.817  21.961  26.125  1.00  0.00    -0.744 OA
ENDBRANCH  64  68
ENDBRANCH  47  61
BRANCH  48  72
ATOM     72  C   UNL A   1      38.751  31.870  35.514  1.00  0.00     0.023 A 
ATOM     73  C   UNL A   1      38.153  31.207  36.596  1.00  0.00     0.031 A 
ATOM     74  C   UNL A   1      38.875  33.270  35.579  1.00  0.00     0.131 A 
ATOM     75  C   UNL A   1      37.677  31.948  37.690  1.00  0.00     0.055 A 
ATOM     76  C   UNL A   1      38.438  33.997  36.686  1.00  0.00     0.041 A 
ATOM     77  F   UNL A   1      39.455  33.947  34.575  1.00  0.00    -0.206 F 
ATOM     78  C   UNL A   1      37.828  33.336  37.748  1.00  0.00     0.022 A 
BRANCH  75  79
ATOM     79  S   UNL A   1      36.824  31.072  39.029  1.00  0.00     0.124 S 
ATOM     80  O   UNL A   1      37.778  31.202  40.125  1.00  0.00    -0.237 OA
ATOM     81  O   UNL A   1      35.590  31.841  39.157  1.00  0.00    -0.237 OA
ATOM     82  O   UNL A   1      36.659  29.720  38.501  1.00  0.00    -0.744 OA
ENDBRANCH  75  79
ENDBRANCH  48  72
BRANCH  60  83
ATOM     83  C   UNL A   1      44.532  28.154  34.301  1.00  0.00     0.023 A 
ATOM     84  C   UNL A   1      44.598  27.070  35.197  1.00  0.00     0.031 A 
ATOM     85  C   UNL A   1      45.637  29.020  34.231  1.00  0.00     0.131 A 
ATOM     86  C   UNL A   1      45.716  26.921  36.032  1.00  0.00     0.055 A 
ATOM     87  C   UNL A   1      46.774  28.827  35.016  1.00  0.00     0.041 A 
ATOM     88  F   UNL A   1      45.628  30.074  33.399  1.00  0.00    -0.206 F 
ATOM     89  C   UNL A   1      46.812  27.781  35.935  1.00  0.00     0.022 A 
BRANCH  86  90
ATOM     90  S   UNL A   1      45.670  25.651  37.327  1.00  0.00     0.124 S 
ATOM     91  O   UNL A   1      44.546  26.095  38.145  1.00  0.00    -0.237 OA
ATOM     92  O   UNL A   1      45.456  24.429  36.559  1.00  0.00    -0.237 OA
ATOM     93  O   UNL A   1      46.981  25.762  37.963  1.00  0.00    -0.744 OA
ENDBRANCH  86  90
ENDBRANCH  60  83
ENDBRANCH  34  35
ENDBRANCH  26  29
ENDBRANCH  24  25
ENDBRANCH   1  24
TORSDOF 17
ENDMDL
