MODEL 1
REMARK VINA RESULT:     -10.5      0.000      0.000
REMARK SMILES Cc1noc(C)c1C[NH2+][C@H](C)[C@H](C)C(=O)NCCCNC(=O)c1ccc(-c2c3nc(c(-c4cc(S(=O)(=O)[O-])ccc4F)c4ccc([nH]4)c(-c4cc(S(=O)(=O)[O-])ccc4F)c4nc(c(-c5cc(S(=O)(=O)[O-])ccc5F)c5ccc2[nH]5)C=C4)C=C3)cc1
REMARK SMILES IDX 17 1 16 2 14 3 15 4 12 6 13 7 10 8 11 9 9 10 8 13 7 14 1 15
REMARK SMILES IDX 2 16 3 17 4 18 5 19 6 20 18 21 19 22 20 23 21 24 22 26 23 27
REMARK SMILES IDX 24 28 85 29 25 30 84 31 26 32 27 33 28 34 78 35 29 36 83 37
REMARK SMILES IDX 77 38 79 39 30 40 82 41 76 42 75 43 31 45 63 46 43 47 62 48
REMARK SMILES IDX 44 49 47 50 61 51 80 52 45 53 46 54 60 56 81 57 48 58 32 59
REMARK SMILES IDX 33 60 41 61 34 62 40 63 42 64 39 65 35 66 36 67 37 68 38 69
REMARK SMILES IDX 64 70 65 71 73 72 66 73 72 74 74 75 71 76 67 77 68 78 69 79
REMARK SMILES IDX 70 80 49 81 50 82 58 83 51 84 57 85 59 86 56 87 52 88 53 89
REMARK SMILES IDX 54 90 55 91
REMARK H PARENT 16 5 9 11 9 12 20 25 79 44 47 55
REMARK Flexibility Score: inf
ROOT
ATOM      1  C   UNL A   1      31.718  28.177  26.576  1.00  0.00     0.117 C 
ENDROOT
BRANCH   1   2
ATOM      2  N   UNL A   1      31.251  26.833  26.867  1.00  0.00    -0.356 N 
ATOM      3  C   UNL A   1      31.491  25.655  26.237  1.00  0.00     0.228 C 
ATOM      4  O   UNL A   1      30.938  24.643  26.676  1.00  0.00    -0.275 OA
ATOM      5  H   UNL A   1      30.662  26.766  27.652  1.00  0.00     0.163 HD
BRANCH   3   6
ATOM      6  C   UNL A   1      32.434  25.568  25.045  1.00  0.00     0.133 C 
ATOM      7  C   UNL A   1      33.887  25.425  25.509  1.00  0.00     0.024 C 
BRANCH   6   8
ATOM      8  C   UNL A   1      31.953  24.499  24.031  1.00  0.00     0.191 C 
ATOM      9  C   UNL A   1      32.556  24.733  22.639  1.00  0.00     0.076 C 
BRANCH   8  10
ATOM     10  N   UNL A   1      32.285  23.125  24.442  1.00  0.00    -0.339 N 
ATOM     11  H   UNL A   1      32.794  23.156  25.326  1.00  0.00     0.346 HD
ATOM     12  H   UNL A   1      31.417  22.599  24.546  1.00  0.00     0.346 HD
BRANCH  10  13
ATOM     13  C   UNL A   1      33.114  22.458  23.438  1.00  0.00     0.303 C 
BRANCH  13  14
ATOM     14  C   UNL A   1      34.204  21.732  24.127  1.00  0.00     0.071 A 
ATOM     15  C   UNL A   1      36.258  23.235  23.553  1.00  0.00     0.071 C 
ATOM     16  C   UNL A   1      35.586  22.066  24.168  1.00  0.00     0.090 A 
ATOM     17  N   UNL A   1      36.290  21.159  24.857  1.00  0.00    -0.085 NA
ATOM     18  O   UNL A   1      35.374  20.210  25.272  1.00  0.00    -0.361 OA
ATOM     19  C   UNL A   1      34.135  20.550  24.831  1.00  0.00     0.142 A 
ATOM     20  C   UNL A   1      33.038  19.620  25.165  1.00  0.00     0.091 C 
ENDBRANCH  13  14
ENDBRANCH  10  13
ENDBRANCH   8  10
ENDBRANCH   6   8
ENDBRANCH   3   6
ENDBRANCH   1   2
BRANCH   1  21
ATOM     21  C   UNL A   1      32.941  28.548  27.392  1.00  0.00     0.042 C 
BRANCH  21  22
ATOM     22  C   UNL A   1      33.928  29.419  26.635  1.00  0.00     0.118 C 
BRANCH  22  23
ATOM     23  N   UNL A   1      33.788  30.833  26.962  1.00  0.00    -0.352 N 
ATOM     24  C   UNL A   1      34.490  31.601  27.857  1.00  0.00     0.251 C 
ATOM     25  H   UNL A   1      33.083  31.308  26.466  1.00  0.00     0.163 HD
ATOM     26  O   UNL A   1      34.070  32.719  28.149  1.00  0.00    -0.269 OA
BRANCH  24  27
ATOM     27  C   UNL A   1      35.721  31.073  28.481  1.00  0.00     0.039 A 
ATOM     28  C   UNL A   1      35.630  29.985  29.352  1.00  0.00     0.014 A 
ATOM     29  C   UNL A   1      36.965  31.643  28.203  1.00  0.00     0.014 A 
ATOM     30  C   UNL A   1      36.796  29.427  29.883  1.00  0.00     0.010 A 
ATOM     31  C   UNL A   1      38.127  31.021  28.642  1.00  0.00     0.010 A 
ATOM     32  C   UNL A   1      38.057  29.913  29.497  1.00  0.00    -0.014 A 
BRANCH  32  33
ATOM     33  C   UNL A   1      39.312  29.291  29.994  1.00  0.00     0.031 A 
ATOM     34  C   UNL A   1      39.999  29.853  31.210  1.00  0.00     0.074 A 
ATOM     35  C   UNL A   1      39.860  28.261  29.317  1.00  0.00     0.049 A 
ATOM     36  N   UNL A   1      41.131  29.495  31.761  1.00  0.00    -0.248 NA
ATOM     37  C   UNL A   1      39.344  30.988  31.876  1.00  0.00     0.031 C 
ATOM     38  C   UNL A   1      39.309  27.658  28.102  1.00  0.00     0.029 A 
ATOM     39  N   UNL A   1      41.004  27.540  29.553  1.00  0.00    -0.354 N 
ATOM     40  C   UNL A   1      41.329  30.370  32.824  1.00  0.00     0.074 A 
ATOM     41  C   UNL A   1      40.236  31.317  32.796  1.00  0.00     0.031 C 
ATOM     42  C   UNL A   1      40.091  26.635  27.723  1.00  0.00     0.029 A 
ATOM     43  C   UNL A   1      41.229  26.542  28.632  1.00  0.00     0.049 A 
ATOM     44  H   UNL A   1      41.607  27.718  30.310  1.00  0.00     0.167 HD
ATOM     45  C   UNL A   1      42.317  30.368  33.753  1.00  0.00     0.034 A 
ATOM     46  C   UNL A   1      42.244  25.660  28.524  1.00  0.00     0.034 A 
ATOM     47  C   UNL A   1      43.390  29.404  33.774  1.00  0.00     0.049 A 
ATOM     48  C   UNL A   1      43.347  25.697  29.553  1.00  0.00     0.074 A 
ATOM     49  C   UNL A   1      44.409  29.270  34.701  1.00  0.00     0.029 A 
ATOM     50  N   UNL A   1      43.591  28.415  32.819  1.00  0.00    -0.354 N 
ATOM     51  N   UNL A   1      43.487  26.496  30.587  1.00  0.00    -0.248 NA
ATOM     52  C   UNL A   1      44.420  24.707  29.407  1.00  0.00     0.031 C 
ATOM     53  C   UNL A   1      45.268  28.258  34.264  1.00  0.00     0.029 A 
ATOM     54  C   UNL A   1      44.738  27.694  33.115  1.00  0.00     0.049 A 
ATOM     55  H   UNL A   1      43.005  28.250  32.045  1.00  0.00     0.167 HD
ATOM     56  C   UNL A   1      44.647  26.075  31.235  1.00  0.00     0.074 A 
ATOM     57  C   UNL A   1      45.153  24.945  30.483  1.00  0.00     0.031 C 
ATOM     58  C   UNL A   1      45.237  26.573  32.352  1.00  0.00     0.034 A 
BRANCH  45  59
ATOM     59  C   UNL A   1      42.293  31.455  34.802  1.00  0.00     0.023 A 
ATOM     60  C   UNL A   1      41.321  31.486  35.817  1.00  0.00     0.031 A 
ATOM     61  C   UNL A   1      43.245  32.489  34.775  1.00  0.00     0.131 A 
ATOM     62  C   UNL A   1      41.276  32.566  36.713  1.00  0.00     0.055 A 
ATOM     63  C   UNL A   1      43.249  33.514  35.724  1.00  0.00     0.041 A 
ATOM     64  F   UNL A   1      44.184  32.530  33.816  1.00  0.00    -0.206 F 
ATOM     65  C   UNL A   1      42.250  33.565  36.691  1.00  0.00     0.022 A 
BRANCH  62  66
ATOM     66  S   UNL A   1      39.836  32.724  37.806  1.00  0.00     0.124 S 
ATOM     67  O   UNL A   1      40.439  32.502  39.119  1.00  0.00    -0.237 OA
ATOM     68  O   UNL A   1      39.382  34.082  37.534  1.00  0.00    -0.237 OA
ATOM     69  O   UNL A   1      38.943  31.662  37.351  1.00  0.00    -0.744 OA
ENDBRANCH  62  66
ENDBRANCH  45  59
BRANCH  46  70
ATOM     70  C   UNL A   1      42.277  24.669  27.409  1.00  0.00     0.023 A 
ATOM     71  C   UNL A   1      41.542  23.475  27.484  1.00  0.00     0.031 A 
ATOM     72  C   UNL A   1      43.087  24.872  26.279  1.00  0.00     0.131 A 
ATOM     73  C   UNL A   1      41.678  22.505  26.478  1.00  0.00     0.055 A 
ATOM     74  C   UNL A   1      43.169  23.932  25.249  1.00  0.00     0.041 A 
ATOM     75  F   UNL A   1      43.809  25.997  26.152  1.00  0.00    -0.206 F 
ATOM     76  C   UNL A   1      42.475  22.732  25.355  1.00  0.00     0.022 A 
BRANCH  73  77
ATOM     77  S   UNL A   1      40.878  20.894  26.715  1.00  0.00     0.124 S 
ATOM     78  O   UNL A   1      39.609  21.090  26.024  1.00  0.00    -0.237 OA
ATOM     79  O   UNL A   1      41.826  19.989  26.074  1.00  0.00    -0.237 OA
ATOM     80  O   UNL A   1      40.787  20.771  28.168  1.00  0.00    -0.744 OA
ENDBRANCH  73  77
ENDBRANCH  46  70
BRANCH  58  81
ATOM     81  C   UNL A   1      46.467  25.856  32.858  1.00  0.00     0.023 A 
ATOM     82  C   UNL A   1      46.383  24.770  33.747  1.00  0.00     0.031 A 
ATOM     83  C   UNL A   1      47.746  26.279  32.453  1.00  0.00     0.131 A 
ATOM     84  C   UNL A   1      47.554  24.189  34.254  1.00  0.00     0.055 A 
ATOM     85  C   UNL A   1      48.907  25.650  32.904  1.00  0.00     0.041 A 
ATOM     86  F   UNL A   1      47.889  27.315  31.609  1.00  0.00    -0.206 F 
ATOM     87  C   UNL A   1      48.815  24.609  33.823  1.00  0.00     0.022 A 
BRANCH  84  88
ATOM     88  S   UNL A   1      47.411  22.952  35.573  1.00  0.00     0.124 S 
ATOM     89  O   UNL A   1      46.902  21.793  34.847  1.00  0.00    -0.237 OA
ATOM     90  O   UNL A   1      48.784  22.849  36.054  1.00  0.00    -0.237 OA
ATOM     91  O   UNL A   1      46.469  23.559  36.511  1.00  0.00    -0.744 OA
ENDBRANCH  84  88
ENDBRANCH  58  81
ENDBRANCH  32  33
ENDBRANCH  24  27
ENDBRANCH  22  23
ENDBRANCH  21  22
ENDBRANCH   1  21
TORSDOF 17
ENDMDL
MODEL 2
REMARK VINA RESULT:     -10.5      5.018     10.073
REMARK SMILES Cc1noc(C)c1C[NH2+][C@H](C)[C@H](C)C(=O)NCCCNC(=O)c1ccc(-c2c3nc(c(-c4cc(S(=O)(=O)[O-])ccc4F)c4ccc([nH]4)c(-c4cc(S(=O)(=O)[O-])ccc4F)c4nc(c(-c5cc(S(=O)(=O)[O-])ccc5F)c5ccc2[nH]5)C=C4)C=C3)cc1
REMARK SMILES IDX 17 1 16 2 14 3 15 4 12 6 13 7 10 8 11 9 9 10 8 13 7 14 1 15
REMARK SMILES IDX 2 16 3 17 4 18 5 19 6 20 18 21 19 22 20 23 21 24 22 26 23 27
REMARK SMILES IDX 24 28 85 29 25 30 84 31 26 32 27 33 28 34 78 35 29 36 83 37
REMARK SMILES IDX 77 38 79 39 30 40 82 41 76 42 75 43 31 45 63 46 43 47 62 48
REMARK SMILES IDX 44 49 47 50 61 51 80 52 45 53 46 54 60 56 81 57 48 58 32 59
REMARK SMILES IDX 33 60 41 61 34 62 40 63 42 64 39 65 35 66 36 67 37 68 38 69
REMARK SMILES IDX 64 70 65 71 73 72 66 73 72 74 74 75 71 76 67 77 68 78 69 79
REMARK SMILES IDX 70 80 49 81 50 82 58 83 51 84 57 85 59 86 56 87 52 88 53 89
REMARK SMILES IDX 54 90 55 91
REMARK H PARENT 16 5 9 11 9 12 20 25 79 44 47 55
REMARK Flexibility Score: inf
ROOT
ATOM      1  C   UNL A   1      34.122  20.873  25.499  1.00  0.00     0.117 C 
ENDROOT
BRANCH   1   2
ATOM      2  N   UNL A   1      32.792  21.249  25.945  1.00  0.00    -0.356 N 
ATOM      3  C   UNL A   1      31.952  22.222  25.509  1.00  0.00     0.228 C 
ATOM      4  O   UNL A   1      30.872  22.354  26.089  1.00  0.00    -0.275 OA
ATOM      5  H   UNL A   1      32.441  20.707  26.687  1.00  0.00     0.163 HD
BRANCH   3   6
ATOM      6  C   UNL A   1      32.310  23.109  24.324  1.00  0.00     0.133 C 
ATOM      7  C   UNL A   1      31.057  23.479  23.523  1.00  0.00     0.024 C 
BRANCH   6   8
ATOM      8  C   UNL A   1      33.189  24.306  24.769  1.00  0.00     0.191 C 
ATOM      9  C   UNL A   1      34.370  24.520  23.812  1.00  0.00     0.076 C 
BRANCH   8  10
ATOM     10  N   UNL A   1      32.440  25.570  24.855  1.00  0.00    -0.339 N 
ATOM     11  H   UNL A   1      31.570  25.478  24.330  1.00  0.00     0.346 HD
ATOM     12  H   UNL A   1      32.248  25.766  25.837  1.00  0.00     0.346 HD
BRANCH  10  13
ATOM     13  C   UNL A   1      33.215  26.681  24.301  1.00  0.00     0.303 C 
BRANCH  13  14
ATOM     14  C   UNL A   1      32.517  27.949  24.614  1.00  0.00     0.071 A 
ATOM     15  C   UNL A   1      33.949  28.838  26.604  1.00  0.00     0.071 C 
ATOM     16  C   UNL A   1      32.831  28.890  25.632  1.00  0.00     0.090 A 
ATOM     17  N   UNL A   1      31.959  29.905  25.650  1.00  0.00    -0.085 NA
ATOM     18  O   UNL A   1      31.052  29.636  24.641  1.00  0.00    -0.361 OA
ATOM     19  C   UNL A   1      31.382  28.468  24.031  1.00  0.00     0.142 A 
ATOM     20  C   UNL A   1      30.492  28.018  22.943  1.00  0.00     0.091 C 
ENDBRANCH  13  14
ENDBRANCH  10  13
ENDBRANCH   8  10
ENDBRANCH   6   8
ENDBRANCH   3   6
ENDBRANCH   1   2
BRANCH   1  21
ATOM     21  C   UNL A   1      35.209  21.607  26.260  1.00  0.00     0.042 C 
BRANCH  21  22
ATOM     22  C   UNL A   1      36.450  21.879  25.426  1.00  0.00     0.118 C 
BRANCH  22  23
ATOM     23  N   UNL A   1      37.475  20.859  25.606  1.00  0.00    -0.352 N 
ATOM     24  C   UNL A   1      38.802  20.995  25.931  1.00  0.00     0.251 C 
ATOM     25  H   UNL A   1      37.170  19.932  25.475  1.00  0.00     0.163 HD
ATOM     26  O   UNL A   1      39.552  20.028  25.814  1.00  0.00    -0.269 OA
BRANCH  24  27
ATOM     27  C   UNL A   1      39.323  22.300  26.388  1.00  0.00     0.039 A 
ATOM     28  C   UNL A   1      40.384  22.331  27.295  1.00  0.00     0.014 A 
ATOM     29  C   UNL A   1      38.772  23.494  25.916  1.00  0.00     0.014 A 
ATOM     30  C   UNL A   1      40.936  23.559  27.669  1.00  0.00     0.010 A 
ATOM     31  C   UNL A   1      39.391  24.705  26.203  1.00  0.00     0.010 A 
ATOM     32  C   UNL A   1      40.473  24.753  27.092  1.00  0.00    -0.014 A 
BRANCH  32  33
ATOM     33  C   UNL A   1      41.091  26.063  27.422  1.00  0.00     0.031 A 
ATOM     34  C   UNL A   1      42.479  26.384  26.932  1.00  0.00     0.074 A 
ATOM     35  C   UNL A   1      40.429  26.936  28.208  1.00  0.00     0.049 A 
ATOM     36  N   UNL A   1      43.216  27.440  27.165  1.00  0.00    -0.248 NA
ATOM     37  C   UNL A   1      43.138  25.369  26.097  1.00  0.00     0.031 C 
ATOM     38  C   UNL A   1      39.097  26.720  28.777  1.00  0.00     0.029 A 
ATOM     39  N   UNL A   1      40.784  28.180  28.667  1.00  0.00    -0.354 N 
ATOM     40  C   UNL A   1      44.426  27.208  26.521  1.00  0.00     0.074 A 
ATOM     41  C   UNL A   1      44.348  25.882  25.947  1.00  0.00     0.031 C 
ATOM     42  C   UNL A   1      38.732  27.807  29.474  1.00  0.00     0.029 A 
ATOM     43  C   UNL A   1      39.823  28.777  29.450  1.00  0.00     0.049 A 
ATOM     44  H   UNL A   1      41.646  28.606  28.456  1.00  0.00     0.167 HD
ATOM     45  C   UNL A   1      45.494  28.034  26.396  1.00  0.00     0.034 A 
ATOM     46  C   UNL A   1      39.824  29.966  30.087  1.00  0.00     0.034 A 
ATOM     47  C   UNL A   1      45.547  29.360  26.961  1.00  0.00     0.049 A 
ATOM     48  C   UNL A   1      41.036  30.854  29.958  1.00  0.00     0.074 A 
ATOM     49  C   UNL A   1      46.551  30.305  26.847  1.00  0.00     0.029 A 
ATOM     50  N   UNL A   1      44.558  29.927  27.756  1.00  0.00    -0.354 N 
ATOM     51  N   UNL A   1      42.151  30.642  29.295  1.00  0.00    -0.248 NA
ATOM     52  C   UNL A   1      40.985  32.146  30.653  1.00  0.00     0.031 C 
ATOM     53  C   UNL A   1      46.209  31.406  27.637  1.00  0.00     0.029 A 
ATOM     54  C   UNL A   1      44.948  31.192  28.170  1.00  0.00     0.049 A 
ATOM     55  H   UNL A   1      43.706  29.493  27.992  1.00  0.00     0.167 HD
ATOM     56  C   UNL A   1      42.916  31.795  29.464  1.00  0.00     0.074 A 
ATOM     57  C   UNL A   1      42.128  32.699  30.275  1.00  0.00     0.031 C 
ATOM     58  C   UNL A   1      44.155  32.082  28.987  1.00  0.00     0.034 A 
BRANCH  45  59
ATOM     59  C   UNL A   1      46.697  27.514  25.643  1.00  0.00     0.023 A 
ATOM     60  C   UNL A   1      46.996  27.940  24.337  1.00  0.00     0.031 A 
ATOM     61  C   UNL A   1      47.547  26.562  26.233  1.00  0.00     0.131 A 
ATOM     62  C   UNL A   1      48.066  27.360  23.638  1.00  0.00     0.055 A 
ATOM     63  C   UNL A   1      48.663  26.054  25.564  1.00  0.00     0.041 A 
ATOM     64  F   UNL A   1      47.301  26.097  27.468  1.00  0.00    -0.206 F 
ATOM     65  C   UNL A   1      48.918  26.441  24.252  1.00  0.00     0.022 A 
BRANCH  62  66
ATOM     66  S   UNL A   1      48.233  27.710  21.865  1.00  0.00     0.124 S 
ATOM     67  O   UNL A   1      48.445  26.372  21.320  1.00  0.00    -0.237 OA
ATOM     68  O   UNL A   1      46.954  28.334  21.546  1.00  0.00    -0.237 OA
ATOM     69  O   UNL A   1      49.394  28.595  21.800  1.00  0.00    -0.744 OA
ENDBRANCH  62  66
ENDBRANCH  45  59
BRANCH  46  70
ATOM     70  C   UNL A   1      38.652  30.393  30.905  1.00  0.00     0.023 A 
ATOM     71  C   UNL A   1      37.566  31.062  30.315  1.00  0.00     0.031 A 
ATOM     72  C   UNL A   1      38.622  30.192  32.296  1.00  0.00     0.131 A 
ATOM     73  C   UNL A   1      36.529  31.558  31.120  1.00  0.00     0.055 A 
ATOM     74  C   UNL A   1      37.556  30.630  33.084  1.00  0.00     0.041 A 
ATOM     75  F   UNL A   1      39.630  29.555  32.912  1.00  0.00    -0.206 F 
ATOM     76  C   UNL A   1      36.508  31.334  32.498  1.00  0.00     0.022 A 
BRANCH  73  77
ATOM     77  S   UNL A   1      35.256  32.596  30.350  1.00  0.00     0.124 S 
ATOM     78  O   UNL A   1      36.010  33.805  30.039  1.00  0.00    -0.237 OA
ATOM     79  O   UNL A   1      34.849  31.781  29.211  1.00  0.00    -0.237 OA
ATOM     80  O   UNL A   1      34.252  32.739  31.403  1.00  0.00    -0.744 OA
ENDBRANCH  73  77
ENDBRANCH  46  70
BRANCH  58  81
ATOM     81  C   UNL A   1      44.706  33.456  29.287  1.00  0.00     0.023 A 
ATOM     82  C   UNL A   1      44.477  34.552  28.436  1.00  0.00     0.031 A 
ATOM     83  C   UNL A   1      45.486  33.667  30.439  1.00  0.00     0.131 A 
ATOM     84  C   UNL A   1      45.077  35.789  28.712  1.00  0.00     0.055 A 
ATOM     85  C   UNL A   1      46.020  34.918  30.747  1.00  0.00     0.041 A 
ATOM     86  F   UNL A   1      45.742  32.657  31.286  1.00  0.00    -0.206 F 
ATOM     87  C   UNL A   1      45.830  35.984  29.873  1.00  0.00     0.022 A 
BRANCH  84  88
ATOM     88  S   UNL A   1      44.955  37.110  27.476  1.00  0.00     0.124 S 
ATOM     89  O   UNL A   1      43.645  36.853  26.886  1.00  0.00    -0.237 OA
ATOM     90  O   UNL A   1      45.059  38.313  28.294  1.00  0.00    -0.237 OA
ATOM     91  O   UNL A   1      46.093  36.860  26.594  1.00  0.00    -0.744 OA
ENDBRANCH  84  88
ENDBRANCH  58  81
ENDBRANCH  32  33
ENDBRANCH  24  27
ENDBRANCH  22  23
ENDBRANCH  21  22
ENDBRANCH   1  21
TORSDOF 17
ENDMDL
MODEL 3
REMARK VINA RESULT:     -10.4      3.506      6.674
REMARK SMILES Cc1noc(C)c1C[NH2+][C@H](C)[C@H](C)C(=O)NCCCNC(=O)c1ccc(-c2c3nc(c(-c4cc(S(=O)(=O)[O-])ccc4F)c4ccc([nH]4)c(-c4cc(S(=O)(=O)[O-])ccc4F)c4nc(c(-c5cc(S(=O)(=O)[O-])ccc5F)c5ccc2[nH]5)C=C4)C=C3)cc1
REMARK SMILES IDX 17 1 16 2 14 3 15 4 12 6 13 7 10 8 11 9 9 10 8 13 7 14 1 15
REMARK SMILES IDX 2 16 3 17 4 18 5 19 6 20 18 21 19 22 20 23 21 24 22 26 23 27
REMARK SMILES IDX 24 28 85 29 25 30 84 31 26 32 27 33 28 34 78 35 29 36 83 37
REMARK SMILES IDX 77 38 79 39 30 40 82 41 76 42 75 43 31 45 63 46 43 47 62 48
REMARK SMILES IDX 44 49 47 50 61 51 80 52 45 53 46 54 60 56 81 57 48 58 32 59
REMARK SMILES IDX 33 60 41 61 34 62 40 63 42 64 39 65 35 66 36 67 37 68 38 69
REMARK SMILES IDX 64 70 65 71 73 72 66 73 72 74 74 75 71 76 67 77 68 78 69 79
REMARK SMILES IDX 70 80 49 81 50 82 58 83 51 84 57 85 59 86 56 87 52 88 53 89
REMARK SMILES IDX 54 90 55 91
REMARK H PARENT 16 5 9 11 9 12 20 25 79 44 47 55
REMARK Flexibility Score: inf
ROOT
ATOM      1  C   UNL A   1      34.549  35.607  29.255  1.00  0.00     0.117 C 
ENDROOT
BRANCH   1   2
ATOM      2  N   UNL A   1      33.334  35.656  30.048  1.00  0.00    -0.356 N 
ATOM      3  C   UNL A   1      33.124  35.411  31.367  1.00  0.00     0.228 C 
ATOM      4  O   UNL A   1      31.970  35.495  31.792  1.00  0.00    -0.275 OA
ATOM      5  H   UNL A   1      32.527  35.910  29.545  1.00  0.00     0.163 HD
BRANCH   3   6
ATOM      6  C   UNL A   1      34.274  35.072  32.305  1.00  0.00     0.133 C 
ATOM      7  C   UNL A   1      34.404  36.126  33.410  1.00  0.00     0.024 C 
BRANCH   6   8
ATOM      8  C   UNL A   1      34.179  33.605  32.796  1.00  0.00     0.191 C 
ATOM      9  C   UNL A   1      34.731  32.627  31.751  1.00  0.00     0.076 C 
BRANCH   8  10
ATOM     10  N   UNL A   1      34.898  33.372  34.058  1.00  0.00    -0.339 N 
ATOM     11  H   UNL A   1      35.047  34.267  34.527  1.00  0.00     0.346 HD
ATOM     12  H   UNL A   1      34.337  32.751  34.641  1.00  0.00     0.346 HD
BRANCH  10  13
ATOM     13  C   UNL A   1      36.195  32.739  33.819  1.00  0.00     0.303 C 
BRANCH  13  14
ATOM     14  C   UNL A   1      37.265  33.678  34.225  1.00  0.00     0.071 A 
ATOM     15  C   UNL A   1      38.127  34.500  31.905  1.00  0.00     0.071 C 
ATOM     16  C   UNL A   1      38.121  34.442  33.386  1.00  0.00     0.090 A 
ATOM     17  N   UNL A   1      39.000  35.157  34.100  1.00  0.00    -0.085 NA
ATOM     18  O   UNL A   1      38.734  34.862  35.425  1.00  0.00    -0.361 OA
ATOM     19  C   UNL A   1      37.705  33.977  35.496  1.00  0.00     0.142 A 
ATOM     20  C   UNL A   1      37.311  33.532  36.847  1.00  0.00     0.091 C 
ENDBRANCH  13  14
ENDBRANCH  10  13
ENDBRANCH   8  10
ENDBRANCH   6   8
ENDBRANCH   3   6
ENDBRANCH   1   2
BRANCH   1  21
ATOM     21  C   UNL A   1      34.399  34.725  28.030  1.00  0.00     0.042 C 
BRANCH  21  22
ATOM     22  C   UNL A   1      34.944  33.321  28.229  1.00  0.00     0.118 C 
BRANCH  22  23
ATOM     23  N   UNL A   1      33.991  32.293  27.829  1.00  0.00    -0.352 N 
ATOM     24  C   UNL A   1      34.172  30.941  27.673  1.00  0.00     0.251 C 
ATOM     25  H   UNL A   1      33.081  32.616  27.643  1.00  0.00     0.163 HD
ATOM     26  O   UNL A   1      33.303  30.278  27.111  1.00  0.00    -0.269 OA
BRANCH  24  27
ATOM     27  C   UNL A   1      35.416  30.299  28.150  1.00  0.00     0.039 A 
ATOM     28  C   UNL A   1      36.522  30.240  27.300  1.00  0.00     0.014 A 
ATOM     29  C   UNL A   1      35.494  29.765  29.438  1.00  0.00     0.014 A 
ATOM     30  C   UNL A   1      37.725  29.709  27.770  1.00  0.00     0.010 A 
ATOM     31  C   UNL A   1      36.719  29.340  29.938  1.00  0.00     0.010 A 
ATOM     32  C   UNL A   1      37.847  29.295  29.107  1.00  0.00    -0.014 A 
BRANCH  32  33
ATOM     33  C   UNL A   1      39.136  28.793  29.649  1.00  0.00     0.031 A 
ATOM     34  C   UNL A   1      39.769  29.472  30.834  1.00  0.00     0.074 A 
ATOM     35  C   UNL A   1      39.763  27.767  29.038  1.00  0.00     0.049 A 
ATOM     36  N   UNL A   1      40.917  29.229  31.413  1.00  0.00    -0.248 NA
ATOM     37  C   UNL A   1      39.028  30.596  31.427  1.00  0.00     0.031 C 
ATOM     38  C   UNL A   1      39.269  27.056  27.857  1.00  0.00     0.029 A 
ATOM     39  N   UNL A   1      40.951  27.143  29.324  1.00  0.00    -0.354 N 
ATOM     40  C   UNL A   1      41.041  30.175  32.424  1.00  0.00     0.074 A 
ATOM     41  C   UNL A   1      39.885  31.040  32.333  1.00  0.00     0.031 C 
ATOM     42  C   UNL A   1      40.125  26.071  27.544  1.00  0.00     0.029 A 
ATOM     43  C   UNL A   1      41.257  26.112  28.465  1.00  0.00     0.049 A 
ATOM     44  H   UNL A   1      41.532  27.408  30.073  1.00  0.00     0.167 HD
ATOM     45  C   UNL A   1      42.016  30.297  33.358  1.00  0.00     0.034 A 
ATOM     46  C   UNL A   1      42.332  25.299  28.416  1.00  0.00     0.034 A 
ATOM     47  C   UNL A   1      43.154  29.415  33.444  1.00  0.00     0.049 A 
ATOM     48  C   UNL A   1      43.418  25.475  29.449  1.00  0.00     0.074 A 
ATOM     49  C   UNL A   1      44.169  29.408  34.384  1.00  0.00     0.029 A 
ATOM     50  N   UNL A   1      43.434  28.388  32.550  1.00  0.00    -0.354 N 
ATOM     51  N   UNL A   1      43.491  26.340  30.435  1.00  0.00    -0.248 NA
ATOM     52  C   UNL A   1      44.560  24.555  29.369  1.00  0.00     0.031 C 
ATOM     53  C   UNL A   1      45.102  28.435  34.014  1.00  0.00     0.029 A 
ATOM     54  C   UNL A   1      44.626  27.769  32.896  1.00  0.00     0.049 A 
ATOM     55  H   UNL A   1      42.870  28.138  31.783  1.00  0.00     0.167 HD
ATOM     56  C   UNL A   1      44.670  26.040  31.115  1.00  0.00     0.074 A 
ATOM     57  C   UNL A   1      45.262  24.908  30.435  1.00  0.00     0.031 C 
ATOM     58  C   UNL A   1      45.210  26.643  32.205  1.00  0.00     0.034 A 
BRANCH  45  59
ATOM     59  C   UNL A   1      41.904  31.439  34.342  1.00  0.00     0.023 A 
ATOM     60  C   UNL A   1      42.434  32.712  34.065  1.00  0.00     0.031 A 
ATOM     61  C   UNL A   1      41.277  31.247  35.585  1.00  0.00     0.131 A 
ATOM     62  C   UNL A   1      42.394  33.716  35.045  1.00  0.00     0.055 A 
ATOM     63  C   UNL A   1      41.161  32.277  36.521  1.00  0.00     0.041 A 
ATOM     64  F   UNL A   1      40.773  30.048  35.919  1.00  0.00    -0.206 F 
ATOM     65  C   UNL A   1      41.737  33.516  36.260  1.00  0.00     0.022 A 
BRANCH  62  66
ATOM     66  S   UNL A   1      43.348  35.235  34.767  1.00  0.00     0.124 S 
ATOM     67  O   UNL A   1      44.625  34.699  34.301  1.00  0.00    -0.237 OA
ATOM     68  O   UNL A   1      42.546  35.931  33.768  1.00  0.00    -0.237 OA
ATOM     69  O   UNL A   1      43.386  35.861  36.086  1.00  0.00    -0.744 OA
ENDBRANCH  62  66
ENDBRANCH  45  59
BRANCH  46  70
ATOM     70  C   UNL A   1      42.447  24.250  27.362  1.00  0.00     0.023 A 
ATOM     71  C   UNL A   1      41.762  23.030  27.481  1.00  0.00     0.031 A 
ATOM     72  C   UNL A   1      43.287  24.425  26.248  1.00  0.00     0.131 A 
ATOM     73  C   UNL A   1      41.975  22.012  26.538  1.00  0.00     0.055 A 
ATOM     74  C   UNL A   1      43.446  23.434  25.278  1.00  0.00     0.041 A 
ATOM     75  F   UNL A   1      43.963  25.573  26.081  1.00  0.00    -0.206 F 
ATOM     76  C   UNL A   1      42.800  22.211  25.430  1.00  0.00     0.022 A 
BRANCH  73  77
ATOM     77  S   UNL A   1      41.238  20.382  26.841  1.00  0.00     0.124 S 
ATOM     78  O   UNL A   1      40.106  20.395  25.922  1.00  0.00    -0.237 OA
ATOM     79  O   UNL A   1      42.336  19.486  26.497  1.00  0.00    -0.237 OA
ATOM     80  O   UNL A   1      40.892  20.425  28.260  1.00  0.00    -0.744 OA
ENDBRANCH  73  77
ENDBRANCH  46  70
BRANCH  58  81
ATOM     81  C   UNL A   1      46.482  26.046  32.760  1.00  0.00     0.023 A 
ATOM     82  C   UNL A   1      46.465  24.981  33.677  1.00  0.00     0.031 A 
ATOM     83  C   UNL A   1      47.732  26.565  32.375  1.00  0.00     0.131 A 
ATOM     84  C   UNL A   1      47.667  24.513  34.229  1.00  0.00     0.055 A 
ATOM     85  C   UNL A   1      48.929  26.048  32.872  1.00  0.00     0.041 A 
ATOM     86  F   UNL A   1      47.810  27.586  31.506  1.00  0.00    -0.206 F 
ATOM     87  C   UNL A   1      48.899  25.026  33.817  1.00  0.00     0.022 A 
BRANCH  84  88
ATOM     88  S   UNL A   1      47.593  23.303  35.578  1.00  0.00     0.124 S 
ATOM     89  O   UNL A   1      47.511  24.165  36.753  1.00  0.00    -0.237 OA
ATOM     90  O   UNL A   1      46.387  22.550  35.255  1.00  0.00    -0.237 OA
ATOM     91  O   UNL A   1      48.844  22.560  35.440  1.00  0.00    -0.744 OA
ENDBRANCH  84  88
ENDBRANCH  58  81
ENDBRANCH  32  33
ENDBRANCH  24  27
ENDBRANCH  22  23
ENDBRANCH  21  22
ENDBRANCH   1  21
TORSDOF 17
ENDMDL
