MODEL 1
REMARK VINA RESULT:     -12.8      0.000      0.000
REMARK SMILES Cc1ccc(C[C@@H](Cc2cc(F)cc(Br)c2)C(=O)NCCCNC(=O)c2ccc(-c3c4nc(c(-c5cc(S(=O)(=O)[O-])ccc5F)c5ccc([nH]5)c(-c5cc(S(=O)(=O)[O-])ccc5F)c5nc(c(-c6cc(S(=O)(=O)[O-])ccc6F)c6ccc3[nH]6)C=C5)C=C4)cc2)cc1
REMARK SMILES IDX 21 1 20 2 19 3 17 4 18 5 7 7 6 8 5 9 1 10 2 11 3 12 90 13
REMARK SMILES IDX 4 14 89 15 8 16 9 17 10 18 16 19 11 20 14 21 12 22 13 23
REMARK SMILES IDX 15 24 22 25 23 26 24 27 25 29 26 30 27 31 88 32 28 33 87 34
REMARK SMILES IDX 29 35 30 36 31 37 81 38 32 39 86 40 80 41 82 42 33 43 85 44
REMARK SMILES IDX 79 45 78 46 34 48 66 49 46 50 65 51 47 52 50 53 64 54 83 55
REMARK SMILES IDX 48 56 49 57 63 59 84 60 51 61 35 62 36 63 44 64 37 65 43 66
REMARK SMILES IDX 45 67 42 68 38 69 39 70 40 71 41 72 67 73 68 74 76 75 69 76
REMARK SMILES IDX 75 77 77 78 74 79 70 80 71 81 72 82 73 83 52 84 53 85 61 86
REMARK SMILES IDX 54 87 60 88 62 89 59 90 55 91 56 92 57 93 58 94
REMARK H PARENT 19 6 23 28 82 47 50 58
REMARK Flexibility Score: inf
ROOT
ATOM      1  C   UNL A   1      32.894  30.786  27.262  1.00  0.00     0.042 C 
ENDROOT
BRANCH   1   2
ATOM      2  C   UNL A   1      32.376  29.707  26.321  1.00  0.00     0.117 C 
BRANCH   2   3
ATOM      3  N   UNL A   1      32.970  29.808  24.993  1.00  0.00    -0.356 N 
ATOM      4  C   UNL A   1      33.160  28.859  24.035  1.00  0.00     0.223 C 
ATOM      5  O   UNL A   1      33.674  29.196  22.963  1.00  0.00    -0.275 OA
ATOM      6  H   UNL A   1      33.284  30.708  24.748  1.00  0.00     0.163 HD
BRANCH   4   7
ATOM      7  C   UNL A   1      32.811  27.392  24.271  1.00  0.00     0.087 C 
BRANCH   7   8
ATOM      8  C   UNL A   1      32.663  26.754  22.869  1.00  0.00     0.049 C 
BRANCH   8   9
ATOM      9  C   UNL A   1      32.500  25.260  22.732  1.00  0.00    -0.047 A 
ATOM     10  C   UNL A   1      32.133  20.956  22.825  1.00  0.00     0.044 C 
ATOM     11  C   UNL A   1      32.272  22.448  22.783  1.00  0.00    -0.051 A 
ATOM     12  C   UNL A   1      31.179  23.254  23.114  1.00  0.00     0.004 A 
ATOM     13  C   UNL A   1      33.474  23.057  22.406  1.00  0.00     0.004 A 
ATOM     14  C   UNL A   1      31.298  24.642  23.106  1.00  0.00     0.004 A 
ATOM     15  C   UNL A   1      33.586  24.452  22.376  1.00  0.00     0.004 A 
ENDBRANCH   8   9
ENDBRANCH   7   8
BRANCH   7  16
ATOM     16  C   UNL A   1      33.700  26.627  25.285  1.00  0.00     0.049 C 
BRANCH  16  17
ATOM     17  C   UNL A   1      33.298  25.279  25.854  1.00  0.00    -0.043 A 
ATOM     18  C   UNL A   1      31.990  25.138  26.356  1.00  0.00     0.043 A 
ATOM     19  C   UNL A   1      34.133  24.155  25.891  1.00  0.00     0.019 A 
ATOM     20  C   UNL A   1      31.517  23.901  26.785  1.00  0.00     0.124 A 
ATOM     21  C   UNL A   1      33.628  22.907  26.286  1.00  0.00     0.021 A 
ATOM     22  F   UNL A   1      30.267  23.816  27.261  1.00  0.00    -0.207 F 
ATOM     23  C   UNL A   1      32.317  22.773  26.730  1.00  0.00     0.055 A 
ATOM     24  Br  UNL A   1      34.738  21.377  26.184  1.00  0.00    -0.051 Br
ENDBRANCH  16  17
ENDBRANCH   7  16
ENDBRANCH   4   7
ENDBRANCH   2   3
ENDBRANCH   1   2
BRANCH   1  25
ATOM     25  C   UNL A   1      34.404  30.751  27.404  1.00  0.00     0.118 C 
BRANCH  25  26
ATOM     26  N   UNL A   1      34.914  31.457  28.572  1.00  0.00    -0.352 N 
ATOM     27  C   UNL A   1      35.896  31.055  29.468  1.00  0.00     0.251 C 
ATOM     28  H   UNL A   1      34.507  32.334  28.750  1.00  0.00     0.163 HD
ATOM     29  O   UNL A   1      36.145  31.701  30.465  1.00  0.00    -0.269 OA
BRANCH  27  30
ATOM     30  C   UNL A   1      36.739  29.888  29.105  1.00  0.00     0.039 A 
ATOM     31  C   UNL A   1      37.051  28.987  30.130  1.00  0.00     0.014 A 
ATOM     32  C   UNL A   1      37.417  29.838  27.891  1.00  0.00     0.014 A 
ATOM     33  C   UNL A   1      38.204  28.216  30.028  1.00  0.00     0.010 A 
ATOM     34  C   UNL A   1      38.621  29.165  27.835  1.00  0.00     0.010 A 
ATOM     35  C   UNL A   1      39.044  28.407  28.929  1.00  0.00    -0.014 A 
BRANCH  35  36
ATOM     36  C   UNL A   1      40.425  27.947  28.905  1.00  0.00     0.031 A 
ATOM     37  C   UNL A   1      40.750  26.601  28.388  1.00  0.00     0.074 A 
ATOM     38  C   UNL A   1      41.418  28.729  29.387  1.00  0.00     0.049 A 
ATOM     39  N   UNL A   1      41.713  25.869  28.840  1.00  0.00    -0.248 NA
ATOM     40  C   UNL A   1      39.977  25.950  27.335  1.00  0.00     0.031 C 
ATOM     41  C   UNL A   1      42.857  28.484  29.296  1.00  0.00     0.029 A 
ATOM     42  N   UNL A   1      41.355  29.844  30.203  1.00  0.00    -0.354 N 
ATOM     43  C   UNL A   1      41.861  24.804  27.984  1.00  0.00     0.074 A 
ATOM     44  C   UNL A   1      40.716  24.860  27.104  1.00  0.00     0.031 C 
ATOM     45  C   UNL A   1      43.479  29.203  30.246  1.00  0.00     0.029 A 
ATOM     46  C   UNL A   1      42.446  29.810  31.068  1.00  0.00     0.049 A 
ATOM     47  H   UNL A   1      40.660  30.541  30.177  1.00  0.00     0.167 HD
ATOM     48  C   UNL A   1      43.004  24.066  28.006  1.00  0.00     0.034 A 
ATOM     49  C   UNL A   1      42.346  29.671  32.422  1.00  0.00     0.034 A 
ATOM     50  C   UNL A   1      43.959  24.571  28.985  1.00  0.00     0.049 A 
ATOM     51  C   UNL A   1      43.104  28.468  32.956  1.00  0.00     0.074 A 
ATOM     52  C   UNL A   1      45.067  25.396  28.864  1.00  0.00     0.029 A 
ATOM     53  N   UNL A   1      43.678  24.486  30.343  1.00  0.00    -0.354 N 
ATOM     54  N   UNL A   1      43.454  27.438  32.235  1.00  0.00    -0.248 NA
ATOM     55  C   UNL A   1      43.496  28.327  34.354  1.00  0.00     0.031 C 
ATOM     56  C   UNL A   1      45.433  25.832  30.162  1.00  0.00     0.029 A 
ATOM     57  C   UNL A   1      44.568  25.251  31.074  1.00  0.00     0.049 A 
ATOM     58  H   UNL A   1      42.947  23.954  30.732  1.00  0.00     0.167 HD
ATOM     59  C   UNL A   1      44.076  26.504  33.030  1.00  0.00     0.074 A 
ATOM     60  C   UNL A   1      44.098  27.125  34.344  1.00  0.00     0.031 C 
ATOM     61  C   UNL A   1      44.501  25.302  32.529  1.00  0.00     0.034 A 
BRANCH  48  62
ATOM     62  C   UNL A   1      43.370  23.096  26.910  1.00  0.00     0.023 A 
ATOM     63  C   UNL A   1      42.910  21.766  26.978  1.00  0.00     0.031 A 
ATOM     64  C   UNL A   1      44.185  23.405  25.804  1.00  0.00     0.131 A 
ATOM     65  C   UNL A   1      43.343  20.793  26.059  1.00  0.00     0.055 A 
ATOM     66  C   UNL A   1      44.664  22.427  24.922  1.00  0.00     0.041 A 
ATOM     67  F   UNL A   1      44.525  24.672  25.521  1.00  0.00    -0.206 F 
ATOM     68  C   UNL A   1      44.255  21.107  25.056  1.00  0.00     0.022 A 
BRANCH  65  69
ATOM     69  S   UNL A   1      42.686  19.107  26.194  1.00  0.00     0.124 S 
ATOM     70  O   UNL A   1      42.457  18.977  27.629  1.00  0.00    -0.237 OA
ATOM     71  O   UNL A   1      41.497  19.171  25.352  1.00  0.00    -0.237 OA
ATOM     72  O   UNL A   1      43.770  18.280  25.666  1.00  0.00    -0.744 OA
ENDBRANCH  65  69
ENDBRANCH  48  62
BRANCH  49  73
ATOM     73  C   UNL A   1      41.078  30.183  33.013  1.00  0.00     0.023 A 
ATOM     74  C   UNL A   1      40.917  31.578  33.111  1.00  0.00     0.031 A 
ATOM     75  C   UNL A   1      39.936  29.380  33.144  1.00  0.00     0.131 A 
ATOM     76  C   UNL A   1      39.631  32.136  33.169  1.00  0.00     0.055 A 
ATOM     77  C   UNL A   1      38.659  29.943  33.266  1.00  0.00     0.041 A 
ATOM     78  F   UNL A   1      40.020  28.046  33.035  1.00  0.00    -0.206 F 
ATOM     79  C   UNL A   1      38.497  31.328  33.241  1.00  0.00     0.022 A 
BRANCH  76  80
ATOM     80  S   UNL A   1      39.479  33.924  32.926  1.00  0.00     0.124 S 
ATOM     81  O   UNL A   1      38.496  34.292  33.939  1.00  0.00    -0.237 OA
ATOM     82  O   UNL A   1      40.849  34.367  33.177  1.00  0.00    -0.237 OA
ATOM     83  O   UNL A   1      39.036  34.057  31.542  1.00  0.00    -0.744 OA
ENDBRANCH  76  80
ENDBRANCH  49  73
BRANCH  61  84
ATOM     84  C   UNL A   1      44.985  24.100  33.327  1.00  0.00     0.023 A 
ATOM     85  C   UNL A   1      46.263  24.001  33.897  1.00  0.00     0.031 A 
ATOM     86  C   UNL A   1      44.124  23.003  33.597  1.00  0.00     0.131 A 
ATOM     87  C   UNL A   1      46.667  22.855  34.609  1.00  0.00     0.055 A 
ATOM     88  C   UNL A   1      44.503  21.896  34.365  1.00  0.00     0.041 A 
ATOM     89  F   UNL A   1      42.865  22.958  33.141  1.00  0.00    -0.206 F 
ATOM     90  C   UNL A   1      45.790  21.808  34.865  1.00  0.00     0.022 A 
BRANCH  87  91
ATOM     91  S   UNL A   1      48.396  22.748  35.144  1.00  0.00     0.124 S 
ATOM     92  O   UNL A   1      49.091  23.422  34.052  1.00  0.00    -0.237 OA
ATOM     93  O   UNL A   1      48.374  23.462  36.416  1.00  0.00    -0.237 OA
ATOM     94  O   UNL A   1      48.640  21.311  35.242  1.00  0.00    -0.744 OA
ENDBRANCH  87  91
ENDBRANCH  61  84
ENDBRANCH  35  36
ENDBRANCH  27  30
ENDBRANCH  25  26
ENDBRANCH   1  25
TORSDOF 17
ENDMDL
MODEL 2
REMARK VINA RESULT:     -12.6      4.317     10.382
REMARK SMILES Cc1ccc(C[C@@H](Cc2cc(F)cc(Br)c2)C(=O)NCCCNC(=O)c2ccc(-c3c4nc(c(-c5cc(S(=O)(=O)[O-])ccc5F)c5ccc([nH]5)c(-c5cc(S(=O)(=O)[O-])ccc5F)c5nc(c(-c6cc(S(=O)(=O)[O-])ccc6F)c6ccc3[nH]6)C=C5)C=C4)cc2)cc1
REMARK SMILES IDX 21 1 20 2 19 3 17 4 18 5 7 7 6 8 5 9 1 10 2 11 3 12 90 13
REMARK SMILES IDX 4 14 89 15 8 16 9 17 10 18 16 19 11 20 14 21 12 22 13 23
REMARK SMILES IDX 15 24 22 25 23 26 24 27 25 29 26 30 27 31 88 32 28 33 87 34
REMARK SMILES IDX 29 35 30 36 31 37 81 38 32 39 86 40 80 41 82 42 33 43 85 44
REMARK SMILES IDX 79 45 78 46 34 48 66 49 46 50 65 51 47 52 50 53 64 54 83 55
REMARK SMILES IDX 48 56 49 57 63 59 84 60 51 61 35 62 36 63 44 64 37 65 43 66
REMARK SMILES IDX 45 67 42 68 38 69 39 70 40 71 41 72 67 73 68 74 76 75 69 76
REMARK SMILES IDX 75 77 77 78 74 79 70 80 71 81 72 82 73 83 52 84 53 85 61 86
REMARK SMILES IDX 54 87 60 88 62 89 59 90 55 91 56 92 57 93 58 94
REMARK H PARENT 19 6 23 28 82 47 50 58
REMARK Flexibility Score: inf
ROOT
ATOM      1  C   UNL A   1      38.096  21.689  25.401  1.00  0.00     0.042 C 
ENDROOT
BRANCH   1   2
ATOM      2  C   UNL A   1      36.583  21.631  25.245  1.00  0.00     0.117 C 
BRANCH   2   3
ATOM      3  N   UNL A   1      35.891  21.917  26.497  1.00  0.00    -0.356 N 
ATOM      4  C   UNL A   1      34.767  22.647  26.739  1.00  0.00     0.223 C 
ATOM      5  O   UNL A   1      34.355  22.729  27.901  1.00  0.00    -0.275 OA
ATOM      6  H   UNL A   1      36.304  21.519  27.297  1.00  0.00     0.163 HD
BRANCH   4   7
ATOM      7  C   UNL A   1      34.042  23.405  25.631  1.00  0.00     0.087 C 
BRANCH   7   8
ATOM      8  C   UNL A   1      32.635  22.769  25.523  1.00  0.00     0.049 C 
BRANCH   8   9
ATOM      9  C   UNL A   1      32.420  21.554  24.655  1.00  0.00    -0.047 A 
ATOM     10  C   UNL A   1      32.295  18.063  22.113  1.00  0.00     0.044 C 
ATOM     11  C   UNL A   1      32.330  19.282  22.984  1.00  0.00    -0.051 A 
ATOM     12  C   UNL A   1      32.538  19.143  24.359  1.00  0.00     0.004 A 
ATOM     13  C   UNL A   1      32.146  20.563  22.452  1.00  0.00     0.004 A 
ATOM     14  C   UNL A   1      32.601  20.268  25.180  1.00  0.00     0.004 A 
ATOM     15  C   UNL A   1      32.186  21.690  23.281  1.00  0.00     0.004 A 
ENDBRANCH   8   9
ENDBRANCH   7   8
BRANCH   7  16
ATOM     16  C   UNL A   1      34.094  24.953  25.706  1.00  0.00     0.049 C 
BRANCH  16  17
ATOM     17  C   UNL A   1      33.696  25.831  24.535  1.00  0.00    -0.043 A 
ATOM     18  C   UNL A   1      33.780  27.227  24.699  1.00  0.00     0.043 A 
ATOM     19  C   UNL A   1      33.273  25.347  23.291  1.00  0.00     0.019 A 
ATOM     20  C   UNL A   1      33.542  28.089  23.631  1.00  0.00     0.124 A 
ATOM     21  C   UNL A   1      33.080  26.226  22.214  1.00  0.00     0.021 A 
ATOM     22  F   UNL A   1      33.629  29.411  23.836  1.00  0.00    -0.207 F 
ATOM     23  C   UNL A   1      33.218  27.601  22.378  1.00  0.00     0.055 A 
ATOM     24  Br  UNL A   1      32.653  25.531  20.506  1.00  0.00    -0.051 Br
ENDBRANCH  16  17
ENDBRANCH   7  16
ENDBRANCH   4   7
ENDBRANCH   2   3
ENDBRANCH   1   2
BRANCH   1  25
ATOM     25  C   UNL A   1      38.558  22.972  26.066  1.00  0.00     0.118 C 
BRANCH  25  26
ATOM     26  N   UNL A   1      39.979  23.002  26.390  1.00  0.00    -0.352 N 
ATOM     27  C   UNL A   1      40.754  24.083  26.790  1.00  0.00     0.251 C 
ATOM     28  H   UNL A   1      40.451  22.143  26.313  1.00  0.00     0.163 HD
ATOM     29  O   UNL A   1      41.956  23.984  26.922  1.00  0.00    -0.269 OA
BRANCH  27  30
ATOM     30  C   UNL A   1      40.058  25.331  27.195  1.00  0.00     0.039 A 
ATOM     31  C   UNL A   1      40.433  26.507  26.536  1.00  0.00     0.014 A 
ATOM     32  C   UNL A   1      39.288  25.384  28.352  1.00  0.00     0.014 A 
ATOM     33  C   UNL A   1      40.253  27.729  27.176  1.00  0.00     0.010 A 
ATOM     34  C   UNL A   1      39.214  26.578  29.040  1.00  0.00     0.010 A 
ATOM     35  C   UNL A   1      39.754  27.737  28.480  1.00  0.00    -0.014 A 
BRANCH  35  36
ATOM     36  C   UNL A   1      39.876  28.890  29.362  1.00  0.00     0.031 A 
ATOM     37  C   UNL A   1      38.819  29.922  29.384  1.00  0.00     0.074 A 
ATOM     38  C   UNL A   1      40.970  29.045  30.141  1.00  0.00     0.049 A 
ATOM     39  N   UNL A   1      39.042  31.177  29.591  1.00  0.00    -0.248 NA
ATOM     40  C   UNL A   1      37.414  29.622  29.128  1.00  0.00     0.031 C 
ATOM     41  C   UNL A   1      41.176  30.050  31.184  1.00  0.00     0.029 A 
ATOM     42  N   UNL A   1      42.208  28.432  30.069  1.00  0.00    -0.354 N 
ATOM     43  C   UNL A   1      37.826  31.791  29.769  1.00  0.00     0.074 A 
ATOM     44  C   UNL A   1      36.841  30.798  29.403  1.00  0.00     0.031 C 
ATOM     45  C   UNL A   1      42.495  30.178  31.406  1.00  0.00     0.029 A 
ATOM     46  C   UNL A   1      43.178  29.371  30.411  1.00  0.00     0.049 A 
ATOM     47  H   UNL A   1      42.375  27.494  29.820  1.00  0.00     0.167 HD
ATOM     48  C   UNL A   1      37.761  33.023  30.343  1.00  0.00     0.034 A 
ATOM     49  C   UNL A   1      44.130  29.837  29.550  1.00  0.00     0.034 A 
ATOM     50  C   UNL A   1      39.080  33.517  30.721  1.00  0.00     0.049 A 
ATOM     51  C   UNL A   1      44.099  31.346  29.384  1.00  0.00     0.074 A 
ATOM     52  C   UNL A   1      39.760  33.521  31.929  1.00  0.00     0.029 A 
ATOM     53  N   UNL A   1      40.014  33.836  29.743  1.00  0.00    -0.354 N 
ATOM     54  N   UNL A   1      43.064  32.095  29.653  1.00  0.00    -0.248 NA
ATOM     55  C   UNL A   1      45.225  32.117  28.870  1.00  0.00     0.031 C 
ATOM     56  C   UNL A   1      41.121  33.817  31.666  1.00  0.00     0.029 A 
ATOM     57  C   UNL A   1      41.264  34.020  30.304  1.00  0.00     0.049 A 
ATOM     58  H   UNL A   1      39.813  33.920  28.783  1.00  0.00     0.167 HD
ATOM     59  C   UNL A   1      43.346  33.405  29.343  1.00  0.00     0.074 A 
ATOM     60  C   UNL A   1      44.723  33.364  28.881  1.00  0.00     0.031 C 
ATOM     61  C   UNL A   1      42.411  34.395  29.485  1.00  0.00     0.034 A 
BRANCH  48  62
ATOM     62  C   UNL A   1      36.472  33.620  30.849  1.00  0.00     0.023 A 
ATOM     63  C   UNL A   1      35.578  34.216  29.937  1.00  0.00     0.031 A 
ATOM     64  C   UNL A   1      36.085  33.666  32.202  1.00  0.00     0.131 A 
ATOM     65  C   UNL A   1      34.437  34.911  30.378  1.00  0.00     0.055 A 
ATOM     66  C   UNL A   1      34.982  34.405  32.649  1.00  0.00     0.041 A 
ATOM     67  F   UNL A   1      36.747  32.971  33.140  1.00  0.00    -0.206 F 
ATOM     68  C   UNL A   1      34.158  35.048  31.735  1.00  0.00     0.022 A 
BRANCH  65  69
ATOM     69  S   UNL A   1      33.317  35.628  29.144  1.00  0.00     0.124 S 
ATOM     70  O   UNL A   1      32.675  34.445  28.582  1.00  0.00    -0.237 OA
ATOM     71  O   UNL A   1      32.475  36.496  29.959  1.00  0.00    -0.237 OA
ATOM     72  O   UNL A   1      34.222  36.327  28.233  1.00  0.00    -0.744 OA
ENDBRANCH  65  69
ENDBRANCH  48  62
BRANCH  49  73
ATOM     73  C   UNL A   1      44.513  28.889  28.466  1.00  0.00     0.023 A 
ATOM     74  C   UNL A   1      45.298  27.775  28.817  1.00  0.00     0.031 A 
ATOM     75  C   UNL A   1      43.856  28.865  27.228  1.00  0.00     0.131 A 
ATOM     76  C   UNL A   1      45.279  26.621  28.020  1.00  0.00     0.055 A 
ATOM     77  C   UNL A   1      43.893  27.732  26.405  1.00  0.00     0.041 A 
ATOM     78  F   UNL A   1      43.073  29.885  26.847  1.00  0.00    -0.206 F 
ATOM     79  C   UNL A   1      44.575  26.587  26.816  1.00  0.00     0.022 A 
BRANCH  76  80
ATOM     80  S   UNL A   1      46.010  25.112  28.706  1.00  0.00     0.124 S 
ATOM     81  O   UNL A   1      47.407  25.234  28.302  1.00  0.00    -0.237 OA
ATOM     82  O   UNL A   1      45.742  25.284  30.132  1.00  0.00    -0.237 OA
ATOM     83  O   UNL A   1      45.263  24.034  28.067  1.00  0.00    -0.744 OA
ENDBRANCH  76  80
ENDBRANCH  49  73
BRANCH  61  84
ATOM     84  C   UNL A   1      42.506  35.823  28.969  1.00  0.00     0.023 A 
ATOM     85  C   UNL A   1      43.260  36.831  29.589  1.00  0.00     0.031 A 
ATOM     86  C   UNL A   1      41.865  36.213  27.763  1.00  0.00     0.131 A 
ATOM     87  C   UNL A   1      43.297  38.144  29.080  1.00  0.00     0.055 A 
ATOM     88  C   UNL A   1      41.961  37.499  27.220  1.00  0.00     0.041 A 
ATOM     89  F   UNL A   1      41.127  35.358  27.042  1.00  0.00    -0.206 F 
ATOM     90  C   UNL A   1      42.669  38.483  27.888  1.00  0.00     0.022 A 
BRANCH  87  91
ATOM     91  S   UNL A   1      44.147  39.414  30.056  1.00  0.00     0.124 S 
ATOM     92  O   UNL A   1      43.625  40.644  29.469  1.00  0.00    -0.237 OA
ATOM     93  O   UNL A   1      43.696  39.119  31.413  1.00  0.00    -0.237 OA
ATOM     94  O   UNL A   1      45.562  39.156  29.802  1.00  0.00    -0.744 OA
ENDBRANCH  87  91
ENDBRANCH  61  84
ENDBRANCH  35  36
ENDBRANCH  27  30
ENDBRANCH  25  26
ENDBRANCH   1  25
TORSDOF 17
ENDMDL
MODEL 3
REMARK VINA RESULT:     -12.4      1.435      2.279
REMARK SMILES Cc1ccc(C[C@@H](Cc2cc(F)cc(Br)c2)C(=O)NCCCNC(=O)c2ccc(-c3c4nc(c(-c5cc(S(=O)(=O)[O-])ccc5F)c5ccc([nH]5)c(-c5cc(S(=O)(=O)[O-])ccc5F)c5nc(c(-c6cc(S(=O)(=O)[O-])ccc6F)c6ccc3[nH]6)C=C5)C=C4)cc2)cc1
REMARK SMILES IDX 21 1 20 2 19 3 17 4 18 5 7 7 6 8 5 9 1 10 2 11 3 12 90 13
REMARK SMILES IDX 4 14 89 15 8 16 9 17 10 18 16 19 11 20 14 21 12 22 13 23
REMARK SMILES IDX 15 24 22 25 23 26 24 27 25 29 26 30 27 31 88 32 28 33 87 34
REMARK SMILES IDX 29 35 30 36 31 37 81 38 32 39 86 40 80 41 82 42 33 43 85 44
REMARK SMILES IDX 79 45 78 46 34 48 66 49 46 50 65 51 47 52 50 53 64 54 83 55
REMARK SMILES IDX 48 56 49 57 63 59 84 60 51 61 35 62 36 63 44 64 37 65 43 66
REMARK SMILES IDX 45 67 42 68 38 69 39 70 40 71 41 72 67 73 68 74 76 75 69 76
REMARK SMILES IDX 75 77 77 78 74 79 70 80 71 81 72 82 73 83 52 84 53 85 61 86
REMARK SMILES IDX 54 87 60 88 62 89 59 90 55 91 56 92 57 93 58 94
REMARK H PARENT 19 6 23 28 82 47 50 58
REMARK Flexibility Score: inf
ROOT
ATOM      1  C   UNL A   1      33.772  30.541  27.554  1.00  0.00     0.042 C 
ENDROOT
BRANCH   1   2
ATOM      2  C   UNL A   1      34.141  29.158  27.036  1.00  0.00     0.117 C 
BRANCH   2   3
ATOM      3  N   UNL A   1      34.329  29.147  25.590  1.00  0.00    -0.356 N 
ATOM      4  C   UNL A   1      34.027  28.193  24.666  1.00  0.00     0.223 C 
ATOM      5  O   UNL A   1      34.265  28.426  23.477  1.00  0.00    -0.275 OA
ATOM      6  H   UNL A   1      34.742  29.961  25.221  1.00  0.00     0.163 HD
BRANCH   4   7
ATOM      7  C   UNL A   1      33.459  26.834  25.066  1.00  0.00     0.087 C 
BRANCH   7   8
ATOM      8  C   UNL A   1      32.049  27.110  25.643  1.00  0.00     0.049 C 
BRANCH   8   9
ATOM      9  C   UNL A   1      31.011  27.807  24.799  1.00  0.00    -0.047 A 
ATOM     10  C   UNL A   1      28.344  29.734  21.999  1.00  0.00     0.044 C 
ATOM     11  C   UNL A   1      29.270  29.079  22.978  1.00  0.00    -0.051 A 
ATOM     12  C   UNL A   1      29.239  27.691  23.137  1.00  0.00     0.004 A 
ATOM     13  C   UNL A   1      30.163  29.830  23.751  1.00  0.00     0.004 A 
ATOM     14  C   UNL A   1      30.113  27.062  24.023  1.00  0.00     0.004 A 
ATOM     15  C   UNL A   1      31.023  29.200  24.657  1.00  0.00     0.004 A 
ENDBRANCH   8   9
ENDBRANCH   7   8
BRANCH   7  16
ATOM     16  C   UNL A   1      33.561  25.705  24.008  1.00  0.00     0.049 C 
BRANCH  16  17
ATOM     17  C   UNL A   1      34.084  24.323  24.350  1.00  0.00    -0.043 A 
ATOM     18  C   UNL A   1      35.311  24.232  25.034  1.00  0.00     0.043 A 
ATOM     19  C   UNL A   1      33.415  23.128  24.052  1.00  0.00     0.019 A 
ATOM     20  C   UNL A   1      35.793  23.005  25.481  1.00  0.00     0.124 A 
ATOM     21  C   UNL A   1      33.892  21.905  24.548  1.00  0.00     0.021 A 
ATOM     22  F   UNL A   1      36.969  22.966  26.122  1.00  0.00    -0.207 F 
ATOM     23  C   UNL A   1      35.080  21.837  25.267  1.00  0.00     0.055 A 
ATOM     24  Br  UNL A   1      32.889  20.326  24.257  1.00  0.00    -0.051 Br
ENDBRANCH  16  17
ENDBRANCH   7  16
ENDBRANCH   4   7
ENDBRANCH   2   3
ENDBRANCH   1   2
BRANCH   1  25
ATOM     25  C   UNL A   1      34.972  31.465  27.639  1.00  0.00     0.118 C 
BRANCH  25  26
ATOM     26  N   UNL A   1      35.341  31.844  28.997  1.00  0.00    -0.352 N 
ATOM     27  C   UNL A   1      36.148  31.163  29.899  1.00  0.00     0.251 C 
ATOM     28  H   UNL A   1      34.969  32.696  29.317  1.00  0.00     0.163 HD
ATOM     29  O   UNL A   1      36.282  31.547  31.042  1.00  0.00    -0.269 OA
BRANCH  27  30
ATOM     30  C   UNL A   1      36.960  30.028  29.392  1.00  0.00     0.039 A 
ATOM     31  C   UNL A   1      37.205  28.975  30.281  1.00  0.00     0.014 A 
ATOM     32  C   UNL A   1      37.677  30.128  28.203  1.00  0.00     0.014 A 
ATOM     33  C   UNL A   1      38.333  28.182  30.099  1.00  0.00     0.010 A 
ATOM     34  C   UNL A   1      38.857  29.423  28.083  1.00  0.00     0.010 A 
ATOM     35  C   UNL A   1      39.215  28.497  29.064  1.00  0.00    -0.014 A 
BRANCH  35  36
ATOM     36  C   UNL A   1      40.579  27.989  29.013  1.00  0.00     0.031 A 
ATOM     37  C   UNL A   1      40.845  26.626  28.507  1.00  0.00     0.074 A 
ATOM     38  C   UNL A   1      41.610  28.744  29.457  1.00  0.00     0.049 A 
ATOM     39  N   UNL A   1      41.794  25.868  28.946  1.00  0.00    -0.248 NA
ATOM     40  C   UNL A   1      40.023  25.987  27.484  1.00  0.00     0.031 C 
ATOM     41  C   UNL A   1      43.037  28.449  29.333  1.00  0.00     0.029 A 
ATOM     42  N   UNL A   1      41.606  29.872  30.257  1.00  0.00    -0.354 N 
ATOM     43  C   UNL A   1      41.884  24.787  28.102  1.00  0.00     0.074 A 
ATOM     44  C   UNL A   1      40.719  24.870  27.251  1.00  0.00     0.031 C 
ATOM     45  C   UNL A   1      43.707  29.160  30.256  1.00  0.00     0.029 A 
ATOM     46  C   UNL A   1      42.717  29.814  31.094  1.00  0.00     0.049 A 
ATOM     47  H   UNL A   1      40.935  30.592  30.238  1.00  0.00     0.167 HD
ATOM     48  C   UNL A   1      43.002  24.010  28.106  1.00  0.00     0.034 A 
ATOM     49  C   UNL A   1      42.648  29.696  32.453  1.00  0.00     0.034 A 
ATOM     50  C   UNL A   1      43.999  24.497  29.053  1.00  0.00     0.049 A 
ATOM     51  C   UNL A   1      43.379  28.477  32.986  1.00  0.00     0.074 A 
ATOM     52  C   UNL A   1      45.129  25.281  28.891  1.00  0.00     0.029 A 
ATOM     53  N   UNL A   1      43.750  24.440  30.419  1.00  0.00    -0.354 N 
ATOM     54  N   UNL A   1      43.675  27.425  32.271  1.00  0.00    -0.248 NA
ATOM     55  C   UNL A   1      43.802  28.342  34.375  1.00  0.00     0.031 C 
ATOM     56  C   UNL A   1      45.544  25.723  30.173  1.00  0.00     0.029 A 
ATOM     57  C   UNL A   1      44.684  25.185  31.115  1.00  0.00     0.049 A 
ATOM     58  H   UNL A   1      43.012  23.939  30.834  1.00  0.00     0.167 HD
ATOM     59  C   UNL A   1      44.286  26.482  33.064  1.00  0.00     0.074 A 
ATOM     60  C   UNL A   1      44.363  27.120  34.367  1.00  0.00     0.031 C 
ATOM     61  C   UNL A   1      44.657  25.259  32.571  1.00  0.00     0.034 A 
BRANCH  48  62
ATOM     62  C   UNL A   1      43.306  23.014  27.015  1.00  0.00     0.023 A 
ATOM     63  C   UNL A   1      42.719  21.733  27.063  1.00  0.00     0.031 A 
ATOM     64  C   UNL A   1      44.180  23.246  25.936  1.00  0.00     0.131 A 
ATOM     65  C   UNL A   1      43.084  20.726  26.151  1.00  0.00     0.055 A 
ATOM     66  C   UNL A   1      44.589  22.230  25.063  1.00  0.00     0.041 A 
ATOM     67  F   UNL A   1      44.648  24.475  25.671  1.00  0.00    -0.206 F 
ATOM     68  C   UNL A   1      44.052  20.955  25.177  1.00  0.00     0.022 A 
BRANCH  65  69
ATOM     69  S   UNL A   1      42.265  19.111  26.256  1.00  0.00     0.124 S 
ATOM     70  O   UNL A   1      43.095  18.285  25.386  1.00  0.00    -0.237 OA
ATOM     71  O   UNL A   1      42.337  18.821  27.684  1.00  0.00    -0.237 OA
ATOM     72  O   UNL A   1      40.920  19.381  25.750  1.00  0.00    -0.744 OA
ENDBRANCH  65  69
ENDBRANCH  48  62
BRANCH  49  73
ATOM     73  C   UNL A   1      41.414  30.260  33.069  1.00  0.00     0.023 A 
ATOM     74  C   UNL A   1      41.364  31.650  33.282  1.00  0.00     0.031 A 
ATOM     75  C   UNL A   1      40.208  29.545  33.115  1.00  0.00     0.131 A 
ATOM     76  C   UNL A   1      40.127  32.305  33.370  1.00  0.00     0.055 A 
ATOM     77  C   UNL A   1      38.978  30.199  33.268  1.00  0.00     0.041 A 
ATOM     78  F   UNL A   1      40.187  28.223  32.895  1.00  0.00    -0.206 F 
ATOM     79  C   UNL A   1      38.930  31.590  33.359  1.00  0.00     0.022 A 
BRANCH  76  80
ATOM     80  S   UNL A   1      40.124  34.114  33.278  1.00  0.00     0.124 S 
ATOM     81  O   UNL A   1      40.792  34.488  34.520  1.00  0.00    -0.237 OA
ATOM     82  O   UNL A   1      40.885  34.341  32.051  1.00  0.00    -0.237 OA
ATOM     83  O   UNL A   1      38.710  34.462  33.196  1.00  0.00    -0.744 OA
ENDBRANCH  76  80
ENDBRANCH  49  73
BRANCH  61  84
ATOM     84  C   UNL A   1      45.121  24.052  33.373  1.00  0.00     0.023 A 
ATOM     85  C   UNL A   1      46.383  23.951  33.976  1.00  0.00     0.031 A 
ATOM     86  C   UNL A   1      44.254  22.954  33.615  1.00  0.00     0.131 A 
ATOM     87  C   UNL A   1      46.770  22.801  34.692  1.00  0.00     0.055 A 
ATOM     88  C   UNL A   1      44.613  21.843  34.386  1.00  0.00     0.041 A 
ATOM     89  F   UNL A   1      43.006  22.911  33.127  1.00  0.00    -0.206 F 
ATOM     90  C   UNL A   1      45.888  21.752  34.919  1.00  0.00     0.022 A 
BRANCH  87  91
ATOM     91  S   UNL A   1      48.485  22.691  35.270  1.00  0.00     0.124 S 
ATOM     92  O   UNL A   1      48.644  23.957  35.980  1.00  0.00    -0.237 OA
ATOM     93  O   UNL A   1      48.456  21.496  36.107  1.00  0.00    -0.237 OA
ATOM     94  O   UNL A   1      49.259  22.568  34.037  1.00  0.00    -0.744 OA
ENDBRANCH  87  91
ENDBRANCH  61  84
ENDBRANCH  35  36
ENDBRANCH  27  30
ENDBRANCH  25  26
ENDBRANCH   1  25
TORSDOF 17
ENDMDL
