MODEL 1
REMARK VINA RESULT:     -11.3      0.000      0.000
REMARK SMILES C[NH2+][C@]1(C(=O)NCCCNC(=O)c2ccc(-c3c4nc(c(-c5cc(S(=O)(=O)[O-])ccc5F)c5ccc([nH]5)c(-c5cc(S(=O)(=O)[O-])ccc5F)c5nc(c(-c6cc(S(=O)(=O)[O-])ccc6F)c6ccc3[nH]6)C=C5)C=C4)cc2)CCC[C@@H]1CCOC[C@@H]1CCCO1
REMARK SMILES IDX 7 1 6 2 4 3 5 4 3 6 76 7 79 8 77 9 78 10 2 11 1 12 80 15
REMARK SMILES IDX 81 16 82 17 83 18 84 19 85 20 88 21 86 22 87 23 8 24 9 25
REMARK SMILES IDX 10 26 11 27 12 29 13 30 14 31 75 32 15 33 74 34 16 35 17 36
REMARK SMILES IDX 18 37 68 38 19 39 73 40 67 41 69 42 20 43 72 44 66 45 65 46
REMARK SMILES IDX 21 48 53 49 33 50 52 51 34 52 37 53 51 54 70 55 35 56 36 57
REMARK SMILES IDX 50 59 71 60 38 61 22 62 23 63 31 64 24 65 30 66 32 67 29 68
REMARK SMILES IDX 25 69 26 70 27 71 28 72 54 73 55 74 63 75 56 76 62 77 64 78
REMARK SMILES IDX 61 79 57 80 58 81 59 82 60 83 39 84 40 85 48 86 41 87 47 88
REMARK SMILES IDX 49 89 46 90 42 91 43 92 44 93 45 94
REMARK H PARENT 6 5 2 13 2 14 10 28 69 47 37 58
REMARK Flexibility Score: inf
ROOT
ATOM      1  C   UNL A   1      33.537  21.464  26.235  1.00  0.00     0.118 C 
ENDROOT
BRANCH   1   2
ATOM      2  N   UNL A   1      32.417  22.168  26.835  1.00  0.00    -0.351 N 
ATOM      3  C   UNL A   1      31.813  23.360  26.594  1.00  0.00     0.281 C 
ATOM      4  O   UNL A   1      30.786  23.564  27.255  1.00  0.00    -0.268 OA
ATOM      5  H   UNL A   1      32.004  21.672  27.580  1.00  0.00     0.163 HD
BRANCH   3   6
ATOM      6  C   UNL A   1      32.286  24.376  25.505  1.00  0.00     0.178 C 
ATOM      7  C   UNL A   1      33.606  25.124  25.789  1.00  0.00     0.079 C 
ATOM      8  C   UNL A   1      32.643  23.608  24.194  1.00  0.00     0.063 C 
ATOM      9  C   UNL A   1      34.258  25.388  24.425  1.00  0.00     0.008 C 
ATOM     10  C   UNL A   1      33.400  24.670  23.384  1.00  0.00     0.011 C 
BRANCH   6  11
ATOM     11  N   UNL A   1      31.206  25.363  25.179  1.00  0.00    -0.336 N 
ATOM     12  C   UNL A   1      31.248  26.614  25.929  1.00  0.00     0.331 C 
ATOM     13  H   UNL A   1      31.276  25.589  24.186  1.00  0.00     0.346 HD
ATOM     14  H   UNL A   1      30.328  24.911  25.436  1.00  0.00     0.346 HD
ENDBRANCH   6  11
BRANCH   8  15
ATOM     15  C   UNL A   1      31.464  22.946  23.456  1.00  0.00     0.039 C 
BRANCH  15  16
ATOM     16  C   UNL A   1      31.801  21.678  22.658  1.00  0.00     0.161 C 
BRANCH  16  17
ATOM     17  O   UNL A   1      32.623  20.740  23.335  1.00  0.00    -0.379 OA
BRANCH  17  18
ATOM     18  C   UNL A   1      32.364  19.342  23.243  1.00  0.00     0.192 C 
BRANCH  18  19
ATOM     19  C   UNL A   1      33.154  18.383  24.152  1.00  0.00     0.144 C 
ATOM     20  C   UNL A   1      33.700  17.132  23.485  1.00  0.00     0.037 C 
ATOM     21  O   UNL A   1      32.377  17.957  25.284  1.00  0.00    -0.376 OA
ATOM     22  C   UNL A   1      33.681  16.108  24.586  1.00  0.00     0.031 C 
ATOM     23  C   UNL A   1      32.478  16.534  25.397  1.00  0.00     0.160 C 
ENDBRANCH  18  19
ENDBRANCH  17  18
ENDBRANCH  16  17
ENDBRANCH  15  16
ENDBRANCH   8  15
ENDBRANCH   3   6
ENDBRANCH   1   2
BRANCH   1  24
ATOM     24  C   UNL A   1      34.871  21.837  26.857  1.00  0.00     0.042 C 
BRANCH  24  25
ATOM     25  C   UNL A   1      35.942  22.186  25.832  1.00  0.00     0.118 C 
BRANCH  25  26
ATOM     26  N   UNL A   1      36.933  21.130  25.664  1.00  0.00    -0.352 N 
ATOM     27  C   UNL A   1      38.305  21.180  25.741  1.00  0.00     0.251 C 
ATOM     28  H   UNL A   1      36.560  20.241  25.463  1.00  0.00     0.163 HD
ATOM     29  O   UNL A   1      38.962  20.217  25.366  1.00  0.00    -0.269 OA
BRANCH  27  30
ATOM     30  C   UNL A   1      38.976  22.399  26.245  1.00  0.00     0.039 A 
ATOM     31  C   UNL A   1      40.097  22.268  27.067  1.00  0.00     0.014 A 
ATOM     32  C   UNL A   1      38.502  23.668  25.906  1.00  0.00     0.014 A 
ATOM     33  C   UNL A   1      40.789  23.410  27.478  1.00  0.00     0.010 A 
ATOM     34  C   UNL A   1      39.252  24.795  26.224  1.00  0.00     0.010 A 
ATOM     35  C   UNL A   1      40.400  24.681  27.021  1.00  0.00    -0.014 A 
BRANCH  35  36
ATOM     36  C   UNL A   1      41.166  25.904  27.376  1.00  0.00     0.031 A 
ATOM     37  C   UNL A   1      40.526  26.970  28.225  1.00  0.00     0.074 A 
ATOM     38  C   UNL A   1      42.406  26.084  26.879  1.00  0.00     0.049 A 
ATOM     39  N   UNL A   1      40.992  28.143  28.571  1.00  0.00    -0.248 NA
ATOM     40  C   UNL A   1      39.168  26.694  28.720  1.00  0.00     0.031 C 
ATOM     41  C   UNL A   1      43.115  25.141  26.012  1.00  0.00     0.029 A 
ATOM     42  N   UNL A   1      43.289  27.124  27.025  1.00  0.00    -0.354 N 
ATOM     43  C   UNL A   1      39.980  28.749  29.309  1.00  0.00     0.074 A 
ATOM     44  C   UNL A   1      38.851  27.842  29.296  1.00  0.00     0.031 C 
ATOM     45  C   UNL A   1      44.334  25.629  25.734  1.00  0.00     0.029 A 
ATOM     46  C   UNL A   1      44.476  26.943  26.350  1.00  0.00     0.049 A 
ATOM     47  H   UNL A   1      43.093  27.927  27.562  1.00  0.00     0.167 HD
ATOM     48  C   UNL A   1      39.999  29.939  29.959  1.00  0.00     0.034 A 
ATOM     49  C   UNL A   1      45.549  27.750  26.231  1.00  0.00     0.034 A 
ATOM     50  C   UNL A   1      41.138  30.822  29.971  1.00  0.00     0.049 A 
ATOM     51  C   UNL A   1      45.534  29.085  26.934  1.00  0.00     0.074 A 
ATOM     52  C   UNL A   1      41.289  32.024  30.642  1.00  0.00     0.029 A 
ATOM     53  N   UNL A   1      42.320  30.609  29.270  1.00  0.00    -0.354 N 
ATOM     54  N   UNL A   1      44.590  29.620  27.674  1.00  0.00    -0.248 NA
ATOM     55  C   UNL A   1      46.734  29.919  26.795  1.00  0.00     0.031 C 
ATOM     56  C   UNL A   1      42.524  32.574  30.282  1.00  0.00     0.029 A 
ATOM     57  C   UNL A   1      43.186  31.674  29.462  1.00  0.00     0.049 A 
ATOM     58  H   UNL A   1      42.513  29.818  28.719  1.00  0.00     0.167 HD
ATOM     59  C   UNL A   1      45.098  30.839  28.116  1.00  0.00     0.074 A 
ATOM     60  C   UNL A   1      46.437  30.950  27.572  1.00  0.00     0.031 C 
ATOM     61  C   UNL A   1      44.516  31.777  28.905  1.00  0.00     0.034 A 
BRANCH  48  62
ATOM     62  C   UNL A   1      38.739  30.357  30.683  1.00  0.00     0.023 A 
ATOM     63  C   UNL A   1      37.706  31.053  30.031  1.00  0.00     0.031 A 
ATOM     64  C   UNL A   1      38.581  30.082  32.053  1.00  0.00     0.131 A 
ATOM     65  C   UNL A   1      36.606  31.524  30.763  1.00  0.00     0.055 A 
ATOM     66  C   UNL A   1      37.440  30.474  32.757  1.00  0.00     0.041 A 
ATOM     67  F   UNL A   1      39.541  29.442  32.738  1.00  0.00    -0.206 F 
ATOM     68  C   UNL A   1      36.451  31.215  32.116  1.00  0.00     0.022 A 
BRANCH  65  69
ATOM     69  S   UNL A   1      35.466  32.684  29.959  1.00  0.00     0.124 S 
ATOM     70  O   UNL A   1      34.308  32.622  30.847  1.00  0.00    -0.237 OA
ATOM     71  O   UNL A   1      36.221  33.932  29.977  1.00  0.00    -0.237 OA
ATOM     72  O   UNL A   1      35.258  32.099  28.636  1.00  0.00    -0.744 OA
ENDBRANCH  65  69
ENDBRANCH  48  62
BRANCH  49  73
ATOM     73  C   UNL A   1      46.725  27.332  25.414  1.00  0.00     0.023 A 
ATOM     74  C   UNL A   1      46.917  27.831  24.115  1.00  0.00     0.031 A 
ATOM     75  C   UNL A   1      47.651  26.391  25.900  1.00  0.00     0.131 A 
ATOM     76  C   UNL A   1      47.977  27.351  23.330  1.00  0.00     0.055 A 
ATOM     77  C   UNL A   1      48.738  25.962  25.137  1.00  0.00     0.041 A 
ATOM     78  F   UNL A   1      47.518  25.883  27.135  1.00  0.00    -0.206 F 
ATOM     79  C   UNL A   1      48.897  26.431  23.837  1.00  0.00     0.022 A 
BRANCH  76  80
ATOM     80  S   UNL A   1      48.079  27.876  21.596  1.00  0.00     0.124 S 
ATOM     81  O   UNL A   1      46.782  28.513  21.404  1.00  0.00    -0.237 OA
ATOM     82  O   UNL A   1      49.236  28.764  21.617  1.00  0.00    -0.237 OA
ATOM     83  O   UNL A   1      48.272  26.621  20.873  1.00  0.00    -0.744 OA
ENDBRANCH  76  80
ENDBRANCH  49  73
BRANCH  61  84
ATOM     84  C   UNL A   1      45.349  32.984  29.270  1.00  0.00     0.023 A 
ATOM     85  C   UNL A   1      45.320  34.165  28.508  1.00  0.00     0.031 A 
ATOM     86  C   UNL A   1      46.191  32.945  30.396  1.00  0.00     0.131 A 
ATOM     87  C   UNL A   1      46.162  35.236  28.846  1.00  0.00     0.055 A 
ATOM     88  C   UNL A   1      46.972  34.039  30.769  1.00  0.00     0.041 A 
ATOM     89  F   UNL A   1      46.263  31.842  31.159  1.00  0.00    -0.206 F 
ATOM     90  C   UNL A   1      46.971  35.188  29.984  1.00  0.00     0.022 A 
BRANCH  87  91
ATOM     91  S   UNL A   1      46.261  36.655  27.721  1.00  0.00     0.124 S 
ATOM     92  O   UNL A   1      45.501  37.668  28.445  1.00  0.00    -0.237 OA
ATOM     93  O   UNL A   1      47.700  36.880  27.631  1.00  0.00    -0.237 OA
ATOM     94  O   UNL A   1      45.633  36.165  26.496  1.00  0.00    -0.744 OA
ENDBRANCH  87  91
ENDBRANCH  61  84
ENDBRANCH  35  36
ENDBRANCH  27  30
ENDBRANCH  25  26
ENDBRANCH  24  25
ENDBRANCH   1  24
TORSDOF 19
ENDMDL
MODEL 2
REMARK VINA RESULT:     -11.1      1.727      7.710
REMARK SMILES C[NH2+][C@]1(C(=O)NCCCNC(=O)c2ccc(-c3c4nc(c(-c5cc(S(=O)(=O)[O-])ccc5F)c5ccc([nH]5)c(-c5cc(S(=O)(=O)[O-])ccc5F)c5nc(c(-c6cc(S(=O)(=O)[O-])ccc6F)c6ccc3[nH]6)C=C5)C=C4)cc2)CCC[C@@H]1CCOC[C@@H]1CCCO1
REMARK SMILES IDX 7 1 6 2 4 3 5 4 3 6 76 7 79 8 77 9 78 10 2 11 1 12 80 15
REMARK SMILES IDX 81 16 82 17 83 18 84 19 85 20 88 21 86 22 87 23 8 24 9 25
REMARK SMILES IDX 10 26 11 27 12 29 13 30 14 31 75 32 15 33 74 34 16 35 17 36
REMARK SMILES IDX 18 37 68 38 19 39 73 40 67 41 69 42 20 43 72 44 66 45 65 46
REMARK SMILES IDX 21 48 53 49 33 50 52 51 34 52 37 53 51 54 70 55 35 56 36 57
REMARK SMILES IDX 50 59 71 60 38 61 22 62 23 63 31 64 24 65 30 66 32 67 29 68
REMARK SMILES IDX 25 69 26 70 27 71 28 72 54 73 55 74 63 75 56 76 62 77 64 78
REMARK SMILES IDX 61 79 57 80 58 81 59 82 60 83 39 84 40 85 48 86 41 87 47 88
REMARK SMILES IDX 49 89 46 90 42 91 43 92 44 93 45 94
REMARK H PARENT 6 5 2 13 2 14 10 28 69 47 37 58
REMARK Flexibility Score: inf
ROOT
ATOM      1  C   UNL A   1      35.333  22.907  26.037  1.00  0.00     0.118 C 
ENDROOT
BRANCH   1   2
ATOM      2  N   UNL A   1      34.070  22.938  26.753  1.00  0.00    -0.351 N 
ATOM      3  C   UNL A   1      32.889  23.582  26.559  1.00  0.00     0.281 C 
ATOM      4  O   UNL A   1      31.984  23.251  27.336  1.00  0.00    -0.268 OA
ATOM      5  H   UNL A   1      34.068  22.366  27.556  1.00  0.00     0.163 HD
BRANCH   3   6
ATOM      6  C   UNL A   1      32.625  24.589  25.394  1.00  0.00     0.178 C 
ATOM      7  C   UNL A   1      33.628  25.754  25.250  1.00  0.00     0.079 C 
ATOM      8  C   UNL A   1      32.798  23.862  24.025  1.00  0.00     0.063 C 
ATOM      9  C   UNL A   1      33.694  26.088  23.754  1.00  0.00     0.008 C 
ATOM     10  C   UNL A   1      32.855  25.033  23.033  1.00  0.00     0.011 C 
BRANCH   6  11
ATOM     11  N   UNL A   1      31.227  25.130  25.453  1.00  0.00    -0.336 N 
ATOM     12  C   UNL A   1      31.078  26.419  26.121  1.00  0.00     0.331 C 
ATOM     13  H   UNL A   1      30.889  25.231  24.496  1.00  0.00     0.346 HD
ATOM     14  H   UNL A   1      30.693  24.463  26.010  1.00  0.00     0.346 HD
ENDBRANCH   6  11
BRANCH   8  15
ATOM     15  C   UNL A   1      31.750  22.783  23.695  1.00  0.00     0.039 C 
BRANCH  15  16
ATOM     16  C   UNL A   1      32.279  21.344  23.596  1.00  0.00     0.161 C 
BRANCH  16  17
ATOM     17  O   UNL A   1      31.906  20.490  24.667  1.00  0.00    -0.379 OA
BRANCH  17  18
ATOM     18  C   UNL A   1      32.835  19.560  25.216  1.00  0.00     0.192 C 
BRANCH  18  19
ATOM     19  C   UNL A   1      33.706  18.730  24.254  1.00  0.00     0.144 C 
ATOM     20  C   UNL A   1      32.976  17.693  23.420  1.00  0.00     0.037 C 
ATOM     21  O   UNL A   1      34.766  18.050  24.946  1.00  0.00    -0.376 OA
ATOM     22  C   UNL A   1      33.997  16.605  23.237  1.00  0.00     0.031 C 
ATOM     23  C   UNL A   1      34.780  16.682  24.528  1.00  0.00     0.160 C 
ENDBRANCH  18  19
ENDBRANCH  17  18
ENDBRANCH  16  17
ENDBRANCH  15  16
ENDBRANCH   8  15
ENDBRANCH   3   6
ENDBRANCH   1   2
BRANCH   1  24
ATOM     24  C   UNL A   1      35.824  21.496  25.765  1.00  0.00     0.042 C 
BRANCH  24  25
ATOM     25  C   UNL A   1      37.093  21.446  24.926  1.00  0.00     0.118 C 
BRANCH  25  26
ATOM     26  N   UNL A   1      38.031  20.425  25.377  1.00  0.00    -0.352 N 
ATOM     27  C   UNL A   1      39.267  20.553  25.967  1.00  0.00     0.251 C 
ATOM     28  H   UNL A   1      37.733  19.497  25.236  1.00  0.00     0.163 HD
ATOM     29  O   UNL A   1      39.981  19.566  26.084  1.00  0.00    -0.269 OA
BRANCH  27  30
ATOM     30  C   UNL A   1      39.735  21.879  26.427  1.00  0.00     0.039 A 
ATOM     31  C   UNL A   1      40.805  21.951  27.322  1.00  0.00     0.014 A 
ATOM     32  C   UNL A   1      39.124  23.050  25.975  1.00  0.00     0.014 A 
ATOM     33  C   UNL A   1      41.311  23.198  27.696  1.00  0.00     0.010 A 
ATOM     34  C   UNL A   1      39.695  24.285  26.260  1.00  0.00     0.010 A 
ATOM     35  C   UNL A   1      40.790  24.375  27.131  1.00  0.00    -0.014 A 
BRANCH  35  36
ATOM     36  C   UNL A   1      41.363  25.709  27.448  1.00  0.00     0.031 A 
ATOM     37  C   UNL A   1      42.771  26.040  27.029  1.00  0.00     0.074 A 
ATOM     38  C   UNL A   1      40.642  26.593  28.168  1.00  0.00     0.049 A 
ATOM     39  N   UNL A   1      43.480  27.110  27.284  1.00  0.00    -0.248 NA
ATOM     40  C   UNL A   1      43.487  25.017  26.253  1.00  0.00     0.031 C 
ATOM     41  C   UNL A   1      39.283  26.370  28.664  1.00  0.00     0.029 A 
ATOM     42  N   UNL A   1      40.953  27.852  28.614  1.00  0.00    -0.354 N 
ATOM     43  C   UNL A   1      44.728  26.881  26.713  1.00  0.00     0.074 A 
ATOM     44  C   UNL A   1      44.698  25.542  26.164  1.00  0.00     0.031 C 
ATOM     45  C   UNL A   1      38.865  27.468  29.314  1.00  0.00     0.029 A 
ATOM     46  C   UNL A   1      39.943  28.451  29.334  1.00  0.00     0.049 A 
ATOM     47  H   UNL A   1      41.818  28.289  28.436  1.00  0.00     0.167 HD
ATOM     48  C   UNL A   1      45.791  27.718  26.632  1.00  0.00     0.034 A 
ATOM     49  C   UNL A   1      39.896  29.649  29.950  1.00  0.00     0.034 A 
ATOM     50  C   UNL A   1      45.797  29.054  27.174  1.00  0.00     0.049 A 
ATOM     51  C   UNL A   1      41.104  30.550  29.876  1.00  0.00     0.074 A 
ATOM     52  C   UNL A   1      46.796  30.010  27.100  1.00  0.00     0.029 A 
ATOM     53  N   UNL A   1      44.759  29.623  27.903  1.00  0.00    -0.354 N 
ATOM     54  N   UNL A   1      42.257  30.340  29.285  1.00  0.00    -0.248 NA
ATOM     55  C   UNL A   1      40.997  31.854  30.542  1.00  0.00     0.031 C 
ATOM     56  C   UNL A   1      46.396  31.121  27.850  1.00  0.00     0.029 A 
ATOM     57  C   UNL A   1      45.110  30.899  28.315  1.00  0.00     0.049 A 
ATOM     58  H   UNL A   1      43.900  29.184  28.097  1.00  0.00     0.167 HD
ATOM     59  C   UNL A   1      43.001  31.502  29.480  1.00  0.00     0.074 A 
ATOM     60  C   UNL A   1      42.157  32.411  30.229  1.00  0.00     0.031 C 
ATOM     61  C   UNL A   1      44.262  31.794  29.071  1.00  0.00     0.034 A 
BRANCH  48  62
ATOM     62  C   UNL A   1      47.038  27.197  25.955  1.00  0.00     0.023 A 
ATOM     63  C   UNL A   1      48.019  26.478  26.661  1.00  0.00     0.031 A 
ATOM     64  C   UNL A   1      47.265  27.447  24.590  1.00  0.00     0.131 A 
ATOM     65  C   UNL A   1      49.215  26.111  26.025  1.00  0.00     0.055 A 
ATOM     66  C   UNL A   1      48.418  26.999  23.940  1.00  0.00     0.041 A 
ATOM     67  F   UNL A   1      46.379  28.148  23.866  1.00  0.00    -0.206 F 
ATOM     68  C   UNL A   1      49.409  26.341  24.662  1.00  0.00     0.022 A 
BRANCH  65  69
ATOM     69  S   UNL A   1      50.576  25.478  27.044  1.00  0.00     0.124 S 
ATOM     70  O   UNL A   1      50.985  26.678  27.768  1.00  0.00    -0.237 OA
ATOM     71  O   UNL A   1      49.922  24.444  27.837  1.00  0.00    -0.237 OA
ATOM     72  O   UNL A   1      51.543  24.993  26.060  1.00  0.00    -0.744 OA
ENDBRANCH  65  69
ENDBRANCH  48  62
BRANCH  49  73
ATOM     73  C   UNL A   1      38.675  30.070  30.697  1.00  0.00     0.023 A 
ATOM     74  C   UNL A   1      37.657  30.802  30.064  1.00  0.00     0.031 A 
ATOM     75  C   UNL A   1      38.526  29.786  32.066  1.00  0.00     0.131 A 
ATOM     76  C   UNL A   1      36.563  31.269  30.810  1.00  0.00     0.055 A 
ATOM     77  C   UNL A   1      37.407  30.201  32.790  1.00  0.00     0.041 A 
ATOM     78  F   UNL A   1      39.467  29.087  32.721  1.00  0.00    -0.206 F 
ATOM     79  C   UNL A   1      36.424  30.960  32.165  1.00  0.00     0.022 A 
BRANCH  76  80
ATOM     80  S   UNL A   1      35.369  32.371  30.002  1.00  0.00     0.124 S 
ATOM     81  O   UNL A   1      36.218  33.492  29.615  1.00  0.00    -0.237 OA
ATOM     82  O   UNL A   1      34.873  31.535  28.915  1.00  0.00    -0.237 OA
ATOM     83  O   UNL A   1      34.402  32.655  31.060  1.00  0.00    -0.744 OA
ENDBRANCH  76  80
ENDBRANCH  49  73
BRANCH  61  84
ATOM     84  C   UNL A   1      44.785  33.176  29.384  1.00  0.00     0.023 A 
ATOM     85  C   UNL A   1      44.537  34.274  28.542  1.00  0.00     0.031 A 
ATOM     86  C   UNL A   1      45.554  33.393  30.542  1.00  0.00     0.131 A 
ATOM     87  C   UNL A   1      45.100  35.524  28.839  1.00  0.00     0.055 A 
ATOM     88  C   UNL A   1      46.052  34.654  30.869  1.00  0.00     0.041 A 
ATOM     89  F   UNL A   1      45.828  32.380  31.381  1.00  0.00    -0.206 F 
ATOM     90  C   UNL A   1      45.839  35.726  30.007  1.00  0.00     0.022 A 
BRANCH  87  91
ATOM     91  S   UNL A   1      44.943  36.861  27.623  1.00  0.00     0.124 S 
ATOM     92  O   UNL A   1      44.305  36.177  26.503  1.00  0.00    -0.237 OA
ATOM     93  O   UNL A   1      44.115  37.831  28.332  1.00  0.00    -0.237 OA
ATOM     94  O   UNL A   1      46.324  37.277  27.391  1.00  0.00    -0.744 OA
ENDBRANCH  87  91
ENDBRANCH  61  84
ENDBRANCH  35  36
ENDBRANCH  27  30
ENDBRANCH  25  26
ENDBRANCH  24  25
ENDBRANCH   1  24
TORSDOF 19
ENDMDL
MODEL 3
REMARK VINA RESULT:     -11.1      5.056      7.403
REMARK SMILES C[NH2+][C@]1(C(=O)NCCCNC(=O)c2ccc(-c3c4nc(c(-c5cc(S(=O)(=O)[O-])ccc5F)c5ccc([nH]5)c(-c5cc(S(=O)(=O)[O-])ccc5F)c5nc(c(-c6cc(S(=O)(=O)[O-])ccc6F)c6ccc3[nH]6)C=C5)C=C4)cc2)CCC[C@@H]1CCOC[C@@H]1CCCO1
REMARK SMILES IDX 7 1 6 2 4 3 5 4 3 6 76 7 79 8 77 9 78 10 2 11 1 12 80 15
REMARK SMILES IDX 81 16 82 17 83 18 84 19 85 20 88 21 86 22 87 23 8 24 9 25
REMARK SMILES IDX 10 26 11 27 12 29 13 30 14 31 75 32 15 33 74 34 16 35 17 36
REMARK SMILES IDX 18 37 68 38 19 39 73 40 67 41 69 42 20 43 72 44 66 45 65 46
REMARK SMILES IDX 21 48 53 49 33 50 52 51 34 52 37 53 51 54 70 55 35 56 36 57
REMARK SMILES IDX 50 59 71 60 38 61 22 62 23 63 31 64 24 65 30 66 32 67 29 68
REMARK SMILES IDX 25 69 26 70 27 71 28 72 54 73 55 74 63 75 56 76 62 77 64 78
REMARK SMILES IDX 61 79 57 80 58 81 59 82 60 83 39 84 40 85 48 86 41 87 47 88
REMARK SMILES IDX 49 89 46 90 42 91 43 92 44 93 45 94
REMARK H PARENT 6 5 2 13 2 14 10 28 69 47 37 58
REMARK Flexibility Score: inf
ROOT
ATOM      1  C   UNL A   1      32.710  27.476  26.909  1.00  0.00     0.118 C 
ENDROOT
BRANCH   1   2
ATOM      2  N   UNL A   1      31.520  26.643  26.884  1.00  0.00    -0.351 N 
ATOM      3  C   UNL A   1      31.159  25.533  26.189  1.00  0.00     0.281 C 
ATOM      4  O   UNL A   1      30.085  25.027  26.541  1.00  0.00    -0.268 OA
ATOM      5  H   UNL A   1      30.822  26.948  27.509  1.00  0.00     0.163 HD
BRANCH   3   6
ATOM      6  C   UNL A   1      32.049  24.858  25.096  1.00  0.00     0.178 C 
ATOM      7  C   UNL A   1      32.612  25.786  23.997  1.00  0.00     0.079 C 
ATOM      8  C   UNL A   1      33.360  24.321  25.748  1.00  0.00     0.063 C 
ATOM      9  C   UNL A   1      33.963  25.192  23.578  1.00  0.00     0.008 C 
ATOM     10  C   UNL A   1      34.240  24.025  24.525  1.00  0.00     0.011 C 
BRANCH   6  11
ATOM     11  N   UNL A   1      31.342  23.697  24.463  1.00  0.00    -0.336 N 
ATOM     12  C   UNL A   1      30.553  24.011  23.276  1.00  0.00     0.331 C 
ATOM     13  H   UNL A   1      32.045  23.007  24.199  1.00  0.00     0.346 HD
ATOM     14  H   UNL A   1      30.677  23.361  25.160  1.00  0.00     0.346 HD
ENDBRANCH   6  11
BRANCH   8  15
ATOM     15  C   UNL A   1      33.195  23.144  26.729  1.00  0.00     0.039 C 
BRANCH  15  16
ATOM     16  C   UNL A   1      34.236  22.021  26.609  1.00  0.00     0.161 C 
BRANCH  16  17
ATOM     17  O   UNL A   1      33.713  20.751  26.251  1.00  0.00    -0.379 OA
BRANCH  17  18
ATOM     18  C   UNL A   1      34.032  20.158  24.995  1.00  0.00     0.192 C 
BRANCH  18  19
ATOM     19  C   UNL A   1      33.542  18.727  24.707  1.00  0.00     0.144 C 
ATOM     20  C   UNL A   1      34.589  17.754  24.196  1.00  0.00     0.037 C 
ATOM     21  O   UNL A   1      32.455  18.715  23.766  1.00  0.00    -0.376 OA
ATOM     22  C   UNL A   1      33.807  16.826  23.310  1.00  0.00     0.031 C 
ATOM     23  C   UNL A   1      32.736  17.740  22.757  1.00  0.00     0.160 C 
ENDBRANCH  18  19
ENDBRANCH  17  18
ENDBRANCH  16  17
ENDBRANCH  15  16
ENDBRANCH   8  15
ENDBRANCH   3   6
ENDBRANCH   1   2
BRANCH   1  24
ATOM     24  C   UNL A   1      32.391  28.957  27.020  1.00  0.00     0.042 C 
BRANCH  24  25
ATOM     25  C   UNL A   1      33.526  29.858  26.553  1.00  0.00     0.118 C 
BRANCH  25  26
ATOM     26  N   UNL A   1      33.508  31.170  27.191  1.00  0.00    -0.352 N 
ATOM     27  C   UNL A   1      34.339  31.701  28.150  1.00  0.00     0.251 C 
ATOM     28  H   UNL A   1      32.788  31.768  26.887  1.00  0.00     0.163 HD
ATOM     29  O   UNL A   1      34.027  32.751  28.697  1.00  0.00    -0.269 OA
BRANCH  27  30
ATOM     30  C   UNL A   1      35.579  30.991  28.533  1.00  0.00     0.039 A 
ATOM     31  C   UNL A   1      36.804  31.446  28.040  1.00  0.00     0.014 A 
ATOM     32  C   UNL A   1      35.536  29.881  29.379  1.00  0.00     0.014 A 
ATOM     33  C   UNL A   1      37.988  30.838  28.463  1.00  0.00     0.010 A 
ATOM     34  C   UNL A   1      36.717  29.348  29.883  1.00  0.00     0.010 A 
ATOM     35  C   UNL A   1      37.957  29.814  29.425  1.00  0.00    -0.014 A 
BRANCH  35  36
ATOM     36  C   UNL A   1      39.206  29.205  29.953  1.00  0.00     0.031 A 
ATOM     37  C   UNL A   1      39.856  29.776  31.185  1.00  0.00     0.074 A 
ATOM     38  C   UNL A   1      39.787  28.186  29.288  1.00  0.00     0.049 A 
ATOM     39  N   UNL A   1      40.988  29.446  31.753  1.00  0.00    -0.248 NA
ATOM     40  C   UNL A   1      39.157  30.890  31.845  1.00  0.00     0.031 C 
ATOM     41  C   UNL A   1      39.273  27.575  28.061  1.00  0.00     0.029 A 
ATOM     42  N   UNL A   1      40.941  27.489  29.545  1.00  0.00    -0.354 N 
ATOM     43  C   UNL A   1      41.144  30.321  32.823  1.00  0.00     0.074 A 
ATOM     44  C   UNL A   1      40.026  31.240  32.780  1.00  0.00     0.031 C 
ATOM     45  C   UNL A   1      40.087  26.573  27.693  1.00  0.00     0.029 A 
ATOM     46  C   UNL A   1      41.211  26.505  28.620  1.00  0.00     0.049 A 
ATOM     47  H   UNL A   1      41.522  27.675  30.318  1.00  0.00     0.167 HD
ATOM     48  C   UNL A   1      42.114  30.339  33.770  1.00  0.00     0.034 A 
ATOM     49  C   UNL A   1      42.253  25.656  28.523  1.00  0.00     0.034 A 
ATOM     50  C   UNL A   1      43.213  29.406  33.804  1.00  0.00     0.049 A 
ATOM     51  C   UNL A   1      43.340  25.718  29.568  1.00  0.00     0.074 A 
ATOM     52  C   UNL A   1      44.220  29.296  34.747  1.00  0.00     0.029 A 
ATOM     53  N   UNL A   1      43.458  28.429  32.846  1.00  0.00    -0.354 N 
ATOM     54  N   UNL A   1      43.444  26.515  30.606  1.00  0.00    -0.248 NA
ATOM     55  C   UNL A   1      44.442  24.757  29.434  1.00  0.00     0.031 C 
ATOM     56  C   UNL A   1      45.116  28.310  34.318  1.00  0.00     0.029 A 
ATOM     57  C   UNL A   1      44.620  27.739  33.157  1.00  0.00     0.049 A 
ATOM     58  H   UNL A   1      42.890  28.252  32.063  1.00  0.00     0.167 HD
ATOM     59  C   UNL A   1      44.606  26.128  31.268  1.00  0.00     0.074 A 
ATOM     60  C   UNL A   1      45.157  25.016  30.519  1.00  0.00     0.031 C 
ATOM     61  C   UNL A   1      45.164  26.638  32.395  1.00  0.00     0.034 A 
BRANCH  48  62
ATOM     62  C   UNL A   1      42.038  31.420  34.824  1.00  0.00     0.023 A 
ATOM     63  C   UNL A   1      41.025  31.435  35.799  1.00  0.00     0.031 A 
ATOM     64  C   UNL A   1      42.974  32.469  34.838  1.00  0.00     0.131 A 
ATOM     65  C   UNL A   1      40.920  32.516  36.688  1.00  0.00     0.055 A 
ATOM     66  C   UNL A   1      42.919  33.495  35.784  1.00  0.00     0.041 A 
ATOM     67  F   UNL A   1      43.952  32.525  33.920  1.00  0.00    -0.206 F 
ATOM     68  C   UNL A   1      41.877  33.532  36.706  1.00  0.00     0.022 A 
BRANCH  65  69
ATOM     69  S   UNL A   1      39.425  32.656  37.706  1.00  0.00     0.124 S 
ATOM     70  O   UNL A   1      39.985  32.638  39.055  1.00  0.00    -0.237 OA
ATOM     71  O   UNL A   1      38.860  33.926  37.264  1.00  0.00    -0.237 OA
ATOM     72  O   UNL A   1      38.652  31.469  37.344  1.00  0.00    -0.744 OA
ENDBRANCH  65  69
ENDBRANCH  48  62
BRANCH  49  73
ATOM     73  C   UNL A   1      42.332  24.678  27.398  1.00  0.00     0.023 A 
ATOM     74  C   UNL A   1      41.577  23.494  27.415  1.00  0.00     0.031 A 
ATOM     75  C   UNL A   1      43.198  24.891  26.310  1.00  0.00     0.131 A 
ATOM     76  C   UNL A   1      41.739  22.546  26.393  1.00  0.00     0.055 A 
ATOM     77  C   UNL A   1      43.310  23.972  25.265  1.00  0.00     0.041 A 
ATOM     78  F   UNL A   1      43.941  26.007  26.241  1.00  0.00    -0.206 F 
ATOM     79  C   UNL A   1      42.589  22.783  25.311  1.00  0.00     0.022 A 
BRANCH  76  80
ATOM     80  S   UNL A   1      40.893  20.949  26.549  1.00  0.00     0.124 S 
ATOM     81  O   UNL A   1      39.602  21.238  25.934  1.00  0.00    -0.237 OA
ATOM     82  O   UNL A   1      41.777  20.063  25.800  1.00  0.00    -0.237 OA
ATOM     83  O   UNL A   1      40.860  20.721  27.992  1.00  0.00    -0.744 OA
ENDBRANCH  76  80
ENDBRANCH  49  73
BRANCH  61  84
ATOM     84  C   UNL A   1      46.411  25.960  32.915  1.00  0.00     0.023 A 
ATOM     85  C   UNL A   1      46.352  24.841  33.763  1.00  0.00     0.031 A 
ATOM     86  C   UNL A   1      47.680  26.453  32.558  1.00  0.00     0.131 A 
ATOM     87  C   UNL A   1      47.536  24.288  34.274  1.00  0.00     0.055 A 
ATOM     88  C   UNL A   1      48.855  25.854  33.013  1.00  0.00     0.041 A 
ATOM     89  F   UNL A   1      47.798  27.522  31.755  1.00  0.00    -0.206 F 
ATOM     90  C   UNL A   1      48.787  24.774  33.887  1.00  0.00     0.022 A 
BRANCH  87  91
ATOM     91  S   UNL A   1      47.417  22.988  35.533  1.00  0.00     0.124 S 
ATOM     92  O   UNL A   1      47.324  21.783  34.715  1.00  0.00    -0.237 OA
ATOM     93  O   UNL A   1      48.660  23.159  36.276  1.00  0.00    -0.237 OA
ATOM     94  O   UNL A   1      46.203  23.333  36.269  1.00  0.00    -0.744 OA
ENDBRANCH  87  91
ENDBRANCH  61  84
ENDBRANCH  35  36
ENDBRANCH  27  30
ENDBRANCH  25  26
ENDBRANCH  24  25
ENDBRANCH   1  24
TORSDOF 19
ENDMDL
