MODEL 1
REMARK VINA RESULT:     -12.3      0.000      0.000
REMARK SMILES Cc1ccc(Cl)c(Nc2ccccc2C(=O)NCCCNC(=O)c2ccc(-c3c4nc(c(-c5cc(S(=O)(=O)[O-])ccc5F)c5ccc([nH]5)c(-c5cc(S(=O)(=O)[O-])ccc5F)c5nc(c(-c6cc(S(=O)(=O)[O-])ccc6F)c6ccc3[nH]6)C=C5)C=C4)cc2)c1Cl
REMARK SMILES IDX 19 1 18 2 17 3 15 4 16 5 14 7 9 8 10 9 11 10 13 11 12 12
REMARK SMILES IDX 8 13 7 15 1 16 2 17 3 18 87 19 4 20 88 21 5 22 6 23 20 24
REMARK SMILES IDX 21 25 22 26 23 28 24 29 25 30 86 31 26 32 85 33 27 34 28 35
REMARK SMILES IDX 29 36 79 37 30 38 84 39 78 40 80 41 31 42 83 43 77 44 76 45
REMARK SMILES IDX 32 47 64 48 44 49 63 50 45 51 48 52 62 53 81 54 46 55 47 56
REMARK SMILES IDX 61 58 82 59 49 60 33 61 34 62 42 63 35 64 41 65 43 66 40 67
REMARK SMILES IDX 36 68 37 69 38 70 39 71 65 72 66 73 74 74 67 75 73 76 75 77
REMARK SMILES IDX 72 78 68 79 69 80 70 81 71 82 50 83 51 84 59 85 52 86 58 87
REMARK SMILES IDX 60 88 57 89 53 90 54 91 55 92 56 93
REMARK H PARENT 17 6 8 14 21 27 80 46 48 57
REMARK Flexibility Score: inf
ROOT
ATOM      1  C   UNL A   1      31.692  29.093  26.893  1.00  0.00     0.042 C 
ENDROOT
BRANCH   1   2
ATOM      2  C   UNL A   1      32.271  27.698  26.826  1.00  0.00     0.118 C 
BRANCH   2   3
ATOM      3  N   UNL A   1      31.335  26.604  26.818  1.00  0.00    -0.352 N 
ATOM      4  C   UNL A   1      31.530  25.314  26.381  1.00  0.00     0.253 C 
ATOM      5  O   UNL A   1      30.667  24.483  26.679  1.00  0.00    -0.269 OA
ATOM      6  H   UNL A   1      30.437  26.806  27.171  1.00  0.00     0.163 HD
BRANCH   4   7
ATOM      7  C   UNL A   1      32.628  24.913  25.443  1.00  0.00     0.063 A 
ATOM      8  C   UNL A   1      32.677  25.000  24.035  1.00  0.00     0.051 A 
ATOM      9  C   UNL A   1      33.792  24.424  23.378  1.00  0.00     0.027 A 
ATOM     10  C   UNL A   1      34.859  23.853  24.073  1.00  0.00     0.002 A 
ATOM     11  C   UNL A   1      33.736  24.356  26.130  1.00  0.00     0.016 A 
ATOM     12  C   UNL A   1      34.843  23.842  25.457  1.00  0.00     0.001 A 
BRANCH   8  13
ATOM     13  N   UNL A   1      31.792  25.679  23.169  1.00  0.00    -0.352 N 
ATOM     14  H   UNL A   1      31.545  25.140  22.383  1.00  0.00     0.167 HD
BRANCH  13  15
ATOM     15  C   UNL A   1      31.177  26.955  23.168  1.00  0.00     0.077 A 
ATOM     16  C   UNL A   1      27.743  28.669  23.126  1.00  0.00     0.046 C 
ATOM     17  C   UNL A   1      29.229  28.441  23.049  1.00  0.00    -0.030 A 
ATOM     18  C   UNL A   1      30.059  29.501  22.653  1.00  0.00     0.006 A 
ATOM     19  C   UNL A   1      29.798  27.182  23.342  1.00  0.00     0.069 A 
ATOM     20  C   UNL A   1      31.436  29.327  22.579  1.00  0.00     0.023 A 
ATOM     21  Cl  UNL A   1      28.783  25.962  24.056  1.00  0.00    -0.082 Cl
ATOM     22  C   UNL A   1      31.987  28.075  22.842  1.00  0.00     0.066 A 
ATOM     23  Cl  UNL A   1      33.703  27.896  22.641  1.00  0.00    -0.082 Cl
ENDBRANCH  13  15
ENDBRANCH   8  13
ENDBRANCH   4   7
ENDBRANCH   2   3
ENDBRANCH   1   2
BRANCH   1  24
ATOM     24  C   UNL A   1      32.449  30.148  26.095  1.00  0.00     0.118 C 
BRANCH  24  25
ATOM     25  N   UNL A   1      32.237  31.529  26.536  1.00  0.00    -0.352 N 
ATOM     26  C   UNL A   1      32.982  32.382  27.328  1.00  0.00     0.251 C 
ATOM     27  H   UNL A   1      31.402  31.928  26.202  1.00  0.00     0.163 HD
ATOM     28  O   UNL A   1      32.517  33.474  27.627  1.00  0.00    -0.269 OA
BRANCH  26  29
ATOM     29  C   UNL A   1      34.307  31.972  27.850  1.00  0.00     0.039 A 
ATOM     30  C   UNL A   1      35.322  32.926  27.990  1.00  0.00     0.014 A 
ATOM     31  C   UNL A   1      34.557  30.652  28.208  1.00  0.00     0.014 A 
ATOM     32  C   UNL A   1      36.533  32.571  28.597  1.00  0.00     0.010 A 
ATOM     33  C   UNL A   1      35.692  30.337  28.940  1.00  0.00     0.010 A 
ATOM     34  C   UNL A   1      36.703  31.287  29.136  1.00  0.00    -0.014 A 
BRANCH  34  35
ATOM     35  C   UNL A   1      37.927  30.880  29.879  1.00  0.00     0.031 A 
ATOM     36  C   UNL A   1      38.876  29.890  29.252  1.00  0.00     0.074 A 
ATOM     37  C   UNL A   1      38.117  31.289  31.148  1.00  0.00     0.049 A 
ATOM     38  N   UNL A   1      39.877  29.238  29.787  1.00  0.00    -0.248 NA
ATOM     39  C   UNL A   1      38.613  29.535  27.850  1.00  0.00     0.031 C 
ATOM     40  C   UNL A   1      37.234  32.191  31.891  1.00  0.00     0.029 A 
ATOM     41  N   UNL A   1      39.104  30.979  32.051  1.00  0.00    -0.354 N 
ATOM     42  C   UNL A   1      40.331  28.369  28.801  1.00  0.00     0.074 A 
ATOM     43  C   UNL A   1      39.432  28.511  27.676  1.00  0.00     0.031 C 
ATOM     44  C   UNL A   1      37.728  32.376  33.125  1.00  0.00     0.029 A 
ATOM     45  C   UNL A   1      38.933  31.568  33.282  1.00  0.00     0.049 A 
ATOM     46  H   UNL A   1      39.863  30.389  31.837  1.00  0.00     0.167 HD
ATOM     47  C   UNL A   1      41.416  27.554  28.815  1.00  0.00     0.034 A 
ATOM     48  C   UNL A   1      39.654  31.456  34.415  1.00  0.00     0.034 A 
ATOM     49  C   UNL A   1      42.316  27.457  29.939  1.00  0.00     0.049 A 
ATOM     50  C   UNL A   1      40.872  30.571  34.410  1.00  0.00     0.074 A 
ATOM     51  C   UNL A   1      43.483  26.726  30.053  1.00  0.00     0.029 A 
ATOM     52  N   UNL A   1      42.143  28.120  31.150  1.00  0.00    -0.354 N 
ATOM     53  N   UNL A   1      41.323  29.792  33.454  1.00  0.00    -0.248 NA
ATOM     54  C   UNL A   1      41.686  30.560  35.631  1.00  0.00     0.031 C 
ATOM     55  C   UNL A   1      43.983  26.897  31.350  1.00  0.00     0.029 A 
ATOM     56  C   UNL A   1      43.170  27.796  32.023  1.00  0.00     0.049 A 
ATOM     57  H   UNL A   1      41.398  28.730  31.357  1.00  0.00     0.167 HD
ATOM     58  C   UNL A   1      42.490  29.216  33.950  1.00  0.00     0.074 A 
ATOM     59  C   UNL A   1      42.677  29.751  35.284  1.00  0.00     0.031 C 
ATOM     60  C   UNL A   1      43.330  28.329  33.357  1.00  0.00     0.034 A 
BRANCH  47  61
ATOM     61  C   UNL A   1      41.659  26.707  27.583  1.00  0.00     0.023 A 
ATOM     62  C   UNL A   1      41.267  25.357  27.527  1.00  0.00     0.031 A 
ATOM     63  C   UNL A   1      42.367  27.225  26.483  1.00  0.00     0.131 A 
ATOM     64  C   UNL A   1      41.693  24.543  26.467  1.00  0.00     0.055 A 
ATOM     65  C   UNL A   1      42.692  26.434  25.377  1.00  0.00     0.041 A 
ATOM     66  F   UNL A   1      42.785  28.500  26.475  1.00  0.00    -0.206 F 
ATOM     67  C   UNL A   1      42.379  25.078  25.377  1.00  0.00     0.022 A 
BRANCH  64  68
ATOM     68  S   UNL A   1      41.521  22.744  26.643  1.00  0.00     0.124 S 
ATOM     69  O   UNL A   1      42.295  22.493  27.857  1.00  0.00    -0.237 OA
ATOM     70  O   UNL A   1      40.077  22.575  26.759  1.00  0.00    -0.237 OA
ATOM     71  O   UNL A   1      42.117  22.222  25.415  1.00  0.00    -0.744 OA
ENDBRANCH  64  68
ENDBRANCH  47  61
BRANCH  48  72
ATOM     72  C   UNL A   1      39.240  32.200  35.638  1.00  0.00     0.023 A 
ATOM     73  C   UNL A   1      38.482  31.579  36.644  1.00  0.00     0.031 A 
ATOM     74  C   UNL A   1      39.606  33.545  35.825  1.00  0.00     0.131 A 
ATOM     75  C   UNL A   1      38.091  32.309  37.778  1.00  0.00     0.055 A 
ATOM     76  C   UNL A   1      39.252  34.254  36.975  1.00  0.00     0.041 A 
ATOM     77  F   UNL A   1      40.341  34.183  34.899  1.00  0.00    -0.206 F 
ATOM     78  C   UNL A   1      38.482  33.637  37.956  1.00  0.00     0.022 A 
BRANCH  75  79
ATOM     79  S   UNL A   1      37.021  31.506  39.004  1.00  0.00     0.124 S 
ATOM     80  O   UNL A   1      36.888  30.164  38.449  1.00  0.00    -0.237 OA
ATOM     81  O   UNL A   1      37.815  31.621  40.223  1.00  0.00    -0.237 OA
ATOM     82  O   UNL A   1      35.806  32.317  38.977  1.00  0.00    -0.744 OA
ENDBRANCH  75  79
ENDBRANCH  48  72
BRANCH  60  83
ATOM     83  C   UNL A   1      44.552  27.918  34.141  1.00  0.00     0.023 A 
ATOM     84  C   UNL A   1      45.760  28.632  34.056  1.00  0.00     0.031 A 
ATOM     85  C   UNL A   1      44.505  26.791  34.979  1.00  0.00     0.131 A 
ATOM     86  C   UNL A   1      46.889  28.178  34.754  1.00  0.00     0.055 A 
ATOM     87  C   UNL A   1      45.614  26.380  35.721  1.00  0.00     0.041 A 
ATOM     88  F   UNL A   1      43.378  26.071  35.094  1.00  0.00    -0.206 F 
ATOM     89  C   UNL A   1      46.819  27.067  35.601  1.00  0.00     0.022 A 
BRANCH  86  90
ATOM     90  S   UNL A   1      48.479  29.002  34.470  1.00  0.00     0.124 S 
ATOM     91  O   UNL A   1      48.238  29.694  33.207  1.00  0.00    -0.237 OA
ATOM     92  O   UNL A   1      48.606  29.851  35.648  1.00  0.00    -0.237 OA
ATOM     93  O   UNL A   1      49.431  27.895  34.398  1.00  0.00    -0.744 OA
ENDBRANCH  86  90
ENDBRANCH  60  83
ENDBRANCH  34  35
ENDBRANCH  26  29
ENDBRANCH  24  25
ENDBRANCH   1  24
TORSDOF 15
ENDMDL
MODEL 2
REMARK VINA RESULT:     -12.2      4.982     10.031
REMARK SMILES Cc1ccc(Cl)c(Nc2ccccc2C(=O)NCCCNC(=O)c2ccc(-c3c4nc(c(-c5cc(S(=O)(=O)[O-])ccc5F)c5ccc([nH]5)c(-c5cc(S(=O)(=O)[O-])ccc5F)c5nc(c(-c6cc(S(=O)(=O)[O-])ccc6F)c6ccc3[nH]6)C=C5)C=C4)cc2)c1Cl
REMARK SMILES IDX 19 1 18 2 17 3 15 4 16 5 14 7 9 8 10 9 11 10 13 11 12 12
REMARK SMILES IDX 8 13 7 15 1 16 2 17 3 18 87 19 4 20 88 21 5 22 6 23 20 24
REMARK SMILES IDX 21 25 22 26 23 28 24 29 25 30 86 31 26 32 85 33 27 34 28 35
REMARK SMILES IDX 29 36 79 37 30 38 84 39 78 40 80 41 31 42 83 43 77 44 76 45
REMARK SMILES IDX 32 47 64 48 44 49 63 50 45 51 48 52 62 53 81 54 46 55 47 56
REMARK SMILES IDX 61 58 82 59 49 60 33 61 34 62 42 63 35 64 41 65 43 66 40 67
REMARK SMILES IDX 36 68 37 69 38 70 39 71 65 72 66 73 74 74 67 75 73 76 75 77
REMARK SMILES IDX 72 78 68 79 69 80 70 81 71 82 50 83 51 84 59 85 52 86 58 87
REMARK SMILES IDX 60 88 57 89 53 90 54 91 55 92 56 93
REMARK H PARENT 17 6 8 14 21 27 80 46 48 57
REMARK Flexibility Score: inf
ROOT
ATOM      1  C   UNL A   1      36.207  22.174  24.236  1.00  0.00     0.042 C 
ENDROOT
BRANCH   1   2
ATOM      2  C   UNL A   1      35.706  23.600  24.181  1.00  0.00     0.118 C 
BRANCH   2   3
ATOM      3  N   UNL A   1      34.837  23.942  23.085  1.00  0.00    -0.352 N 
ATOM      4  C   UNL A   1      33.831  24.881  23.052  1.00  0.00     0.253 C 
ATOM      5  O   UNL A   1      33.368  25.169  21.945  1.00  0.00    -0.269 OA
ATOM      6  H   UNL A   1      34.980  23.438  22.251  1.00  0.00     0.163 HD
BRANCH   4   7
ATOM      7  C   UNL A   1      33.173  25.435  24.279  1.00  0.00     0.063 A 
ATOM      8  C   UNL A   1      32.174  24.859  25.095  1.00  0.00     0.051 A 
ATOM      9  C   UNL A   1      31.628  25.659  26.129  1.00  0.00     0.027 A 
ATOM     10  C   UNL A   1      32.092  26.945  26.408  1.00  0.00     0.002 A 
ATOM     11  C   UNL A   1      33.650  26.731  24.599  1.00  0.00     0.016 A 
ATOM     12  C   UNL A   1      33.125  27.474  25.655  1.00  0.00     0.001 A 
BRANCH   8  13
ATOM     13  N   UNL A   1      31.695  23.531  25.085  1.00  0.00    -0.352 N 
ATOM     14  H   UNL A   1      30.712  23.485  25.121  1.00  0.00     0.167 HD
BRANCH  13  15
ATOM     15  C   UNL A   1      32.297  22.251  25.036  1.00  0.00     0.077 A 
ATOM     16  C   UNL A   1      32.408  19.025  22.958  1.00  0.00     0.046 C 
ATOM     17  C   UNL A   1      32.595  20.011  24.080  1.00  0.00    -0.030 A 
ATOM     18  C   UNL A   1      33.140  19.563  25.293  1.00  0.00     0.006 A 
ATOM     19  C   UNL A   1      32.211  21.363  23.945  1.00  0.00     0.069 A 
ATOM     20  C   UNL A   1      33.334  20.448  26.347  1.00  0.00     0.023 A 
ATOM     21  Cl  UNL A   1      31.765  21.942  22.366  1.00  0.00    -0.082 Cl
ATOM     22  C   UNL A   1      32.926  21.774  26.217  1.00  0.00     0.066 A 
ATOM     23  Cl  UNL A   1      33.107  22.808  27.600  1.00  0.00    -0.082 Cl
ENDBRANCH  13  15
ENDBRANCH   8  13
ENDBRANCH   4   7
ENDBRANCH   2   3
ENDBRANCH   1   2
BRANCH   1  24
ATOM     24  C   UNL A   1      36.669  21.702  25.610  1.00  0.00     0.118 C 
BRANCH  24  25
ATOM     25  N   UNL A   1      37.770  20.736  25.596  1.00  0.00    -0.352 N 
ATOM     26  C   UNL A   1      39.102  20.830  25.951  1.00  0.00     0.251 C 
ATOM     27  H   UNL A   1      37.510  19.844  25.270  1.00  0.00     0.163 HD
ATOM     28  O   UNL A   1      39.843  19.880  25.743  1.00  0.00    -0.269 OA
BRANCH  26  29
ATOM     29  C   UNL A   1      39.644  22.079  26.537  1.00  0.00     0.039 A 
ATOM     30  C   UNL A   1      40.650  22.009  27.509  1.00  0.00     0.014 A 
ATOM     31  C   UNL A   1      39.173  23.323  26.131  1.00  0.00     0.014 A 
ATOM     32  C   UNL A   1      41.253  23.184  27.974  1.00  0.00     0.010 A 
ATOM     33  C   UNL A   1      39.867  24.472  26.478  1.00  0.00     0.010 A 
ATOM     34  C   UNL A   1      40.909  24.423  27.414  1.00  0.00    -0.014 A 
BRANCH  34  35
ATOM     35  C   UNL A   1      41.582  25.695  27.796  1.00  0.00     0.031 A 
ATOM     36  C   UNL A   1      40.803  26.749  28.541  1.00  0.00     0.074 A 
ATOM     37  C   UNL A   1      42.832  25.956  27.366  1.00  0.00     0.049 A 
ATOM     38  N   UNL A   1      41.110  27.996  28.788  1.00  0.00    -0.248 NA
ATOM     39  C   UNL A   1      39.464  26.359  29.008  1.00  0.00     0.031 C 
ATOM     40  C   UNL A   1      43.666  25.046  26.576  1.00  0.00     0.029 A 
ATOM     41  N   UNL A   1      43.613  27.076  27.509  1.00  0.00    -0.354 N 
ATOM     42  C   UNL A   1      39.987  28.547  29.398  1.00  0.00     0.074 A 
ATOM     43  C   UNL A   1      38.966  27.522  29.390  1.00  0.00     0.031 C 
ATOM     44  C   UNL A   1      44.845  25.635  26.324  1.00  0.00     0.029 A 
ATOM     45  C   UNL A   1      44.836  26.981  26.885  1.00  0.00     0.049 A 
ATOM     46  H   UNL A   1      43.325  27.872  28.011  1.00  0.00     0.167 HD
ATOM     47  C   UNL A   1      39.831  29.779  29.946  1.00  0.00     0.034 A 
ATOM     48  C   UNL A   1      45.829  27.884  26.764  1.00  0.00     0.034 A 
ATOM     49  C   UNL A   1      40.879  30.770  29.971  1.00  0.00     0.049 A 
ATOM     50  C   UNL A   1      45.657  29.237  27.401  1.00  0.00     0.074 A 
ATOM     51  C   UNL A   1      40.872  32.023  30.554  1.00  0.00     0.029 A 
ATOM     52  N   UNL A   1      42.130  30.614  29.381  1.00  0.00    -0.354 N 
ATOM     53  N   UNL A   1      44.610  29.730  28.022  1.00  0.00    -0.248 NA
ATOM     54  C   UNL A   1      46.804  30.150  27.334  1.00  0.00     0.031 C 
ATOM     55  C   UNL A   1      42.092  32.647  30.266  1.00  0.00     0.029 A 
ATOM     56  C   UNL A   1      42.893  31.756  29.568  1.00  0.00     0.049 A 
ATOM     57  H   UNL A   1      42.429  29.808  28.900  1.00  0.00     0.167 HD
ATOM     58  C   UNL A   1      44.981  31.005  28.442  1.00  0.00     0.074 A 
ATOM     59  C   UNL A   1      46.353  31.194  28.015  1.00  0.00     0.031 C 
ATOM     60  C   UNL A   1      44.256  31.932  29.120  1.00  0.00     0.034 A 
BRANCH  47  61
ATOM     61  C   UNL A   1      38.477  30.103  30.541  1.00  0.00     0.023 A 
ATOM     62  C   UNL A   1      37.452  30.682  29.769  1.00  0.00     0.031 A 
ATOM     63  C   UNL A   1      38.228  29.912  31.913  1.00  0.00     0.131 A 
ATOM     64  C   UNL A   1      36.291  31.167  30.390  1.00  0.00     0.055 A 
ATOM     65  C   UNL A   1      37.022  30.298  32.504  1.00  0.00     0.041 A 
ATOM     66  F   UNL A   1      39.166  29.379  32.711  1.00  0.00    -0.206 F 
ATOM     67  C   UNL A   1      36.056  30.954  31.747  1.00  0.00     0.022 A 
BRANCH  64  68
ATOM     68  S   UNL A   1      35.203  32.264  29.436  1.00  0.00     0.124 S 
ATOM     69  O   UNL A   1      34.348  32.813  30.485  1.00  0.00    -0.237 OA
ATOM     70  O   UNL A   1      36.147  33.195  28.828  1.00  0.00    -0.237 OA
ATOM     71  O   UNL A   1      34.531  31.357  28.508  1.00  0.00    -0.744 OA
ENDBRANCH  64  68
ENDBRANCH  47  61
BRANCH  48  72
ATOM     72  C   UNL A   1      47.066  27.533  26.010  1.00  0.00     0.023 A 
ATOM     73  C   UNL A   1      47.188  27.818  24.641  1.00  0.00     0.031 A 
ATOM     74  C   UNL A   1      48.154  26.914  26.654  1.00  0.00     0.131 A 
ATOM     75  C   UNL A   1      48.358  27.460  23.952  1.00  0.00     0.055 A 
ATOM     76  C   UNL A   1      49.332  26.600  25.974  1.00  0.00     0.041 A 
ATOM     77  F   UNL A   1      48.094  26.632  27.966  1.00  0.00    -0.206 F 
ATOM     78  C   UNL A   1      49.436  26.866  24.613  1.00  0.00     0.022 A 
BRANCH  75  79
ATOM     79  S   UNL A   1      48.437  27.744  22.162  1.00  0.00     0.124 S 
ATOM     80  O   UNL A   1      48.586  26.385  21.652  1.00  0.00    -0.237 OA
ATOM     81  O   UNL A   1      47.155  28.391  21.900  1.00  0.00    -0.237 OA
ATOM     82  O   UNL A   1      49.608  28.602  22.005  1.00  0.00    -0.744 OA
ENDBRANCH  75  79
ENDBRANCH  48  72
BRANCH  60  83
ATOM     83  C   UNL A   1      44.957  33.220  29.476  1.00  0.00     0.023 A 
ATOM     84  C   UNL A   1      44.947  34.330  28.614  1.00  0.00     0.031 A 
ATOM     85  C   UNL A   1      45.651  33.332  30.693  1.00  0.00     0.131 A 
ATOM     86  C   UNL A   1      45.664  35.485  28.957  1.00  0.00     0.055 A 
ATOM     87  C   UNL A   1      46.310  34.507  31.057  1.00  0.00     0.041 A 
ATOM     88  F   UNL A   1      45.696  32.301  31.552  1.00  0.00    -0.206 F 
ATOM     89  C   UNL A   1      46.330  35.588  30.181  1.00  0.00     0.022 A 
BRANCH  86  90
ATOM     90  S   UNL A   1      45.796  36.822  27.739  1.00  0.00     0.124 S 
ATOM     91  O   UNL A   1      47.108  37.382  28.046  1.00  0.00    -0.237 OA
ATOM     92  O   UNL A   1      45.689  36.104  26.474  1.00  0.00    -0.237 OA
ATOM     93  O   UNL A   1      44.663  37.689  28.057  1.00  0.00    -0.744 OA
ENDBRANCH  86  90
ENDBRANCH  60  83
ENDBRANCH  34  35
ENDBRANCH  26  29
ENDBRANCH  24  25
ENDBRANCH   1  24
TORSDOF 15
ENDMDL
MODEL 3
REMARK VINA RESULT:     -12.2      1.581      2.149
REMARK SMILES Cc1ccc(Cl)c(Nc2ccccc2C(=O)NCCCNC(=O)c2ccc(-c3c4nc(c(-c5cc(S(=O)(=O)[O-])ccc5F)c5ccc([nH]5)c(-c5cc(S(=O)(=O)[O-])ccc5F)c5nc(c(-c6cc(S(=O)(=O)[O-])ccc6F)c6ccc3[nH]6)C=C5)C=C4)cc2)c1Cl
REMARK SMILES IDX 19 1 18 2 17 3 15 4 16 5 14 7 9 8 10 9 11 10 13 11 12 12
REMARK SMILES IDX 8 13 7 15 1 16 2 17 3 18 87 19 4 20 88 21 5 22 6 23 20 24
REMARK SMILES IDX 21 25 22 26 23 28 24 29 25 30 86 31 26 32 85 33 27 34 28 35
REMARK SMILES IDX 29 36 79 37 30 38 84 39 78 40 80 41 31 42 83 43 77 44 76 45
REMARK SMILES IDX 32 47 64 48 44 49 63 50 45 51 48 52 62 53 81 54 46 55 47 56
REMARK SMILES IDX 61 58 82 59 49 60 33 61 34 62 42 63 35 64 41 65 43 66 40 67
REMARK SMILES IDX 36 68 37 69 38 70 39 71 65 72 66 73 74 74 67 75 73 76 75 77
REMARK SMILES IDX 72 78 68 79 69 80 70 81 71 82 50 83 51 84 59 85 52 86 58 87
REMARK SMILES IDX 60 88 57 89 53 90 54 91 55 92 56 93
REMARK H PARENT 17 6 8 14 21 27 80 46 48 57
REMARK Flexibility Score: inf
ROOT
ATOM      1  C   UNL A   1      31.829  27.969  26.922  1.00  0.00     0.042 C 
ENDROOT
BRANCH   1   2
ATOM      2  C   UNL A   1      31.877  26.544  26.419  1.00  0.00     0.118 C 
BRANCH   2   3
ATOM      3  N   UNL A   1      30.771  25.693  26.772  1.00  0.00    -0.352 N 
ATOM      4  C   UNL A   1      30.614  24.347  26.527  1.00  0.00     0.253 C 
ATOM      5  O   UNL A   1      29.697  23.771  27.118  1.00  0.00    -0.269 OA
ATOM      6  H   UNL A   1      30.029  26.130  27.251  1.00  0.00     0.163 HD
BRANCH   4   7
ATOM      7  C   UNL A   1      31.380  23.601  25.477  1.00  0.00     0.063 A 
ATOM      8  C   UNL A   1      31.320  23.723  24.071  1.00  0.00     0.051 A 
ATOM      9  C   UNL A   1      32.063  22.796  23.298  1.00  0.00     0.027 A 
ATOM     10  C   UNL A   1      32.896  21.836  23.875  1.00  0.00     0.002 A 
ATOM     11  C   UNL A   1      32.255  22.639  26.041  1.00  0.00     0.016 A 
ATOM     12  C   UNL A   1      33.012  21.774  25.252  1.00  0.00     0.001 A 
BRANCH   8  13
ATOM     13  N   UNL A   1      30.680  24.722  23.306  1.00  0.00    -0.352 N 
ATOM     14  H   UNL A   1      29.888  24.381  22.829  1.00  0.00     0.167 HD
BRANCH  13  15
ATOM     15  C   UNL A   1      30.910  26.098  23.064  1.00  0.00     0.077 A 
ATOM     16  C   UNL A   1      33.703  28.624  22.326  1.00  0.00     0.046 C 
ATOM     17  C   UNL A   1      32.365  28.036  22.684  1.00  0.00    -0.030 A 
ATOM     18  C   UNL A   1      31.336  28.893  23.103  1.00  0.00     0.006 A 
ATOM     19  C   UNL A   1      32.133  26.644  22.630  1.00  0.00     0.069 A 
ATOM     20  C   UNL A   1      30.085  28.384  23.433  1.00  0.00     0.023 A 
ATOM     21  Cl  UNL A   1      33.338  25.634  21.885  1.00  0.00    -0.082 Cl
ATOM     22  C   UNL A   1      29.874  27.007  23.405  1.00  0.00     0.066 A 
ATOM     23  Cl  UNL A   1      28.320  26.425  23.919  1.00  0.00    -0.082 Cl
ENDBRANCH  13  15
ENDBRANCH   8  13
ENDBRANCH   4   7
ENDBRANCH   2   3
ENDBRANCH   1   2
BRANCH   1  24
ATOM     24  C   UNL A   1      32.726  28.951  26.175  1.00  0.00     0.118 C 
BRANCH  24  25
ATOM     25  N   UNL A   1      32.442  30.365  26.427  1.00  0.00    -0.352 N 
ATOM     26  C   UNL A   1      33.135  31.352  27.102  1.00  0.00     0.251 C 
ATOM     27  H   UNL A   1      31.592  30.674  26.039  1.00  0.00     0.163 HD
ATOM     28  O   UNL A   1      32.614  32.449  27.251  1.00  0.00    -0.269 OA
BRANCH  26  29
ATOM     29  C   UNL A   1      34.473  31.081  27.679  1.00  0.00     0.039 A 
ATOM     30  C   UNL A   1      35.390  32.128  27.823  1.00  0.00     0.014 A 
ATOM     31  C   UNL A   1      34.829  29.801  28.087  1.00  0.00     0.014 A 
ATOM     32  C   UNL A   1      36.607  31.905  28.480  1.00  0.00     0.010 A 
ATOM     33  C   UNL A   1      35.961  29.612  28.866  1.00  0.00     0.010 A 
ATOM     34  C   UNL A   1      36.874  30.658  29.064  1.00  0.00    -0.014 A 
BRANCH  34  35
ATOM     35  C   UNL A   1      38.103  30.386  29.860  1.00  0.00     0.031 A 
ATOM     36  C   UNL A   1      39.148  29.449  29.309  1.00  0.00     0.074 A 
ATOM     37  C   UNL A   1      38.219  30.868  31.112  1.00  0.00     0.049 A 
ATOM     38  N   UNL A   1      40.180  28.907  29.902  1.00  0.00    -0.248 NA
ATOM     39  C   UNL A   1      38.958  29.010  27.918  1.00  0.00     0.031 C 
ATOM     40  C   UNL A   1      37.243  31.728  31.786  1.00  0.00     0.029 A 
ATOM     41  N   UNL A   1      39.199  30.681  32.056  1.00  0.00    -0.354 N 
ATOM     42  C   UNL A   1      40.733  28.033  28.971  1.00  0.00     0.074 A 
ATOM     43  C   UNL A   1      39.862  28.049  27.817  1.00  0.00     0.031 C 
ATOM     44  C   UNL A   1      37.683  32.009  33.023  1.00  0.00     0.029 A 
ATOM     45  C   UNL A   1      38.943  31.311  33.252  1.00  0.00     0.049 A 
ATOM     46  H   UNL A   1      40.009  30.146  31.892  1.00  0.00     0.167 HD
ATOM     47  C   UNL A   1      41.879  27.311  29.055  1.00  0.00     0.034 A 
ATOM     48  C   UNL A   1      39.635  31.310  34.409  1.00  0.00     0.034 A 
ATOM     49  C   UNL A   1      42.748  27.340  30.207  1.00  0.00     0.049 A 
ATOM     50  C   UNL A   1      40.919  30.529  34.480  1.00  0.00     0.074 A 
ATOM     51  C   UNL A   1      43.966  26.712  30.389  1.00  0.00     0.029 A 
ATOM     52  N   UNL A   1      42.485  28.042  31.380  1.00  0.00    -0.354 N 
ATOM     53  N   UNL A   1      41.462  29.746  33.575  1.00  0.00    -0.248 NA
ATOM     54  C   UNL A   1      41.692  30.641  35.722  1.00  0.00     0.031 C 
ATOM     55  C   UNL A   1      44.410  26.984  31.689  1.00  0.00     0.029 A 
ATOM     56  C   UNL A   1      43.507  27.844  32.295  1.00  0.00     0.049 A 
ATOM     57  H   UNL A   1      41.687  28.598  31.536  1.00  0.00     0.167 HD
ATOM     58  C   UNL A   1      42.654  29.291  34.131  1.00  0.00     0.074 A 
ATOM     59  C   UNL A   1      42.756  29.901  35.443  1.00  0.00     0.031 C 
ATOM     60  C   UNL A   1      43.582  28.449  33.605  1.00  0.00     0.034 A 
BRANCH  47  61
ATOM     61  C   UNL A   1      42.228  26.431  27.873  1.00  0.00     0.023 A 
ATOM     62  C   UNL A   1      41.794  25.095  27.794  1.00  0.00     0.031 A 
ATOM     63  C   UNL A   1      43.075  26.900  26.852  1.00  0.00     0.131 A 
ATOM     64  C   UNL A   1      42.306  24.245  26.803  1.00  0.00     0.055 A 
ATOM     65  C   UNL A   1      43.493  26.076  25.804  1.00  0.00     0.041 A 
ATOM     66  F   UNL A   1      43.539  28.159  26.871  1.00  0.00    -0.206 F 
ATOM     67  C   UNL A   1      43.131  24.732  25.790  1.00  0.00     0.022 A 
BRANCH  64  68
ATOM     68  S   UNL A   1      42.048  22.457  26.988  1.00  0.00     0.124 S 
ATOM     69  O   UNL A   1      42.936  21.924  25.958  1.00  0.00    -0.237 OA
ATOM     70  O   UNL A   1      42.456  22.220  28.369  1.00  0.00    -0.237 OA
ATOM     71  O   UNL A   1      40.622  22.287  26.719  1.00  0.00    -0.744 OA
ENDBRANCH  64  68
ENDBRANCH  47  61
BRANCH  48  72
ATOM     72  C   UNL A   1      39.124  32.074  35.583  1.00  0.00     0.023 A 
ATOM     73  C   UNL A   1      38.418  31.433  36.614  1.00  0.00     0.031 A 
ATOM     74  C   UNL A   1      39.343  33.459  35.695  1.00  0.00     0.131 A 
ATOM     75  C   UNL A   1      37.933  32.180  37.700  1.00  0.00     0.055 A 
ATOM     76  C   UNL A   1      38.897  34.189  36.799  1.00  0.00     0.041 A 
ATOM     77  F   UNL A   1      40.023  34.117  34.743  1.00  0.00    -0.206 F 
ATOM     78  C   UNL A   1      38.180  33.550  37.805  1.00  0.00     0.022 A 
BRANCH  75  79
ATOM     79  S   UNL A   1      36.933  31.339  38.958  1.00  0.00     0.124 S 
ATOM     80  O   UNL A   1      37.802  31.414  40.127  1.00  0.00    -0.237 OA
ATOM     81  O   UNL A   1      35.732  32.167  38.996  1.00  0.00    -0.237 OA
ATOM     82  O   UNL A   1      36.746  30.000  38.404  1.00  0.00    -0.744 OA
ENDBRANCH  75  79
ENDBRANCH  48  72
BRANCH  60  83
ATOM     83  C   UNL A   1      44.808  28.176  34.441  1.00  0.00     0.023 A 
ATOM     84  C   UNL A   1      44.869  27.090  35.331  1.00  0.00     0.031 A 
ATOM     85  C   UNL A   1      45.927  29.022  34.349  1.00  0.00     0.131 A 
ATOM     86  C   UNL A   1      46.004  26.910  36.135  1.00  0.00     0.055 A 
ATOM     87  C   UNL A   1      47.078  28.801  35.106  1.00  0.00     0.041 A 
ATOM     88  F   UNL A   1      45.920  30.076  33.519  1.00  0.00    -0.206 F 
ATOM     89  C   UNL A   1      47.117  27.747  36.015  1.00  0.00     0.022 A 
BRANCH  86  90
ATOM     90  S   UNL A   1      45.973  25.621  37.410  1.00  0.00     0.124 S 
ATOM     91  O   UNL A   1      45.960  24.402  36.607  1.00  0.00    -0.237 OA
ATOM     92  O   UNL A   1      47.203  25.884  38.149  1.00  0.00    -0.237 OA
ATOM     93  O   UNL A   1      44.739  25.893  38.143  1.00  0.00    -0.744 OA
ENDBRANCH  86  90
ENDBRANCH  60  83
ENDBRANCH  34  35
ENDBRANCH  26  29
ENDBRANCH  24  25
ENDBRANCH   1  24
TORSDOF 15
ENDMDL
