MODEL 1
REMARK VINA RESULT:     -11.8      0.000      0.000
REMARK SMILES O=C(NCCCNC(=O)[C@@H]1C[C@@H]1c1cccc(F)c1)c1ccc(-c2c3nc(c(-c4cc(S(=O)(=O)[O-])ccc4F)c4ccc([nH]4)c(-c4cc(S(=O)(=O)[O-])ccc4F)c4nc(c(-c5cc(S(=O)(=O)[O-])ccc5F)c5ccc2[nH]5)C=C4)C=C3)cc1
REMARK SMILES IDX 4 1 3 2 1 3 2 4 20 6 21 7 82 8 22 9 81 10 23 11 24 12 25 13
REMARK SMILES IDX 75 14 26 15 80 16 74 17 76 18 27 19 79 20 73 21 72 22 28 24
REMARK SMILES IDX 60 25 40 26 59 27 41 28 44 29 58 30 77 31 42 32 43 33 57 35
REMARK SMILES IDX 78 36 45 37 29 38 30 39 38 40 31 41 37 42 39 43 36 44 32 45
REMARK SMILES IDX 33 46 34 47 35 48 61 49 62 50 70 51 63 52 69 53 71 54 68 55
REMARK SMILES IDX 64 56 65 57 66 58 67 59 46 60 47 61 55 62 48 63 54 64 56 65
REMARK SMILES IDX 53 66 49 67 50 68 51 69 52 70 5 71 6 72 7 73 8 74 9 76 10 77
REMARK SMILES IDX 11 78 12 79 13 80 14 81 19 82 15 83 17 84 16 85 18 86
REMARK H PARENT 3 5 76 23 44 34 7 75
REMARK Flexibility Score: inf
ROOT
ATOM      1  C   UNL A   1      32.797  32.193  27.087  1.00  0.00     0.118 C 
ENDROOT
BRANCH   1   2
ATOM      2  N   UNL A   1      32.600  33.581  27.491  1.00  0.00    -0.352 N 
ATOM      3  O   UNL A   1      32.794  35.431  28.754  1.00  0.00    -0.269 OA
ATOM      4  C   UNL A   1      33.223  34.314  28.473  1.00  0.00     0.251 C 
ATOM      5  H   UNL A   1      31.913  34.068  26.982  1.00  0.00     0.163 HD
BRANCH   4   6
ATOM      6  C   UNL A   1      34.388  33.763  29.204  1.00  0.00     0.039 A 
ATOM      7  C   UNL A   1      35.683  34.211  28.940  1.00  0.00     0.014 A 
ATOM      8  C   UNL A   1      34.172  32.796  30.191  1.00  0.00     0.014 A 
ATOM      9  C   UNL A   1      36.769  33.589  29.551  1.00  0.00     0.010 A 
ATOM     10  C   UNL A   1      35.262  32.225  30.860  1.00  0.00     0.010 A 
ATOM     11  C   UNL A   1      36.573  32.590  30.517  1.00  0.00    -0.014 A 
BRANCH  11  12
ATOM     12  C   UNL A   1      37.754  31.950  31.158  1.00  0.00     0.031 A 
ATOM     13  C   UNL A   1      38.168  32.325  32.556  1.00  0.00     0.074 A 
ATOM     14  C   UNL A   1      38.421  30.984  30.493  1.00  0.00     0.049 A 
ATOM     15  N   UNL A   1      39.156  31.856  33.275  1.00  0.00    -0.248 NA
ATOM     16  C   UNL A   1      37.374  33.360  33.239  1.00  0.00     0.031 C 
ATOM     17  C   UNL A   1      38.108  30.528  29.136  1.00  0.00     0.029 A 
ATOM     18  N   UNL A   1      39.476  30.193  30.871  1.00  0.00    -0.354 N 
ATOM     19  C   UNL A   1      39.113  32.542  34.483  1.00  0.00     0.074 A 
ATOM     20  C   UNL A   1      38.016  33.481  34.393  1.00  0.00     0.031 C 
ATOM     21  C   UNL A   1      38.916  29.507  28.817  1.00  0.00     0.029 A 
ATOM     22  C   UNL A   1      39.846  29.273  29.917  1.00  0.00     0.049 A 
ATOM     23  H   UNL A   1      39.926  30.277  31.742  1.00  0.00     0.167 HD
ATOM     24  C   UNL A   1      39.907  32.392  35.571  1.00  0.00     0.034 A 
ATOM     25  C   UNL A   1      40.832  28.355  29.916  1.00  0.00     0.034 A 
ATOM     26  C   UNL A   1      40.980  31.436  35.663  1.00  0.00     0.049 A 
ATOM     27  C   UNL A   1      41.730  28.248  31.118  1.00  0.00     0.074 A 
ATOM     28  C   UNL A   1      41.814  31.183  36.740  1.00  0.00     0.029 A 
ATOM     29  N   UNL A   1      41.372  30.577  34.647  1.00  0.00    -0.354 N 
ATOM     30  N   UNL A   1      41.677  28.917  32.246  1.00  0.00    -0.248 NA
ATOM     31  C   UNL A   1      42.827  27.273  31.045  1.00  0.00     0.031 C 
ATOM     32  C   UNL A   1      42.743  30.212  36.356  1.00  0.00     0.029 A 
ATOM     33  C   UNL A   1      42.453  29.818  35.060  1.00  0.00     0.049 A 
ATOM     34  H   UNL A   1      40.943  30.517  33.763  1.00  0.00     0.167 HD
ATOM     35  C   UNL A   1      42.733  28.443  33.015  1.00  0.00     0.074 A 
ATOM     36  C   UNL A   1      43.396  27.420  32.234  1.00  0.00     0.031 C 
ATOM     37  C   UNL A   1      43.118  28.822  34.259  1.00  0.00     0.034 A 
BRANCH  24  38
ATOM     38  C   UNL A   1      39.667  33.297  36.750  1.00  0.00     0.023 A 
ATOM     39  C   UNL A   1      39.007  32.843  37.903  1.00  0.00     0.031 A 
ATOM     40  C   UNL A   1      40.159  34.614  36.740  1.00  0.00     0.131 A 
ATOM     41  C   UNL A   1      38.830  33.710  38.991  1.00  0.00     0.055 A 
ATOM     42  C   UNL A   1      40.028  35.455  37.845  1.00  0.00     0.041 A 
ATOM     43  F   UNL A   1      40.786  35.098  35.656  1.00  0.00    -0.206 F 
ATOM     44  C   UNL A   1      39.358  35.005  38.980  1.00  0.00     0.022 A 
BRANCH  41  45
ATOM     45  S   UNL A   1      37.860  33.141  40.414  1.00  0.00     0.124 S 
ATOM     46  O   UNL A   1      36.545  32.940  39.812  1.00  0.00    -0.237 OA
ATOM     47  O   UNL A   1      38.567  31.932  40.820  1.00  0.00    -0.237 OA
ATOM     48  O   UNL A   1      37.946  34.256  41.355  1.00  0.00    -0.744 OA
ENDBRANCH  41  45
ENDBRANCH  24  38
BRANCH  25  49
ATOM     49  C   UNL A   1      41.052  27.499  28.719  1.00  0.00     0.023 A 
ATOM     50  C   UNL A   1      42.052  27.801  27.784  1.00  0.00     0.031 A 
ATOM     51  C   UNL A   1      40.253  26.363  28.493  1.00  0.00     0.131 A 
ATOM     52  C   UNL A   1      42.214  26.989  26.650  1.00  0.00     0.055 A 
ATOM     53  C   UNL A   1      40.445  25.535  27.387  1.00  0.00     0.041 A 
ATOM     54  F   UNL A   1      39.285  26.031  29.362  1.00  0.00    -0.206 F 
ATOM     55  C   UNL A   1      41.427  25.851  26.453  1.00  0.00     0.022 A 
BRANCH  52  56
ATOM     56  S   UNL A   1      43.448  27.462  25.409  1.00  0.00     0.124 S 
ATOM     57  O   UNL A   1      44.197  26.221  25.247  1.00  0.00    -0.237 OA
ATOM     58  O   UNL A   1      42.612  27.859  24.282  1.00  0.00    -0.237 OA
ATOM     59  O   UNL A   1      44.179  28.552  26.053  1.00  0.00    -0.744 OA
ENDBRANCH  52  56
ENDBRANCH  25  49
BRANCH  37  60
ATOM     60  C   UNL A   1      44.310  28.125  34.854  1.00  0.00     0.023 A 
ATOM     61  C   UNL A   1      44.183  26.872  35.476  1.00  0.00     0.031 A 
ATOM     62  C   UNL A   1      45.589  28.698  34.755  1.00  0.00     0.131 A 
ATOM     63  C   UNL A   1      45.319  26.238  35.999  1.00  0.00     0.055 A 
ATOM     64  C   UNL A   1      46.722  28.044  35.241  1.00  0.00     0.041 A 
ATOM     65  F   UNL A   1      45.758  29.892  34.165  1.00  0.00    -0.206 F 
ATOM     66  C   UNL A   1      46.590  26.808  35.870  1.00  0.00     0.022 A 
BRANCH  63  67
ATOM     67  S   UNL A   1      45.118  24.657  36.863  1.00  0.00     0.124 S 
ATOM     68  O   UNL A   1      43.996  24.062  36.143  1.00  0.00    -0.237 OA
ATOM     69  O   UNL A   1      46.414  24.018  36.665  1.00  0.00    -0.237 OA
ATOM     70  O   UNL A   1      44.829  25.054  38.241  1.00  0.00    -0.744 OA
ENDBRANCH  63  67
ENDBRANCH  37  60
ENDBRANCH  11  12
ENDBRANCH   4   6
ENDBRANCH   1   2
BRANCH   1  71
ATOM     71  C   UNL A   1      31.539  31.564  26.490  1.00  0.00     0.042 C 
BRANCH  71  72
ATOM     72  C   UNL A   1      31.713  30.107  26.069  1.00  0.00     0.117 C 
BRANCH  72  73
ATOM     73  N   UNL A   1      32.149  29.995  24.689  1.00  0.00    -0.356 N 
ATOM     74  C   UNL A   1      31.707  29.141  23.716  1.00  0.00     0.223 C 
ATOM     75  H   UNL A   1      32.859  30.620  24.416  1.00  0.00     0.163 HD
ATOM     76  O   UNL A   1      32.246  29.129  22.614  1.00  0.00    -0.275 OA
BRANCH  74  77
ATOM     77  C   UNL A   1      30.544  28.271  24.021  1.00  0.00     0.086 C 
ATOM     78  C   UNL A   1      29.791  27.576  22.916  1.00  0.00     0.023 C 
ATOM     79  C   UNL A   1      29.129  28.709  23.666  1.00  0.00     0.032 C 
BRANCH  79  80
ATOM     80  C   UNL A   1      28.838  30.001  22.930  1.00  0.00    -0.041 A 
ATOM     81  C   UNL A   1      28.404  29.993  21.590  1.00  0.00     0.004 A 
ATOM     82  C   UNL A   1      28.967  31.252  23.553  1.00  0.00     0.043 A 
ATOM     83  C   UNL A   1      28.148  31.177  20.890  1.00  0.00     0.003 A 
ATOM     84  C   UNL A   1      28.717  32.430  22.851  1.00  0.00     0.123 A 
ATOM     85  C   UNL A   1      28.312  32.403  21.525  1.00  0.00     0.039 A 
ATOM     86  F   UNL A   1      28.870  33.609  23.468  1.00  0.00    -0.207 F 
ENDBRANCH  79  80
ENDBRANCH  74  77
ENDBRANCH  72  73
ENDBRANCH  71  72
ENDBRANCH   1  71
TORSDOF 14
ENDMDL
MODEL 2
REMARK VINA RESULT:     -11.6      0.668      8.080
REMARK SMILES O=C(NCCCNC(=O)[C@@H]1C[C@@H]1c1cccc(F)c1)c1ccc(-c2c3nc(c(-c4cc(S(=O)(=O)[O-])ccc4F)c4ccc([nH]4)c(-c4cc(S(=O)(=O)[O-])ccc4F)c4nc(c(-c5cc(S(=O)(=O)[O-])ccc5F)c5ccc2[nH]5)C=C4)C=C3)cc1
REMARK SMILES IDX 4 1 3 2 1 3 2 4 20 6 21 7 82 8 22 9 81 10 23 11 24 12 25 13
REMARK SMILES IDX 75 14 26 15 80 16 74 17 76 18 27 19 79 20 73 21 72 22 28 24
REMARK SMILES IDX 60 25 40 26 59 27 41 28 44 29 58 30 77 31 42 32 43 33 57 35
REMARK SMILES IDX 78 36 45 37 29 38 30 39 38 40 31 41 37 42 39 43 36 44 32 45
REMARK SMILES IDX 33 46 34 47 35 48 61 49 62 50 70 51 63 52 69 53 71 54 68 55
REMARK SMILES IDX 64 56 65 57 66 58 67 59 46 60 47 61 55 62 48 63 54 64 56 65
REMARK SMILES IDX 53 66 49 67 50 68 51 69 52 70 5 71 6 72 7 73 8 74 9 76 10 77
REMARK SMILES IDX 11 78 12 79 13 80 14 81 19 82 15 83 17 84 16 85 18 86
REMARK H PARENT 3 5 76 23 44 34 7 75
REMARK Flexibility Score: inf
ROOT
ATOM      1  C   UNL A   1      32.656  32.545  27.126  1.00  0.00     0.118 C 
ENDROOT
BRANCH   1   2
ATOM      2  N   UNL A   1      32.454  33.933  27.525  1.00  0.00    -0.352 N 
ATOM      3  O   UNL A   1      32.613  35.778  28.800  1.00  0.00    -0.269 OA
ATOM      4  C   UNL A   1      33.044  34.659  28.533  1.00  0.00     0.251 C 
ATOM      5  H   UNL A   1      31.792  34.427  26.990  1.00  0.00     0.163 HD
BRANCH   4   6
ATOM      6  C   UNL A   1      34.174  34.096  29.309  1.00  0.00     0.039 A 
ATOM      7  C   UNL A   1      35.496  34.384  28.969  1.00  0.00     0.014 A 
ATOM      8  C   UNL A   1      33.899  33.284  30.415  1.00  0.00     0.014 A 
ATOM      9  C   UNL A   1      36.538  33.743  29.635  1.00  0.00     0.010 A 
ATOM     10  C   UNL A   1      34.951  32.702  31.132  1.00  0.00     0.010 A 
ATOM     11  C   UNL A   1      36.279  32.895  30.724  1.00  0.00    -0.014 A 
BRANCH  11  12
ATOM     12  C   UNL A   1      37.415  32.232  31.421  1.00  0.00     0.031 A 
ATOM     13  C   UNL A   1      38.194  31.133  30.748  1.00  0.00     0.074 A 
ATOM     14  C   UNL A   1      37.778  32.664  32.645  1.00  0.00     0.049 A 
ATOM     15  N   UNL A   1      39.222  30.460  31.198  1.00  0.00    -0.248 NA
ATOM     16  C   UNL A   1      37.767  30.735  29.396  1.00  0.00     0.031 C 
ATOM     17  C   UNL A   1      37.105  33.728  33.396  1.00  0.00     0.029 A 
ATOM     18  N   UNL A   1      38.814  32.289  33.464  1.00  0.00    -0.354 N 
ATOM     19  C   UNL A   1      39.557  29.555  30.197  1.00  0.00     0.074 A 
ATOM     20  C   UNL A   1      38.606  29.744  29.124  1.00  0.00     0.031 C 
ATOM     21  C   UNL A   1      37.773  33.954  34.535  1.00  0.00     0.029 A 
ATOM     22  C   UNL A   1      38.885  33.013  34.631  1.00  0.00     0.049 A 
ATOM     23  H   UNL A   1      39.445  31.569  33.236  1.00  0.00     0.167 HD
ATOM     24  C   UNL A   1      40.573  28.658  30.172  1.00  0.00     0.034 A 
ATOM     25  C   UNL A   1      39.737  32.923  35.671  1.00  0.00     0.034 A 
ATOM     26  C   UNL A   1      41.533  28.493  31.233  1.00  0.00     0.049 A 
ATOM     27  C   UNL A   1      40.823  31.883  35.637  1.00  0.00     0.074 A 
ATOM     28  C   UNL A   1      42.622  27.639  31.281  1.00  0.00     0.029 A 
ATOM     29  N   UNL A   1      41.524  29.192  32.431  1.00  0.00    -0.354 N 
ATOM     30  N   UNL A   1      41.112  31.028  34.685  1.00  0.00    -0.248 NA
ATOM     31  C   UNL A   1      41.687  31.784  36.821  1.00  0.00     0.031 C 
ATOM     32  C   UNL A   1      43.237  27.781  32.528  1.00  0.00     0.029 A 
ATOM     33  C   UNL A   1      42.566  28.765  33.236  1.00  0.00     0.049 A 
ATOM     34  H   UNL A   1      40.872  29.889  32.673  1.00  0.00     0.167 HD
ATOM     35  C   UNL A   1      42.193  30.292  35.154  1.00  0.00     0.074 A 
ATOM     36  C   UNL A   1      42.517  30.811  36.467  1.00  0.00     0.031 C 
ATOM     37  C   UNL A   1      42.858  29.276  34.551  1.00  0.00     0.034 A 
BRANCH  24  38
ATOM     38  C   UNL A   1      40.694  27.761  28.969  1.00  0.00     0.023 A 
ATOM     39  C   UNL A   1      41.596  28.041  27.931  1.00  0.00     0.031 A 
ATOM     40  C   UNL A   1      39.935  26.580  28.892  1.00  0.00     0.131 A 
ATOM     41  C   UNL A   1      41.698  27.163  26.842  1.00  0.00     0.055 A 
ATOM     42  C   UNL A   1      40.079  25.683  27.833  1.00  0.00     0.041 A 
ATOM     43  F   UNL A   1      39.049  26.275  29.853  1.00  0.00    -0.206 F 
ATOM     44  C   UNL A   1      40.963  25.974  26.797  1.00  0.00     0.022 A 
BRANCH  41  45
ATOM     45  S   UNL A   1      42.774  27.614  25.453  1.00  0.00     0.124 S 
ATOM     46  O   UNL A   1      42.077  28.775  24.906  1.00  0.00    -0.237 OA
ATOM     47  O   UNL A   1      44.048  27.885  26.110  1.00  0.00    -0.237 OA
ATOM     48  O   UNL A   1      42.754  26.424  24.604  1.00  0.00    -0.744 OA
ENDBRANCH  41  45
ENDBRANCH  24  38
BRANCH  25  49
ATOM     49  C   UNL A   1      39.566  33.811  36.853  1.00  0.00     0.023 A 
ATOM     50  C   UNL A   1      39.100  33.309  38.077  1.00  0.00     0.031 A 
ATOM     51  C   UNL A   1      39.863  35.183  36.768  1.00  0.00     0.131 A 
ATOM     52  C   UNL A   1      38.922  34.179  39.164  1.00  0.00     0.055 A 
ATOM     53  C   UNL A   1      39.726  36.036  37.864  1.00  0.00     0.041 A 
ATOM     54  F   UNL A   1      40.316  35.709  35.619  1.00  0.00    -0.206 F 
ATOM     55  C   UNL A   1      39.245  35.536  39.069  1.00  0.00     0.022 A 
BRANCH  52  56
ATOM     56  S   UNL A   1      38.224  33.521  40.703  1.00  0.00     0.124 S 
ATOM     57  O   UNL A   1      36.820  33.356  40.344  1.00  0.00    -0.237 OA
ATOM     58  O   UNL A   1      38.989  32.293  40.884  1.00  0.00    -0.237 OA
ATOM     59  O   UNL A   1      38.499  34.573  41.680  1.00  0.00    -0.744 OA
ENDBRANCH  52  56
ENDBRANCH  25  49
BRANCH  37  60
ATOM     60  C   UNL A   1      44.005  28.660  35.304  1.00  0.00     0.023 A 
ATOM     61  C   UNL A   1      43.797  27.608  36.211  1.00  0.00     0.031 A 
ATOM     62  C   UNL A   1      45.320  29.099  35.076  1.00  0.00     0.131 A 
ATOM     63  C   UNL A   1      44.891  27.040  36.878  1.00  0.00     0.055 A 
ATOM     64  C   UNL A   1      46.410  28.502  35.712  1.00  0.00     0.041 A 
ATOM     65  F   UNL A   1      45.567  30.099  34.214  1.00  0.00    -0.206 F 
ATOM     66  C   UNL A   1      46.198  27.469  36.622  1.00  0.00     0.022 A 
BRANCH  63  67
ATOM     67  S   UNL A   1      44.589  25.734  38.099  1.00  0.00     0.124 S 
ATOM     68  O   UNL A   1      43.457  25.027  37.508  1.00  0.00    -0.237 OA
ATOM     69  O   UNL A   1      45.856  25.011  38.113  1.00  0.00    -0.237 OA
ATOM     70  O   UNL A   1      44.287  26.474  39.324  1.00  0.00    -0.744 OA
ENDBRANCH  63  67
ENDBRANCH  37  60
ENDBRANCH  11  12
ENDBRANCH   4   6
ENDBRANCH   1   2
BRANCH   1  71
ATOM     71  C   UNL A   1      31.416  31.925  26.483  1.00  0.00     0.042 C 
BRANCH  71  72
ATOM     72  C   UNL A   1      31.552  30.436  26.179  1.00  0.00     0.117 C 
BRANCH  72  73
ATOM     73  N   UNL A   1      32.122  30.205  24.864  1.00  0.00    -0.356 N 
ATOM     74  C   UNL A   1      31.796  29.246  23.945  1.00  0.00     0.223 C 
ATOM     75  H   UNL A   1      32.839  30.824  24.597  1.00  0.00     0.163 HD
ATOM     76  O   UNL A   1      32.438  29.145  22.904  1.00  0.00    -0.275 OA
BRANCH  74  77
ATOM     77  C   UNL A   1      30.631  28.370  24.224  1.00  0.00     0.086 C 
ATOM     78  C   UNL A   1      29.922  27.649  23.107  1.00  0.00     0.023 C 
ATOM     79  C   UNL A   1      29.225  28.789  23.813  1.00  0.00     0.032 C 
BRANCH  79  80
ATOM     80  C   UNL A   1      28.949  30.065  23.045  1.00  0.00    -0.041 A 
ATOM     81  C   UNL A   1      28.635  30.033  21.672  1.00  0.00     0.004 A 
ATOM     82  C   UNL A   1      28.973  31.323  23.666  1.00  0.00     0.043 A 
ATOM     83  C   UNL A   1      28.394  31.204  20.942  1.00  0.00     0.003 A 
ATOM     84  C   UNL A   1      28.739  32.487  22.936  1.00  0.00     0.123 A 
ATOM     85  C   UNL A   1      28.453  32.438  21.579  1.00  0.00     0.039 A 
ATOM     86  F   UNL A   1      28.790  33.674  23.554  1.00  0.00    -0.207 F 
ENDBRANCH  79  80
ENDBRANCH  74  77
ENDBRANCH  72  73
ENDBRANCH  71  72
ENDBRANCH   1  71
TORSDOF 14
ENDMDL
MODEL 3
REMARK VINA RESULT:     -11.6      4.427      6.619
REMARK SMILES O=C(NCCCNC(=O)[C@@H]1C[C@@H]1c1cccc(F)c1)c1ccc(-c2c3nc(c(-c4cc(S(=O)(=O)[O-])ccc4F)c4ccc([nH]4)c(-c4cc(S(=O)(=O)[O-])ccc4F)c4nc(c(-c5cc(S(=O)(=O)[O-])ccc5F)c5ccc2[nH]5)C=C4)C=C3)cc1
REMARK SMILES IDX 4 1 3 2 1 3 2 4 20 6 21 7 82 8 22 9 81 10 23 11 24 12 25 13
REMARK SMILES IDX 75 14 26 15 80 16 74 17 76 18 27 19 79 20 73 21 72 22 28 24
REMARK SMILES IDX 60 25 40 26 59 27 41 28 44 29 58 30 77 31 42 32 43 33 57 35
REMARK SMILES IDX 78 36 45 37 29 38 30 39 38 40 31 41 37 42 39 43 36 44 32 45
REMARK SMILES IDX 33 46 34 47 35 48 61 49 62 50 70 51 63 52 69 53 71 54 68 55
REMARK SMILES IDX 64 56 65 57 66 58 67 59 46 60 47 61 55 62 48 63 54 64 56 65
REMARK SMILES IDX 53 66 49 67 50 68 51 69 52 70 5 71 6 72 7 73 8 74 9 76 10 77
REMARK SMILES IDX 11 78 12 79 13 80 14 81 19 82 15 83 17 84 16 85 18 86
REMARK H PARENT 3 5 76 23 44 34 7 75
REMARK Flexibility Score: inf
ROOT
ATOM      1  C   UNL A   1      34.943  33.630  28.373  1.00  0.00     0.118 C 
ENDROOT
BRANCH   1   2
ATOM      2  N   UNL A   1      34.017  32.561  28.016  1.00  0.00    -0.352 N 
ATOM      3  O   UNL A   1      33.342  30.493  27.450  1.00  0.00    -0.269 OA
ATOM      4  C   UNL A   1      34.224  31.205  27.923  1.00  0.00     0.251 C 
ATOM      5  H   UNL A   1      33.102  32.857  27.809  1.00  0.00     0.163 HD
BRANCH   4   6
ATOM      6  C   UNL A   1      35.504  30.603  28.365  1.00  0.00     0.039 A 
ATOM      7  C   UNL A   1      35.562  29.779  29.490  1.00  0.00     0.014 A 
ATOM      8  C   UNL A   1      36.662  30.851  27.622  1.00  0.00     0.014 A 
ATOM      9  C   UNL A   1      36.795  29.329  29.955  1.00  0.00     0.010 A 
ATOM     10  C   UNL A   1      37.891  30.334  28.049  1.00  0.00     0.010 A 
ATOM     11  C   UNL A   1      37.974  29.600  29.242  1.00  0.00    -0.014 A 
BRANCH  11  12
ATOM     12  C   UNL A   1      39.275  29.098  29.761  1.00  0.00     0.031 A 
ATOM     13  C   UNL A   1      39.879  29.678  31.013  1.00  0.00     0.074 A 
ATOM     14  C   UNL A   1      39.885  28.075  29.129  1.00  0.00     0.049 A 
ATOM     15  N   UNL A   1      40.992  29.349  31.617  1.00  0.00    -0.248 NA
ATOM     16  C   UNL A   1      39.142  30.768  31.673  1.00  0.00     0.031 C 
ATOM     17  C   UNL A   1      39.392  27.424  27.912  1.00  0.00     0.029 A 
ATOM     18  N   UNL A   1      41.030  27.382  29.432  1.00  0.00    -0.354 N 
ATOM     19  C   UNL A   1      41.098  30.194  32.716  1.00  0.00     0.074 A 
ATOM     20  C   UNL A   1      39.948  31.072  32.682  1.00  0.00     0.031 C 
ATOM     21  C   UNL A   1      40.197  26.398  27.603  1.00  0.00     0.029 A 
ATOM     22  C   UNL A   1      41.299  26.353  28.560  1.00  0.00     0.049 A 
ATOM     23  H   UNL A   1      41.604  27.602  30.200  1.00  0.00     0.167 HD
ATOM     24  C   UNL A   1      42.059  30.225  33.671  1.00  0.00     0.034 A 
ATOM     25  C   UNL A   1      42.324  25.479  28.520  1.00  0.00     0.034 A 
ATOM     26  C   UNL A   1      43.187  29.330  33.713  1.00  0.00     0.049 A 
ATOM     27  C   UNL A   1      43.403  25.571  29.564  1.00  0.00     0.074 A 
ATOM     28  C   UNL A   1      44.190  29.258  34.664  1.00  0.00     0.029 A 
ATOM     29  N   UNL A   1      43.464  28.353  32.769  1.00  0.00    -0.354 N 
ATOM     30  N   UNL A   1      43.488  26.388  30.588  1.00  0.00    -0.248 NA
ATOM     31  C   UNL A   1      44.529  24.636  29.443  1.00  0.00     0.031 C 
ATOM     32  C   UNL A   1      45.103  28.277  34.266  1.00  0.00     0.029 A 
ATOM     33  C   UNL A   1      44.638  27.698  33.097  1.00  0.00     0.049 A 
ATOM     34  H   UNL A   1      42.907  28.156  31.981  1.00  0.00     0.167 HD
ATOM     35  C   UNL A   1      44.675  26.064  31.232  1.00  0.00     0.074 A 
ATOM     36  C   UNL A   1      45.267  24.966  30.494  1.00  0.00     0.031 C 
ATOM     37  C   UNL A   1      45.227  26.624  32.336  1.00  0.00     0.034 A 
BRANCH  24  38
ATOM     38  C   UNL A   1      41.954  31.275  34.745  1.00  0.00     0.023 A 
ATOM     39  C   UNL A   1      42.387  32.593  34.529  1.00  0.00     0.031 A 
ATOM     40  C   UNL A   1      41.358  30.963  35.980  1.00  0.00     0.131 A 
ATOM     41  C   UNL A   1      42.243  33.548  35.547  1.00  0.00     0.055 A 
ATOM     42  C   UNL A   1      41.169  31.929  36.968  1.00  0.00     0.041 A 
ATOM     43  F   UNL A   1      40.940  29.714  36.238  1.00  0.00    -0.206 F 
ATOM     44  C   UNL A   1      41.615  33.231  36.755  1.00  0.00     0.022 A 
BRANCH  41  45
ATOM     45  S   UNL A   1      42.929  35.207  35.291  1.00  0.00     0.124 S 
ATOM     46  O   UNL A   1      43.326  35.148  33.887  1.00  0.00    -0.237 OA
ATOM     47  O   UNL A   1      41.795  36.073  35.597  1.00  0.00    -0.237 OA
ATOM     48  O   UNL A   1      44.035  35.272  36.245  1.00  0.00    -0.744 OA
ENDBRANCH  41  45
ENDBRANCH  24  38
BRANCH  25  49
ATOM     49  C   UNL A   1      42.404  24.474  27.426  1.00  0.00     0.023 A 
ATOM     50  C   UNL A   1      41.644  23.295  27.465  1.00  0.00     0.031 A 
ATOM     51  C   UNL A   1      43.254  24.679  26.323  1.00  0.00     0.131 A 
ATOM     52  C   UNL A   1      41.765  22.354  26.431  1.00  0.00     0.055 A 
ATOM     53  C   UNL A   1      43.339  23.760  25.278  1.00  0.00     0.041 A 
ATOM     54  F   UNL A   1      43.998  25.793  26.239  1.00  0.00    -0.206 F 
ATOM     55  C   UNL A   1      42.597  22.584  25.331  1.00  0.00     0.022 A 
BRANCH  52  56
ATOM     56  S   UNL A   1      40.846  20.796  26.559  1.00  0.00     0.124 S 
ATOM     57  O   UNL A   1      40.777  20.610  28.004  1.00  0.00    -0.237 OA
ATOM     58  O   UNL A   1      39.591  21.126  25.893  1.00  0.00    -0.237 OA
ATOM     59  O   UNL A   1      41.693  19.841  25.847  1.00  0.00    -0.744 OA
ENDBRANCH  52  56
ENDBRANCH  25  49
BRANCH  37  60
ATOM     60  C   UNL A   1      46.535  26.060  32.816  1.00  0.00     0.023 A 
ATOM     61  C   UNL A   1      46.574  24.979  33.713  1.00  0.00     0.031 A 
ATOM     62  C   UNL A   1      47.750  26.578  32.337  1.00  0.00     0.131 A 
ATOM     63  C   UNL A   1      47.811  24.461  34.122  1.00  0.00     0.055 A 
ATOM     64  C   UNL A   1      48.977  26.032  32.716  1.00  0.00     0.041 A 
ATOM     65  F   UNL A   1      47.760  27.608  31.476  1.00  0.00    -0.206 F 
ATOM     66  C   UNL A   1      49.012  24.969  33.616  1.00  0.00     0.022 A 
BRANCH  63  67
ATOM     67  S   UNL A   1      47.836  23.115  35.337  1.00  0.00     0.124 S 
ATOM     68  O   UNL A   1      47.331  23.782  36.533  1.00  0.00    -0.237 OA
ATOM     69  O   UNL A   1      46.948  22.126  34.735  1.00  0.00    -0.237 OA
ATOM     70  O   UNL A   1      49.245  22.728  35.390  1.00  0.00    -0.744 OA
ENDBRANCH  63  67
ENDBRANCH  37  60
ENDBRANCH  11  12
ENDBRANCH   4   6
ENDBRANCH   1   2
BRANCH   1  71
ATOM     71  C   UNL A   1      34.242  34.964  28.625  1.00  0.00     0.042 C 
BRANCH  71  72
ATOM     72  C   UNL A   1      33.414  34.999  29.906  1.00  0.00     0.117 C 
BRANCH  72  73
ATOM     73  N   UNL A   1      34.011  35.862  30.909  1.00  0.00    -0.356 N 
ATOM     74  C   UNL A   1      34.351  35.568  32.201  1.00  0.00     0.223 C 
ATOM     75  H   UNL A   1      34.197  36.785  30.620  1.00  0.00     0.163 HD
ATOM     76  O   UNL A   1      34.779  36.446  32.942  1.00  0.00    -0.275 OA
BRANCH  74  77
ATOM     77  C   UNL A   1      34.229  34.160  32.657  1.00  0.00     0.086 C 
ATOM     78  C   UNL A   1      34.946  33.685  33.894  1.00  0.00     0.023 C 
ATOM     79  C   UNL A   1      35.402  33.197  32.538  1.00  0.00     0.032 C 
BRANCH  79  80
ATOM     80  C   UNL A   1      36.761  33.630  32.026  1.00  0.00    -0.041 A 
ATOM     81  C   UNL A   1      37.076  33.564  30.654  1.00  0.00     0.004 A 
ATOM     82  C   UNL A   1      37.751  34.130  32.886  1.00  0.00     0.043 A 
ATOM     83  C   UNL A   1      38.332  33.943  30.167  1.00  0.00     0.003 A 
ATOM     84  C   UNL A   1      39.003  34.500  32.398  1.00  0.00     0.123 A 
ATOM     85  C   UNL A   1      39.303  34.408  31.046  1.00  0.00     0.039 A 
ATOM     86  F   UNL A   1      39.933  34.954  33.248  1.00  0.00    -0.207 F 
ENDBRANCH  79  80
ENDBRANCH  74  77
ENDBRANCH  72  73
ENDBRANCH  71  72
ENDBRANCH   1  71
TORSDOF 14
ENDMDL
