MODEL 1
REMARK VINA RESULT:     -12.8      0.000      0.000
REMARK SMILES Cc1nc(=O)[nH]c(C)c1CC(=O)Nc1sccc1C(=O)NCCCNC(=O)c1ccc(-c2c3nc(c(-c4cc(S(=O)(=O)[O-])ccc4F)c4ccc([nH]4)c(-c4cc(S(=O)(=O)[O-])ccc4F)c4nc(c(-c5cc(S(=O)(=O)[O-])ccc5F)c5ccc2[nH]5)C=C4)C=C3)cc1
REMARK SMILES IDX 23 1 22 2 21 3 19 4 20 5 18 7 14 8 15 9 16 10 17 11 13 12
REMARK SMILES IDX 11 13 12 14 10 16 9 17 1 18 2 19 3 20 4 21 7 22 5 23 6 24
REMARK SMILES IDX 8 25 24 27 25 28 26 29 27 31 28 32 29 33 90 34 30 35 89 36
REMARK SMILES IDX 31 37 32 38 33 39 83 40 34 41 88 42 82 43 84 44 35 45 87 46
REMARK SMILES IDX 81 47 80 48 36 50 68 51 48 52 67 53 49 54 52 55 66 56 85 57
REMARK SMILES IDX 50 58 51 59 65 61 86 62 53 63 37 64 38 65 46 66 39 67 45 68
REMARK SMILES IDX 47 69 44 70 40 71 41 72 42 73 43 74 69 75 70 76 78 77 71 78
REMARK SMILES IDX 77 79 79 80 76 81 72 82 73 83 74 84 75 85 54 86 55 87 63 88
REMARK SMILES IDX 56 89 62 90 64 91 61 92 57 93 58 94 59 95 60 96
REMARK H PARENT 21 6 13 15 6 26 25 30 84 49 52 60
REMARK Flexibility Score: inf
ROOT
ATOM      1  C   UNL A   1      31.778  29.029  27.235  1.00  0.00     0.042 C 
ENDROOT
BRANCH   1   2
ATOM      2  C   UNL A   1      32.274  27.599  27.160  1.00  0.00     0.118 C 
BRANCH   2   3
ATOM      3  N   UNL A   1      31.252  26.620  26.888  1.00  0.00    -0.352 N 
ATOM      4  C   UNL A   1      30.938  25.966  25.725  1.00  0.00     0.254 C 
ATOM      5  O   UNL A   1      29.943  25.242  25.763  1.00  0.00    -0.269 OA
ATOM      6  H   UNL A   1      30.690  26.383  27.661  1.00  0.00     0.163 HD
BRANCH   4   7
ATOM      7  C   UNL A   1      31.658  26.176  24.461  1.00  0.00     0.074 A 
ATOM      8  C   UNL A   1      32.998  26.091  24.120  1.00  0.00     0.108 A 
ATOM      9  S   UNL A   1      33.341  26.847  22.618  1.00  0.00    -0.126 S 
ATOM     10  C   UNL A   1      31.693  26.945  22.218  1.00  0.00     0.068 A 
ATOM     11  C   UNL A   1      30.906  26.570  23.279  1.00  0.00     0.028 A 
BRANCH   8  12
ATOM     12  N   UNL A   1      34.170  25.668  24.692  1.00  0.00    -0.317 N 
ATOM     13  C   UNL A   1      34.699  24.435  24.894  1.00  0.00     0.229 C 
ATOM     14  O   UNL A   1      35.561  24.347  25.780  1.00  0.00    -0.274 OA
ATOM     15  H   UNL A   1      34.739  26.403  25.019  1.00  0.00     0.170 HD
BRANCH  13  16
ATOM     16  C   UNL A   1      34.484  23.240  23.964  1.00  0.00     0.139 C 
BRANCH  16  17
ATOM     17  C   UNL A   1      34.016  21.927  24.496  1.00  0.00     0.002 A 
ATOM     18  C   UNL A   1      31.564  22.501  23.787  1.00  0.00     0.067 C 
ATOM     19  C   UNL A   1      32.564  21.546  24.410  1.00  0.00     0.049 A 
ATOM     20  N   UNL A   1      32.072  20.413  24.790  1.00  0.00    -0.198 NA
ATOM     21  C   UNL A   1      32.905  19.470  25.322  1.00  0.00     0.345 A 
ATOM     22  C   UNL A   1      34.810  20.929  24.931  1.00  0.00     0.022 A 
ATOM     23  O   UNL A   1      32.511  18.378  25.721  1.00  0.00    -0.246 OA
ATOM     24  N   UNL A   1      34.243  19.753  25.348  1.00  0.00    -0.310 N 
ATOM     25  C   UNL A   1      36.312  20.956  25.016  1.00  0.00     0.065 C 
ATOM     26  H   UNL A   1      34.847  19.056  25.695  1.00  0.00     0.171 HD
ENDBRANCH  16  17
ENDBRANCH  13  16
ENDBRANCH   8  12
ENDBRANCH   4   7
ENDBRANCH   2   3
ENDBRANCH   1   2
BRANCH   1  27
ATOM     27  C   UNL A   1      32.677  30.040  26.536  1.00  0.00     0.118 C 
BRANCH  27  28
ATOM     28  N   UNL A   1      32.599  31.402  27.064  1.00  0.00    -0.352 N 
ATOM     29  C   UNL A   1      33.596  32.169  27.628  1.00  0.00     0.251 C 
ATOM     30  H   UNL A   1      31.714  31.829  27.006  1.00  0.00     0.163 HD
ATOM     31  O   UNL A   1      33.364  33.318  27.989  1.00  0.00    -0.269 OA
BRANCH  29  32
ATOM     32  C   UNL A   1      34.915  31.554  27.875  1.00  0.00     0.039 A 
ATOM     33  C   UNL A   1      36.024  32.393  27.995  1.00  0.00     0.014 A 
ATOM     34  C   UNL A   1      35.023  30.189  28.143  1.00  0.00     0.014 A 
ATOM     35  C   UNL A   1      37.216  31.879  28.504  1.00  0.00     0.010 A 
ATOM     36  C   UNL A   1      36.176  29.708  28.756  1.00  0.00     0.010 A 
ATOM     37  C   UNL A   1      37.279  30.551  28.958  1.00  0.00    -0.014 A 
BRANCH  37  38
ATOM     38  C   UNL A   1      38.485  30.051  29.672  1.00  0.00     0.031 A 
ATOM     39  C   UNL A   1      38.789  30.522  31.066  1.00  0.00     0.074 A 
ATOM     40  C   UNL A   1      39.326  29.206  29.039  1.00  0.00     0.049 A 
ATOM     41  N   UNL A   1      39.781  30.191  31.852  1.00  0.00    -0.248 NA
ATOM     42  C   UNL A   1      37.879  31.525  31.641  1.00  0.00     0.031 C 
ATOM     43  C   UNL A   1      39.179  28.740  27.657  1.00  0.00     0.029 A 
ATOM     44  N   UNL A   1      40.467  28.578  29.473  1.00  0.00    -0.354 N 
ATOM     45  C   UNL A   1      39.616  30.945  33.009  1.00  0.00     0.074 A 
ATOM     46  C   UNL A   1      38.481  31.812  32.785  1.00  0.00     0.031 C 
ATOM     47  C   UNL A   1      40.154  27.861  27.379  1.00  0.00     0.029 A 
ATOM     48  C   UNL A   1      41.023  27.729  28.542  1.00  0.00     0.049 A 
ATOM     49  H   UNL A   1      40.852  28.721  30.368  1.00  0.00     0.167 HD
ATOM     50  C   UNL A   1      40.322  30.892  34.165  1.00  0.00     0.034 A 
ATOM     51  C   UNL A   1      42.106  26.931  28.620  1.00  0.00     0.034 A 
ATOM     52  C   UNL A   1      41.446  30.014  34.372  1.00  0.00     0.049 A 
ATOM     53  C   UNL A   1      42.878  26.892  29.915  1.00  0.00     0.074 A 
ATOM     54  C   UNL A   1      42.203  29.834  35.516  1.00  0.00     0.029 A 
ATOM     55  N   UNL A   1      41.985  29.170  33.406  1.00  0.00    -0.354 N 
ATOM     56  N   UNL A   1      42.659  27.554  31.029  1.00  0.00    -0.248 NA
ATOM     57  C   UNL A   1      44.032  25.987  29.968  1.00  0.00     0.031 C 
ATOM     58  C   UNL A   1      43.239  28.942  35.222  1.00  0.00     0.029 A 
ATOM     59  C   UNL A   1      43.083  28.497  33.919  1.00  0.00     0.049 A 
ATOM     60  H   UNL A   1      41.637  29.067  32.492  1.00  0.00     0.167 HD
ATOM     61  C   UNL A   1      43.636  27.124  31.923  1.00  0.00     0.074 A 
ATOM     62  C   UNL A   1      44.420  26.124  31.226  1.00  0.00     0.031 C 
ATOM     63  C   UNL A   1      43.869  27.519  33.202  1.00  0.00     0.034 A 
BRANCH  50  64
ATOM     64  C   UNL A   1      39.899  31.824  35.278  1.00  0.00     0.023 A 
ATOM     65  C   UNL A   1      39.099  31.380  36.347  1.00  0.00     0.031 A 
ATOM     66  C   UNL A   1      40.266  33.180  35.253  1.00  0.00     0.131 A 
ATOM     67  C   UNL A   1      38.623  32.297  37.296  1.00  0.00     0.055 A 
ATOM     68  C   UNL A   1      39.863  34.070  36.250  1.00  0.00     0.041 A 
ATOM     69  F   UNL A   1      41.008  33.670  34.248  1.00  0.00    -0.206 F 
ATOM     70  C   UNL A   1      39.021  33.635  37.271  1.00  0.00     0.022 A 
BRANCH  67  71
ATOM     71  S   UNL A   1      37.350  31.749  38.466  1.00  0.00     0.124 S 
ATOM     72  O   UNL A   1      38.052  31.873  39.742  1.00  0.00    -0.237 OA
ATOM     73  O   UNL A   1      36.274  32.704  38.234  1.00  0.00    -0.237 OA
ATOM     74  O   UNL A   1      37.070  30.377  38.050  1.00  0.00    -0.744 OA
ENDBRANCH  67  71
ENDBRANCH  50  64
BRANCH  51  75
ATOM     75  C   UNL A   1      42.527  26.096  27.455  1.00  0.00     0.023 A 
ATOM     76  C   UNL A   1      42.105  24.762  27.327  1.00  0.00     0.031 A 
ATOM     77  C   UNL A   1      43.400  26.604  26.477  1.00  0.00     0.131 A 
ATOM     78  C   UNL A   1      42.596  23.968  26.277  1.00  0.00     0.055 A 
ATOM     79  C   UNL A   1      43.839  25.828  25.402  1.00  0.00     0.041 A 
ATOM     80  F   UNL A   1      43.833  27.874  26.546  1.00  0.00    -0.206 F 
ATOM     81  C   UNL A   1      43.449  24.496  25.307  1.00  0.00     0.022 A 
BRANCH  78  82
ATOM     82  S   UNL A   1      42.175  22.203  26.251  1.00  0.00     0.124 S 
ATOM     83  O   UNL A   1      42.712  21.750  27.528  1.00  0.00    -0.237 OA
ATOM     84  O   UNL A   1      40.720  22.240  26.143  1.00  0.00    -0.237 OA
ATOM     85  O   UNL A   1      42.873  21.705  25.067  1.00  0.00    -0.744 OA
ENDBRANCH  78  82
ENDBRANCH  51  75
BRANCH  63  86
ATOM     86  C   UNL A   1      45.007  26.840  33.926  1.00  0.00     0.023 A 
ATOM     87  C   UNL A   1      44.796  25.705  34.728  1.00  0.00     0.031 A 
ATOM     88  C   UNL A   1      46.312  27.357  33.845  1.00  0.00     0.131 A 
ATOM     89  C   UNL A   1      45.853  25.173  35.480  1.00  0.00     0.055 A 
ATOM     90  C   UNL A   1      47.376  26.777  34.536  1.00  0.00     0.041 A 
ATOM     91  F   UNL A   1      46.575  28.441  33.098  1.00  0.00    -0.206 F 
ATOM     92  C   UNL A   1      47.147  25.690  35.374  1.00  0.00     0.022 A 
BRANCH  89  93
ATOM     93  S   UNL A   1      45.485  23.882  36.699  1.00  0.00     0.124 S 
ATOM     94  O   UNL A   1      44.479  24.532  37.534  1.00  0.00    -0.237 OA
ATOM     95  O   UNL A   1      45.006  22.788  35.860  1.00  0.00    -0.237 OA
ATOM     96  O   UNL A   1      46.773  23.647  37.350  1.00  0.00    -0.744 OA
ENDBRANCH  89  93
ENDBRANCH  63  86
ENDBRANCH  37  38
ENDBRANCH  29  32
ENDBRANCH  27  28
ENDBRANCH   1  27
TORSDOF 16
ENDMDL
MODEL 2
REMARK VINA RESULT:     -12.7      0.853      7.498
REMARK SMILES Cc1nc(=O)[nH]c(C)c1CC(=O)Nc1sccc1C(=O)NCCCNC(=O)c1ccc(-c2c3nc(c(-c4cc(S(=O)(=O)[O-])ccc4F)c4ccc([nH]4)c(-c4cc(S(=O)(=O)[O-])ccc4F)c4nc(c(-c5cc(S(=O)(=O)[O-])ccc5F)c5ccc2[nH]5)C=C4)C=C3)cc1
REMARK SMILES IDX 23 1 22 2 21 3 19 4 20 5 18 7 14 8 15 9 16 10 17 11 13 12
REMARK SMILES IDX 11 13 12 14 10 16 9 17 1 18 2 19 3 20 4 21 7 22 5 23 6 24
REMARK SMILES IDX 8 25 24 27 25 28 26 29 27 31 28 32 29 33 90 34 30 35 89 36
REMARK SMILES IDX 31 37 32 38 33 39 83 40 34 41 88 42 82 43 84 44 35 45 87 46
REMARK SMILES IDX 81 47 80 48 36 50 68 51 48 52 67 53 49 54 52 55 66 56 85 57
REMARK SMILES IDX 50 58 51 59 65 61 86 62 53 63 37 64 38 65 46 66 39 67 45 68
REMARK SMILES IDX 47 69 44 70 40 71 41 72 42 73 43 74 69 75 70 76 78 77 71 78
REMARK SMILES IDX 77 79 79 80 76 81 72 82 73 83 74 84 75 85 54 86 55 87 63 88
REMARK SMILES IDX 56 89 62 90 64 91 61 92 57 93 58 94 59 95 60 96
REMARK H PARENT 21 6 13 15 6 26 25 30 84 49 52 60
REMARK Flexibility Score: inf
ROOT
ATOM      1  C   UNL A   1      31.748  29.364  27.039  1.00  0.00     0.042 C 
ENDROOT
BRANCH   1   2
ATOM      2  C   UNL A   1      32.405  27.999  26.991  1.00  0.00     0.118 C 
BRANCH   2   3
ATOM      3  N   UNL A   1      31.491  26.887  27.070  1.00  0.00    -0.352 N 
ATOM      4  C   UNL A   1      31.139  25.961  26.123  1.00  0.00     0.254 C 
ATOM      5  O   UNL A   1      30.253  25.169  26.445  1.00  0.00    -0.269 OA
ATOM      6  H   UNL A   1      31.049  26.775  27.943  1.00  0.00     0.163 HD
BRANCH   4   7
ATOM      7  C   UNL A   1      31.686  25.952  24.760  1.00  0.00     0.074 A 
ATOM      8  C   UNL A   1      32.972  25.795  24.266  1.00  0.00     0.108 A 
ATOM      9  S   UNL A   1      33.110  26.291  22.629  1.00  0.00    -0.126 S 
ATOM     10  C   UNL A   1      31.423  26.343  22.435  1.00  0.00     0.068 A 
ATOM     11  C   UNL A   1      30.784  26.156  23.637  1.00  0.00     0.028 A 
BRANCH   8  12
ATOM     12  N   UNL A   1      34.212  25.457  24.743  1.00  0.00    -0.317 N 
ATOM     13  C   UNL A   1      34.842  24.265  24.897  1.00  0.00     0.229 C 
ATOM     14  O   UNL A   1      35.773  24.239  25.713  1.00  0.00    -0.274 OA
ATOM     15  H   UNL A   1      34.751  26.231  25.029  1.00  0.00     0.170 HD
BRANCH  13  16
ATOM     16  C   UNL A   1      34.641  23.058  23.981  1.00  0.00     0.139 C 
BRANCH  16  17
ATOM     17  C   UNL A   1      34.134  21.761  24.518  1.00  0.00     0.002 A 
ATOM     18  C   UNL A   1      31.694  22.423  23.845  1.00  0.00     0.067 C 
ATOM     19  C   UNL A   1      32.668  21.432  24.452  1.00  0.00     0.049 A 
ATOM     20  N   UNL A   1      32.142  20.316  24.838  1.00  0.00    -0.198 NA
ATOM     21  C   UNL A   1      32.949  19.344  25.357  1.00  0.00     0.345 A 
ATOM     22  C   UNL A   1      34.899  20.735  24.940  1.00  0.00     0.022 A 
ATOM     23  O   UNL A   1      32.522  18.266  25.760  1.00  0.00    -0.246 OA
ATOM     24  N   UNL A   1      34.297  19.579  25.364  1.00  0.00    -0.310 N 
ATOM     25  C   UNL A   1      36.402  20.709  25.004  1.00  0.00     0.065 C 
ATOM     26  H   UNL A   1      34.880  18.861  25.701  1.00  0.00     0.171 HD
ENDBRANCH  16  17
ENDBRANCH  13  16
ENDBRANCH   8  12
ENDBRANCH   4   7
ENDBRANCH   2   3
ENDBRANCH   1   2
BRANCH   1  27
ATOM     27  C   UNL A   1      32.518  30.454  26.305  1.00  0.00     0.118 C 
BRANCH  27  28
ATOM     28  N   UNL A   1      32.388  31.793  26.879  1.00  0.00    -0.352 N 
ATOM     29  C   UNL A   1      33.318  32.525  27.587  1.00  0.00     0.251 C 
ATOM     30  H   UNL A   1      31.517  32.231  26.740  1.00  0.00     0.163 HD
ATOM     31  O   UNL A   1      33.053  33.660  27.969  1.00  0.00    -0.269 OA
BRANCH  29  32
ATOM     32  C   UNL A   1      34.596  31.885  27.956  1.00  0.00     0.039 A 
ATOM     33  C   UNL A   1      35.701  32.705  28.193  1.00  0.00     0.014 A 
ATOM     34  C   UNL A   1      34.657  30.516  28.218  1.00  0.00     0.014 A 
ATOM     35  C   UNL A   1      36.829  32.167  28.812  1.00  0.00     0.010 A 
ATOM     36  C   UNL A   1      35.735  30.010  28.936  1.00  0.00     0.010 A 
ATOM     37  C   UNL A   1      36.826  30.833  29.255  1.00  0.00    -0.014 A 
BRANCH  37  38
ATOM     38  C   UNL A   1      37.947  30.307  30.079  1.00  0.00     0.031 A 
ATOM     39  C   UNL A   1      38.938  29.345  29.486  1.00  0.00     0.074 A 
ATOM     40  C   UNL A   1      38.040  30.666  31.377  1.00  0.00     0.049 A 
ATOM     41  N   UNL A   1      39.985  28.790  30.040  1.00  0.00    -0.248 NA
ATOM     42  C   UNL A   1      38.702  28.922  28.097  1.00  0.00     0.031 C 
ATOM     43  C   UNL A   1      37.092  31.531  32.087  1.00  0.00     0.029 A 
ATOM     44  N   UNL A   1      38.979  30.362  32.332  1.00  0.00    -0.354 N 
ATOM     45  C   UNL A   1      40.528  27.954  29.071  1.00  0.00     0.074 A 
ATOM     46  C   UNL A   1      39.645  28.009  27.928  1.00  0.00     0.031 C 
ATOM     47  C   UNL A   1      37.528  31.732  33.341  1.00  0.00     0.029 A 
ATOM     48  C   UNL A   1      38.760  30.978  33.543  1.00  0.00     0.049 A 
ATOM     49  H   UNL A   1      39.738  29.758  32.164  1.00  0.00     0.167 HD
ATOM     50  C   UNL A   1      41.678  27.237  29.116  1.00  0.00     0.034 A 
ATOM     51  C   UNL A   1      39.476  30.946  34.685  1.00  0.00     0.034 A 
ATOM     52  C   UNL A   1      42.550  27.202  30.263  1.00  0.00     0.049 A 
ATOM     53  C   UNL A   1      40.749  30.137  34.712  1.00  0.00     0.074 A 
ATOM     54  C   UNL A   1      43.765  26.556  30.405  1.00  0.00     0.029 A 
ATOM     55  N   UNL A   1      42.296  27.836  31.475  1.00  0.00    -0.354 N 
ATOM     56  N   UNL A   1      41.290  29.415  33.757  1.00  0.00    -0.248 NA
ATOM     57  C   UNL A   1      41.513  30.153  35.965  1.00  0.00     0.031 C 
ATOM     58  C   UNL A   1      44.208  26.736  31.719  1.00  0.00     0.029 A 
ATOM     59  C   UNL A   1      43.314  27.565  32.377  1.00  0.00     0.049 A 
ATOM     60  H   UNL A   1      41.508  28.393  31.664  1.00  0.00     0.167 HD
ATOM     61  C   UNL A   1      42.474  28.910  34.290  1.00  0.00     0.074 A 
ATOM     62  C   UNL A   1      42.579  29.440  35.635  1.00  0.00     0.031 C 
ATOM     63  C   UNL A   1      43.390  28.083  33.724  1.00  0.00     0.034 A 
BRANCH  50  64
ATOM     64  C   UNL A   1      42.036  26.425  27.892  1.00  0.00     0.023 A 
ATOM     65  C   UNL A   1      41.629  25.084  27.752  1.00  0.00     0.031 A 
ATOM     66  C   UNL A   1      42.824  26.981  26.871  1.00  0.00     0.131 A 
ATOM     67  C   UNL A   1      42.083  24.324  26.664  1.00  0.00     0.055 A 
ATOM     68  C   UNL A   1      43.197  26.244  25.744  1.00  0.00     0.041 A 
ATOM     69  F   UNL A   1      43.263  28.246  26.957  1.00  0.00    -0.206 F 
ATOM     70  C   UNL A   1      42.841  24.901  25.644  1.00  0.00     0.022 A 
BRANCH  67  71
ATOM     71  S   UNL A   1      41.799  22.532  26.684  1.00  0.00     0.124 S 
ATOM     72  O   UNL A   1      42.629  22.116  27.812  1.00  0.00    -0.237 OA
ATOM     73  O   UNL A   1      40.358  22.443  26.884  1.00  0.00    -0.237 OA
ATOM     74  O   UNL A   1      42.277  22.095  25.374  1.00  0.00    -0.744 OA
ENDBRANCH  67  71
ENDBRANCH  50  64
BRANCH  51  75
ATOM     75  C   UNL A   1      39.025  31.701  35.892  1.00  0.00     0.023 A 
ATOM     76  C   UNL A   1      38.272  31.077  36.901  1.00  0.00     0.031 A 
ATOM     77  C   UNL A   1      39.298  33.073  36.033  1.00  0.00     0.131 A 
ATOM     78  C   UNL A   1      37.775  31.832  37.976  1.00  0.00     0.055 A 
ATOM     79  C   UNL A   1      38.851  33.808  37.133  1.00  0.00     0.041 A 
ATOM     80  F   UNL A   1      40.017  33.722  35.102  1.00  0.00    -0.206 F 
ATOM     81  C   UNL A   1      38.071  33.190  38.105  1.00  0.00     0.022 A 
BRANCH  78  82
ATOM     82  S   UNL A   1      36.654  31.031  39.157  1.00  0.00     0.124 S 
ATOM     83  O   UNL A   1      35.546  31.977  39.204  1.00  0.00    -0.237 OA
ATOM     84  O   UNL A   1      36.384  29.756  38.501  1.00  0.00    -0.237 OA
ATOM     85  O   UNL A   1      37.454  30.944  40.378  1.00  0.00    -0.744 OA
ENDBRANCH  78  82
ENDBRANCH  51  75
BRANCH  63  86
ATOM     86  C   UNL A   1      44.596  27.729  34.563  1.00  0.00     0.023 A 
ATOM     87  C   UNL A   1      44.597  26.610  35.415  1.00  0.00     0.031 A 
ATOM     88  C   UNL A   1      45.742  28.542  34.541  1.00  0.00     0.131 A 
ATOM     89  C   UNL A   1      45.687  26.382  36.267  1.00  0.00     0.055 A 
ATOM     90  C   UNL A   1      46.855  28.266  35.335  1.00  0.00     0.041 A 
ATOM     91  F   UNL A   1      45.798  29.626  33.750  1.00  0.00    -0.206 F 
ATOM     92  C   UNL A   1      46.825  27.191  36.219  1.00  0.00     0.022 A 
BRANCH  89  93
ATOM     93  S   UNL A   1      45.540  25.091  37.534  1.00  0.00     0.124 S 
ATOM     94  O   UNL A   1      45.820  23.881  36.766  1.00  0.00    -0.237 OA
ATOM     95  O   UNL A   1      46.562  25.484  38.499  1.00  0.00    -0.237 OA
ATOM     96  O   UNL A   1      44.161  25.225  38.000  1.00  0.00    -0.744 OA
ENDBRANCH  89  93
ENDBRANCH  63  86
ENDBRANCH  37  38
ENDBRANCH  29  32
ENDBRANCH  27  28
ENDBRANCH   1  27
TORSDOF 16
ENDMDL
MODEL 3
REMARK VINA RESULT:     -12.5      1.762      2.192
REMARK SMILES Cc1nc(=O)[nH]c(C)c1CC(=O)Nc1sccc1C(=O)NCCCNC(=O)c1ccc(-c2c3nc(c(-c4cc(S(=O)(=O)[O-])ccc4F)c4ccc([nH]4)c(-c4cc(S(=O)(=O)[O-])ccc4F)c4nc(c(-c5cc(S(=O)(=O)[O-])ccc5F)c5ccc2[nH]5)C=C4)C=C3)cc1
REMARK SMILES IDX 23 1 22 2 21 3 19 4 20 5 18 7 14 8 15 9 16 10 17 11 13 12
REMARK SMILES IDX 11 13 12 14 10 16 9 17 1 18 2 19 3 20 4 21 7 22 5 23 6 24
REMARK SMILES IDX 8 25 24 27 25 28 26 29 27 31 28 32 29 33 90 34 30 35 89 36
REMARK SMILES IDX 31 37 32 38 33 39 83 40 34 41 88 42 82 43 84 44 35 45 87 46
REMARK SMILES IDX 81 47 80 48 36 50 68 51 48 52 67 53 49 54 52 55 66 56 85 57
REMARK SMILES IDX 50 58 51 59 65 61 86 62 53 63 37 64 38 65 46 66 39 67 45 68
REMARK SMILES IDX 47 69 44 70 40 71 41 72 42 73 43 74 69 75 70 76 78 77 71 78
REMARK SMILES IDX 77 79 79 80 76 81 72 82 73 83 74 84 75 85 54 86 55 87 63 88
REMARK SMILES IDX 56 89 62 90 64 91 61 92 57 93 58 94 59 95 60 96
REMARK H PARENT 21 6 13 15 6 26 25 30 84 49 52 60
REMARK Flexibility Score: inf
ROOT
ATOM      1  C   UNL A   1      31.563  29.909  26.893  1.00  0.00     0.042 C 
ENDROOT
BRANCH   1   2
ATOM      2  C   UNL A   1      32.282  28.620  27.239  1.00  0.00     0.118 C 
BRANCH   2   3
ATOM      3  N   UNL A   1      33.057  28.055  26.163  1.00  0.00    -0.352 N 
ATOM      4  C   UNL A   1      32.652  27.447  25.003  1.00  0.00     0.254 C 
ATOM      5  O   UNL A   1      33.544  26.969  24.302  1.00  0.00    -0.269 OA
ATOM      6  H   UNL A   1      34.033  28.114  26.280  1.00  0.00     0.163 HD
BRANCH   4   7
ATOM      7  C   UNL A   1      31.240  27.262  24.639  1.00  0.00     0.074 A 
ATOM      8  C   UNL A   1      30.255  26.407  25.109  1.00  0.00     0.108 A 
ATOM      9  S   UNL A   1      28.909  26.315  24.049  1.00  0.00    -0.126 S 
ATOM     10  C   UNL A   1      29.422  27.678  23.174  1.00  0.00     0.068 A 
ATOM     11  C   UNL A   1      30.674  28.077  23.576  1.00  0.00     0.028 A 
BRANCH   8  12
ATOM     12  N   UNL A   1      30.086  25.513  26.134  1.00  0.00    -0.317 N 
ATOM     13  C   UNL A   1      30.703  24.345  26.444  1.00  0.00     0.229 C 
ATOM     14  O   UNL A   1      30.075  23.573  27.182  1.00  0.00    -0.274 OA
ATOM     15  H   UNL A   1      29.378  25.770  26.770  1.00  0.00     0.170 HD
BRANCH  13  16
ATOM     16  C   UNL A   1      32.172  24.041  26.150  1.00  0.00     0.139 C 
BRANCH  16  17
ATOM     17  C   UNL A   1      32.610  22.668  25.761  1.00  0.00     0.002 A 
ATOM     18  C   UNL A   1      31.662  23.038  23.350  1.00  0.00     0.067 C 
ATOM     19  C   UNL A   1      32.364  22.159  24.367  1.00  0.00     0.049 A 
ATOM     20  N   UNL A   1      32.754  21.011  23.919  1.00  0.00    -0.198 NA
ATOM     21  C   UNL A   1      33.436  20.169  24.750  1.00  0.00     0.345 A 
ATOM     22  C   UNL A   1      33.374  21.847  26.508  1.00  0.00     0.022 A 
ATOM     23  O   UNL A   1      33.823  19.056  24.404  1.00  0.00    -0.246 OA
ATOM     24  N   UNL A   1      33.742  20.628  26.003  1.00  0.00    -0.310 N 
ATOM     25  C   UNL A   1      33.890  22.123  27.894  1.00  0.00     0.065 C 
ATOM     26  H   UNL A   1      34.268  20.035  26.586  1.00  0.00     0.171 HD
ENDBRANCH  16  17
ENDBRANCH  13  16
ENDBRANCH   8  12
ENDBRANCH   4   7
ENDBRANCH   2   3
ENDBRANCH   1   2
BRANCH   1  27
ATOM     27  C   UNL A   1      32.461  30.986  26.298  1.00  0.00     0.118 C 
BRANCH  27  28
ATOM     28  N   UNL A   1      32.384  32.286  26.962  1.00  0.00    -0.352 N 
ATOM     29  C   UNL A   1      33.360  32.954  27.671  1.00  0.00     0.251 C 
ATOM     30  H   UNL A   1      31.517  32.748  26.892  1.00  0.00     0.163 HD
ATOM     31  O   UNL A   1      33.136  34.067  28.137  1.00  0.00    -0.269 OA
BRANCH  29  32
ATOM     32  C   UNL A   1      34.640  32.269  27.939  1.00  0.00     0.039 A 
ATOM     33  C   UNL A   1      35.806  33.037  27.973  1.00  0.00     0.014 A 
ATOM     34  C   UNL A   1      34.663  30.924  28.307  1.00  0.00     0.014 A 
ATOM     35  C   UNL A   1      36.972  32.482  28.498  1.00  0.00     0.010 A 
ATOM     36  C   UNL A   1      35.796  30.411  28.933  1.00  0.00     0.010 A 
ATOM     37  C   UNL A   1      36.957  31.189  29.049  1.00  0.00    -0.014 A 
BRANCH  37  38
ATOM     38  C   UNL A   1      38.143  30.663  29.776  1.00  0.00     0.031 A 
ATOM     39  C   UNL A   1      38.409  31.078  31.196  1.00  0.00     0.074 A 
ATOM     40  C   UNL A   1      39.004  29.844  29.133  1.00  0.00     0.049 A 
ATOM     41  N   UNL A   1      39.379  30.716  31.995  1.00  0.00    -0.248 NA
ATOM     42  C   UNL A   1      37.481  32.056  31.785  1.00  0.00     0.031 C 
ATOM     43  C   UNL A   1      38.895  29.433  27.730  1.00  0.00     0.029 A 
ATOM     44  N   UNL A   1      40.133  29.199  29.573  1.00  0.00    -0.354 N 
ATOM     45  C   UNL A   1      39.180  31.423  33.176  1.00  0.00     0.074 A 
ATOM     46  C   UNL A   1      38.051  32.297  32.955  1.00  0.00     0.031 C 
ATOM     47  C   UNL A   1      39.879  28.566  27.444  1.00  0.00     0.029 A 
ATOM     48  C   UNL A   1      40.716  28.389  28.625  1.00  0.00     0.049 A 
ATOM     49  H   UNL A   1      40.492  29.307  30.484  1.00  0.00     0.167 HD
ATOM     50  C   UNL A   1      39.854  31.325  34.348  1.00  0.00     0.034 A 
ATOM     51  C   UNL A   1      41.798  27.588  28.701  1.00  0.00     0.034 A 
ATOM     52  C   UNL A   1      40.974  30.439  34.551  1.00  0.00     0.049 A 
ATOM     53  C   UNL A   1      42.534  27.499  30.015  1.00  0.00     0.074 A 
ATOM     54  C   UNL A   1      41.699  30.215  35.708  1.00  0.00     0.029 A 
ATOM     55  N   UNL A   1      41.541  29.635  33.567  1.00  0.00    -0.354 N 
ATOM     56  N   UNL A   1      42.283  28.115  31.148  1.00  0.00    -0.248 NA
ATOM     57  C   UNL A   1      43.688  26.593  30.063  1.00  0.00     0.031 C 
ATOM     58  C   UNL A   1      42.744  29.336  35.407  1.00  0.00     0.029 A 
ATOM     59  C   UNL A   1      42.625  28.943  34.084  1.00  0.00     0.049 A 
ATOM     60  H   UNL A   1      41.218  29.569  32.640  1.00  0.00     0.167 HD
ATOM     61  C   UNL A   1      43.236  27.651  32.051  1.00  0.00     0.074 A 
ATOM     62  C   UNL A   1      44.041  26.680  31.336  1.00  0.00     0.031 C 
ATOM     63  C   UNL A   1      43.433  27.995  33.350  1.00  0.00     0.034 A 
BRANCH  50  64
ATOM     64  C   UNL A   1      39.400  32.211  35.485  1.00  0.00     0.023 A 
ATOM     65  C   UNL A   1      39.860  33.534  35.618  1.00  0.00     0.031 A 
ATOM     66  C   UNL A   1      38.527  31.719  36.470  1.00  0.00     0.131 A 
ATOM     67  C   UNL A   1      39.516  34.287  36.750  1.00  0.00     0.055 A 
ATOM     68  C   UNL A   1      38.116  32.505  37.549  1.00  0.00     0.041 A 
ATOM     69  F   UNL A   1      38.071  30.458  36.413  1.00  0.00    -0.206 F 
ATOM     70  C   UNL A   1      38.625  33.792  37.703  1.00  0.00     0.022 A 
BRANCH  67  71
ATOM     71  S   UNL A   1      40.375  35.858  37.037  1.00  0.00     0.124 S 
ATOM     72  O   UNL A   1      40.022  36.137  38.428  1.00  0.00    -0.237 OA
ATOM     73  O   UNL A   1      41.768  35.507  36.791  1.00  0.00    -0.237 OA
ATOM     74  O   UNL A   1      39.775  36.761  36.058  1.00  0.00    -0.744 OA
ENDBRANCH  67  71
ENDBRANCH  50  64
BRANCH  51  75
ATOM     75  C   UNL A   1      42.252  26.801  27.516  1.00  0.00     0.023 A 
ATOM     76  C   UNL A   1      42.039  25.414  27.440  1.00  0.00     0.031 A 
ATOM     77  C   UNL A   1      42.952  27.416  26.462  1.00  0.00     0.131 A 
ATOM     78  C   UNL A   1      42.565  24.681  26.363  1.00  0.00     0.055 A 
ATOM     79  C   UNL A   1      43.423  26.691  25.365  1.00  0.00     0.041 A 
ATOM     80  F   UNL A   1      43.181  28.739  26.480  1.00  0.00    -0.206 F 
ATOM     81  C   UNL A   1      43.243  25.312  25.319  1.00  0.00     0.022 A 
BRANCH  78  82
ATOM     82  S   UNL A   1      42.430  22.872  26.394  1.00  0.00     0.124 S 
ATOM     83  O   UNL A   1      42.583  22.538  24.983  1.00  0.00    -0.237 OA
ATOM     84  O   UNL A   1      43.539  22.500  27.266  1.00  0.00    -0.237 OA
ATOM     85  O   UNL A   1      41.098  22.640  26.950  1.00  0.00    -0.744 OA
ENDBRANCH  78  82
ENDBRANCH  51  75
BRANCH  63  86
ATOM     86  C   UNL A   1      44.551  27.288  34.077  1.00  0.00     0.023 A 
ATOM     87  C   UNL A   1      44.318  26.125  34.832  1.00  0.00     0.031 A 
ATOM     88  C   UNL A   1      45.858  27.805  34.048  1.00  0.00     0.131 A 
ATOM     89  C   UNL A   1      45.356  25.565  35.591  1.00  0.00     0.055 A 
ATOM     90  C   UNL A   1      46.904  27.198  34.744  1.00  0.00     0.041 A 
ATOM     91  F   UNL A   1      46.141  28.915  33.347  1.00  0.00    -0.206 F 
ATOM     92  C   UNL A   1      46.653  26.082  35.537  1.00  0.00     0.022 A 
BRANCH  89  93
ATOM     93  S   UNL A   1      44.956  24.231  36.754  1.00  0.00     0.124 S 
ATOM     94  O   UNL A   1      43.964  24.869  37.615  1.00  0.00    -0.237 OA
ATOM     95  O   UNL A   1      44.454  23.186  35.868  1.00  0.00    -0.237 OA
ATOM     96  O   UNL A   1      46.237  23.940  37.395  1.00  0.00    -0.744 OA
ENDBRANCH  89  93
ENDBRANCH  63  86
ENDBRANCH  37  38
ENDBRANCH  29  32
ENDBRANCH  27  28
ENDBRANCH   1  27
TORSDOF 16
ENDMDL
