MODEL 1
REMARK VINA RESULT:     -13.3      0.000      0.000
REMARK SMILES Cc1c(/C=C/C(=O)NCCCNC(=O)c2ccc(-c3c4nc(c(-c5cc(S(=O)(=O)[O-])ccc5F)c5ccc([nH]5)c(-c5cc(S(=O)(=O)[O-])ccc5F)c5nc(c(-c6cc(S(=O)(=O)[O-])ccc6F)c6ccc3[nH]6)C=C5)C=C4)cc2)cccc1C(=O)N1C[C@@H](C)[C@@H](C)C1
REMARK SMILES IDX 10 1 9 2 8 3 6 4 7 5 5 7 4 8 3 9 1 10 2 11 81 12 78 13 80 14
REMARK SMILES IDX 79 15 82 16 83 17 84 18 85 19 90 20 86 21 88 22 87 23 89 24
REMARK SMILES IDX 11 25 12 26 13 27 14 29 15 30 16 31 77 32 17 33 76 34 18 35
REMARK SMILES IDX 19 36 20 37 70 38 21 39 75 40 69 41 71 42 22 43 74 44 68 45
REMARK SMILES IDX 67 46 23 48 55 49 35 50 54 51 36 52 39 53 53 54 72 55 37 56
REMARK SMILES IDX 38 57 52 59 73 60 40 61 24 62 25 63 33 64 26 65 32 66 34 67
REMARK SMILES IDX 31 68 27 69 28 70 29 71 30 72 56 73 57 74 65 75 58 76 64 77
REMARK SMILES IDX 66 78 63 79 59 80 60 81 61 82 62 83 41 84 42 85 50 86 43 87
REMARK SMILES IDX 49 88 51 89 48 90 44 91 45 92 46 93 47 94
REMARK H PARENT 8 6 12 28 71 47 39 58
REMARK Flexibility Score: inf
ROOT
ATOM      1  C   UNL A   1      33.036  29.921  25.852  1.00  0.00     0.042 C 
ENDROOT
BRANCH   1   2
ATOM      2  C   UNL A   1      31.510  29.936  25.801  1.00  0.00     0.118 C 
BRANCH   2   3
ATOM      3  N   UNL A   1      31.008  30.228  24.463  1.00  0.00    -0.352 N 
ATOM      4  C   UNL A   1      30.453  29.368  23.556  1.00  0.00     0.244 C 
ATOM      5  O   UNL A   1      29.978  29.755  22.495  1.00  0.00    -0.270 OA
ATOM      6  H   UNL A   1      31.076  31.167  24.175  1.00  0.00     0.163 HD
BRANCH   4   7
ATOM      7  C   UNL A   1      30.398  27.936  23.917  1.00  0.00     0.072 C 
ATOM      8  C   UNL A   1      31.420  27.134  23.589  1.00  0.00     0.014 C 
BRANCH   8   9
ATOM      9  C   UNL A   1      31.516  25.717  23.984  1.00  0.00    -0.022 A 
ATOM     10  C   UNL A   1      33.237  26.300  25.751  1.00  0.00     0.046 C 
ATOM     11  C   UNL A   1      32.390  25.292  25.020  1.00  0.00    -0.031 A 
ATOM     12  C   UNL A   1      32.443  23.915  25.347  1.00  0.00     0.043 A 
ATOM     13  C   UNL A   1      30.781  24.768  23.258  1.00  0.00     0.008 A 
ATOM     14  C   UNL A   1      31.688  22.990  24.608  1.00  0.00     0.014 A 
ATOM     15  C   UNL A   1      30.864  23.413  23.567  1.00  0.00     0.001 A 
BRANCH  12  16
ATOM     16  C   UNL A   1      33.491  23.341  26.233  1.00  0.00     0.254 C 
ATOM     17  O   UNL A   1      33.163  23.107  27.397  1.00  0.00    -0.269 OA
BRANCH  16  18
ATOM     18  N   UNL A   1      34.741  22.999  25.747  1.00  0.00    -0.338 N 
ATOM     19  C   UNL A   1      35.139  21.607  25.765  1.00  0.00     0.123 C 
ATOM     20  C   UNL A   1      35.815  23.862  25.273  1.00  0.00     0.123 C 
ATOM     21  C   UNL A   1      36.644  21.605  25.534  1.00  0.00     0.010 C 
ATOM     22  C   UNL A   1      36.900  22.905  24.739  1.00  0.00     0.010 C 
ATOM     23  C   UNL A   1      37.109  20.304  24.893  1.00  0.00     0.010 C 
ATOM     24  C   UNL A   1      36.834  22.757  23.220  1.00  0.00     0.010 C 
ENDBRANCH  16  18
ENDBRANCH  12  16
ENDBRANCH   8   9
ENDBRANCH   4   7
ENDBRANCH   2   3
ENDBRANCH   1   2
BRANCH   1  25
ATOM     25  C   UNL A   1      33.598  29.899  27.264  1.00  0.00     0.118 C 
BRANCH  25  26
ATOM     26  N   UNL A   1      34.165  31.179  27.691  1.00  0.00    -0.352 N 
ATOM     27  C   UNL A   1      35.385  31.425  28.301  1.00  0.00     0.251 C 
ATOM     28  H   UNL A   1      33.606  31.970  27.522  1.00  0.00     0.163 HD
ATOM     29  O   UNL A   1      35.696  32.553  28.646  1.00  0.00    -0.269 OA
BRANCH  27  30
ATOM     30  C   UNL A   1      36.330  30.297  28.462  1.00  0.00     0.039 A 
ATOM     31  C   UNL A   1      36.417  29.658  29.705  1.00  0.00     0.014 A 
ATOM     32  C   UNL A   1      37.255  30.031  27.460  1.00  0.00     0.014 A 
ATOM     33  C   UNL A   1      37.553  28.906  30.010  1.00  0.00     0.010 A 
ATOM     34  C   UNL A   1      38.426  29.395  27.802  1.00  0.00     0.010 A 
ATOM     35  C   UNL A   1      38.595  28.856  29.087  1.00  0.00    -0.014 A 
BRANCH  35  36
ATOM     36  C   UNL A   1      39.941  28.356  29.360  1.00  0.00     0.031 A 
ATOM     37  C   UNL A   1      40.340  26.998  28.918  1.00  0.00     0.074 A 
ATOM     38  C   UNL A   1      40.890  29.215  29.795  1.00  0.00     0.049 A 
ATOM     39  N   UNL A   1      41.461  26.433  29.212  1.00  0.00    -0.248 NA
ATOM     40  C   UNL A   1      39.467  26.139  28.127  1.00  0.00     0.031 C 
ATOM     41  C   UNL A   1      42.337  29.072  29.655  1.00  0.00     0.029 A 
ATOM     42  N   UNL A   1      40.729  30.284  30.673  1.00  0.00    -0.354 N 
ATOM     43  C   UNL A   1      41.586  25.299  28.444  1.00  0.00     0.074 A 
ATOM     44  C   UNL A   1      40.291  25.130  27.831  1.00  0.00     0.031 C 
ATOM     45  C   UNL A   1      42.941  29.832  30.578  1.00  0.00     0.029 A 
ATOM     46  C   UNL A   1      41.905  30.346  31.453  1.00  0.00     0.049 A 
ATOM     47  H   UNL A   1      39.949  30.881  30.738  1.00  0.00     0.167 HD
ATOM     48  C   UNL A   1      42.809  24.703  28.339  1.00  0.00     0.034 A 
ATOM     49  C   UNL A   1      41.861  30.161  32.807  1.00  0.00     0.034 A 
ATOM     50  C   UNL A   1      43.786  25.320  29.240  1.00  0.00     0.049 A 
ATOM     51  C   UNL A   1      42.670  28.982  33.318  1.00  0.00     0.074 A 
ATOM     52  C   UNL A   1      44.852  26.191  29.093  1.00  0.00     0.029 A 
ATOM     53  N   UNL A   1      43.575  25.208  30.601  1.00  0.00    -0.354 N 
ATOM     54  N   UNL A   1      43.325  28.145  32.559  1.00  0.00    -0.248 NA
ATOM     55  C   UNL A   1      42.720  28.597  34.731  1.00  0.00     0.031 C 
ATOM     56  C   UNL A   1      45.269  26.604  30.394  1.00  0.00     0.029 A 
ATOM     57  C   UNL A   1      44.468  25.968  31.325  1.00  0.00     0.049 A 
ATOM     58  H   UNL A   1      42.871  24.651  31.005  1.00  0.00     0.167 HD
ATOM     59  C   UNL A   1      43.766  27.092  33.319  1.00  0.00     0.074 A 
ATOM     60  C   UNL A   1      43.387  27.433  34.677  1.00  0.00     0.031 C 
ATOM     61  C   UNL A   1      44.344  25.982  32.774  1.00  0.00     0.034 A 
BRANCH  48  62
ATOM     62  C   UNL A   1      43.211  23.675  27.301  1.00  0.00     0.023 A 
ATOM     63  C   UNL A   1      42.484  22.466  27.240  1.00  0.00     0.031 A 
ATOM     64  C   UNL A   1      44.278  23.773  26.388  1.00  0.00     0.131 A 
ATOM     65  C   UNL A   1      42.867  21.413  26.391  1.00  0.00     0.055 A 
ATOM     66  C   UNL A   1      44.689  22.709  25.572  1.00  0.00     0.041 A 
ATOM     67  F   UNL A   1      44.944  24.912  26.183  1.00  0.00    -0.206 F 
ATOM     68  C   UNL A   1      43.989  21.514  25.577  1.00  0.00     0.022 A 
BRANCH  65  69
ATOM     69  S   UNL A   1      41.875  19.896  26.372  1.00  0.00     0.124 S 
ATOM     70  O   UNL A   1      40.515  20.417  26.284  1.00  0.00    -0.237 OA
ATOM     71  O   UNL A   1      42.385  19.210  25.190  1.00  0.00    -0.237 OA
ATOM     72  O   UNL A   1      42.209  19.259  27.646  1.00  0.00    -0.744 OA
ENDBRANCH  65  69
ENDBRANCH  48  62
BRANCH  49  73
ATOM     73  C   UNL A   1      40.581  30.642  33.400  1.00  0.00     0.023 A 
ATOM     74  C   UNL A   1      40.435  32.031  33.601  1.00  0.00     0.031 A 
ATOM     75  C   UNL A   1      39.421  29.854  33.362  1.00  0.00     0.131 A 
ATOM     76  C   UNL A   1      39.159  32.611  33.604  1.00  0.00     0.055 A 
ATOM     77  C   UNL A   1      38.149  30.433  33.428  1.00  0.00     0.041 A 
ATOM     78  F   UNL A   1      39.496  28.536  33.130  1.00  0.00    -0.206 F 
ATOM     79  C   UNL A   1      38.014  31.819  33.506  1.00  0.00     0.022 A 
BRANCH  76  80
ATOM     80  S   UNL A   1      39.031  34.419  33.466  1.00  0.00     0.124 S 
ATOM     81  O   UNL A   1      39.297  34.635  32.049  1.00  0.00    -0.237 OA
ATOM     82  O   UNL A   1      37.662  34.675  33.908  1.00  0.00    -0.237 OA
ATOM     83  O   UNL A   1      40.062  34.904  34.380  1.00  0.00    -0.744 OA
ENDBRANCH  76  80
ENDBRANCH  49  73
BRANCH  61  84
ATOM     84  C   UNL A   1      44.787  24.787  33.579  1.00  0.00     0.023 A 
ATOM     85  C   UNL A   1      46.142  24.456  33.739  1.00  0.00     0.031 A 
ATOM     86  C   UNL A   1      43.853  23.890  34.147  1.00  0.00     0.131 A 
ATOM     87  C   UNL A   1      46.518  23.316  34.474  1.00  0.00     0.055 A 
ATOM     88  C   UNL A   1      44.228  22.714  34.800  1.00  0.00     0.041 A 
ATOM     89  F   UNL A   1      42.535  24.143  34.138  1.00  0.00    -0.206 F 
ATOM     90  C   UNL A   1      45.571  22.425  34.976  1.00  0.00     0.022 A 
BRANCH  87  91
ATOM     91  S   UNL A   1      48.274  23.054  34.836  1.00  0.00     0.124 S 
ATOM     92  O   UNL A   1      48.402  23.570  36.195  1.00  0.00    -0.237 OA
ATOM     93  O   UNL A   1      48.389  21.605  34.692  1.00  0.00    -0.237 OA
ATOM     94  O   UNL A   1      48.959  23.833  33.807  1.00  0.00    -0.744 OA
ENDBRANCH  87  91
ENDBRANCH  61  84
ENDBRANCH  35  36
ENDBRANCH  27  30
ENDBRANCH  25  26
ENDBRANCH   1  25
TORSDOF 16
ENDMDL
MODEL 2
REMARK VINA RESULT:     -12.9      1.589      2.241
REMARK SMILES Cc1c(/C=C/C(=O)NCCCNC(=O)c2ccc(-c3c4nc(c(-c5cc(S(=O)(=O)[O-])ccc5F)c5ccc([nH]5)c(-c5cc(S(=O)(=O)[O-])ccc5F)c5nc(c(-c6cc(S(=O)(=O)[O-])ccc6F)c6ccc3[nH]6)C=C5)C=C4)cc2)cccc1C(=O)N1C[C@@H](C)[C@@H](C)C1
REMARK SMILES IDX 10 1 9 2 8 3 6 4 7 5 5 7 4 8 3 9 1 10 2 11 81 12 78 13 80 14
REMARK SMILES IDX 79 15 82 16 83 17 84 18 85 19 90 20 86 21 88 22 87 23 89 24
REMARK SMILES IDX 11 25 12 26 13 27 14 29 15 30 16 31 77 32 17 33 76 34 18 35
REMARK SMILES IDX 19 36 20 37 70 38 21 39 75 40 69 41 71 42 22 43 74 44 68 45
REMARK SMILES IDX 67 46 23 48 55 49 35 50 54 51 36 52 39 53 53 54 72 55 37 56
REMARK SMILES IDX 38 57 52 59 73 60 40 61 24 62 25 63 33 64 26 65 32 66 34 67
REMARK SMILES IDX 31 68 27 69 28 70 29 71 30 72 56 73 57 74 65 75 58 76 64 77
REMARK SMILES IDX 66 78 63 79 59 80 60 81 61 82 62 83 41 84 42 85 50 86 43 87
REMARK SMILES IDX 49 88 51 89 48 90 44 91 45 92 46 93 47 94
REMARK H PARENT 8 6 12 28 71 47 39 58
REMARK Flexibility Score: inf
ROOT
ATOM      1  C   UNL A   1      32.357  29.948  26.486  1.00  0.00     0.042 C 
ENDROOT
BRANCH   1   2
ATOM      2  C   UNL A   1      31.883  28.773  25.632  1.00  0.00     0.118 C 
BRANCH   2   3
ATOM      3  N   UNL A   1      32.623  28.671  24.379  1.00  0.00    -0.352 N 
ATOM      4  C   UNL A   1      33.240  27.576  23.842  1.00  0.00     0.244 C 
ATOM      5  O   UNL A   1      33.750  27.594  22.728  1.00  0.00    -0.270 OA
ATOM      6  H   UNL A   1      32.685  29.499  23.849  1.00  0.00     0.163 HD
BRANCH   4   7
ATOM      7  C   UNL A   1      33.235  26.331  24.637  1.00  0.00     0.072 C 
ATOM      8  C   UNL A   1      33.967  25.284  24.228  1.00  0.00     0.014 C 
BRANCH   8   9
ATOM      9  C   UNL A   1      34.114  24.033  24.992  1.00  0.00    -0.022 A 
ATOM     10  C   UNL A   1      32.496  22.861  23.432  1.00  0.00     0.046 C 
ATOM     11  C   UNL A   1      33.409  22.855  24.629  1.00  0.00    -0.031 A 
ATOM     12  C   UNL A   1      33.585  21.685  25.409  1.00  0.00     0.043 A 
ATOM     13  C   UNL A   1      34.908  24.042  26.148  1.00  0.00     0.008 A 
ATOM     14  C   UNL A   1      34.395  21.724  26.556  1.00  0.00     0.014 A 
ATOM     15  C   UNL A   1      35.050  22.896  26.925  1.00  0.00     0.001 A 
BRANCH  12  16
ATOM     16  C   UNL A   1      32.716  20.486  25.265  1.00  0.00     0.254 C 
ATOM     17  O   UNL A   1      31.500  20.683  25.253  1.00  0.00    -0.269 OA
BRANCH  16  18
ATOM     18  N   UNL A   1      33.250  19.227  25.060  1.00  0.00    -0.338 N 
ATOM     19  C   UNL A   1      32.512  18.072  25.528  1.00  0.00     0.123 C 
ATOM     20  C   UNL A   1      34.540  18.851  24.497  1.00  0.00     0.123 C 
ATOM     21  C   UNL A   1      33.499  16.912  25.499  1.00  0.00     0.010 C 
ATOM     22  C   UNL A   1      34.511  17.312  24.402  1.00  0.00     0.010 C 
ATOM     23  C   UNL A   1      32.786  15.577  25.324  1.00  0.00     0.010 C 
ATOM     24  C   UNL A   1      34.161  16.833  22.994  1.00  0.00     0.010 C 
ENDBRANCH  16  18
ENDBRANCH  12  16
ENDBRANCH   8   9
ENDBRANCH   4   7
ENDBRANCH   2   3
ENDBRANCH   1   2
BRANCH   1  25
ATOM     25  C   UNL A   1      33.848  29.925  26.779  1.00  0.00     0.118 C 
BRANCH  25  26
ATOM     26  N   UNL A   1      34.357  31.180  27.336  1.00  0.00    -0.352 N 
ATOM     27  C   UNL A   1      35.498  31.391  28.093  1.00  0.00     0.251 C 
ATOM     28  H   UNL A   1      33.816  31.980  27.147  1.00  0.00     0.163 HD
ATOM     29  O   UNL A   1      35.763  32.499  28.532  1.00  0.00    -0.269 OA
BRANCH  27  30
ATOM     30  C   UNL A   1      36.425  30.256  28.299  1.00  0.00     0.039 A 
ATOM     31  C   UNL A   1      36.494  29.659  29.565  1.00  0.00     0.014 A 
ATOM     32  C   UNL A   1      37.351  29.940  27.312  1.00  0.00     0.014 A 
ATOM     33  C   UNL A   1      37.617  28.900  29.902  1.00  0.00     0.010 A 
ATOM     34  C   UNL A   1      38.510  29.298  27.684  1.00  0.00     0.010 A 
ATOM     35  C   UNL A   1      38.663  28.802  28.988  1.00  0.00    -0.014 A 
BRANCH  35  36
ATOM     36  C   UNL A   1      40.000  28.292  29.287  1.00  0.00     0.031 A 
ATOM     37  C   UNL A   1      40.391  26.925  28.865  1.00  0.00     0.074 A 
ATOM     38  C   UNL A   1      40.950  29.145  29.727  1.00  0.00     0.049 A 
ATOM     39  N   UNL A   1      41.502  26.352  29.181  1.00  0.00    -0.248 NA
ATOM     40  C   UNL A   1      39.522  26.067  28.069  1.00  0.00     0.031 C 
ATOM     41  C   UNL A   1      42.398  28.987  29.611  1.00  0.00     0.029 A 
ATOM     42  N   UNL A   1      40.788  30.225  30.592  1.00  0.00    -0.354 N 
ATOM     43  C   UNL A   1      41.627  25.209  28.426  1.00  0.00     0.074 A 
ATOM     44  C   UNL A   1      40.339  25.047  27.796  1.00  0.00     0.031 C 
ATOM     45  C   UNL A   1      42.996  29.749  30.536  1.00  0.00     0.029 A 
ATOM     46  C   UNL A   1      41.952  30.283  31.390  1.00  0.00     0.049 A 
ATOM     47  H   UNL A   1      40.012  30.831  30.639  1.00  0.00     0.167 HD
ATOM     48  C   UNL A   1      42.845  24.600  28.346  1.00  0.00     0.034 A 
ATOM     49  C   UNL A   1      41.886  30.112  32.744  1.00  0.00     0.034 A 
ATOM     50  C   UNL A   1      43.815  25.216  29.256  1.00  0.00     0.049 A 
ATOM     51  C   UNL A   1      42.675  28.930  33.280  1.00  0.00     0.074 A 
ATOM     52  C   UNL A   1      44.892  26.074  29.116  1.00  0.00     0.029 A 
ATOM     53  N   UNL A   1      43.582  25.120  30.615  1.00  0.00    -0.354 N 
ATOM     54  N   UNL A   1      43.332  28.079  32.539  1.00  0.00    -0.248 NA
ATOM     55  C   UNL A   1      42.699  28.560  34.696  1.00  0.00     0.031 C 
ATOM     56  C   UNL A   1      45.294  26.496  30.420  1.00  0.00     0.029 A 
ATOM     57  C   UNL A   1      44.471  25.878  31.344  1.00  0.00     0.049 A 
ATOM     58  H   UNL A   1      42.866  24.574  31.013  1.00  0.00     0.167 HD
ATOM     59  C   UNL A   1      43.751  27.029  33.316  1.00  0.00     0.074 A 
ATOM     60  C   UNL A   1      43.356  27.388  34.665  1.00  0.00     0.031 C 
ATOM     61  C   UNL A   1      44.326  25.908  32.791  1.00  0.00     0.034 A 
BRANCH  48  62
ATOM     62  C   UNL A   1      43.253  23.557  27.325  1.00  0.00     0.023 A 
ATOM     63  C   UNL A   1      42.515  22.355  27.265  1.00  0.00     0.031 A 
ATOM     64  C   UNL A   1      44.334  23.635  26.427  1.00  0.00     0.131 A 
ATOM     65  C   UNL A   1      42.900  21.289  26.433  1.00  0.00     0.055 A 
ATOM     66  C   UNL A   1      44.746  22.558  25.628  1.00  0.00     0.041 A 
ATOM     67  F   UNL A   1      45.014  24.766  26.221  1.00  0.00    -0.206 F 
ATOM     68  C   UNL A   1      44.035  21.371  25.636  1.00  0.00     0.022 A 
BRANCH  65  69
ATOM     69  S   UNL A   1      41.894  19.781  26.415  1.00  0.00     0.124 S 
ATOM     70  O   UNL A   1      42.388  19.094  25.227  1.00  0.00    -0.237 OA
ATOM     71  O   UNL A   1      42.224  19.176  27.700  1.00  0.00    -0.237 OA
ATOM     72  O   UNL A   1      40.526  20.290  26.306  1.00  0.00    -0.744 OA
ENDBRANCH  65  69
ENDBRANCH  48  62
BRANCH  49  73
ATOM     73  C   UNL A   1      40.602  30.612  33.312  1.00  0.00     0.023 A 
ATOM     74  C   UNL A   1      40.463  32.006  33.488  1.00  0.00     0.031 A 
ATOM     75  C   UNL A   1      39.437  29.831  33.275  1.00  0.00     0.131 A 
ATOM     76  C   UNL A   1      39.191  32.594  33.464  1.00  0.00     0.055 A 
ATOM     77  C   UNL A   1      38.168  30.420  33.314  1.00  0.00     0.041 A 
ATOM     78  F   UNL A   1      39.506  28.509  33.067  1.00  0.00    -0.206 F 
ATOM     79  C   UNL A   1      38.041  31.808  33.366  1.00  0.00     0.022 A 
BRANCH  76  80
ATOM     80  S   UNL A   1      39.077  34.400  33.293  1.00  0.00     0.124 S 
ATOM     81  O   UNL A   1      38.252  34.762  34.439  1.00  0.00    -0.237 OA
ATOM     82  O   UNL A   1      40.478  34.814  33.355  1.00  0.00    -0.237 OA
ATOM     83  O   UNL A   1      38.451  34.579  31.985  1.00  0.00    -0.744 OA
ENDBRANCH  76  80
ENDBRANCH  49  73
BRANCH  61  84
ATOM     84  C   UNL A   1      44.745  24.717  33.615  1.00  0.00     0.023 A 
ATOM     85  C   UNL A   1      46.092  24.362  33.782  1.00  0.00     0.031 A 
ATOM     86  C   UNL A   1      43.792  23.848  34.195  1.00  0.00     0.131 A 
ATOM     87  C   UNL A   1      46.445  23.227  34.535  1.00  0.00     0.055 A 
ATOM     88  C   UNL A   1      44.144  22.674  34.867  1.00  0.00     0.041 A 
ATOM     89  F   UNL A   1      42.480  24.127  34.180  1.00  0.00    -0.206 F 
ATOM     90  C   UNL A   1      45.480  22.362  35.049  1.00  0.00     0.022 A 
BRANCH  87  91
ATOM     91  S   UNL A   1      48.195  22.936  34.903  1.00  0.00     0.124 S 
ATOM     92  O   UNL A   1      48.203  22.826  36.358  1.00  0.00    -0.237 OA
ATOM     93  O   UNL A   1      48.446  21.697  34.171  1.00  0.00    -0.237 OA
ATOM     94  O   UNL A   1      48.864  24.118  34.364  1.00  0.00    -0.744 OA
ENDBRANCH  87  91
ENDBRANCH  61  84
ENDBRANCH  35  36
ENDBRANCH  27  30
ENDBRANCH  25  26
ENDBRANCH   1  25
TORSDOF 16
ENDMDL
MODEL 3
REMARK VINA RESULT:     -12.8      3.770     10.142
REMARK SMILES Cc1c(/C=C/C(=O)NCCCNC(=O)c2ccc(-c3c4nc(c(-c5cc(S(=O)(=O)[O-])ccc5F)c5ccc([nH]5)c(-c5cc(S(=O)(=O)[O-])ccc5F)c5nc(c(-c6cc(S(=O)(=O)[O-])ccc6F)c6ccc3[nH]6)C=C5)C=C4)cc2)cccc1C(=O)N1C[C@@H](C)[C@@H](C)C1
REMARK SMILES IDX 10 1 9 2 8 3 6 4 7 5 5 7 4 8 3 9 1 10 2 11 81 12 78 13 80 14
REMARK SMILES IDX 79 15 82 16 83 17 84 18 85 19 90 20 86 21 88 22 87 23 89 24
REMARK SMILES IDX 11 25 12 26 13 27 14 29 15 30 16 31 77 32 17 33 76 34 18 35
REMARK SMILES IDX 19 36 20 37 70 38 21 39 75 40 69 41 71 42 22 43 74 44 68 45
REMARK SMILES IDX 67 46 23 48 55 49 35 50 54 51 36 52 39 53 53 54 72 55 37 56
REMARK SMILES IDX 38 57 52 59 73 60 40 61 24 62 25 63 33 64 26 65 32 66 34 67
REMARK SMILES IDX 31 68 27 69 28 70 29 71 30 72 56 73 57 74 65 75 58 76 64 77
REMARK SMILES IDX 66 78 63 79 59 80 60 81 61 82 62 83 41 84 42 85 50 86 43 87
REMARK SMILES IDX 49 88 51 89 48 90 44 91 45 92 46 93 47 94
REMARK H PARENT 8 6 12 28 71 47 39 58
REMARK Flexibility Score: inf
ROOT
ATOM      1  C   UNL A   1      37.096  21.626  24.996  1.00  0.00     0.042 C 
ENDROOT
BRANCH   1   2
ATOM      2  C   UNL A   1      35.860  21.245  25.808  1.00  0.00     0.118 C 
BRANCH   2   3
ATOM      3  N   UNL A   1      35.224  20.032  25.306  1.00  0.00    -0.352 N 
ATOM      4  C   UNL A   1      33.996  19.894  24.722  1.00  0.00     0.244 C 
ATOM      5  O   UNL A   1      33.612  18.829  24.252  1.00  0.00    -0.270 OA
ATOM      6  H   UNL A   1      35.749  19.203  25.399  1.00  0.00     0.163 HD
BRANCH   4   7
ATOM      7  C   UNL A   1      33.144  21.098  24.629  1.00  0.00     0.072 C 
ATOM      8  C   UNL A   1      33.518  22.110  23.833  1.00  0.00     0.014 C 
BRANCH   8   9
ATOM      9  C   UNL A   1      32.700  23.311  23.589  1.00  0.00    -0.022 A 
ATOM     10  C   UNL A   1      34.780  24.761  23.606  1.00  0.00     0.046 C 
ATOM     11  C   UNL A   1      33.288  24.600  23.483  1.00  0.00    -0.031 A 
ATOM     12  C   UNL A   1      32.447  25.718  23.257  1.00  0.00     0.043 A 
ATOM     13  C   UNL A   1      31.305  23.174  23.543  1.00  0.00     0.008 A 
ATOM     14  C   UNL A   1      31.054  25.547  23.206  1.00  0.00     0.014 A 
ATOM     15  C   UNL A   1      30.486  24.284  23.352  1.00  0.00     0.001 A 
BRANCH  12  16
ATOM     16  C   UNL A   1      32.928  27.120  23.376  1.00  0.00     0.254 C 
ATOM     17  O   UNL A   1      33.300  27.667  22.336  1.00  0.00    -0.269 OA
BRANCH  16  18
ATOM     18  N   UNL A   1      32.869  27.805  24.576  1.00  0.00    -0.338 N 
ATOM     19  C   UNL A   1      32.340  29.153  24.585  1.00  0.00     0.123 C 
ATOM     20  C   UNL A   1      33.355  27.408  25.891  1.00  0.00     0.123 C 
ATOM     21  C   UNL A   1      32.749  29.748  25.926  1.00  0.00     0.010 C 
ATOM     22  C   UNL A   1      32.887  28.519  26.852  1.00  0.00     0.010 C 
ATOM     23  C   UNL A   1      31.783  30.839  26.370  1.00  0.00     0.010 C 
ATOM     24  C   UNL A   1      31.614  28.128  27.601  1.00  0.00     0.010 C 
ENDBRANCH  16  18
ENDBRANCH  12  16
ENDBRANCH   8   9
ENDBRANCH   4   7
ENDBRANCH   2   3
ENDBRANCH   1   2
BRANCH   1  25
ATOM     25  C   UNL A   1      37.891  22.772  25.597  1.00  0.00     0.118 C 
BRANCH  25  26
ATOM     26  N   UNL A   1      39.232  22.388  26.042  1.00  0.00    -0.352 N 
ATOM     27  C   UNL A   1      40.219  23.182  26.604  1.00  0.00     0.251 C 
ATOM     28  H   UNL A   1      39.462  21.438  25.927  1.00  0.00     0.163 HD
ATOM     29  O   UNL A   1      41.314  22.720  26.877  1.00  0.00    -0.269 OA
BRANCH  27  30
ATOM     30  C   UNL A   1      39.889  24.588  26.926  1.00  0.00     0.039 A 
ATOM     31  C   UNL A   1      40.448  25.611  26.148  1.00  0.00     0.014 A 
ATOM     32  C   UNL A   1      39.215  24.880  28.106  1.00  0.00     0.014 A 
ATOM     33  C   UNL A   1      40.504  26.908  26.662  1.00  0.00     0.010 A 
ATOM     34  C   UNL A   1      39.381  26.128  28.663  1.00  0.00     0.010 A 
ATOM     35  C   UNL A   1      40.052  27.139  27.959  1.00  0.00    -0.014 A 
BRANCH  35  36
ATOM     36  C   UNL A   1      40.295  28.355  28.734  1.00  0.00     0.031 A 
ATOM     37  C   UNL A   1      39.273  29.427  28.785  1.00  0.00     0.074 A 
ATOM     38  C   UNL A   1      41.338  28.395  29.592  1.00  0.00     0.049 A 
ATOM     39  N   UNL A   1      39.444  30.575  29.345  1.00  0.00    -0.248 NA
ATOM     40  C   UNL A   1      37.963  29.296  28.158  1.00  0.00     0.031 C 
ATOM     41  C   UNL A   1      41.475  29.245  30.772  1.00  0.00     0.029 A 
ATOM     42  N   UNL A   1      42.601  27.831  29.422  1.00  0.00    -0.354 N 
ATOM     43  C   UNL A   1      38.225  31.208  29.412  1.00  0.00     0.074 A 
ATOM     44  C   UNL A   1      37.348  30.395  28.604  1.00  0.00     0.031 C 
ATOM     45  C   UNL A   1      42.773  29.351  31.085  1.00  0.00     0.029 A 
ATOM     46  C   UNL A   1      43.524  28.720  30.016  1.00  0.00     0.049 A 
ATOM     47  H   UNL A   1      42.810  26.979  28.975  1.00  0.00     0.167 HD
ATOM     48  C   UNL A   1      38.085  32.288  30.234  1.00  0.00     0.034 A 
ATOM     49  C   UNL A   1      44.487  29.335  29.268  1.00  0.00     0.034 A 
ATOM     50  C   UNL A   1      39.370  32.698  30.807  1.00  0.00     0.049 A 
ATOM     51  C   UNL A   1      44.418  30.853  29.256  1.00  0.00     0.074 A 
ATOM     52  C   UNL A   1      39.983  32.577  32.043  1.00  0.00     0.029 A 
ATOM     53  N   UNL A   1      40.343  33.169  29.947  1.00  0.00    -0.354 N 
ATOM     54  N   UNL A   1      43.492  31.558  29.849  1.00  0.00    -0.248 NA
ATOM     55  C   UNL A   1      45.338  31.691  28.485  1.00  0.00     0.031 C 
ATOM     56  C   UNL A   1      41.345  32.980  31.902  1.00  0.00     0.029 A 
ATOM     57  C   UNL A   1      41.548  33.359  30.588  1.00  0.00     0.049 A 
ATOM     58  H   UNL A   1      40.193  33.348  28.990  1.00  0.00     0.167 HD
ATOM     59  C   UNL A   1      43.607  32.871  29.468  1.00  0.00     0.074 A 
ATOM     60  C   UNL A   1      44.794  32.910  28.635  1.00  0.00     0.031 C 
ATOM     61  C   UNL A   1      42.682  33.818  29.800  1.00  0.00     0.034 A 
BRANCH  48  62
ATOM     62  C   UNL A   1      36.773  32.895  30.690  1.00  0.00     0.023 A 
ATOM     63  C   UNL A   1      35.924  33.463  29.715  1.00  0.00     0.031 A 
ATOM     64  C   UNL A   1      36.304  32.992  32.014  1.00  0.00     0.131 A 
ATOM     65  C   UNL A   1      34.750  34.153  30.066  1.00  0.00     0.055 A 
ATOM     66  C   UNL A   1      35.157  33.715  32.370  1.00  0.00     0.041 A 
ATOM     67  F   UNL A   1      36.886  32.346  33.029  1.00  0.00    -0.206 F 
ATOM     68  C   UNL A   1      34.377  34.311  31.394  1.00  0.00     0.022 A 
BRANCH  65  69
ATOM     69  S   UNL A   1      33.715  34.849  28.750  1.00  0.00     0.124 S 
ATOM     70  O   UNL A   1      34.592  35.861  28.170  1.00  0.00    -0.237 OA
ATOM     71  O   UNL A   1      33.439  33.679  27.925  1.00  0.00    -0.237 OA
ATOM     72  O   UNL A   1      32.560  35.379  29.475  1.00  0.00    -0.744 OA
ENDBRANCH  65  69
ENDBRANCH  48  62
BRANCH  49  73
ATOM     73  C   UNL A   1      44.939  28.491  28.126  1.00  0.00     0.023 A 
ATOM     74  C   UNL A   1      45.833  27.436  28.407  1.00  0.00     0.031 A 
ATOM     75  C   UNL A   1      44.212  28.441  26.927  1.00  0.00     0.131 A 
ATOM     76  C   UNL A   1      45.865  26.304  27.581  1.00  0.00     0.055 A 
ATOM     77  C   UNL A   1      44.296  27.335  26.075  1.00  0.00     0.041 A 
ATOM     78  F   UNL A   1      43.317  29.393  26.629  1.00  0.00    -0.206 F 
ATOM     79  C   UNL A   1      45.091  26.243  26.421  1.00  0.00     0.022 A 
BRANCH  76  80
ATOM     80  S   UNL A   1      46.722  24.818  28.185  1.00  0.00     0.124 S 
ATOM     81  O   UNL A   1      47.519  24.435  27.025  1.00  0.00    -0.237 OA
ATOM     82  O   UNL A   1      47.467  25.327  29.335  1.00  0.00    -0.237 OA
ATOM     83  O   UNL A   1      45.630  23.910  28.525  1.00  0.00    -0.744 OA
ENDBRANCH  76  80
ENDBRANCH  49  73
BRANCH  61  84
ATOM     84  C   UNL A   1      42.753  35.254  29.348  1.00  0.00     0.023 A 
ATOM     85  C   UNL A   1      43.584  36.194  29.978  1.00  0.00     0.031 A 
ATOM     86  C   UNL A   1      41.923  35.747  28.315  1.00  0.00     0.131 A 
ATOM     87  C   UNL A   1      43.605  37.533  29.547  1.00  0.00     0.055 A 
ATOM     88  C   UNL A   1      41.882  37.094  27.950  1.00  0.00     0.041 A 
ATOM     89  F   UNL A   1      41.152  34.931  27.579  1.00  0.00    -0.206 F 
ATOM     90  C   UNL A   1      42.735  37.997  28.561  1.00  0.00     0.022 A 
BRANCH  87  91
ATOM     91  S   UNL A   1      44.848  38.652  30.244  1.00  0.00     0.124 S 
ATOM     92  O   UNL A   1      44.835  39.770  29.306  1.00  0.00    -0.237 OA
ATOM     93  O   UNL A   1      44.288  38.926  31.565  1.00  0.00    -0.237 OA
ATOM     94  O   UNL A   1      46.072  37.854  30.244  1.00  0.00    -0.744 OA
ENDBRANCH  87  91
ENDBRANCH  61  84
ENDBRANCH  35  36
ENDBRANCH  27  30
ENDBRANCH  25  26
ENDBRANCH   1  25
TORSDOF 16
ENDMDL
