MODEL 1
REMARK VINA RESULT:     -11.3      0.000      0.000
REMARK SMILES C[N@H+]1CCO[C@](C)(C(=O)NCCCNC(=O)c2ccc(-c3c4nc(c(-c5cc(S(=O)(=O)[O-])ccc5F)c5ccc([nH]5)c(-c5cc(S(=O)(=O)[O-])ccc5F)c5nc(c(-c6cc(S(=O)(=O)[O-])ccc6F)c6ccc3[nH]6)C=C5)C=C4)cc2)C1
REMARK SMILES IDX 14 1 15 2 16 3 13 5 12 6 11 7 10 8 8 9 9 10 6 12 1 13 2 14
REMARK SMILES IDX 3 15 80 16 4 18 5 19 7 20 17 21 18 22 79 23 19 24 78 25
REMARK SMILES IDX 20 26 21 27 22 28 72 29 23 30 77 31 71 32 73 33 24 34 76 35
REMARK SMILES IDX 70 36 69 37 25 39 57 40 37 41 56 42 38 43 41 44 55 45 74 46
REMARK SMILES IDX 39 47 40 48 54 50 75 51 42 52 26 53 27 54 35 55 28 56 34 57
REMARK SMILES IDX 36 58 33 59 29 60 30 61 31 62 32 63 58 64 59 65 67 66 60 67
REMARK SMILES IDX 66 68 68 69 65 70 61 71 62 72 63 73 64 74 43 75 44 76 52 77
REMARK SMILES IDX 45 78 51 79 53 80 50 81 46 82 47 83 48 84 49 85
REMARK H PARENT 14 4 10 11 2 17 73 38 41 49
REMARK Flexibility Score: inf
ROOT
ATOM      1  N   UNL A   1      32.526  33.556  27.394  1.00  0.00    -0.352 N 
ATOM      2  C   UNL A   1      33.245  34.219  28.357  1.00  0.00     0.251 C 
ATOM      3  O   UNL A   1      32.895  35.351  28.692  1.00  0.00    -0.269 OA
ATOM      4  H   UNL A   1      31.888  34.114  26.894  1.00  0.00     0.163 HD
ENDROOT
BRANCH   1   5
ATOM      5  C   UNL A   1      32.563  32.155  26.999  1.00  0.00     0.118 C 
BRANCH   5   6
ATOM      6  C   UNL A   1      31.276  31.718  26.318  1.00  0.00     0.042 C 
BRANCH   6   7
ATOM      7  C   UNL A   1      31.437  30.468  25.466  1.00  0.00     0.117 C 
BRANCH   7   8
ATOM      8  N   UNL A   1      30.518  30.444  24.336  1.00  0.00    -0.353 N 
ATOM      9  C   UNL A   1      30.311  29.518  23.348  1.00  0.00     0.257 C 
ATOM     10  O   UNL A   1      29.442  29.795  22.516  1.00  0.00    -0.271 OA
ATOM     11  H   UNL A   1      29.940  31.238  24.271  1.00  0.00     0.163 HD
BRANCH   9  12
ATOM     12  C   UNL A   1      31.114  28.183  23.309  1.00  0.00     0.192 C 
ATOM     13  C   UNL A   1      33.844  26.711  24.360  1.00  0.00     0.332 C 
ATOM     14  N   UNL A   1      33.578  27.441  23.132  1.00  0.00    -0.333 N 
ATOM     15  C   UNL A   1      33.174  26.637  21.975  1.00  0.00     0.290 C 
ATOM     16  C   UNL A   1      32.629  28.551  23.318  1.00  0.00     0.308 C 
ATOM     17  H   UNL A   1      34.500  27.814  22.906  1.00  0.00     0.348 HD
ATOM     18  C   UNL A   1      31.673  26.336  21.867  1.00  0.00     0.223 C 
ATOM     19  O   UNL A   1      30.851  27.496  22.056  1.00  0.00    -0.354 OA
ATOM     20  C   UNL A   1      30.547  27.284  24.424  1.00  0.00     0.059 C 
ENDBRANCH   9  12
ENDBRANCH   7   8
ENDBRANCH   6   7
ENDBRANCH   5   6
ENDBRANCH   1   5
BRANCH   2  21
ATOM     21  C   UNL A   1      34.410  33.574  28.999  1.00  0.00     0.039 A 
ATOM     22  C   UNL A   1      35.677  34.137  28.827  1.00  0.00     0.014 A 
ATOM     23  C   UNL A   1      34.259  32.412  29.759  1.00  0.00     0.014 A 
ATOM     24  C   UNL A   1      36.778  33.571  29.474  1.00  0.00     0.010 A 
ATOM     25  C   UNL A   1      35.337  31.910  30.481  1.00  0.00     0.010 A 
ATOM     26  C   UNL A   1      36.611  32.478  30.339  1.00  0.00    -0.014 A 
BRANCH  26  27
ATOM     27  C   UNL A   1      37.756  31.908  31.097  1.00  0.00     0.031 A 
ATOM     28  C   UNL A   1      38.605  30.829  30.481  1.00  0.00     0.074 A 
ATOM     29  C   UNL A   1      37.994  32.323  32.358  1.00  0.00     0.049 A 
ATOM     30  N   UNL A   1      39.595  30.154  31.004  1.00  0.00    -0.248 NA
ATOM     31  C   UNL A   1      38.274  30.434  29.103  1.00  0.00     0.031 C 
ATOM     32  C   UNL A   1      37.215  33.335  33.075  1.00  0.00     0.029 A 
ATOM     33  N   UNL A   1      38.951  31.941  33.264  1.00  0.00    -0.354 N 
ATOM     34  C   UNL A   1      39.998  29.250  30.027  1.00  0.00     0.074 A 
ATOM     35  C   UNL A   1      39.098  29.416  28.907  1.00  0.00     0.031 C 
ATOM     36  C   UNL A   1      37.745  33.516  34.295  1.00  0.00     0.029 A 
ATOM     37  C   UNL A   1      38.864  32.596  34.470  1.00  0.00     0.049 A 
ATOM     38  H   UNL A   1      39.636  31.261  33.069  1.00  0.00     0.167 HD
ATOM     39  C   UNL A   1      41.037  28.379  30.053  1.00  0.00     0.034 A 
ATOM     40  C   UNL A   1      39.592  32.461  35.597  1.00  0.00     0.034 A 
ATOM     41  C   UNL A   1      41.929  28.233  31.178  1.00  0.00     0.049 A 
ATOM     42  C   UNL A   1      40.719  31.457  35.615  1.00  0.00     0.074 A 
ATOM     43  C   UNL A   1      43.043  27.420  31.294  1.00  0.00     0.029 A 
ATOM     44  N   UNL A   1      41.805  28.907  32.387  1.00  0.00    -0.354 N 
ATOM     45  N   UNL A   1      41.119  30.645  34.663  1.00  0.00    -0.248 NA
ATOM     46  C   UNL A   1      41.499  31.361  36.856  1.00  0.00     0.031 C 
ATOM     47  C   UNL A   1      43.544  27.542  32.594  1.00  0.00     0.029 A 
ATOM     48  C   UNL A   1      42.799  28.501  33.264  1.00  0.00     0.049 A 
ATOM     49  H   UNL A   1      41.111  29.576  32.591  1.00  0.00     0.167 HD
ATOM     50  C   UNL A   1      42.220  29.967  35.181  1.00  0.00     0.074 A 
ATOM     51  C   UNL A   1      42.428  30.478  36.520  1.00  0.00     0.031 C 
ATOM     52  C   UNL A   1      42.991  29.012  34.601  1.00  0.00     0.034 A 
BRANCH  39  53
ATOM     53  C   UNL A   1      41.244  27.504  28.840  1.00  0.00     0.023 A 
ATOM     54  C   UNL A   1      42.259  27.765  27.903  1.00  0.00     0.031 A 
ATOM     55  C   UNL A   1      40.401  26.404  28.602  1.00  0.00     0.131 A 
ATOM     56  C   UNL A   1      42.358  26.989  26.738  1.00  0.00     0.055 A 
ATOM     57  C   UNL A   1      40.560  25.581  27.485  1.00  0.00     0.041 A 
ATOM     58  F   UNL A   1      39.398  26.115  29.447  1.00  0.00    -0.206 F 
ATOM     59  C   UNL A   1      41.533  25.881  26.536  1.00  0.00     0.022 A 
BRANCH  56  60
ATOM     60  S   UNL A   1      43.477  27.541  25.421  1.00  0.00     0.124 S 
ATOM     61  O   UNL A   1      44.253  26.328  25.168  1.00  0.00    -0.237 OA
ATOM     62  O   UNL A   1      42.551  27.940  24.368  1.00  0.00    -0.237 OA
ATOM     63  O   UNL A   1      44.225  28.631  26.043  1.00  0.00    -0.744 OA
ENDBRANCH  56  60
ENDBRANCH  39  53
BRANCH  40  64
ATOM     64  C   UNL A   1      39.278  33.277  36.806  1.00  0.00     0.023 A 
ATOM     65  C   UNL A   1      39.930  34.498  37.042  1.00  0.00     0.031 A 
ATOM     66  C   UNL A   1      38.358  32.825  37.769  1.00  0.00     0.131 A 
ATOM     67  C   UNL A   1      39.692  35.198  38.236  1.00  0.00     0.055 A 
ATOM     68  C   UNL A   1      38.080  33.555  38.925  1.00  0.00     0.041 A 
ATOM     69  F   UNL A   1      37.705  31.665  37.593  1.00  0.00    -0.206 F 
ATOM     70  C   UNL A   1      38.760  34.744  39.172  1.00  0.00     0.022 A 
BRANCH  67  71
ATOM     71  S   UNL A   1      40.696  36.666  38.596  1.00  0.00     0.124 S 
ATOM     72  O   UNL A   1      41.534  36.190  39.690  1.00  0.00    -0.237 OA
ATOM     73  O   UNL A   1      41.371  36.889  37.322  1.00  0.00    -0.237 OA
ATOM     74  O   UNL A   1      39.704  37.675  38.960  1.00  0.00    -0.744 OA
ENDBRANCH  67  71
ENDBRANCH  40  64
BRANCH  52  75
ATOM     75  C   UNL A   1      44.166  28.499  35.400  1.00  0.00     0.023 A 
ATOM     76  C   UNL A   1      44.035  27.448  36.324  1.00  0.00     0.031 A 
ATOM     77  C   UNL A   1      45.437  29.080  35.237  1.00  0.00     0.131 A 
ATOM     78  C   UNL A   1      45.139  27.053  37.093  1.00  0.00     0.055 A 
ATOM     79  C   UNL A   1      46.548  28.634  35.955  1.00  0.00     0.041 A 
ATOM     80  F   UNL A   1      45.621  30.090  34.372  1.00  0.00    -0.206 F 
ATOM     81  C   UNL A   1      46.399  27.626  36.900  1.00  0.00     0.022 A 
BRANCH  78  82
ATOM     82  S   UNL A   1      44.885  25.849  38.427  1.00  0.00     0.124 S 
ATOM     83  O   UNL A   1      46.256  25.539  38.820  1.00  0.00    -0.237 OA
ATOM     84  O   UNL A   1      44.102  26.611  39.391  1.00  0.00    -0.237 OA
ATOM     85  O   UNL A   1      44.167  24.757  37.770  1.00  0.00    -0.744 OA
ENDBRANCH  78  82
ENDBRANCH  52  75
ENDBRANCH  26  27
ENDBRANCH   2  21
TORSDOF 13
ENDMDL
MODEL 2
REMARK VINA RESULT:     -11.2      1.427      1.727
REMARK SMILES C[N@H+]1CCO[C@](C)(C(=O)NCCCNC(=O)c2ccc(-c3c4nc(c(-c5cc(S(=O)(=O)[O-])ccc5F)c5ccc([nH]5)c(-c5cc(S(=O)(=O)[O-])ccc5F)c5nc(c(-c6cc(S(=O)(=O)[O-])ccc6F)c6ccc3[nH]6)C=C5)C=C4)cc2)C1
REMARK SMILES IDX 14 1 15 2 16 3 13 5 12 6 11 7 10 8 8 9 9 10 6 12 1 13 2 14
REMARK SMILES IDX 3 15 80 16 4 18 5 19 7 20 17 21 18 22 79 23 19 24 78 25
REMARK SMILES IDX 20 26 21 27 22 28 72 29 23 30 77 31 71 32 73 33 24 34 76 35
REMARK SMILES IDX 70 36 69 37 25 39 57 40 37 41 56 42 38 43 41 44 55 45 74 46
REMARK SMILES IDX 39 47 40 48 54 50 75 51 42 52 26 53 27 54 35 55 28 56 34 57
REMARK SMILES IDX 36 58 33 59 29 60 30 61 31 62 32 63 58 64 59 65 67 66 60 67
REMARK SMILES IDX 66 68 68 69 65 70 61 71 62 72 63 73 64 74 43 75 44 76 52 77
REMARK SMILES IDX 45 78 51 79 53 80 50 81 46 82 47 83 48 84 49 85
REMARK H PARENT 14 4 10 11 2 17 73 38 41 49
REMARK Flexibility Score: inf
ROOT
ATOM      1  N   UNL A   1      32.124  33.427  27.095  1.00  0.00    -0.352 N 
ATOM      2  C   UNL A   1      32.902  34.110  27.995  1.00  0.00     0.251 C 
ATOM      3  O   UNL A   1      32.582  35.256  28.315  1.00  0.00    -0.269 OA
ATOM      4  H   UNL A   1      31.463  33.977  26.616  1.00  0.00     0.163 HD
ENDROOT
BRANCH   1   5
ATOM      5  C   UNL A   1      32.125  32.014  26.742  1.00  0.00     0.118 C 
BRANCH   5   6
ATOM      6  C   UNL A   1      30.953  31.647  25.845  1.00  0.00     0.042 C 
BRANCH   6   7
ATOM      7  C   UNL A   1      31.136  30.320  25.124  1.00  0.00     0.117 C 
BRANCH   7   8
ATOM      8  N   UNL A   1      30.388  30.259  23.876  1.00  0.00    -0.353 N 
ATOM      9  C   UNL A   1      30.312  29.296  22.904  1.00  0.00     0.257 C 
ATOM     10  O   UNL A   1      29.574  29.547  21.946  1.00  0.00    -0.271 OA
ATOM     11  H   UNL A   1      29.837  31.055  23.698  1.00  0.00     0.163 HD
BRANCH   9  12
ATOM     12  C   UNL A   1      31.093  27.954  23.032  1.00  0.00     0.192 C 
ATOM     13  C   UNL A   1      33.664  26.520  24.466  1.00  0.00     0.332 C 
ATOM     14  N   UNL A   1      33.549  27.181  23.176  1.00  0.00    -0.333 N 
ATOM     15  C   UNL A   1      33.265  26.314  22.029  1.00  0.00     0.290 C 
ATOM     16  C   UNL A   1      32.603  28.308  23.191  1.00  0.00     0.308 C 
ATOM     17  H   UNL A   1      34.496  27.531  23.034  1.00  0.00     0.348 HD
ATOM     18  C   UNL A   1      31.780  26.020  21.769  1.00  0.00     0.223 C 
ATOM     19  O   UNL A   1      30.961  27.197  21.799  1.00  0.00    -0.354 OA
ATOM     20  C   UNL A   1      30.391  27.127  24.126  1.00  0.00     0.059 C 
ENDBRANCH   9  12
ENDBRANCH   7   8
ENDBRANCH   6   7
ENDBRANCH   5   6
ENDBRANCH   1   5
BRANCH   2  21
ATOM     21  C   UNL A   1      34.096  33.473  28.589  1.00  0.00     0.039 A 
ATOM     22  C   UNL A   1      35.307  34.169  28.589  1.00  0.00     0.014 A 
ATOM     23  C   UNL A   1      34.028  32.189  29.134  1.00  0.00     0.014 A 
ATOM     24  C   UNL A   1      36.430  33.602  29.197  1.00  0.00     0.010 A 
ATOM     25  C   UNL A   1      35.118  31.670  29.825  1.00  0.00     0.010 A 
ATOM     26  C   UNL A   1      36.335  32.366  29.857  1.00  0.00    -0.014 A 
BRANCH  26  27
ATOM     27  C   UNL A   1      37.497  31.781  30.576  1.00  0.00     0.031 A 
ATOM     28  C   UNL A   1      38.356  30.746  29.901  1.00  0.00     0.074 A 
ATOM     29  C   UNL A   1      37.741  32.139  31.852  1.00  0.00     0.049 A 
ATOM     30  N   UNL A   1      39.363  30.064  30.383  1.00  0.00    -0.248 NA
ATOM     31  C   UNL A   1      38.017  30.411  28.509  1.00  0.00     0.031 C 
ATOM     32  C   UNL A   1      36.953  33.104  32.623  1.00  0.00     0.029 A 
ATOM     33  N   UNL A   1      38.713  31.731  32.730  1.00  0.00    -0.354 N 
ATOM     34  C   UNL A   1      39.770  29.213  29.360  1.00  0.00     0.074 A 
ATOM     35  C   UNL A   1      38.855  29.417  28.257  1.00  0.00     0.031 C 
ATOM     36  C   UNL A   1      37.493  33.236  33.846  1.00  0.00     0.029 A 
ATOM     37  C   UNL A   1      38.628  32.327  33.967  1.00  0.00     0.049 A 
ATOM     38  H   UNL A   1      39.407  31.073  32.496  1.00  0.00     0.167 HD
ATOM     39  C   UNL A   1      40.823  28.359  29.335  1.00  0.00     0.034 A 
ATOM     40  C   UNL A   1      39.369  32.151  35.079  1.00  0.00     0.034 A 
ATOM     41  C   UNL A   1      41.728  28.175  30.443  1.00  0.00     0.049 A 
ATOM     42  C   UNL A   1      40.512  31.167  35.039  1.00  0.00     0.074 A 
ATOM     43  C   UNL A   1      42.857  27.377  30.510  1.00  0.00     0.029 A 
ATOM     44  N   UNL A   1      41.606  28.789  31.684  1.00  0.00    -0.354 N 
ATOM     45  N   UNL A   1      40.915  30.407  34.046  1.00  0.00    -0.248 NA
ATOM     46  C   UNL A   1      41.307  31.026  36.266  1.00  0.00     0.031 C 
ATOM     47  C   UNL A   1      43.369  27.446  31.809  1.00  0.00     0.029 A 
ATOM     48  C   UNL A   1      42.616  28.359  32.531  1.00  0.00     0.049 A 
ATOM     49  H   UNL A   1      40.904  29.437  31.926  1.00  0.00     0.167 HD
ATOM     50  C   UNL A   1      42.033  29.724  34.521  1.00  0.00     0.074 A 
ATOM     51  C   UNL A   1      42.247  30.175  35.880  1.00  0.00     0.031 C 
ATOM     52  C   UNL A   1      42.814  28.810  33.889  1.00  0.00     0.034 A 
BRANCH  39  53
ATOM     53  C   UNL A   1      41.031  27.545  28.080  1.00  0.00     0.023 A 
ATOM     54  C   UNL A   1      40.681  26.184  28.013  1.00  0.00     0.031 A 
ATOM     55  C   UNL A   1      41.607  28.130  26.938  1.00  0.00     0.131 A 
ATOM     56  C   UNL A   1      40.980  25.438  26.863  1.00  0.00     0.055 A 
ATOM     57  C   UNL A   1      41.820  27.403  25.765  1.00  0.00     0.041 A 
ATOM     58  F   UNL A   1      41.983  29.419  26.945  1.00  0.00    -0.206 F 
ATOM     59  C   UNL A   1      41.522  26.044  25.728  1.00  0.00     0.022 A 
BRANCH  56  60
ATOM     60  S   UNL A   1      40.792  23.635  26.929  1.00  0.00     0.124 S 
ATOM     61  O   UNL A   1      39.381  23.473  26.586  1.00  0.00    -0.237 OA
ATOM     62  O   UNL A   1      41.750  23.182  25.927  1.00  0.00    -0.237 OA
ATOM     63  O   UNL A   1      41.131  23.305  28.312  1.00  0.00    -0.744 OA
ENDBRANCH  56  60
ENDBRANCH  39  53
BRANCH  40  64
ATOM     64  C   UNL A   1      39.055  32.905  36.328  1.00  0.00     0.023 A 
ATOM     65  C   UNL A   1      39.584  34.186  36.552  1.00  0.00     0.031 A 
ATOM     66  C   UNL A   1      38.261  32.335  37.340  1.00  0.00     0.131 A 
ATOM     67  C   UNL A   1      39.356  34.833  37.777  1.00  0.00     0.055 A 
ATOM     68  C   UNL A   1      37.987  33.008  38.531  1.00  0.00     0.041 A 
ATOM     69  F   UNL A   1      37.729  31.113  37.178  1.00  0.00    -0.206 F 
ATOM     70  C   UNL A   1      38.549  34.259  38.762  1.00  0.00     0.022 A 
BRANCH  67  71
ATOM     71  S   UNL A   1      40.217  36.395  38.106  1.00  0.00     0.124 S 
ATOM     72  O   UNL A   1      39.157  37.195  38.711  1.00  0.00    -0.237 OA
ATOM     73  O   UNL A   1      41.288  35.968  39.000  1.00  0.00    -0.237 OA
ATOM     74  O   UNL A   1      40.650  36.831  36.780  1.00  0.00    -0.744 OA
ENDBRANCH  67  71
ENDBRANCH  40  64
BRANCH  52  75
ATOM     75  C   UNL A   1      44.005  28.279  34.651  1.00  0.00     0.023 A 
ATOM     76  C   UNL A   1      43.881  27.252  35.603  1.00  0.00     0.031 A 
ATOM     77  C   UNL A   1      45.283  28.820  34.425  1.00  0.00     0.131 A 
ATOM     78  C   UNL A   1      45.004  26.840  36.336  1.00  0.00     0.055 A 
ATOM     79  C   UNL A   1      46.409  28.357  35.108  1.00  0.00     0.041 A 
ATOM     80  F   UNL A   1      45.461  29.807  33.532  1.00  0.00    -0.206 F 
ATOM     81  C   UNL A   1      46.271  27.373  36.080  1.00  0.00     0.022 A 
BRANCH  78  82
ATOM     82  S   UNL A   1      44.770  25.672  37.703  1.00  0.00     0.124 S 
ATOM     83  O   UNL A   1      44.297  24.481  37.006  1.00  0.00    -0.237 OA
ATOM     84  O   UNL A   1      46.110  25.586  38.274  1.00  0.00    -0.237 OA
ATOM     85  O   UNL A   1      43.777  26.330  38.551  1.00  0.00    -0.744 OA
ENDBRANCH  78  82
ENDBRANCH  52  75
ENDBRANCH  26  27
ENDBRANCH   2  21
TORSDOF 13
ENDMDL
MODEL 3
REMARK VINA RESULT:     -11.2      3.979      9.934
REMARK SMILES C[N@H+]1CCO[C@](C)(C(=O)NCCCNC(=O)c2ccc(-c3c4nc(c(-c5cc(S(=O)(=O)[O-])ccc5F)c5ccc([nH]5)c(-c5cc(S(=O)(=O)[O-])ccc5F)c5nc(c(-c6cc(S(=O)(=O)[O-])ccc6F)c6ccc3[nH]6)C=C5)C=C4)cc2)C1
REMARK SMILES IDX 14 1 15 2 16 3 13 5 12 6 11 7 10 8 8 9 9 10 6 12 1 13 2 14
REMARK SMILES IDX 3 15 80 16 4 18 5 19 7 20 17 21 18 22 79 23 19 24 78 25
REMARK SMILES IDX 20 26 21 27 22 28 72 29 23 30 77 31 71 32 73 33 24 34 76 35
REMARK SMILES IDX 70 36 69 37 25 39 57 40 37 41 56 42 38 43 41 44 55 45 74 46
REMARK SMILES IDX 39 47 40 48 54 50 75 51 42 52 26 53 27 54 35 55 28 56 34 57
REMARK SMILES IDX 36 58 33 59 29 60 30 61 31 62 32 63 58 64 59 65 67 66 60 67
REMARK SMILES IDX 66 68 68 69 65 70 61 71 62 72 63 73 64 74 43 75 44 76 52 77
REMARK SMILES IDX 45 78 51 79 53 80 50 81 46 82 47 83 48 84 49 85
REMARK H PARENT 14 4 10 11 2 17 73 38 41 49
REMARK Flexibility Score: inf
ROOT
ATOM      1  N   UNL A   1      33.819  33.063  27.880  1.00  0.00    -0.352 N 
ATOM      2  C   UNL A   1      34.084  31.737  27.654  1.00  0.00     0.251 C 
ATOM      3  O   UNL A   1      33.275  31.065  27.013  1.00  0.00    -0.269 OA
ATOM      4  H   UNL A   1      32.898  33.344  27.677  1.00  0.00     0.163 HD
ENDROOT
BRANCH   1   5
ATOM      5  C   UNL A   1      34.692  34.120  28.373  1.00  0.00     0.118 C 
BRANCH   5   6
ATOM      6  C   UNL A   1      33.951  35.434  28.561  1.00  0.00     0.042 C 
BRANCH   6   7
ATOM      7  C   UNL A   1      32.892  35.380  29.651  1.00  0.00     0.117 C 
BRANCH   7   8
ATOM      8  N   UNL A   1      32.887  36.577  30.481  1.00  0.00    -0.353 N 
ATOM      9  C   UNL A   1      33.329  36.803  31.758  1.00  0.00     0.257 C 
ATOM     10  O   UNL A   1      33.181  37.949  32.191  1.00  0.00    -0.271 OA
ATOM     11  H   UNL A   1      32.495  37.367  30.045  1.00  0.00     0.163 HD
BRANCH   9  12
ATOM     12  C   UNL A   1      34.008  35.674  32.592  1.00  0.00     0.192 C 
ATOM     13  C   UNL A   1      36.900  34.430  33.492  1.00  0.00     0.332 C 
ATOM     14  N   UNL A   1      36.034  34.094  32.374  1.00  0.00    -0.333 N 
ATOM     15  C   UNL A   1      35.099  32.987  32.589  1.00  0.00     0.290 C 
ATOM     16  C   UNL A   1      35.309  35.258  31.840  1.00  0.00     0.308 C 
ATOM     17  H   UNL A   1      36.705  33.763  31.681  1.00  0.00     0.348 HD
ATOM     18  C   UNL A   1      33.758  33.365  33.234  1.00  0.00     0.223 C 
ATOM     19  O   UNL A   1      33.143  34.508  32.622  1.00  0.00    -0.354 OA
ATOM     20  C   UNL A   1      34.103  36.182  34.043  1.00  0.00     0.059 C 
ENDBRANCH   9  12
ENDBRANCH   7   8
ENDBRANCH   6   7
ENDBRANCH   5   6
ENDBRANCH   1   5
BRANCH   2  21
ATOM     21  C   UNL A   1      35.334  31.126  28.154  1.00  0.00     0.039 A 
ATOM     22  C   UNL A   1      36.535  31.826  28.013  1.00  0.00     0.014 A 
ATOM     23  C   UNL A   1      35.328  29.863  28.751  1.00  0.00     0.014 A 
ATOM     24  C   UNL A   1      37.714  31.287  28.531  1.00  0.00     0.010 A 
ATOM     25  C   UNL A   1      36.483  29.374  29.353  1.00  0.00     0.010 A 
ATOM     26  C   UNL A   1      37.691  30.076  29.242  1.00  0.00    -0.014 A 
BRANCH  26  27
ATOM     27  C   UNL A   1      38.921  29.522  29.868  1.00  0.00     0.031 A 
ATOM     28  C   UNL A   1      39.393  30.049  31.196  1.00  0.00     0.074 A 
ATOM     29  C   UNL A   1      39.639  28.587  29.214  1.00  0.00     0.049 A 
ATOM     30  N   UNL A   1      40.476  29.753  31.867  1.00  0.00    -0.248 NA
ATOM     31  C   UNL A   1      38.552  31.071  31.839  1.00  0.00     0.031 C 
ATOM     32  C   UNL A   1      39.301  28.027  27.903  1.00  0.00     0.029 A 
ATOM     33  N   UNL A   1      40.804  27.948  29.554  1.00  0.00    -0.354 N 
ATOM     34  C   UNL A   1      40.452  30.556  33.002  1.00  0.00     0.074 A 
ATOM     35  C   UNL A   1      39.283  31.402  32.892  1.00  0.00     0.031 C 
ATOM     36  C   UNL A   1      40.219  27.107  27.567  1.00  0.00     0.029 A 
ATOM     37  C   UNL A   1      41.240  27.050  28.608  1.00  0.00     0.049 A 
ATOM     38  H   UNL A   1      41.284  28.117  30.397  1.00  0.00     0.167 HD
ATOM     39  C   UNL A   1      41.312  30.569  34.051  1.00  0.00     0.034 A 
ATOM     40  C   UNL A   1      42.345  26.279  28.573  1.00  0.00     0.034 A 
ATOM     41  C   UNL A   1      42.469  29.712  34.146  1.00  0.00     0.049 A 
ATOM     42  C   UNL A   1      43.308  26.339  29.734  1.00  0.00     0.074 A 
ATOM     43  C   UNL A   1      43.378  29.605  35.184  1.00  0.00     0.029 A 
ATOM     44  N   UNL A   1      42.885  28.821  33.164  1.00  0.00    -0.354 N 
ATOM     45  N   UNL A   1      43.243  27.068  30.825  1.00  0.00    -0.248 NA
ATOM     46  C   UNL A   1      44.485  25.464  29.663  1.00  0.00     0.031 C 
ATOM     47  C   UNL A   1      44.382  28.712  34.799  1.00  0.00     0.029 A 
ATOM     48  C   UNL A   1      44.054  28.189  33.557  1.00  0.00     0.049 A 
ATOM     49  H   UNL A   1      42.415  28.661  32.313  1.00  0.00     0.167 HD
ATOM     50  C   UNL A   1      44.355  26.712  31.585  1.00  0.00     0.074 A 
ATOM     51  C   UNL A   1      45.060  25.694  30.835  1.00  0.00     0.031 C 
ATOM     52  C   UNL A   1      44.753  27.181  32.796  1.00  0.00     0.034 A 
BRANCH  39  53
ATOM     53  C   UNL A   1      41.043  31.559  35.160  1.00  0.00     0.023 A 
ATOM     54  C   UNL A   1      39.964  31.400  36.048  1.00  0.00     0.031 A 
ATOM     55  C   UNL A   1      41.863  32.690  35.321  1.00  0.00     0.131 A 
ATOM     56  C   UNL A   1      39.689  32.391  37.003  1.00  0.00     0.055 A 
ATOM     57  C   UNL A   1      41.637  33.627  36.331  1.00  0.00     0.041 A 
ATOM     58  F   UNL A   1      42.896  32.910  34.492  1.00  0.00    -0.206 F 
ATOM     59  C   UNL A   1      40.534  33.490  37.169  1.00  0.00     0.022 A 
BRANCH  56  60
ATOM     60  S   UNL A   1      38.126  32.299  37.920  1.00  0.00     0.124 S 
ATOM     61  O   UNL A   1      38.591  32.383  39.302  1.00  0.00    -0.237 OA
ATOM     62  O   UNL A   1      37.398  33.459  37.418  1.00  0.00    -0.237 OA
ATOM     63  O   UNL A   1      37.578  31.001  37.532  1.00  0.00    -0.744 OA
ENDBRANCH  56  60
ENDBRANCH  39  53
BRANCH  40  64
ATOM     64  C   UNL A   1      42.618  25.395  27.402  1.00  0.00     0.023 A 
ATOM     65  C   UNL A   1      42.127  24.080  27.359  1.00  0.00     0.031 A 
ATOM     66  C   UNL A   1      43.415  25.835  26.330  1.00  0.00     0.131 A 
ATOM     67  C   UNL A   1      42.481  23.236  26.295  1.00  0.00     0.055 A 
ATOM     68  C   UNL A   1      43.712  25.011  25.244  1.00  0.00     0.041 A 
ATOM     69  F   UNL A   1      43.908  27.084  26.318  1.00  0.00    -0.206 F 
ATOM     70  C   UNL A   1      43.257  23.696  25.229  1.00  0.00     0.022 A 
BRANCH  67  71
ATOM     71  S   UNL A   1      41.993  21.490  26.374  1.00  0.00     0.124 S 
ATOM     72  O   UNL A   1      42.305  21.158  27.760  1.00  0.00    -0.237 OA
ATOM     73  O   UNL A   1      40.576  21.556  26.033  1.00  0.00    -0.237 OA
ATOM     74  O   UNL A   1      42.845  20.854  25.371  1.00  0.00    -0.744 OA
ENDBRANCH  67  71
ENDBRANCH  40  64
BRANCH  52  75
ATOM     75  C   UNL A   1      45.985  26.553  33.404  1.00  0.00     0.023 A 
ATOM     76  C   UNL A   1      47.272  27.074  33.182  1.00  0.00     0.031 A 
ATOM     77  C   UNL A   1      45.866  25.408  34.212  1.00  0.00     0.131 A 
ATOM     78  C   UNL A   1      48.392  26.415  33.711  1.00  0.00     0.055 A 
ATOM     79  C   UNL A   1      46.979  24.798  34.793  1.00  0.00     0.041 A 
ATOM     80  F   UNL A   1      44.663  24.863  34.454  1.00  0.00    -0.206 F 
ATOM     81  C   UNL A   1      48.253  25.292  34.531  1.00  0.00     0.022 A 
BRANCH  78  82
ATOM     82  S   UNL A   1      50.046  26.985  33.228  1.00  0.00     0.124 S 
ATOM     83  O   UNL A   1      50.224  26.334  31.934  1.00  0.00    -0.237 OA
ATOM     84  O   UNL A   1      49.880  28.433  33.195  1.00  0.00    -0.237 OA
ATOM     85  O   UNL A   1      50.908  26.484  34.297  1.00  0.00    -0.744 OA
ENDBRANCH  78  82
ENDBRANCH  52  75
ENDBRANCH  26  27
ENDBRANCH   2  21
TORSDOF 13
ENDMDL
