MODEL 1
REMARK VINA RESULT:     -12.0      0.000      0.000
REMARK SMILES CCCCc1nc(C[N@H+]2CC[NH2+][C@H](C(=O)NCCCNC(=O)c3ccc(-c4c5nc(c(-c6cc(S(=O)(=O)[O-])ccc6F)c6ccc([nH]6)c(-c6cc(S(=O)(=O)[O-])ccc6F)c6nc(c(-c7cc(S(=O)(=O)[O-])ccc7F)c7ccc4[nH]7)C=C6)C=C5)cc3)C2)c(Cl)[nH]1
REMARK SMILES IDX 17 1 16 2 14 3 15 4 13 6 9 7 10 8 86 9 11 11 12 12 8 15 7 16
REMARK SMILES IDX 5 17 6 18 89 19 87 20 88 22 4 23 3 24 2 25 1 26 18 27 19 28
REMARK SMILES IDX 20 29 21 30 22 32 23 33 24 34 85 35 25 36 84 37 26 38 27 39
REMARK SMILES IDX 28 40 78 41 29 42 83 43 77 44 79 45 30 46 82 47 76 48 75 49
REMARK SMILES IDX 31 51 63 52 43 53 62 54 44 55 47 56 61 57 80 58 45 59 46 60
REMARK SMILES IDX 60 62 81 63 48 64 32 65 33 66 41 67 34 68 40 69 42 70 39 71
REMARK SMILES IDX 35 72 36 73 37 74 38 75 64 76 65 77 73 78 66 79 72 80 74 81
REMARK SMILES IDX 71 82 67 83 68 84 69 85 70 86 49 87 50 88 58 89 51 90 57 91
REMARK SMILES IDX 59 92 56 93 52 94 53 95 54 96 55 97
REMARK H PARENT 16 5 9 10 12 13 12 14 89 21 20 31 79 50 47 61
REMARK Flexibility Score: inf
ROOT
ATOM      1  C   UNL A   1      32.478  30.102  25.839  1.00  0.00     0.118 C 
ENDROOT
BRANCH   1   2
ATOM      2  N   UNL A   1      33.260  29.686  24.684  1.00  0.00    -0.351 N 
ATOM      3  C   UNL A   1      33.146  28.569  23.894  1.00  0.00     0.284 C 
ATOM      4  O   UNL A   1      33.716  28.596  22.799  1.00  0.00    -0.268 OA
ATOM      5  H   UNL A   1      33.984  30.302  24.429  1.00  0.00     0.163 HD
BRANCH   3   6
ATOM      6  C   UNL A   1      32.430  27.301  24.410  1.00  0.00     0.328 C 
ATOM      7  N   UNL A   1      32.467  24.723  24.173  1.00  0.00    -0.320 N 
ATOM      8  C   UNL A   1      31.011  24.809  24.026  1.00  0.00     0.324 C 
ATOM      9  C   UNL A   1      33.143  26.013  23.888  1.00  0.00     0.339 C 
ATOM     10  H   UNL A   1      32.771  24.083  23.438  1.00  0.00     0.348 HD
ATOM     11  C   UNL A   1      30.363  26.095  24.570  1.00  0.00     0.323 C 
ATOM     12  N   UNL A   1      30.991  27.301  24.027  1.00  0.00    -0.327 N 
ATOM     13  H   UNL A   1      30.533  28.130  24.409  1.00  0.00     0.347 HD
ATOM     14  H   UNL A   1      30.901  27.314  23.011  1.00  0.00     0.347 HD
BRANCH   7  15
ATOM     15  C   UNL A   1      32.930  24.046  25.397  1.00  0.00     0.323 C 
BRANCH  15  16
ATOM     16  C   UNL A   1      33.567  22.716  25.173  1.00  0.00     0.132 A 
ATOM     17  C   UNL A   1      33.645  20.554  25.032  1.00  0.00     0.107 A 
ATOM     18  N   UNL A   1      32.871  21.547  25.426  1.00  0.00    -0.231 NA
ATOM     19  N   UNL A   1      34.862  21.038  24.609  1.00  0.00    -0.333 N 
ATOM     20  C   UNL A   1      34.817  22.393  24.712  1.00  0.00     0.135 A 
ATOM     21  H   UNL A   1      35.623  20.503  24.291  1.00  0.00     0.169 HD
ATOM     22  Cl  UNL A   1      36.159  23.296  24.214  1.00  0.00    -0.062 Cl
BRANCH  17  23
ATOM     23  C   UNL A   1      33.308  19.100  24.956  1.00  0.00     0.075 C 
BRANCH  23  24
ATOM     24  C   UNL A   1      32.468  18.704  23.738  1.00  0.00     0.008 C 
BRANCH  24  25
ATOM     25  C   UNL A   1      33.082  17.647  22.811  1.00  0.00    -0.003 C 
ATOM     26  C   UNL A   1      34.047  16.724  23.529  1.00  0.00     0.004 C 
ENDBRANCH  24  25
ENDBRANCH  23  24
ENDBRANCH  17  23
ENDBRANCH  15  16
ENDBRANCH   7  15
ENDBRANCH   3   6
ENDBRANCH   1   2
BRANCH   1  27
ATOM     27  C   UNL A   1      33.064  29.744  27.206  1.00  0.00     0.042 C 
BRANCH  27  28
ATOM     28  C   UNL A   1      34.422  30.393  27.447  1.00  0.00     0.118 C 
BRANCH  28  29
ATOM     29  N   UNL A   1      34.399  31.415  28.492  1.00  0.00    -0.352 N 
ATOM     30  C   UNL A   1      35.236  31.586  29.577  1.00  0.00     0.251 C 
ATOM     31  H   UNL A   1      33.679  32.081  28.409  1.00  0.00     0.163 HD
ATOM     32  O   UNL A   1      34.877  32.300  30.505  1.00  0.00    -0.269 OA
BRANCH  30  33
ATOM     33  C   UNL A   1      36.552  30.911  29.620  1.00  0.00     0.039 A 
ATOM     34  C   UNL A   1      37.739  31.651  29.562  1.00  0.00     0.014 A 
ATOM     35  C   UNL A   1      36.602  29.521  29.670  1.00  0.00     0.014 A 
ATOM     36  C   UNL A   1      38.964  30.982  29.603  1.00  0.00     0.010 A 
ATOM     37  C   UNL A   1      37.796  28.872  29.859  1.00  0.00     0.010 A 
ATOM     38  C   UNL A   1      38.980  29.588  29.754  1.00  0.00    -0.014 A 
BRANCH  38  39
ATOM     39  C   UNL A   1      40.223  28.848  29.950  1.00  0.00     0.031 A 
ATOM     40  C   UNL A   1      40.534  28.606  31.384  1.00  0.00     0.074 A 
ATOM     41  C   UNL A   1      40.847  28.198  28.940  1.00  0.00     0.049 A 
ATOM     42  N   UNL A   1      41.478  29.127  32.094  1.00  0.00    -0.248 NA
ATOM     43  C   UNL A   1      39.543  27.859  32.183  1.00  0.00     0.031 C 
ATOM     44  C   UNL A   1      40.419  28.097  27.540  1.00  0.00     0.029 A 
ATOM     45  N   UNL A   1      41.935  27.380  28.969  1.00  0.00    -0.354 N 
ATOM     46  C   UNL A   1      41.365  28.539  33.351  1.00  0.00     0.074 A 
ATOM     47  C   UNL A   1      40.027  28.027  33.414  1.00  0.00     0.031 C 
ATOM     48  C   UNL A   1      41.089  27.094  26.929  1.00  0.00     0.029 A 
ATOM     49  C   UNL A   1      42.094  26.572  27.840  1.00  0.00     0.049 A 
ATOM     50  H   UNL A   1      42.561  27.358  29.728  1.00  0.00     0.167 HD
ATOM     51  C   UNL A   1      42.474  28.243  34.088  1.00  0.00     0.034 A 
ATOM     52  C   UNL A   1      42.957  25.526  27.681  1.00  0.00     0.034 A 
ATOM     53  C   UNL A   1      43.626  28.957  33.566  1.00  0.00     0.049 A 
ATOM     54  C   UNL A   1      44.010  25.692  28.717  1.00  0.00     0.074 A 
ATOM     55  C   UNL A   1      43.910  30.289  33.328  1.00  0.00     0.029 A 
ATOM     56  N   UNL A   1      44.540  28.251  32.809  1.00  0.00    -0.354 N 
ATOM     57  N   UNL A   1      44.848  26.694  28.729  1.00  0.00    -0.248 NA
ATOM     58  C   UNL A   1      43.795  25.052  30.007  1.00  0.00     0.031 C 
ATOM     59  C   UNL A   1      44.598  30.301  32.078  1.00  0.00     0.029 A 
ATOM     60  C   UNL A   1      44.802  28.980  31.676  1.00  0.00     0.049 A 
ATOM     61  H   UNL A   1      44.933  27.378  33.040  1.00  0.00     0.167 HD
ATOM     62  C   UNL A   1      44.912  27.090  30.056  1.00  0.00     0.074 A 
ATOM     63  C   UNL A   1      44.314  25.987  30.809  1.00  0.00     0.031 C 
ATOM     64  C   UNL A   1      45.162  28.392  30.396  1.00  0.00     0.034 A 
BRANCH  51  65
ATOM     65  C   UNL A   1      42.623  27.012  34.973  1.00  0.00     0.023 A 
ATOM     66  C   UNL A   1      43.453  25.987  34.480  1.00  0.00     0.031 A 
ATOM     67  C   UNL A   1      41.822  26.653  36.080  1.00  0.00     0.131 A 
ATOM     68  C   UNL A   1      43.338  24.668  34.949  1.00  0.00     0.055 A 
ATOM     69  C   UNL A   1      41.755  25.350  36.587  1.00  0.00     0.041 A 
ATOM     70  F   UNL A   1      41.006  27.504  36.709  1.00  0.00    -0.206 F 
ATOM     71  C   UNL A   1      42.483  24.337  35.993  1.00  0.00     0.022 A 
BRANCH  68  72
ATOM     72  S   UNL A   1      44.186  23.363  34.027  1.00  0.00     0.124 S 
ATOM     73  O   UNL A   1      45.369  24.075  33.553  1.00  0.00    -0.237 OA
ATOM     74  O   UNL A   1      44.408  22.362  35.065  1.00  0.00    -0.237 OA
ATOM     75  O   UNL A   1      43.219  22.994  32.998  1.00  0.00    -0.744 OA
ENDBRANCH  68  72
ENDBRANCH  51  65
BRANCH  52  76
ATOM     76  C   UNL A   1      42.740  24.248  26.930  1.00  0.00     0.023 A 
ATOM     77  C   UNL A   1      43.699  23.676  26.058  1.00  0.00     0.031 A 
ATOM     78  C   UNL A   1      41.640  23.428  27.268  1.00  0.00     0.131 A 
ATOM     79  C   UNL A   1      43.531  22.353  25.569  1.00  0.00     0.055 A 
ATOM     80  C   UNL A   1      41.479  22.126  26.784  1.00  0.00     0.041 A 
ATOM     81  F   UNL A   1      40.718  23.833  28.155  1.00  0.00    -0.206 F 
ATOM     82  C   UNL A   1      42.429  21.578  25.940  1.00  0.00     0.022 A 
BRANCH  79  83
ATOM     83  S   UNL A   1      44.789  21.569  24.498  1.00  0.00     0.124 S 
ATOM     84  O   UNL A   1      44.719  22.380  23.289  1.00  0.00    -0.237 OA
ATOM     85  O   UNL A   1      46.004  21.692  25.295  1.00  0.00    -0.237 OA
ATOM     86  O   UNL A   1      44.301  20.197  24.342  1.00  0.00    -0.744 OA
ENDBRANCH  79  83
ENDBRANCH  52  76
BRANCH  64  87
ATOM     87  C   UNL A   1      45.671  29.339  29.325  1.00  0.00     0.023 A 
ATOM     88  C   UNL A   1      44.865  30.136  28.478  1.00  0.00     0.031 A 
ATOM     89  C   UNL A   1      47.064  29.523  29.254  1.00  0.00     0.131 A 
ATOM     90  C   UNL A   1      45.466  31.064  27.600  1.00  0.00     0.055 A 
ATOM     91  C   UNL A   1      47.651  30.457  28.404  1.00  0.00     0.041 A 
ATOM     92  F   UNL A   1      47.885  28.814  30.048  1.00  0.00    -0.206 F 
ATOM     93  C   UNL A   1      46.854  31.228  27.569  1.00  0.00     0.022 A 
BRANCH  90  94
ATOM     94  S   UNL A   1      44.457  32.066  26.456  1.00  0.00     0.124 S 
ATOM     95  O   UNL A   1      43.351  31.182  26.109  1.00  0.00    -0.237 OA
ATOM     96  O   UNL A   1      44.116  33.229  27.271  1.00  0.00    -0.237 OA
ATOM     97  O   UNL A   1      45.379  32.350  25.352  1.00  0.00    -0.744 OA
ENDBRANCH  90  94
ENDBRANCH  64  87
ENDBRANCH  38  39
ENDBRANCH  30  33
ENDBRANCH  28  29
ENDBRANCH  27  28
ENDBRANCH   1  27
TORSDOF 18
ENDMDL
MODEL 2
REMARK VINA RESULT:     -11.9      3.299      8.187
REMARK SMILES CCCCc1nc(C[N@H+]2CC[NH2+][C@H](C(=O)NCCCNC(=O)c3ccc(-c4c5nc(c(-c6cc(S(=O)(=O)[O-])ccc6F)c6ccc([nH]6)c(-c6cc(S(=O)(=O)[O-])ccc6F)c6nc(c(-c7cc(S(=O)(=O)[O-])ccc7F)c7ccc4[nH]7)C=C6)C=C5)cc3)C2)c(Cl)[nH]1
REMARK SMILES IDX 17 1 16 2 14 3 15 4 13 6 9 7 10 8 86 9 11 11 12 12 8 15 7 16
REMARK SMILES IDX 5 17 6 18 89 19 87 20 88 22 4 23 3 24 2 25 1 26 18 27 19 28
REMARK SMILES IDX 20 29 21 30 22 32 23 33 24 34 85 35 25 36 84 37 26 38 27 39
REMARK SMILES IDX 28 40 78 41 29 42 83 43 77 44 79 45 30 46 82 47 76 48 75 49
REMARK SMILES IDX 31 51 63 52 43 53 62 54 44 55 47 56 61 57 80 58 45 59 46 60
REMARK SMILES IDX 60 62 81 63 48 64 32 65 33 66 41 67 34 68 40 69 42 70 39 71
REMARK SMILES IDX 35 72 36 73 37 74 38 75 64 76 65 77 73 78 66 79 72 80 74 81
REMARK SMILES IDX 71 82 67 83 68 84 69 85 70 86 49 87 50 88 58 89 51 90 57 91
REMARK SMILES IDX 59 92 56 93 52 94 53 95 54 96 55 97
REMARK H PARENT 16 5 9 10 12 13 12 14 89 21 20 31 79 50 47 61
REMARK Flexibility Score: inf
ROOT
ATOM      1  C   UNL A   1      35.936  20.687  25.010  1.00  0.00     0.118 C 
ENDROOT
BRANCH   1   2
ATOM      2  N   UNL A   1      36.347  22.080  25.102  1.00  0.00    -0.351 N 
ATOM      3  C   UNL A   1      35.654  23.180  25.543  1.00  0.00     0.284 C 
ATOM      4  O   UNL A   1      36.315  24.187  25.818  1.00  0.00    -0.268 OA
ATOM      5  H   UNL A   1      37.267  22.263  24.802  1.00  0.00     0.163 HD
BRANCH   3   6
ATOM      6  C   UNL A   1      34.111  23.183  25.582  1.00  0.00     0.328 C 
ATOM      7  N   UNL A   1      32.087  24.785  25.365  1.00  0.00    -0.320 N 
ATOM      8  C   UNL A   1      31.561  24.132  26.567  1.00  0.00     0.324 C 
ATOM      9  C   UNL A   1      33.551  24.594  25.210  1.00  0.00     0.339 C 
ATOM     10  H   UNL A   1      31.954  25.784  25.524  1.00  0.00     0.348 HD
ATOM     11  C   UNL A   1      32.140  22.739  26.875  1.00  0.00     0.323 C 
ATOM     12  N   UNL A   1      33.604  22.746  26.912  1.00  0.00    -0.327 N 
ATOM     13  H   UNL A   1      33.947  21.808  27.121  1.00  0.00     0.347 HD
ATOM     14  H   UNL A   1      33.931  23.385  27.636  1.00  0.00     0.347 HD
BRANCH   7  15
ATOM     15  C   UNL A   1      31.306  24.552  24.137  1.00  0.00     0.323 C 
BRANCH  15  16
ATOM     16  C   UNL A   1      30.893  25.789  23.414  1.00  0.00     0.132 A 
ATOM     17  C   UNL A   1      29.669  27.530  23.007  1.00  0.00     0.107 A 
ATOM     18  N   UNL A   1      29.702  26.423  23.722  1.00  0.00    -0.231 NA
ATOM     19  N   UNL A   1      30.765  27.594  22.176  1.00  0.00    -0.333 N 
ATOM     20  C   UNL A   1      31.524  26.493  22.423  1.00  0.00     0.135 A 
ATOM     21  H   UNL A   1      30.962  28.305  21.525  1.00  0.00     0.169 HD
ATOM     22  Cl  UNL A   1      32.983  26.303  21.587  1.00  0.00    -0.062 Cl
BRANCH  17  23
ATOM     23  C   UNL A   1      28.669  28.639  23.074  1.00  0.00     0.075 C 
BRANCH  23  24
ATOM     24  C   UNL A   1      29.276  30.046  23.094  1.00  0.00     0.008 C 
BRANCH  24  25
ATOM     25  C   UNL A   1      28.293  31.200  23.324  1.00  0.00    -0.003 C 
ATOM     26  C   UNL A   1      28.755  32.501  22.697  1.00  0.00     0.004 C 
ENDBRANCH  24  25
ENDBRANCH  23  24
ENDBRANCH  17  23
ENDBRANCH  15  16
ENDBRANCH   7  15
ENDBRANCH   3   6
ENDBRANCH   1   2
BRANCH   1  27
ATOM     27  C   UNL A   1      37.068  19.657  24.993  1.00  0.00     0.042 C 
BRANCH  27  28
ATOM     28  C   UNL A   1      38.420  20.269  25.347  1.00  0.00     0.118 C 
BRANCH  28  29
ATOM     29  N   UNL A   1      39.469  19.273  25.553  1.00  0.00    -0.352 N 
ATOM     30  C   UNL A   1      40.791  19.446  25.915  1.00  0.00     0.251 C 
ATOM     31  H   UNL A   1      39.192  18.339  25.413  1.00  0.00     0.163 HD
ATOM     32  O   UNL A   1      41.587  18.533  25.734  1.00  0.00    -0.269 OA
BRANCH  30  33
ATOM     33  C   UNL A   1      41.241  20.723  26.512  1.00  0.00     0.039 A 
ATOM     34  C   UNL A   1      42.035  21.615  25.782  1.00  0.00     0.014 A 
ATOM     35  C   UNL A   1      40.907  21.011  27.833  1.00  0.00     0.014 A 
ATOM     36  C   UNL A   1      42.443  22.811  26.377  1.00  0.00     0.010 A 
ATOM     37  C   UNL A   1      41.180  22.244  28.368  1.00  0.00     0.010 A 
ATOM     38  C   UNL A   1      42.007  23.116  27.674  1.00  0.00    -0.014 A 
BRANCH  38  39
ATOM     39  C   UNL A   1      42.277  24.410  28.294  1.00  0.00     0.031 A 
ATOM     40  C   UNL A   1      41.200  25.406  28.049  1.00  0.00     0.074 A 
ATOM     41  C   UNL A   1      43.239  24.578  29.231  1.00  0.00     0.049 A 
ATOM     42  N   UNL A   1      41.247  26.465  27.313  1.00  0.00    -0.248 NA
ATOM     43  C   UNL A   1      39.838  25.068  28.505  1.00  0.00     0.031 C 
ATOM     44  C   UNL A   1      44.134  23.558  29.790  1.00  0.00     0.029 A 
ATOM     45  N   UNL A   1      43.544  25.672  29.982  1.00  0.00    -0.354 N 
ATOM     46  C   UNL A   1      40.003  27.074  27.459  1.00  0.00     0.074 A 
ATOM     47  C   UNL A   1      39.128  26.044  27.938  1.00  0.00     0.031 C 
ATOM     48  C   UNL A   1      44.696  24.019  30.930  1.00  0.00     0.029 A 
ATOM     49  C   UNL A   1      44.322  25.411  31.113  1.00  0.00     0.049 A 
ATOM     50  H   UNL A   1      43.239  26.578  29.746  1.00  0.00     0.167 HD
ATOM     51  C   UNL A   1      39.887  28.433  27.483  1.00  0.00     0.034 A 
ATOM     52  C   UNL A   1      44.604  26.263  32.143  1.00  0.00     0.034 A 
ATOM     53  C   UNL A   1      41.097  29.048  26.966  1.00  0.00     0.049 A 
ATOM     54  C   UNL A   1      44.343  27.635  31.634  1.00  0.00     0.074 A 
ATOM     55  C   UNL A   1      41.802  28.942  25.782  1.00  0.00     0.029 A 
ATOM     56  N   UNL A   1      41.985  29.596  27.870  1.00  0.00    -0.354 N 
ATOM     57  N   UNL A   1      45.037  28.184  30.673  1.00  0.00    -0.248 NA
ATOM     58  C   UNL A   1      43.006  28.180  31.819  1.00  0.00     0.031 C 
ATOM     59  C   UNL A   1      43.175  28.934  26.172  1.00  0.00     0.029 A 
ATOM     60  C   UNL A   1      43.243  29.151  27.549  1.00  0.00     0.049 A 
ATOM     61  H   UNL A   1      41.756  30.199  28.614  1.00  0.00     0.167 HD
ATOM     62  C   UNL A   1      44.097  28.804  29.863  1.00  0.00     0.074 A 
ATOM     63  C   UNL A   1      42.875  28.845  30.667  1.00  0.00     0.031 C 
ATOM     64  C   UNL A   1      44.307  28.951  28.519  1.00  0.00     0.034 A 
BRANCH  51  65
ATOM     65  C   UNL A   1      38.903  29.203  28.355  1.00  0.00     0.023 A 
ATOM     66  C   UNL A   1      39.172  29.215  29.737  1.00  0.00     0.031 A 
ATOM     67  C   UNL A   1      37.616  29.661  27.992  1.00  0.00     0.131 A 
ATOM     68  C   UNL A   1      38.161  29.490  30.674  1.00  0.00     0.055 A 
ATOM     69  C   UNL A   1      36.629  29.994  28.927  1.00  0.00     0.041 A 
ATOM     70  F   UNL A   1      37.198  29.762  26.727  1.00  0.00    -0.206 F 
ATOM     71  C   UNL A   1      36.884  29.867  30.279  1.00  0.00     0.022 A 
BRANCH  68  72
ATOM     72  S   UNL A   1      38.505  29.146  32.416  1.00  0.00     0.124 S 
ATOM     73  O   UNL A   1      39.733  28.365  32.314  1.00  0.00    -0.237 OA
ATOM     74  O   UNL A   1      38.639  30.493  32.963  1.00  0.00    -0.237 OA
ATOM     75  O   UNL A   1      37.325  28.408  32.854  1.00  0.00    -0.744 OA
ENDBRANCH  68  72
ENDBRANCH  51  65
BRANCH  52  76
ATOM     76  C   UNL A   1      44.753  25.943  33.599  1.00  0.00     0.023 A 
ATOM     77  C   UNL A   1      43.761  26.220  34.571  1.00  0.00     0.031 A 
ATOM     78  C   UNL A   1      45.816  25.110  34.015  1.00  0.00     0.131 A 
ATOM     79  C   UNL A   1      43.862  25.678  35.880  1.00  0.00     0.055 A 
ATOM     80  C   UNL A   1      45.910  24.577  35.305  1.00  0.00     0.041 A 
ATOM     81  F   UNL A   1      46.763  24.709  33.153  1.00  0.00    -0.206 F 
ATOM     82  C   UNL A   1      44.928  24.851  36.240  1.00  0.00     0.022 A 
BRANCH  79  83
ATOM     83  S   UNL A   1      42.560  25.966  37.130  1.00  0.00     0.124 S 
ATOM     84  O   UNL A   1      41.869  27.135  36.599  1.00  0.00    -0.237 OA
ATOM     85  O   UNL A   1      41.820  24.709  37.113  1.00  0.00    -0.237 OA
ATOM     86  O   UNL A   1      43.313  26.210  38.363  1.00  0.00    -0.744 OA
ENDBRANCH  79  83
ENDBRANCH  52  76
BRANCH  64  87
ATOM     87  C   UNL A   1      45.701  28.709  27.968  1.00  0.00     0.023 A 
ATOM     88  C   UNL A   1      46.197  27.471  27.497  1.00  0.00     0.031 A 
ATOM     89  C   UNL A   1      46.521  29.840  27.808  1.00  0.00     0.131 A 
ATOM     90  C   UNL A   1      47.475  27.404  26.901  1.00  0.00     0.055 A 
ATOM     91  C   UNL A   1      47.771  29.774  27.196  1.00  0.00     0.041 A 
ATOM     92  F   UNL A   1      46.100  31.050  28.213  1.00  0.00    -0.206 F 
ATOM     93  C   UNL A   1      48.256  28.553  26.746  1.00  0.00     0.022 A 
BRANCH  90  94
ATOM     94  S   UNL A   1      48.167  25.813  26.335  1.00  0.00     0.124 S 
ATOM     95  O   UNL A   1      47.107  25.255  25.505  1.00  0.00    -0.237 OA
ATOM     96  O   UNL A   1      49.378  26.228  25.632  1.00  0.00    -0.237 OA
ATOM     97  O   UNL A   1      48.410  25.086  27.583  1.00  0.00    -0.744 OA
ENDBRANCH  90  94
ENDBRANCH  64  87
ENDBRANCH  38  39
ENDBRANCH  30  33
ENDBRANCH  28  29
ENDBRANCH  27  28
ENDBRANCH   1  27
TORSDOF 18
ENDMDL
MODEL 3
REMARK VINA RESULT:     -11.8      2.515      7.185
REMARK SMILES CCCCc1nc(C[N@H+]2CC[NH2+][C@H](C(=O)NCCCNC(=O)c3ccc(-c4c5nc(c(-c6cc(S(=O)(=O)[O-])ccc6F)c6ccc([nH]6)c(-c6cc(S(=O)(=O)[O-])ccc6F)c6nc(c(-c7cc(S(=O)(=O)[O-])ccc7F)c7ccc4[nH]7)C=C6)C=C5)cc3)C2)c(Cl)[nH]1
REMARK SMILES IDX 17 1 16 2 14 3 15 4 13 6 9 7 10 8 86 9 11 11 12 12 8 15 7 16
REMARK SMILES IDX 5 17 6 18 89 19 87 20 88 22 4 23 3 24 2 25 1 26 18 27 19 28
REMARK SMILES IDX 20 29 21 30 22 32 23 33 24 34 85 35 25 36 84 37 26 38 27 39
REMARK SMILES IDX 28 40 78 41 29 42 83 43 77 44 79 45 30 46 82 47 76 48 75 49
REMARK SMILES IDX 31 51 63 52 43 53 62 54 44 55 47 56 61 57 80 58 45 59 46 60
REMARK SMILES IDX 60 62 81 63 48 64 32 65 33 66 41 67 34 68 40 69 42 70 39 71
REMARK SMILES IDX 35 72 36 73 37 74 38 75 64 76 65 77 73 78 66 79 72 80 74 81
REMARK SMILES IDX 71 82 67 83 68 84 69 85 70 86 49 87 50 88 58 89 51 90 57 91
REMARK SMILES IDX 59 92 56 93 52 94 53 95 54 96 55 97
REMARK H PARENT 16 5 9 10 12 13 12 14 89 21 20 31 79 50 47 61
REMARK Flexibility Score: inf
ROOT
ATOM      1  C   UNL A   1      33.069  29.480  26.057  1.00  0.00     0.118 C 
ENDROOT
BRANCH   1   2
ATOM      2  N   UNL A   1      33.313  29.471  24.622  1.00  0.00    -0.351 N 
ATOM      3  C   UNL A   1      32.864  28.609  23.653  1.00  0.00     0.284 C 
ATOM      4  O   UNL A   1      32.948  28.988  22.481  1.00  0.00    -0.268 OA
ATOM      5  H   UNL A   1      33.890  30.198  24.294  1.00  0.00     0.163 HD
BRANCH   3   6
ATOM      6  C   UNL A   1      32.381  27.188  24.017  1.00  0.00     0.328 C 
ATOM      7  N   UNL A   1      33.072  24.701  23.795  1.00  0.00    -0.320 N 
ATOM      8  C   UNL A   1      31.693  24.455  23.362  1.00  0.00     0.324 C 
ATOM      9  C   UNL A   1      33.466  26.125  23.649  1.00  0.00     0.339 C 
ATOM     10  H   UNL A   1      33.654  24.184  23.136  1.00  0.00     0.348 HD
ATOM     11  C   UNL A   1      30.667  25.529  23.765  1.00  0.00     0.323 C 
ATOM     12  N   UNL A   1      31.085  26.872  23.356  1.00  0.00    -0.327 N 
ATOM     13  H   UNL A   1      30.380  27.553  23.638  1.00  0.00     0.347 HD
ATOM     14  H   UNL A   1      31.193  26.910  22.343  1.00  0.00     0.347 HD
BRANCH   7  15
ATOM     15  C   UNL A   1      33.436  24.094  25.087  1.00  0.00     0.323 C 
BRANCH  15  16
ATOM     16  C   UNL A   1      34.212  22.825  24.986  1.00  0.00     0.132 A 
ATOM     17  C   UNL A   1      35.970  21.563  25.096  1.00  0.00     0.107 A 
ATOM     18  N   UNL A   1      35.589  22.825  25.120  1.00  0.00    -0.231 NA
ATOM     19  N   UNL A   1      34.889  20.743  24.864  1.00  0.00    -0.333 N 
ATOM     20  C   UNL A   1      33.789  21.537  24.781  1.00  0.00     0.135 A 
ATOM     21  H   UNL A   1      34.909  19.763  24.775  1.00  0.00     0.169 HD
ATOM     22  Cl  UNL A   1      32.276  20.816  24.548  1.00  0.00    -0.062 Cl
BRANCH  17  23
ATOM     23  C   UNL A   1      37.336  21.010  25.344  1.00  0.00     0.075 C 
BRANCH  23  24
ATOM     24  C   UNL A   1      38.407  22.066  25.638  1.00  0.00     0.008 C 
BRANCH  24  25
ATOM     25  C   UNL A   1      39.599  21.598  26.483  1.00  0.00    -0.003 C 
ATOM     26  C   UNL A   1      40.161  20.267  26.023  1.00  0.00     0.004 C 
ENDBRANCH  24  25
ENDBRANCH  23  24
ENDBRANCH  17  23
ENDBRANCH  15  16
ENDBRANCH   7  15
ENDBRANCH   3   6
ENDBRANCH   1   2
BRANCH   1  27
ATOM     27  C   UNL A   1      34.002  28.605  26.897  1.00  0.00     0.042 C 
BRANCH  27  28
ATOM     28  C   UNL A   1      35.316  29.303  27.230  1.00  0.00     0.118 C 
BRANCH  28  29
ATOM     29  N   UNL A   1      35.348  29.864  28.579  1.00  0.00    -0.352 N 
ATOM     30  C   UNL A   1      36.278  29.690  29.585  1.00  0.00     0.251 C 
ATOM     31  H   UNL A   1      34.594  30.456  28.804  1.00  0.00     0.163 HD
ATOM     32  O   UNL A   1      35.978  29.983  30.736  1.00  0.00    -0.269 OA
BRANCH  30  33
ATOM     33  C   UNL A   1      37.621  29.151  29.277  1.00  0.00     0.039 A 
ATOM     34  C   UNL A   1      38.315  29.567  28.134  1.00  0.00     0.014 A 
ATOM     35  C   UNL A   1      38.173  28.183  30.112  1.00  0.00     0.014 A 
ATOM     36  C   UNL A   1      39.580  29.037  27.873  1.00  0.00     0.010 A 
ATOM     37  C   UNL A   1      39.471  27.773  29.939  1.00  0.00     0.010 A 
ATOM     38  C   UNL A   1      40.150  28.139  28.786  1.00  0.00    -0.014 A 
BRANCH  38  39
ATOM     39  C   UNL A   1      41.524  27.664  28.645  1.00  0.00     0.031 A 
ATOM     40  C   UNL A   1      41.619  26.374  27.913  1.00  0.00     0.074 A 
ATOM     41  C   UNL A   1      42.593  28.459  28.883  1.00  0.00     0.049 A 
ATOM     42  N   UNL A   1      41.940  25.214  28.380  1.00  0.00    -0.248 NA
ATOM     43  C   UNL A   1      41.081  26.324  26.539  1.00  0.00     0.031 C 
ATOM     44  C   UNL A   1      42.590  29.871  29.284  1.00  0.00     0.029 A 
ATOM     45  N   UNL A   1      43.920  28.215  28.695  1.00  0.00    -0.354 N 
ATOM     46  C   UNL A   1      41.926  24.355  27.284  1.00  0.00     0.074 A 
ATOM     47  C   UNL A   1      41.127  25.015  26.293  1.00  0.00     0.031 C 
ATOM     48  C   UNL A   1      43.814  30.407  29.079  1.00  0.00     0.029 A 
ATOM     49  C   UNL A   1      44.729  29.355  28.669  1.00  0.00     0.049 A 
ATOM     50  H   UNL A   1      44.281  27.306  28.585  1.00  0.00     0.167 HD
ATOM     51  C   UNL A   1      42.833  23.342  27.176  1.00  0.00     0.034 A 
ATOM     52  C   UNL A   1      46.041  29.434  28.299  1.00  0.00     0.034 A 
ATOM     53  C   UNL A   1      43.463  23.095  28.461  1.00  0.00     0.049 A 
ATOM     54  C   UNL A   1      46.584  28.052  28.384  1.00  0.00     0.074 A 
ATOM     55  C   UNL A   1      42.991  22.789  29.724  1.00  0.00     0.029 A 
ATOM     56  N   UNL A   1      44.745  23.567  28.658  1.00  0.00    -0.354 N 
ATOM     57  N   UNL A   1      46.691  27.396  29.507  1.00  0.00    -0.248 NA
ATOM     58  C   UNL A   1      46.509  27.224  27.189  1.00  0.00     0.031 C 
ATOM     59  C   UNL A   1      43.789  23.569  30.613  1.00  0.00     0.029 A 
ATOM     60  C   UNL A   1      44.776  24.216  29.867  1.00  0.00     0.049 A 
ATOM     61  H   UNL A   1      45.503  23.459  28.039  1.00  0.00     0.167 HD
ATOM     62  C   UNL A   1      46.252  26.113  29.215  1.00  0.00     0.074 A 
ATOM     63  C   UNL A   1      46.239  26.043  27.754  1.00  0.00     0.031 C 
ATOM     64  C   UNL A   1      45.653  25.335  30.168  1.00  0.00     0.034 A 
BRANCH  51  65
ATOM     65  C   UNL A   1      43.465  22.881  25.868  1.00  0.00     0.023 A 
ATOM     66  C   UNL A   1      43.610  21.490  25.702  1.00  0.00     0.031 A 
ATOM     67  C   UNL A   1      44.172  23.673  24.935  1.00  0.00     0.131 A 
ATOM     68  C   UNL A   1      44.537  20.958  24.791  1.00  0.00     0.055 A 
ATOM     69  C   UNL A   1      45.049  23.136  23.986  1.00  0.00     0.041 A 
ATOM     70  F   UNL A   1      44.120  25.007  24.909  1.00  0.00    -0.206 F 
ATOM     71  C   UNL A   1      45.271  21.773  23.937  1.00  0.00     0.022 A 
BRANCH  68  72
ATOM     72  S   UNL A   1      44.904  19.190  24.890  1.00  0.00     0.124 S 
ATOM     73  O   UNL A   1      43.815  18.722  25.742  1.00  0.00    -0.237 OA
ATOM     74  O   UNL A   1      44.842  18.795  23.487  1.00  0.00    -0.237 OA
ATOM     75  O   UNL A   1      46.233  19.154  25.492  1.00  0.00    -0.744 OA
ENDBRANCH  68  72
ENDBRANCH  51  65
BRANCH  52  76
ATOM     76  C   UNL A   1      46.736  30.545  27.573  1.00  0.00     0.023 A 
ATOM     77  C   UNL A   1      46.059  31.622  26.951  1.00  0.00     0.031 A 
ATOM     78  C   UNL A   1      48.137  30.683  27.704  1.00  0.00     0.131 A 
ATOM     79  C   UNL A   1      46.779  32.758  26.493  1.00  0.00     0.055 A 
ATOM     80  C   UNL A   1      48.840  31.804  27.253  1.00  0.00     0.041 A 
ATOM     81  F   UNL A   1      48.867  29.766  28.357  1.00  0.00    -0.206 F 
ATOM     82  C   UNL A   1      48.163  32.852  26.654  1.00  0.00     0.022 A 
BRANCH  79  83
ATOM     83  S   UNL A   1      45.919  34.190  25.749  1.00  0.00     0.124 S 
ATOM     84  O   UNL A   1      45.201  34.751  26.887  1.00  0.00    -0.237 OA
ATOM     85  O   UNL A   1      47.023  34.984  25.221  1.00  0.00    -0.237 OA
ATOM     86  O   UNL A   1      45.063  33.585  24.726  1.00  0.00    -0.744 OA
ENDBRANCH  79  83
ENDBRANCH  52  76
BRANCH  64  87
ATOM     87  C   UNL A   1      45.747  25.762  31.622  1.00  0.00     0.023 A 
ATOM     88  C   UNL A   1      46.858  25.551  32.472  1.00  0.00     0.031 A 
ATOM     89  C   UNL A   1      44.684  26.534  32.123  1.00  0.00     0.131 A 
ATOM     90  C   UNL A   1      46.865  26.100  33.773  1.00  0.00     0.055 A 
ATOM     91  C   UNL A   1      44.706  27.096  33.398  1.00  0.00     0.041 A 
ATOM     92  F   UNL A   1      43.609  26.792  31.359  1.00  0.00    -0.206 F 
ATOM     93  C   UNL A   1      45.796  26.875  34.231  1.00  0.00     0.022 A 
BRANCH  90  94
ATOM     94  S   UNL A   1      48.257  25.799  34.913  1.00  0.00     0.124 S 
ATOM     95  O   UNL A   1      47.627  25.168  36.066  1.00  0.00    -0.237 OA
ATOM     96  O   UNL A   1      49.138  24.947  34.119  1.00  0.00    -0.237 OA
ATOM     97  O   UNL A   1      48.784  27.143  35.167  1.00  0.00    -0.744 OA
ENDBRANCH  90  94
ENDBRANCH  64  87
ENDBRANCH  38  39
ENDBRANCH  30  33
ENDBRANCH  28  29
ENDBRANCH  27  28
ENDBRANCH   1  27
TORSDOF 18
ENDMDL
