MODEL 1
REMARK VINA RESULT:     -12.7      0.000      0.000
REMARK SMILES CC(=O)Nc1cccc(-c2ccc(F)c(C(=O)NCCCNC(=O)c3ccc(-c4c5nc(c(-c6cc(S(=O)(=O)[O-])ccc6F)c6ccc([nH]6)c(-c6cc(S(=O)(=O)[O-])ccc6F)c6nc(c(-c7cc(S(=O)(=O)[O-])ccc7F)c7ccc4[nH]7)C=C6)C=C5)cc3)c2)c1
REMARK SMILES IDX 20 1 19 2 18 3 16 4 17 5 15 7 10 8 11 9 88 10 12 11 13 12
REMARK SMILES IDX 14 13 9 14 5 15 6 16 89 17 7 18 8 19 4 20 1 21 2 22 3 23
REMARK SMILES IDX 21 25 22 26 23 27 24 29 25 30 26 31 87 32 27 33 86 34 28 35
REMARK SMILES IDX 29 36 30 37 80 38 31 39 85 40 79 41 81 42 32 43 84 44 78 45
REMARK SMILES IDX 77 46 33 48 65 49 45 50 64 51 46 52 49 53 63 54 82 55 47 56
REMARK SMILES IDX 48 57 62 59 83 60 50 61 34 62 35 63 43 64 36 65 42 66 44 67
REMARK SMILES IDX 41 68 37 69 38 70 39 71 40 72 66 73 67 74 75 75 68 76 74 77
REMARK SMILES IDX 76 78 73 79 69 80 70 81 71 82 72 83 51 84 52 85 60 86 53 87
REMARK SMILES IDX 59 88 61 89 58 90 54 91 55 92 56 93 57 94
REMARK H PARENT 18 6 4 24 22 28 81 47 49 58
REMARK Flexibility Score: inf
ROOT
ATOM      1  C   UNL A   1      31.903  29.320  27.087  1.00  0.00     0.042 C 
ENDROOT
BRANCH   1   2
ATOM      2  C   UNL A   1      32.220  27.836  27.286  1.00  0.00     0.118 C 
BRANCH   2   3
ATOM      3  N   UNL A   1      31.074  26.990  26.992  1.00  0.00    -0.352 N 
ATOM      4  C   UNL A   1      30.788  26.003  26.080  1.00  0.00     0.254 C 
ATOM      5  O   UNL A   1      29.677  25.484  26.208  1.00  0.00    -0.269 OA
ATOM      6  H   UNL A   1      30.317  27.169  27.594  1.00  0.00     0.163 HD
BRANCH   4   7
ATOM      7  C   UNL A   1      31.703  25.526  25.000  1.00  0.00     0.076 A 
ATOM      8  C   UNL A   1      33.279  23.910  24.008  1.00  0.00    -0.017 A 
ATOM      9  C   UNL A   1      33.382  24.701  22.863  1.00  0.00     0.012 A 
ATOM     10  C   UNL A   1      32.470  24.363  25.075  1.00  0.00     0.025 A 
ATOM     11  C   UNL A   1      32.671  25.897  22.784  1.00  0.00     0.041 A 
ATOM     12  C   UNL A   1      31.835  26.293  23.834  1.00  0.00     0.135 A 
ATOM     13  F   UNL A   1      31.172  27.449  23.670  1.00  0.00    -0.206 F 
BRANCH   8  14
ATOM     14  C   UNL A   1      34.007  22.642  24.174  1.00  0.00    -0.016 A 
ATOM     15  C   UNL A   1      33.978  20.296  24.874  1.00  0.00     0.041 A 
ATOM     16  C   UNL A   1      35.375  20.322  24.933  1.00  0.00     0.026 A 
ATOM     17  C   UNL A   1      33.306  21.457  24.489  1.00  0.00     0.034 A 
ATOM     18  C   UNL A   1      36.086  21.464  24.559  1.00  0.00     0.003 A 
ATOM     19  C   UNL A   1      35.406  22.617  24.175  1.00  0.00     0.009 A 
BRANCH  15  20
ATOM     20  N   UNL A   1      33.347  19.118  25.307  1.00  0.00    -0.326 N 
ATOM     21  C   UNL A   1      32.790  17.978  23.157  1.00  0.00     0.114 C 
ATOM     22  C   UNL A   1      32.694  18.117  24.650  1.00  0.00     0.221 C 
ATOM     23  O   UNL A   1      32.068  17.285  25.310  1.00  0.00    -0.275 OA
ATOM     24  H   UNL A   1      33.382  18.988  26.283  1.00  0.00     0.169 HD
ENDBRANCH  15  20
ENDBRANCH   8  14
ENDBRANCH   4   7
ENDBRANCH   2   3
ENDBRANCH   1   2
BRANCH   1  25
ATOM     25  C   UNL A   1      33.020  30.088  26.375  1.00  0.00     0.118 C 
BRANCH  25  26
ATOM     26  N   UNL A   1      33.067  31.482  26.795  1.00  0.00    -0.352 N 
ATOM     27  C   UNL A   1      33.866  32.132  27.700  1.00  0.00     0.251 C 
ATOM     28  H   UNL A   1      32.406  32.060  26.351  1.00  0.00     0.163 HD
ATOM     29  O   UNL A   1      33.501  33.234  28.106  1.00  0.00    -0.269 OA
BRANCH  27  30
ATOM     30  C   UNL A   1      35.147  31.558  28.172  1.00  0.00     0.039 A 
ATOM     31  C   UNL A   1      35.151  30.239  28.639  1.00  0.00     0.014 A 
ATOM     32  C   UNL A   1      36.307  32.329  28.275  1.00  0.00     0.014 A 
ATOM     33  C   UNL A   1      36.313  29.694  29.192  1.00  0.00     0.010 A 
ATOM     34  C   UNL A   1      37.488  31.759  28.752  1.00  0.00     0.010 A 
ATOM     35  C   UNL A   1      37.495  30.447  29.246  1.00  0.00    -0.014 A 
BRANCH  35  36
ATOM     36  C   UNL A   1      38.725  29.897  29.876  1.00  0.00     0.031 A 
ATOM     37  C   UNL A   1      39.140  30.364  31.248  1.00  0.00     0.074 A 
ATOM     38  C   UNL A   1      39.480  29.007  29.204  1.00  0.00     0.049 A 
ATOM     39  N   UNL A   1      40.198  30.045  31.950  1.00  0.00    -0.248 NA
ATOM     40  C   UNL A   1      38.264  31.348  31.901  1.00  0.00     0.031 C 
ATOM     41  C   UNL A   1      39.204  28.516  27.852  1.00  0.00     0.029 A 
ATOM     42  N   UNL A   1      40.635  28.359  29.562  1.00  0.00    -0.354 N 
ATOM     43  C   UNL A   1      40.126  30.806  33.114  1.00  0.00     0.074 A 
ATOM     44  C   UNL A   1      38.956  31.649  32.989  1.00  0.00     0.031 C 
ATOM     45  C   UNL A   1      40.145  27.622  27.508  1.00  0.00     0.029 A 
ATOM     46  C   UNL A   1      41.110  27.502  28.596  1.00  0.00     0.049 A 
ATOM     47  H   UNL A   1      41.081  28.495  30.429  1.00  0.00     0.167 HD
ATOM     48  C   UNL A   1      40.944  30.784  34.197  1.00  0.00     0.034 A 
ATOM     49  C   UNL A   1      42.201  26.711  28.590  1.00  0.00     0.034 A 
ATOM     50  C   UNL A   1      42.091  29.917  34.313  1.00  0.00     0.049 A 
ATOM     51  C   UNL A   1      43.079  26.683  29.816  1.00  0.00     0.074 A 
ATOM     52  C   UNL A   1      42.964  29.772  35.377  1.00  0.00     0.029 A 
ATOM     53  N   UNL A   1      42.523  29.038  33.326  1.00  0.00    -0.354 N 
ATOM     54  N   UNL A   1      42.973  27.376  30.926  1.00  0.00    -0.248 NA
ATOM     55  C   UNL A   1      44.212  25.750  29.791  1.00  0.00     0.031 C 
ATOM     56  C   UNL A   1      43.953  28.851  35.014  1.00  0.00     0.029 A 
ATOM     57  C   UNL A   1      43.659  28.364  33.750  1.00  0.00     0.049 A 
ATOM     58  H   UNL A   1      42.088  28.914  32.452  1.00  0.00     0.167 HD
ATOM     59  C   UNL A   1      44.009  26.937  31.746  1.00  0.00     0.074 A 
ATOM     60  C   UNL A   1      44.710  25.906  31.008  1.00  0.00     0.031 C 
ATOM     61  C   UNL A   1      44.352  27.347  32.995  1.00  0.00     0.034 A 
BRANCH  48  62
ATOM     62  C   UNL A   1      40.630  31.744  35.324  1.00  0.00     0.023 A 
ATOM     63  C   UNL A   1      39.553  31.526  36.202  1.00  0.00     0.031 A 
ATOM     64  C   UNL A   1      41.388  32.915  35.497  1.00  0.00     0.131 A 
ATOM     65  C   UNL A   1      39.212  32.502  37.151  1.00  0.00     0.055 A 
ATOM     66  C   UNL A   1      41.098  33.840  36.502  1.00  0.00     0.041 A 
ATOM     67  F   UNL A   1      42.417  33.191  34.679  1.00  0.00    -0.206 F 
ATOM     68  C   UNL A   1      39.993  33.647  37.325  1.00  0.00     0.022 A 
BRANCH  65  69
ATOM     69  S   UNL A   1      37.644  32.327  38.048  1.00  0.00     0.124 S 
ATOM     70  O   UNL A   1      38.005  32.831  39.370  1.00  0.00    -0.237 OA
ATOM     71  O   UNL A   1      36.740  33.165  37.269  1.00  0.00    -0.237 OA
ATOM     72  O   UNL A   1      37.373  30.892  37.987  1.00  0.00    -0.744 OA
ENDBRANCH  65  69
ENDBRANCH  48  62
BRANCH  49  73
ATOM     73  C   UNL A   1      42.520  25.872  27.401  1.00  0.00     0.023 A 
ATOM     74  C   UNL A   1      42.093  24.536  27.324  1.00  0.00     0.031 A 
ATOM     75  C   UNL A   1      43.289  26.380  26.341  1.00  0.00     0.131 A 
ATOM     76  C   UNL A   1      42.481  23.739  26.236  1.00  0.00     0.055 A 
ATOM     77  C   UNL A   1      43.629  25.598  25.235  1.00  0.00     0.041 A 
ATOM     78  F   UNL A   1      43.714  27.654  26.359  1.00  0.00    -0.206 F 
ATOM     79  C   UNL A   1      43.236  24.264  25.185  1.00  0.00     0.022 A 
BRANCH  76  80
ATOM     80  S   UNL A   1      42.051  21.977  26.254  1.00  0.00     0.124 S 
ATOM     81  O   UNL A   1      42.853  21.463  25.149  1.00  0.00    -0.237 OA
ATOM     82  O   UNL A   1      42.472  21.577  27.592  1.00  0.00    -0.237 OA
ATOM     83  O   UNL A   1      40.607  21.977  26.030  1.00  0.00    -0.744 OA
ENDBRANCH  76  80
ENDBRANCH  49  73
BRANCH  61  84
ATOM     84  C   UNL A   1      45.514  26.637  33.646  1.00  0.00     0.023 A 
ATOM     85  C   UNL A   1      45.327  25.502  34.453  1.00  0.00     0.031 A 
ATOM     86  C   UNL A   1      46.822  27.130  33.489  1.00  0.00     0.131 A 
ATOM     87  C   UNL A   1      46.418  24.941  35.133  1.00  0.00     0.055 A 
ATOM     88  C   UNL A   1      47.913  26.527  34.115  1.00  0.00     0.041 A 
ATOM     89  F   UNL A   1      47.059  28.213  32.731  1.00  0.00    -0.206 F 
ATOM     90  C   UNL A   1      47.713  25.437  34.957  1.00  0.00     0.022 A 
BRANCH  87  91
ATOM     91  S   UNL A   1      46.103  23.632  36.348  1.00  0.00     0.124 S 
ATOM     92  O   UNL A   1      45.695  22.519  35.498  1.00  0.00    -0.237 OA
ATOM     93  O   UNL A   1      47.402  23.494  36.999  1.00  0.00    -0.237 OA
ATOM     94  O   UNL A   1      45.046  24.190  37.189  1.00  0.00    -0.744 OA
ENDBRANCH  87  91
ENDBRANCH  61  84
ENDBRANCH  35  36
ENDBRANCH  27  30
ENDBRANCH  25  26
ENDBRANCH   1  25
TORSDOF 15
ENDMDL
MODEL 2
REMARK VINA RESULT:     -12.7      1.436      1.708
REMARK SMILES CC(=O)Nc1cccc(-c2ccc(F)c(C(=O)NCCCNC(=O)c3ccc(-c4c5nc(c(-c6cc(S(=O)(=O)[O-])ccc6F)c6ccc([nH]6)c(-c6cc(S(=O)(=O)[O-])ccc6F)c6nc(c(-c7cc(S(=O)(=O)[O-])ccc7F)c7ccc4[nH]7)C=C6)C=C5)cc3)c2)c1
REMARK SMILES IDX 20 1 19 2 18 3 16 4 17 5 15 7 10 8 11 9 88 10 12 11 13 12
REMARK SMILES IDX 14 13 9 14 5 15 6 16 89 17 7 18 8 19 4 20 1 21 2 22 3 23
REMARK SMILES IDX 21 25 22 26 23 27 24 29 25 30 26 31 87 32 27 33 86 34 28 35
REMARK SMILES IDX 29 36 30 37 80 38 31 39 85 40 79 41 81 42 32 43 84 44 78 45
REMARK SMILES IDX 77 46 33 48 65 49 45 50 64 51 46 52 49 53 63 54 82 55 47 56
REMARK SMILES IDX 48 57 62 59 83 60 50 61 34 62 35 63 43 64 36 65 42 66 44 67
REMARK SMILES IDX 41 68 37 69 38 70 39 71 40 72 66 73 67 74 75 75 68 76 74 77
REMARK SMILES IDX 76 78 73 79 69 80 70 81 71 82 72 83 51 84 52 85 60 86 53 87
REMARK SMILES IDX 59 88 61 89 58 90 54 91 55 92 56 93 57 94
REMARK H PARENT 18 6 4 24 22 28 81 47 49 58
REMARK Flexibility Score: inf
ROOT
ATOM      1  C   UNL A   1      31.555  29.277  26.539  1.00  0.00     0.042 C 
ENDROOT
BRANCH   1   2
ATOM      2  C   UNL A   1      31.989  27.959  27.185  1.00  0.00     0.118 C 
BRANCH   2   3
ATOM      3  N   UNL A   1      31.022  26.897  26.960  1.00  0.00    -0.352 N 
ATOM      4  C   UNL A   1      30.939  25.798  26.141  1.00  0.00     0.254 C 
ATOM      5  O   UNL A   1      29.937  25.100  26.307  1.00  0.00    -0.269 OA
ATOM      6  H   UNL A   1      30.230  26.989  27.537  1.00  0.00     0.163 HD
BRANCH   4   7
ATOM      7  C   UNL A   1      31.951  25.401  25.115  1.00  0.00     0.076 A 
ATOM      8  C   UNL A   1      33.620  23.861  24.154  1.00  0.00    -0.017 A 
ATOM      9  C   UNL A   1      33.819  24.734  23.083  1.00  0.00     0.012 A 
ATOM     10  C   UNL A   1      32.716  24.235  25.174  1.00  0.00     0.025 A 
ATOM     11  C   UNL A   1      33.110  25.933  23.028  1.00  0.00     0.041 A 
ATOM     12  C   UNL A   1      32.181  26.251  24.024  1.00  0.00     0.135 A 
ATOM     13  F   UNL A   1      31.528  27.415  23.886  1.00  0.00    -0.206 F 
BRANCH   8  14
ATOM     14  C   UNL A   1      34.338  22.585  24.292  1.00  0.00    -0.016 A 
ATOM     15  C   UNL A   1      34.294  20.226  24.945  1.00  0.00     0.041 A 
ATOM     16  C   UNL A   1      35.691  20.240  25.001  1.00  0.00     0.026 A 
ATOM     17  C   UNL A   1      33.629  21.400  24.586  1.00  0.00     0.034 A 
ATOM     18  C   UNL A   1      36.410  21.384  24.647  1.00  0.00     0.003 A 
ATOM     19  C   UNL A   1      35.737  22.550  24.288  1.00  0.00     0.009 A 
BRANCH  15  20
ATOM     20  N   UNL A   1      33.654  19.044  25.358  1.00  0.00    -0.326 N 
ATOM     21  C   UNL A   1      32.532  18.277  23.264  1.00  0.00     0.114 C 
ATOM     22  C   UNL A   1      32.776  18.200  24.744  1.00  0.00     0.221 C 
ATOM     23  O   UNL A   1      32.227  17.326  25.418  1.00  0.00    -0.275 OA
ATOM     24  H   UNL A   1      33.887  18.770  26.274  1.00  0.00     0.169 HD
ENDBRANCH  15  20
ENDBRANCH   8  14
ENDBRANCH   4   7
ENDBRANCH   2   3
ENDBRANCH   1   2
BRANCH   1  25
ATOM     25  C   UNL A   1      32.721  30.078  25.951  1.00  0.00     0.118 C 
BRANCH  25  26
ATOM     26  N   UNL A   1      32.657  31.482  26.335  1.00  0.00    -0.352 N 
ATOM     27  C   UNL A   1      33.337  32.196  27.287  1.00  0.00     0.251 C 
ATOM     28  H   UNL A   1      32.008  32.012  25.820  1.00  0.00     0.163 HD
ATOM     29  O   UNL A   1      32.879  33.285  27.630  1.00  0.00    -0.269 OA
BRANCH  27  30
ATOM     30  C   UNL A   1      34.600  31.704  27.884  1.00  0.00     0.039 A 
ATOM     31  C   UNL A   1      34.649  30.381  28.339  1.00  0.00     0.014 A 
ATOM     32  C   UNL A   1      35.686  32.551  28.113  1.00  0.00     0.014 A 
ATOM     33  C   UNL A   1      35.783  29.909  29.005  1.00  0.00     0.010 A 
ATOM     34  C   UNL A   1      36.850  32.057  28.704  1.00  0.00     0.010 A 
ATOM     35  C   UNL A   1      36.898  30.741  29.186  1.00  0.00    -0.014 A 
BRANCH  35  36
ATOM     36  C   UNL A   1      38.092  30.268  29.935  1.00  0.00     0.031 A 
ATOM     37  C   UNL A   1      38.308  30.708  31.361  1.00  0.00     0.074 A 
ATOM     38  C   UNL A   1      38.993  29.473  29.326  1.00  0.00     0.049 A 
ATOM     39  N   UNL A   1      39.305  30.447  32.170  1.00  0.00    -0.248 NA
ATOM     40  C   UNL A   1      37.282  31.587  31.941  1.00  0.00     0.031 C 
ATOM     41  C   UNL A   1      38.914  29.020  27.935  1.00  0.00     0.029 A 
ATOM     42  N   UNL A   1      40.152  28.908  29.793  1.00  0.00    -0.354 N 
ATOM     43  C   UNL A   1      39.036  31.148  33.342  1.00  0.00     0.074 A 
ATOM     44  C   UNL A   1      37.819  31.896  33.112  1.00  0.00     0.031 C 
ATOM     45  C   UNL A   1      39.962  28.223  27.673  1.00  0.00     0.029 A 
ATOM     46  C   UNL A   1      40.806  28.136  28.859  1.00  0.00     0.049 A 
ATOM     47  H   UNL A   1      40.485  29.043  30.709  1.00  0.00     0.167 HD
ATOM     48  C   UNL A   1      39.726  31.147  34.511  1.00  0.00     0.034 A 
ATOM     49  C   UNL A   1      41.955  27.438  28.954  1.00  0.00     0.034 A 
ATOM     50  C   UNL A   1      40.924  30.373  34.730  1.00  0.00     0.049 A 
ATOM     51  C   UNL A   1      42.689  27.431  30.271  1.00  0.00     0.074 A 
ATOM     52  C   UNL A   1      41.681  30.256  35.883  1.00  0.00     0.029 A 
ATOM     53  N   UNL A   1      41.539  29.577  33.771  1.00  0.00    -0.354 N 
ATOM     54  N   UNL A   1      42.398  28.063  31.384  1.00  0.00    -0.248 NA
ATOM     55  C   UNL A   1      43.894  26.596  30.346  1.00  0.00     0.031 C 
ATOM     56  C   UNL A   1      42.781  29.436  35.605  1.00  0.00     0.029 A 
ATOM     57  C   UNL A   1      42.674  28.981  34.300  1.00  0.00     0.049 A 
ATOM     58  H   UNL A   1      41.217  29.455  32.849  1.00  0.00     0.167 HD
ATOM     59  C   UNL A   1      43.370  27.676  32.303  1.00  0.00     0.074 A 
ATOM     60  C   UNL A   1      44.236  26.739  31.617  1.00  0.00     0.031 C 
ATOM     61  C   UNL A   1      43.534  28.059  33.596  1.00  0.00     0.034 A 
BRANCH  48  62
ATOM     62  C   UNL A   1      39.205  32.029  35.626  1.00  0.00     0.023 A 
ATOM     63  C   UNL A   1      39.597  33.374  35.749  1.00  0.00     0.031 A 
ATOM     64  C   UNL A   1      38.340  31.507  36.603  1.00  0.00     0.131 A 
ATOM     65  C   UNL A   1      39.197  34.122  36.867  1.00  0.00     0.055 A 
ATOM     66  C   UNL A   1      37.875  32.284  37.667  1.00  0.00     0.041 A 
ATOM     67  F   UNL A   1      37.945  30.224  36.553  1.00  0.00    -0.206 F 
ATOM     68  C   UNL A   1      38.317  33.595  37.814  1.00  0.00     0.022 A 
BRANCH  65  69
ATOM     69  S   UNL A   1      39.969  35.740  37.146  1.00  0.00     0.124 S 
ATOM     70  O   UNL A   1      41.369  35.370  37.330  1.00  0.00    -0.237 OA
ATOM     71  O   UNL A   1      39.653  36.457  35.916  1.00  0.00    -0.237 OA
ATOM     72  O   UNL A   1      39.299  36.237  38.347  1.00  0.00    -0.744 OA
ENDBRANCH  65  69
ENDBRANCH  48  62
BRANCH  49  73
ATOM     73  C   UNL A   1      42.477  26.681  27.782  1.00  0.00     0.023 A 
ATOM     74  C   UNL A   1      42.147  25.329  27.590  1.00  0.00     0.031 A 
ATOM     75  C   UNL A   1      43.345  27.285  26.857  1.00  0.00     0.131 A 
ATOM     76  C   UNL A   1      42.722  24.612  26.529  1.00  0.00     0.055 A 
ATOM     77  C   UNL A   1      43.874  26.581  25.773  1.00  0.00     0.041 A 
ATOM     78  F   UNL A   1      43.684  28.578  26.987  1.00  0.00    -0.206 F 
ATOM     79  C   UNL A   1      43.574  25.232  25.613  1.00  0.00     0.022 A 
BRANCH  76  80
ATOM     80  S   UNL A   1      42.403  22.831  26.412  1.00  0.00     0.124 S 
ATOM     81  O   UNL A   1      43.382  22.290  27.348  1.00  0.00    -0.237 OA
ATOM     82  O   UNL A   1      41.006  22.746  26.825  1.00  0.00    -0.237 OA
ATOM     83  O   UNL A   1      42.654  22.532  25.004  1.00  0.00    -0.744 OA
ENDBRANCH  76  80
ENDBRANCH  49  73
BRANCH  61  84
ATOM     84  C   UNL A   1      44.673  27.420  34.353  1.00  0.00     0.023 A 
ATOM     85  C   UNL A   1      44.510  26.210  35.049  1.00  0.00     0.031 A 
ATOM     86  C   UNL A   1      45.927  28.054  34.413  1.00  0.00     0.131 A 
ATOM     87  C   UNL A   1      45.558  25.709  35.835  1.00  0.00     0.055 A 
ATOM     88  C   UNL A   1      46.987  27.516  35.142  1.00  0.00     0.041 A 
ATOM     89  F   UNL A   1      46.139  29.213  33.768  1.00  0.00    -0.206 F 
ATOM     90  C   UNL A   1      46.801  26.346  35.873  1.00  0.00     0.022 A 
BRANCH  87  91
ATOM     91  S   UNL A   1      45.235  24.280  36.905  1.00  0.00     0.124 S 
ATOM     92  O   UNL A   1      46.580  23.912  37.335  1.00  0.00    -0.237 OA
ATOM     93  O   UNL A   1      44.370  24.851  37.932  1.00  0.00    -0.237 OA
ATOM     94  O   UNL A   1      44.586  23.322  36.011  1.00  0.00    -0.744 OA
ENDBRANCH  87  91
ENDBRANCH  61  84
ENDBRANCH  35  36
ENDBRANCH  27  30
ENDBRANCH  25  26
ENDBRANCH   1  25
TORSDOF 15
ENDMDL
MODEL 3
REMARK VINA RESULT:     -12.7      5.168     10.835
REMARK SMILES CC(=O)Nc1cccc(-c2ccc(F)c(C(=O)NCCCNC(=O)c3ccc(-c4c5nc(c(-c6cc(S(=O)(=O)[O-])ccc6F)c6ccc([nH]6)c(-c6cc(S(=O)(=O)[O-])ccc6F)c6nc(c(-c7cc(S(=O)(=O)[O-])ccc7F)c7ccc4[nH]7)C=C6)C=C5)cc3)c2)c1
REMARK SMILES IDX 20 1 19 2 18 3 16 4 17 5 15 7 10 8 11 9 88 10 12 11 13 12
REMARK SMILES IDX 14 13 9 14 5 15 6 16 89 17 7 18 8 19 4 20 1 21 2 22 3 23
REMARK SMILES IDX 21 25 22 26 23 27 24 29 25 30 26 31 87 32 27 33 86 34 28 35
REMARK SMILES IDX 29 36 30 37 80 38 31 39 85 40 79 41 81 42 32 43 84 44 78 45
REMARK SMILES IDX 77 46 33 48 65 49 45 50 64 51 46 52 49 53 63 54 82 55 47 56
REMARK SMILES IDX 48 57 62 59 83 60 50 61 34 62 35 63 43 64 36 65 42 66 44 67
REMARK SMILES IDX 41 68 37 69 38 70 39 71 40 72 66 73 67 74 75 75 68 76 74 77
REMARK SMILES IDX 76 78 73 79 69 80 70 81 71 82 72 83 51 84 52 85 60 86 53 87
REMARK SMILES IDX 59 88 61 89 58 90 54 91 55 92 56 93 57 94
REMARK H PARENT 18 6 4 24 22 28 81 47 49 58
REMARK Flexibility Score: inf
ROOT
ATOM      1  C   UNL A   1      35.127  22.435  26.760  1.00  0.00     0.042 C 
ENDROOT
BRANCH   1   2
ATOM      2  C   UNL A   1      33.932  23.351  26.487  1.00  0.00     0.118 C 
BRANCH   2   3
ATOM      3  N   UNL A   1      34.067  24.064  25.227  1.00  0.00    -0.352 N 
ATOM      4  C   UNL A   1      33.770  25.325  24.772  1.00  0.00     0.254 C 
ATOM      5  O   UNL A   1      34.106  25.551  23.609  1.00  0.00    -0.269 OA
ATOM      6  H   UNL A   1      34.472  23.503  24.526  1.00  0.00     0.163 HD
BRANCH   4   7
ATOM      7  C   UNL A   1      33.109  26.402  25.570  1.00  0.00     0.076 A 
ATOM      8  C   UNL A   1      33.115  28.512  26.846  1.00  0.00    -0.017 A 
ATOM      9  C   UNL A   1      31.735  28.410  27.035  1.00  0.00     0.012 A 
ATOM     10  C   UNL A   1      33.781  27.478  26.150  1.00  0.00     0.025 A 
ATOM     11  C   UNL A   1      31.046  27.316  26.515  1.00  0.00     0.041 A 
ATOM     12  C   UNL A   1      31.724  26.336  25.782  1.00  0.00     0.135 A 
ATOM     13  F   UNL A   1      30.983  25.326  25.302  1.00  0.00    -0.206 F 
BRANCH   8  14
ATOM     14  C   UNL A   1      33.915  29.627  27.374  1.00  0.00    -0.016 A 
ATOM     15  C   UNL A   1      34.115  32.027  27.815  1.00  0.00     0.041 A 
ATOM     16  C   UNL A   1      35.497  31.864  27.942  1.00  0.00     0.026 A 
ATOM     17  C   UNL A   1      33.334  30.904  27.536  1.00  0.00     0.034 A 
ATOM     18  C   UNL A   1      36.081  30.598  27.852  1.00  0.00     0.003 A 
ATOM     19  C   UNL A   1      35.293  29.483  27.576  1.00  0.00     0.009 A 
BRANCH  15  20
ATOM     20  N   UNL A   1      33.622  33.342  27.879  1.00  0.00    -0.326 N 
ATOM     21  C   UNL A   1      34.194  34.021  30.212  1.00  0.00     0.114 C 
ATOM     22  C   UNL A   1      33.498  34.239  28.899  1.00  0.00     0.221 C 
ATOM     23  O   UNL A   1      32.852  35.271  28.704  1.00  0.00    -0.275 OA
ATOM     24  H   UNL A   1      33.301  33.685  27.014  1.00  0.00     0.169 HD
ENDBRANCH  15  20
ENDBRANCH   8  14
ENDBRANCH   4   7
ENDBRANCH   2   3
ENDBRANCH   1   2
BRANCH   1  25
ATOM     25  C   UNL A   1      36.389  22.840  25.993  1.00  0.00     0.118 C 
BRANCH  25  26
ATOM     26  N   UNL A   1      37.436  21.834  26.109  1.00  0.00    -0.352 N 
ATOM     27  C   UNL A   1      38.796  21.947  26.238  1.00  0.00     0.251 C 
ATOM     28  H   UNL A   1      37.108  20.906  26.092  1.00  0.00     0.163 HD
ATOM     29  O   UNL A   1      39.484  20.956  25.999  1.00  0.00    -0.269 OA
BRANCH  27  30
ATOM     30  C   UNL A   1      39.441  23.207  26.673  1.00  0.00     0.039 A 
ATOM     31  C   UNL A   1      39.207  24.366  25.924  1.00  0.00     0.014 A 
ATOM     32  C   UNL A   1      40.361  23.240  27.724  1.00  0.00     0.014 A 
ATOM     33  C   UNL A   1      39.880  25.551  26.236  1.00  0.00     0.010 A 
ATOM     34  C   UNL A   1      40.970  24.442  28.086  1.00  0.00     0.010 A 
ATOM     35  C   UNL A   1      40.762  25.601  27.326  1.00  0.00    -0.014 A 
BRANCH  35  36
ATOM     36  C   UNL A   1      41.521  26.842  27.639  1.00  0.00     0.031 A 
ATOM     37  C   UNL A   1      42.919  27.023  27.104  1.00  0.00     0.074 A 
ATOM     38  C   UNL A   1      40.967  27.784  28.426  1.00  0.00     0.049 A 
ATOM     39  N   UNL A   1      43.763  28.004  27.300  1.00  0.00    -0.248 NA
ATOM     40  C   UNL A   1      43.449  25.936  26.267  1.00  0.00     0.031 C 
ATOM     41  C   UNL A   1      39.640  27.699  29.038  1.00  0.00     0.029 A 
ATOM     42  N   UNL A   1      41.450  28.996  28.849  1.00  0.00    -0.354 N 
ATOM     43  C   UNL A   1      44.929  27.641  26.630  1.00  0.00     0.074 A 
ATOM     44  C   UNL A   1      44.702  26.322  26.082  1.00  0.00     0.031 C 
ATOM     45  C   UNL A   1      39.403  28.824  29.733  1.00  0.00     0.029 A 
ATOM     46  C   UNL A   1      40.571  29.693  29.646  1.00  0.00     0.049 A 
ATOM     47  H   UNL A   1      42.341  29.335  28.605  1.00  0.00     0.167 HD
ATOM     48  C   UNL A   1      46.072  28.355  26.465  1.00  0.00     0.034 A 
ATOM     49  C   UNL A   1      40.696  30.898  30.238  1.00  0.00     0.034 A 
ATOM     50  C   UNL A   1      46.269  29.681  26.998  1.00  0.00     0.049 A 
ATOM     51  C   UNL A   1      41.965  31.682  30.018  1.00  0.00     0.074 A 
ATOM     52  C   UNL A   1      47.362  30.518  26.857  1.00  0.00     0.029 A 
ATOM     53  N   UNL A   1      45.343  30.369  27.774  1.00  0.00    -0.354 N 
ATOM     54  N   UNL A   1      43.040  31.345  29.345  1.00  0.00    -0.248 NA
ATOM     55  C   UNL A   1      42.023  33.020  30.621  1.00  0.00     0.031 C 
ATOM     56  C   UNL A   1      47.122  31.685  27.592  1.00  0.00     0.029 A 
ATOM     57  C   UNL A   1      45.848  31.610  28.133  1.00  0.00     0.049 A 
ATOM     58  H   UNL A   1      44.458  30.024  28.033  1.00  0.00     0.167 HD
ATOM     59  C   UNL A   1      43.892  32.444  29.418  1.00  0.00     0.074 A 
ATOM     60  C   UNL A   1      43.192  33.458  30.180  1.00  0.00     0.031 C 
ATOM     61  C   UNL A   1      45.139  32.603  28.904  1.00  0.00     0.034 A 
BRANCH  48  62
ATOM     62  C   UNL A   1      47.196  27.696  25.695  1.00  0.00     0.023 A 
ATOM     63  C   UNL A   1      47.467  28.026  24.355  1.00  0.00     0.031 A 
ATOM     64  C   UNL A   1      47.980  26.694  26.293  1.00  0.00     0.131 A 
ATOM     65  C   UNL A   1      48.430  27.304  23.634  1.00  0.00     0.055 A 
ATOM     66  C   UNL A   1      48.998  26.039  25.596  1.00  0.00     0.041 A 
ATOM     67  F   UNL A   1      47.759  26.319  27.564  1.00  0.00    -0.206 F 
ATOM     68  C   UNL A   1      49.217  26.329  24.252  1.00  0.00     0.022 A 
BRANCH  65  69
ATOM     69  S   UNL A   1      48.531  27.548  21.839  1.00  0.00     0.124 S 
ATOM     70  O   UNL A   1      47.210  28.096  21.543  1.00  0.00    -0.237 OA
ATOM     71  O   UNL A   1      49.651  28.473  21.709  1.00  0.00    -0.237 OA
ATOM     72  O   UNL A   1      48.771  26.202  21.323  1.00  0.00    -0.744 OA
ENDBRANCH  65  69
ENDBRANCH  48  62
BRANCH  49  73
ATOM     73  C   UNL A   1      39.595  31.443  31.081  1.00  0.00     0.023 A 
ATOM     74  C   UNL A   1      39.599  31.273  32.475  1.00  0.00     0.031 A 
ATOM     75  C   UNL A   1      38.501  32.109  30.502  1.00  0.00     0.131 A 
ATOM     76  C   UNL A   1      38.509  31.717  33.238  1.00  0.00     0.055 A 
ATOM     77  C   UNL A   1      37.441  32.595  31.271  1.00  0.00     0.041 A 
ATOM     78  F   UNL A   1      38.451  32.308  29.175  1.00  0.00    -0.206 F 
ATOM     79  C   UNL A   1      37.435  32.387  32.647  1.00  0.00     0.022 A 
BRANCH  76  80
ATOM     80  S   UNL A   1      38.475  31.331  35.010  1.00  0.00     0.124 S 
ATOM     81  O   UNL A   1      39.738  31.901  35.463  1.00  0.00    -0.237 OA
ATOM     82  O   UNL A   1      37.266  32.022  35.446  1.00  0.00    -0.237 OA
ATOM     83  O   UNL A   1      38.402  29.873  35.039  1.00  0.00    -0.744 OA
ENDBRANCH  76  80
ENDBRANCH  49  73
BRANCH  61  84
ATOM     84  C   UNL A   1      45.795  33.946  29.121  1.00  0.00     0.023 A 
ATOM     85  C   UNL A   1      45.658  34.992  28.193  1.00  0.00     0.031 A 
ATOM     86  C   UNL A   1      46.603  34.165  30.251  1.00  0.00     0.131 A 
ATOM     87  C   UNL A   1      46.376  36.183  28.371  1.00  0.00     0.055 A 
ATOM     88  C   UNL A   1      47.262  35.377  30.458  1.00  0.00     0.041 A 
ATOM     89  F   UNL A   1      46.770  33.200  31.169  1.00  0.00    -0.206 F 
ATOM     90  C   UNL A   1      47.166  36.388  29.506  1.00  0.00     0.022 A 
BRANCH  87  91
ATOM     91  S   UNL A   1      46.364  37.413  27.038  1.00  0.00     0.124 S 
ATOM     92  O   UNL A   1      46.921  36.658  25.922  1.00  0.00    -0.237 OA
ATOM     93  O   UNL A   1      44.947  37.748  26.938  1.00  0.00    -0.237 OA
ATOM     94  O   UNL A   1      47.218  38.483  27.551  1.00  0.00    -0.744 OA
ENDBRANCH  87  91
ENDBRANCH  61  84
ENDBRANCH  35  36
ENDBRANCH  27  30
ENDBRANCH  25  26
ENDBRANCH   1  25
TORSDOF 15
ENDMDL
