MODEL 1
REMARK VINA RESULT:     -11.4      0.000      0.000
REMARK SMILES CCc1ccccc1NC(=O)CCCC(=O)NCCCNC(=O)c1ccc(-c2c3nc(c(-c4cc(S(=O)(=O)[O-])ccc4F)c4ccc([nH]4)c(-c4cc(S(=O)(=O)[O-])ccc4F)c4nc(c(-c5cc(S(=O)(=O)[O-])ccc5F)c5ccc2[nH]5)C=C4)C=C3)cc1
REMARK SMILES IDX 18 1 17 2 15 3 16 4 14 6 13 7 12 8 10 9 9 10 11 12 8 13 3 14
REMARK SMILES IDX 4 15 5 16 7 17 6 18 2 19 1 20 19 21 20 22 21 23 22 24 23 26
REMARK SMILES IDX 24 27 25 28 86 29 26 30 85 31 27 32 28 33 29 34 79 35 30 36
REMARK SMILES IDX 84 37 78 38 80 39 31 40 83 41 77 42 76 43 32 45 64 46 44 47
REMARK SMILES IDX 63 48 45 49 48 50 62 51 81 52 46 53 47 54 61 56 82 57 49 58
REMARK SMILES IDX 33 59 34 60 42 61 35 62 41 63 43 64 40 65 36 66 37 67 38 68
REMARK SMILES IDX 39 69 65 70 66 71 74 72 67 73 73 74 75 75 72 76 68 77 69 78
REMARK SMILES IDX 70 79 71 80 50 81 51 82 59 83 52 84 58 85 60 86 57 87 53 88
REMARK SMILES IDX 54 89 55 90 56 91
REMARK H PARENT 17 5 9 11 21 25 80 44 48 55
REMARK Flexibility Score: inf
ROOT
ATOM      1  C   UNL A   1      31.164  29.783  24.733  1.00  0.00     0.117 C 
ENDROOT
BRANCH   1   2
ATOM      2  N   UNL A   1      30.651  29.774  23.368  1.00  0.00    -0.356 N 
ATOM      3  C   UNL A   1      29.658  29.180  22.671  1.00  0.00     0.220 C 
ATOM      4  O   UNL A   1      29.565  29.559  21.494  1.00  0.00    -0.275 OA
ATOM      5  H   UNL A   1      31.179  30.371  22.789  1.00  0.00     0.163 HD
BRANCH   3   6
ATOM      6  C   UNL A   1      28.589  28.218  23.195  1.00  0.00     0.100 C 
BRANCH   6   7
ATOM      7  C   UNL A   1      28.910  26.876  23.843  1.00  0.00     0.020 C 
BRANCH   7   8
ATOM      8  C   UNL A   1      29.662  25.770  23.116  1.00  0.00     0.101 C 
BRANCH   8   9
ATOM      9  C   UNL A   1      30.611  24.810  23.827  1.00  0.00     0.224 C 
ATOM     10  N   UNL A   1      31.646  25.063  24.666  1.00  0.00    -0.326 N 
ATOM     11  H   UNL A   1      32.167  24.240  24.806  1.00  0.00     0.169 HD
ATOM     12  O   UNL A   1      30.497  23.601  23.551  1.00  0.00    -0.275 OA
BRANCH  10  13
ATOM     13  C   UNL A   1      32.220  26.118  25.405  1.00  0.00     0.044 A 
ATOM     14  C   UNL A   1      33.383  26.767  24.918  1.00  0.00    -0.025 A 
ATOM     15  C   UNL A   1      34.005  27.755  25.719  1.00  0.00     0.006 A 
ATOM     16  C   UNL A   1      33.492  28.122  26.960  1.00  0.00     0.000 A 
ATOM     17  C   UNL A   1      31.730  26.536  26.626  1.00  0.00     0.026 A 
ATOM     18  C   UNL A   1      32.338  27.519  27.411  1.00  0.00     0.002 A 
BRANCH  14  19
ATOM     19  C   UNL A   1      33.938  26.439  23.543  1.00  0.00     0.034 C 
ATOM     20  C   UNL A   1      33.459  27.292  22.375  1.00  0.00     0.009 C 
ENDBRANCH  14  19
ENDBRANCH  10  13
ENDBRANCH   8   9
ENDBRANCH   7   8
ENDBRANCH   6   7
ENDBRANCH   3   6
ENDBRANCH   1   2
BRANCH   1  21
ATOM     21  C   UNL A   1      30.961  31.136  25.402  1.00  0.00     0.042 C 
BRANCH  21  22
ATOM     22  C   UNL A   1      31.947  31.354  26.533  1.00  0.00     0.118 C 
BRANCH  22  23
ATOM     23  N   UNL A   1      31.946  32.728  27.031  1.00  0.00    -0.352 N 
ATOM     24  C   UNL A   1      32.926  33.370  27.765  1.00  0.00     0.251 C 
ATOM     25  H   UNL A   1      31.148  33.264  26.816  1.00  0.00     0.163 HD
ATOM     26  O   UNL A   1      32.732  34.484  28.225  1.00  0.00    -0.269 OA
BRANCH  24  27
ATOM     27  C   UNL A   1      34.192  32.647  28.025  1.00  0.00     0.039 A 
ATOM     28  C   UNL A   1      35.368  33.374  28.219  1.00  0.00     0.014 A 
ATOM     29  C   UNL A   1      34.173  31.265  28.218  1.00  0.00     0.014 A 
ATOM     30  C   UNL A   1      36.496  32.725  28.730  1.00  0.00     0.010 A 
ATOM     31  C   UNL A   1      35.258  30.649  28.830  1.00  0.00     0.010 A 
ATOM     32  C   UNL A   1      36.428  31.374  29.110  1.00  0.00    -0.014 A 
BRANCH  32  33
ATOM     33  C   UNL A   1      37.543  30.699  29.830  1.00  0.00     0.031 A 
ATOM     34  C   UNL A   1      37.784  31.003  31.285  1.00  0.00     0.074 A 
ATOM     35  C   UNL A   1      38.400  29.907  29.151  1.00  0.00     0.049 A 
ATOM     36  N   UNL A   1      38.780  30.642  32.052  1.00  0.00    -0.248 NA
ATOM     37  C   UNL A   1      36.797  31.867  31.954  1.00  0.00     0.031 C 
ATOM     38  C   UNL A   1      38.316  29.590  27.721  1.00  0.00     0.029 A 
ATOM     39  N   UNL A   1      39.525  29.235  29.565  1.00  0.00    -0.354 N 
ATOM     40  C   UNL A   1      38.560  31.263  33.276  1.00  0.00     0.074 A 
ATOM     41  C   UNL A   1      37.366  32.066  33.134  1.00  0.00     0.031 C 
ATOM     42  C   UNL A   1      39.324  28.768  27.388  1.00  0.00     0.029 A 
ATOM     43  C   UNL A   1      40.161  28.538  28.560  1.00  0.00     0.049 A 
ATOM     44  H   UNL A   1      39.848  29.250  30.495  1.00  0.00     0.167 HD
ATOM     45  C   UNL A   1      39.275  31.153  34.423  1.00  0.00     0.034 A 
ATOM     46  C   UNL A   1      41.297  27.811  28.576  1.00  0.00     0.034 A 
ATOM     47  C   UNL A   1      40.428  30.303  34.568  1.00  0.00     0.049 A 
ATOM     48  C   UNL A   1      42.059  27.690  29.873  1.00  0.00     0.074 A 
ATOM     49  C   UNL A   1      41.156  30.029  35.712  1.00  0.00     0.029 A 
ATOM     50  N   UNL A   1      41.022  29.589  33.537  1.00  0.00    -0.354 N 
ATOM     51  N   UNL A   1      41.786  28.221  31.043  1.00  0.00    -0.248 NA
ATOM     52  C   UNL A   1      43.277  26.869  29.854  1.00  0.00     0.031 C 
ATOM     53  C   UNL A   1      42.226  29.200  35.363  1.00  0.00     0.029 A 
ATOM     54  C   UNL A   1      42.128  28.904  34.012  1.00  0.00     0.049 A 
ATOM     55  H   UNL A   1      40.705  29.573  32.605  1.00  0.00     0.167 HD
ATOM     56  C   UNL A   1      42.789  27.778  31.902  1.00  0.00     0.074 A 
ATOM     57  C   UNL A   1      43.654  26.917  31.122  1.00  0.00     0.031 C 
ATOM     58  C   UNL A   1      42.982  28.057  33.215  1.00  0.00     0.034 A 
BRANCH  45  59
ATOM     59  C   UNL A   1      38.833  31.977  35.606  1.00  0.00     0.023 A 
ATOM     60  C   UNL A   1      38.205  31.394  36.721  1.00  0.00     0.031 A 
ATOM     61  C   UNL A   1      39.047  33.367  35.621  1.00  0.00     0.131 A 
ATOM     62  C   UNL A   1      37.757  32.205  37.774  1.00  0.00     0.055 A 
ATOM     63  C   UNL A   1      38.665  34.158  36.705  1.00  0.00     0.041 A 
ATOM     64  F   UNL A   1      39.624  33.980  34.576  1.00  0.00    -0.206 F 
ATOM     65  C   UNL A   1      38.005  33.580  37.786  1.00  0.00     0.022 A 
BRANCH  62  66
ATOM     66  S   UNL A   1      36.750  31.452  39.080  1.00  0.00     0.124 S 
ATOM     67  O   UNL A   1      37.674  31.472  40.211  1.00  0.00    -0.237 OA
ATOM     68  O   UNL A   1      35.614  32.362  39.169  1.00  0.00    -0.237 OA
ATOM     69  O   UNL A   1      36.445  30.123  38.555  1.00  0.00    -0.744 OA
ENDBRANCH  62  66
ENDBRANCH  45  59
BRANCH  46  70
ATOM     70  C   UNL A   1      41.812  27.158  27.336  1.00  0.00     0.023 A 
ATOM     71  C   UNL A   1      41.786  25.762  27.192  1.00  0.00     0.031 A 
ATOM     72  C   UNL A   1      42.408  27.912  26.309  1.00  0.00     0.131 A 
ATOM     73  C   UNL A   1      42.399  25.158  26.083  1.00  0.00     0.055 A 
ATOM     74  C   UNL A   1      42.965  27.311  25.179  1.00  0.00     0.041 A 
ATOM     75  F   UNL A   1      42.459  29.251  26.391  1.00  0.00    -0.206 F 
ATOM     76  C   UNL A   1      42.979  25.924  25.069  1.00  0.00     0.022 A 
BRANCH  73  77
ATOM     77  S   UNL A   1      42.533  23.349  26.044  1.00  0.00     0.124 S 
ATOM     78  O   UNL A   1      43.549  23.103  27.061  1.00  0.00    -0.237 OA
ATOM     79  O   UNL A   1      41.174  22.939  26.383  1.00  0.00    -0.237 OA
ATOM     80  O   UNL A   1      42.944  23.068  24.670  1.00  0.00    -0.744 OA
ENDBRANCH  73  77
ENDBRANCH  46  70
BRANCH  58  81
ATOM     81  C   UNL A   1      44.158  27.397  33.887  1.00  0.00     0.023 A 
ATOM     82  C   UNL A   1      44.019  26.182  34.580  1.00  0.00     0.031 A 
ATOM     83  C   UNL A   1      45.429  27.996  33.843  1.00  0.00     0.131 A 
ATOM     84  C   UNL A   1      45.123  25.628  35.244  1.00  0.00     0.055 A 
ATOM     85  C   UNL A   1      46.536  27.410  34.458  1.00  0.00     0.041 A 
ATOM     86  F   UNL A   1      45.614  29.156  33.195  1.00  0.00    -0.206 F 
ATOM     87  C   UNL A   1      46.384  26.226  35.174  1.00  0.00     0.022 A 
BRANCH  84  88
ATOM     88  S   UNL A   1      44.871  24.154  36.270  1.00  0.00     0.124 S 
ATOM     89  O   UNL A   1      46.228  23.630  36.386  1.00  0.00    -0.237 OA
ATOM     90  O   UNL A   1      44.298  24.714  37.489  1.00  0.00    -0.237 OA
ATOM     91  O   UNL A   1      43.956  23.336  35.476  1.00  0.00    -0.744 OA
ENDBRANCH  84  88
ENDBRANCH  58  81
ENDBRANCH  32  33
ENDBRANCH  24  27
ENDBRANCH  22  23
ENDBRANCH  21  22
ENDBRANCH   1  21
TORSDOF 18
ENDMDL
MODEL 2
REMARK VINA RESULT:     -11.4      2.082      2.701
REMARK SMILES CCc1ccccc1NC(=O)CCCC(=O)NCCCNC(=O)c1ccc(-c2c3nc(c(-c4cc(S(=O)(=O)[O-])ccc4F)c4ccc([nH]4)c(-c4cc(S(=O)(=O)[O-])ccc4F)c4nc(c(-c5cc(S(=O)(=O)[O-])ccc5F)c5ccc2[nH]5)C=C4)C=C3)cc1
REMARK SMILES IDX 18 1 17 2 15 3 16 4 14 6 13 7 12 8 10 9 9 10 11 12 8 13 3 14
REMARK SMILES IDX 4 15 5 16 7 17 6 18 2 19 1 20 19 21 20 22 21 23 22 24 23 26
REMARK SMILES IDX 24 27 25 28 86 29 26 30 85 31 27 32 28 33 29 34 79 35 30 36
REMARK SMILES IDX 84 37 78 38 80 39 31 40 83 41 77 42 76 43 32 45 64 46 44 47
REMARK SMILES IDX 63 48 45 49 48 50 62 51 81 52 46 53 47 54 61 56 82 57 49 58
REMARK SMILES IDX 33 59 34 60 42 61 35 62 41 63 43 64 40 65 36 66 37 67 38 68
REMARK SMILES IDX 39 69 65 70 66 71 74 72 67 73 73 74 75 75 72 76 68 77 69 78
REMARK SMILES IDX 70 79 71 80 50 81 51 82 59 83 52 84 58 85 60 86 57 87 53 88
REMARK SMILES IDX 54 89 55 90 56 91
REMARK H PARENT 17 5 9 11 21 25 80 44 48 55
REMARK Flexibility Score: inf
ROOT
ATOM      1  C   UNL A   1      31.477  29.483  25.170  1.00  0.00     0.117 C 
ENDROOT
BRANCH   1   2
ATOM      2  N   UNL A   1      32.536  29.384  24.173  1.00  0.00    -0.356 N 
ATOM      3  C   UNL A   1      33.401  28.453  23.713  1.00  0.00     0.220 C 
ATOM      4  O   UNL A   1      34.095  28.832  22.758  1.00  0.00    -0.275 OA
ATOM      5  H   UNL A   1      32.655  30.239  23.700  1.00  0.00     0.163 HD
BRANCH   3   6
ATOM      6  C   UNL A   1      33.520  26.989  24.143  1.00  0.00     0.100 C 
BRANCH   6   7
ATOM      7  C   UNL A   1      32.320  26.110  24.476  1.00  0.00     0.020 C 
BRANCH   7   8
ATOM      8  C   UNL A   1      31.970  25.698  25.898  1.00  0.00     0.101 C 
BRANCH   8   9
ATOM      9  C   UNL A   1      32.326  24.330  26.474  1.00  0.00     0.224 C 
ATOM     10  N   UNL A   1      33.310  23.464  26.129  1.00  0.00    -0.326 N 
ATOM     11  H   UNL A   1      33.156  22.596  26.568  1.00  0.00     0.169 HD
ATOM     12  O   UNL A   1      31.561  23.871  27.344  1.00  0.00    -0.275 OA
BRANCH  10  13
ATOM     13  C   UNL A   1      34.483  23.398  25.348  1.00  0.00     0.044 A 
ATOM     14  C   UNL A   1      34.415  22.918  24.016  1.00  0.00    -0.025 A 
ATOM     15  C   UNL A   1      35.615  22.763  23.279  1.00  0.00     0.006 A 
ATOM     16  C   UNL A   1      36.855  23.091  23.821  1.00  0.00     0.000 A 
ATOM     17  C   UNL A   1      35.730  23.739  25.832  1.00  0.00     0.026 A 
ATOM     18  C   UNL A   1      36.911  23.597  25.102  1.00  0.00     0.002 A 
BRANCH  14  19
ATOM     19  C   UNL A   1      33.077  22.609  23.368  1.00  0.00     0.034 C 
ATOM     20  C   UNL A   1      32.497  21.218  23.593  1.00  0.00     0.009 C 
ENDBRANCH  14  19
ENDBRANCH  10  13
ENDBRANCH   8   9
ENDBRANCH   7   8
ENDBRANCH   6   7
ENDBRANCH   3   6
ENDBRANCH   1   2
BRANCH   1  21
ATOM     21  C   UNL A   1      31.267  30.919  25.630  1.00  0.00     0.042 C 
BRANCH  21  22
ATOM     22  C   UNL A   1      32.041  31.219  26.899  1.00  0.00     0.118 C 
BRANCH  22  23
ATOM     23  N   UNL A   1      32.091  32.646  27.209  1.00  0.00    -0.352 N 
ATOM     24  C   UNL A   1      33.127  33.357  27.785  1.00  0.00     0.251 C 
ATOM     25  H   UNL A   1      31.287  33.166  26.979  1.00  0.00     0.163 HD
ATOM     26  O   UNL A   1      32.979  34.526  28.105  1.00  0.00    -0.269 OA
BRANCH  24  27
ATOM     27  C   UNL A   1      34.399  32.647  28.053  1.00  0.00     0.039 A 
ATOM     28  C   UNL A   1      35.575  33.384  28.203  1.00  0.00     0.014 A 
ATOM     29  C   UNL A   1      34.387  31.274  28.300  1.00  0.00     0.014 A 
ATOM     30  C   UNL A   1      36.713  32.758  28.721  1.00  0.00     0.010 A 
ATOM     31  C   UNL A   1      35.482  30.684  28.919  1.00  0.00     0.010 A 
ATOM     32  C   UNL A   1      36.654  31.422  29.153  1.00  0.00    -0.014 A 
BRANCH  32  33
ATOM     33  C   UNL A   1      37.781  30.778  29.882  1.00  0.00     0.031 A 
ATOM     34  C   UNL A   1      38.059  31.157  31.313  1.00  0.00     0.074 A 
ATOM     35  C   UNL A   1      38.617  29.944  29.226  1.00  0.00     0.049 A 
ATOM     36  N   UNL A   1      39.071  30.829  32.074  1.00  0.00    -0.248 NA
ATOM     37  C   UNL A   1      37.094  32.063  31.958  1.00  0.00     0.031 C 
ATOM     38  C   UNL A   1      38.497  29.552  27.818  1.00  0.00     0.029 A 
ATOM     39  N   UNL A   1      39.747  29.287  29.649  1.00  0.00    -0.354 N 
ATOM     40  C   UNL A   1      38.884  31.516  33.269  1.00  0.00     0.074 A 
ATOM     41  C   UNL A   1      37.692  32.320  33.111  1.00  0.00     0.031 C 
ATOM     42  C   UNL A   1      39.491  28.706  27.505  1.00  0.00     0.029 A 
ATOM     43  C   UNL A   1      40.354  28.532  28.668  1.00  0.00     0.049 A 
ATOM     44  H   UNL A   1      40.092  29.348  30.569  1.00  0.00     0.167 HD
ATOM     45  C   UNL A   1      39.625  31.462  34.402  1.00  0.00     0.034 A 
ATOM     46  C   UNL A   1      41.485  27.798  28.696  1.00  0.00     0.034 A 
ATOM     47  C   UNL A   1      40.776  30.612  34.565  1.00  0.00     0.049 A 
ATOM     48  C   UNL A   1      42.277  27.740  29.980  1.00  0.00     0.074 A 
ATOM     49  C   UNL A   1      41.530  30.394  35.706  1.00  0.00     0.029 A 
ATOM     50  N   UNL A   1      41.340  29.839  33.560  1.00  0.00    -0.354 N 
ATOM     51  N   UNL A   1      42.036  28.335  31.126  1.00  0.00    -0.248 NA
ATOM     52  C   UNL A   1      43.489  26.910  29.976  1.00  0.00     0.031 C 
ATOM     53  C   UNL A   1      42.585  29.538  35.375  1.00  0.00     0.029 A 
ATOM     54  C   UNL A   1      42.453  29.172  34.045  1.00  0.00     0.049 A 
ATOM     55  H   UNL A   1      41.001  29.776  32.639  1.00  0.00     0.167 HD
ATOM     56  C   UNL A   1      43.056  27.930  31.983  1.00  0.00     0.074 A 
ATOM     57  C   UNL A   1      43.896  27.022  31.231  1.00  0.00     0.031 C 
ATOM     58  C   UNL A   1      43.282  28.277  33.275  1.00  0.00     0.034 A 
BRANCH  45  59
ATOM     59  C   UNL A   1      39.217  32.351  35.550  1.00  0.00     0.023 A 
ATOM     60  C   UNL A   1      39.675  33.675  35.661  1.00  0.00     0.031 A 
ATOM     61  C   UNL A   1      38.352  31.866  36.547  1.00  0.00     0.131 A 
ATOM     62  C   UNL A   1      39.318  34.448  36.775  1.00  0.00     0.055 A 
ATOM     63  C   UNL A   1      37.941  32.665  37.616  1.00  0.00     0.041 A 
ATOM     64  F   UNL A   1      37.898  30.604  36.504  1.00  0.00    -0.206 F 
ATOM     65  C   UNL A   1      38.433  33.961  37.741  1.00  0.00     0.022 A 
BRANCH  62  66
ATOM     66  S   UNL A   1      40.112  36.063  37.001  1.00  0.00     0.124 S 
ATOM     67  O   UNL A   1      39.857  36.697  35.710  1.00  0.00    -0.237 OA
ATOM     68  O   UNL A   1      39.386  36.616  38.137  1.00  0.00    -0.237 OA
ATOM     69  O   UNL A   1      41.509  35.725  37.259  1.00  0.00    -0.744 OA
ENDBRANCH  62  66
ENDBRANCH  45  59
BRANCH  46  70
ATOM     70  C   UNL A   1      41.967  27.076  27.481  1.00  0.00     0.023 A 
ATOM     71  C   UNL A   1      41.763  25.694  27.336  1.00  0.00     0.031 A 
ATOM     72  C   UNL A   1      42.703  27.739  26.484  1.00  0.00     0.131 A 
ATOM     73  C   UNL A   1      42.342  25.009  26.256  1.00  0.00     0.055 A 
ATOM     74  C   UNL A   1      43.227  27.063  25.380  1.00  0.00     0.041 A 
ATOM     75  F   UNL A   1      42.926  29.060  26.569  1.00  0.00    -0.206 F 
ATOM     76  C   UNL A   1      43.064  25.686  25.270  1.00  0.00     0.022 A 
BRANCH  73  77
ATOM     77  S   UNL A   1      42.238  23.197  26.222  1.00  0.00     0.124 S 
ATOM     78  O   UNL A   1      42.722  22.896  24.880  1.00  0.00    -0.237 OA
ATOM     79  O   UNL A   1      43.122  22.825  27.321  1.00  0.00    -0.237 OA
ATOM     80  O   UNL A   1      40.818  22.934  26.448  1.00  0.00    -0.744 OA
ENDBRANCH  73  77
ENDBRANCH  46  70
BRANCH  58  81
ATOM     81  C   UNL A   1      44.469  27.644  33.954  1.00  0.00     0.023 A 
ATOM     82  C   UNL A   1      44.342  26.458  34.697  1.00  0.00     0.031 A 
ATOM     83  C   UNL A   1      45.739  28.241  33.865  1.00  0.00     0.131 A 
ATOM     84  C   UNL A   1      45.457  25.932  35.364  1.00  0.00     0.055 A 
ATOM     85  C   UNL A   1      46.856  27.680  34.484  1.00  0.00     0.041 A 
ATOM     86  F   UNL A   1      45.913  29.375  33.168  1.00  0.00    -0.206 F 
ATOM     87  C   UNL A   1      46.717  26.526  35.250  1.00  0.00     0.022 A 
BRANCH  84  88
ATOM     88  S   UNL A   1      45.223  24.499  36.452  1.00  0.00     0.124 S 
ATOM     89  O   UNL A   1      44.488  25.085  37.569  1.00  0.00    -0.237 OA
ATOM     90  O   UNL A   1      44.468  23.582  35.605  1.00  0.00    -0.237 OA
ATOM     91  O   UNL A   1      46.587  24.076  36.761  1.00  0.00    -0.744 OA
ENDBRANCH  84  88
ENDBRANCH  58  81
ENDBRANCH  32  33
ENDBRANCH  24  27
ENDBRANCH  22  23
ENDBRANCH  21  22
ENDBRANCH   1  21
TORSDOF 18
ENDMDL
MODEL 3
REMARK VINA RESULT:     -11.1      2.328      3.064
REMARK SMILES CCc1ccccc1NC(=O)CCCC(=O)NCCCNC(=O)c1ccc(-c2c3nc(c(-c4cc(S(=O)(=O)[O-])ccc4F)c4ccc([nH]4)c(-c4cc(S(=O)(=O)[O-])ccc4F)c4nc(c(-c5cc(S(=O)(=O)[O-])ccc5F)c5ccc2[nH]5)C=C4)C=C3)cc1
REMARK SMILES IDX 18 1 17 2 15 3 16 4 14 6 13 7 12 8 10 9 9 10 11 12 8 13 3 14
REMARK SMILES IDX 4 15 5 16 7 17 6 18 2 19 1 20 19 21 20 22 21 23 22 24 23 26
REMARK SMILES IDX 24 27 25 28 86 29 26 30 85 31 27 32 28 33 29 34 79 35 30 36
REMARK SMILES IDX 84 37 78 38 80 39 31 40 83 41 77 42 76 43 32 45 64 46 44 47
REMARK SMILES IDX 63 48 45 49 48 50 62 51 81 52 46 53 47 54 61 56 82 57 49 58
REMARK SMILES IDX 33 59 34 60 42 61 35 62 41 63 43 64 40 65 36 66 37 67 38 68
REMARK SMILES IDX 39 69 65 70 66 71 74 72 67 73 73 74 75 75 72 76 68 77 69 78
REMARK SMILES IDX 70 79 71 80 50 81 51 82 59 83 52 84 58 85 60 86 57 87 53 88
REMARK SMILES IDX 54 89 55 90 56 91
REMARK H PARENT 17 5 9 11 21 25 80 44 48 55
REMARK Flexibility Score: inf
ROOT
ATOM      1  C   UNL A   1      32.349  28.029  27.183  1.00  0.00     0.117 C 
ENDROOT
BRANCH   1   2
ATOM      2  N   UNL A   1      31.370  26.962  27.019  1.00  0.00    -0.356 N 
ATOM      3  C   UNL A   1      30.649  26.402  26.022  1.00  0.00     0.220 C 
ATOM      4  O   UNL A   1      29.974  25.422  26.370  1.00  0.00    -0.275 OA
ATOM      5  H   UNL A   1      31.180  26.522  27.879  1.00  0.00     0.163 HD
BRANCH   3   6
ATOM      6  C   UNL A   1      30.676  26.755  24.533  1.00  0.00     0.100 C 
BRANCH   6   7
ATOM      7  C   UNL A   1      31.828  26.392  23.603  1.00  0.00     0.020 C 
BRANCH   7   8
ATOM      8  C   UNL A   1      31.620  26.010  22.144  1.00  0.00     0.101 C 
BRANCH   8   9
ATOM      9  C   UNL A   1      32.624  25.171  21.358  1.00  0.00     0.224 C 
ATOM     10  N   UNL A   1      33.210  23.989  21.669  1.00  0.00    -0.326 N 
ATOM     11  H   UNL A   1      33.942  23.807  21.037  1.00  0.00     0.169 HD
ATOM     12  O   UNL A   1      33.055  25.661  20.298  1.00  0.00    -0.275 OA
BRANCH  10  13
ATOM     13  C   UNL A   1      33.115  22.934  22.600  1.00  0.00     0.044 A 
ATOM     14  C   UNL A   1      33.956  22.924  23.742  1.00  0.00    -0.025 A 
ATOM     15  C   UNL A   1      33.920  21.809  24.613  1.00  0.00     0.006 A 
ATOM     16  C   UNL A   1      33.064  20.733  24.391  1.00  0.00     0.000 A 
ATOM     17  C   UNL A   1      32.262  21.861  22.438  1.00  0.00     0.026 A 
ATOM     18  C   UNL A   1      32.218  20.766  23.303  1.00  0.00     0.002 A 
BRANCH  14  19
ATOM     19  C   UNL A   1      34.858  24.106  24.052  1.00  0.00     0.034 C 
ATOM     20  C   UNL A   1      34.666  24.797  25.396  1.00  0.00     0.009 C 
ENDBRANCH  14  19
ENDBRANCH  10  13
ENDBRANCH   8   9
ENDBRANCH   7   8
ENDBRANCH   6   7
ENDBRANCH   3   6
ENDBRANCH   1   2
BRANCH   1  21
ATOM     21  C   UNL A   1      31.799  29.374  26.726  1.00  0.00     0.042 C 
BRANCH  21  22
ATOM     22  C   UNL A   1      32.908  30.315  26.297  1.00  0.00     0.118 C 
BRANCH  22  23
ATOM     23  N   UNL A   1      32.820  31.625  26.939  1.00  0.00    -0.352 N 
ATOM     24  C   UNL A   1      33.737  32.224  27.781  1.00  0.00     0.251 C 
ATOM     25  H   UNL A   1      32.007  32.146  26.746  1.00  0.00     0.163 HD
ATOM     26  O   UNL A   1      33.471  33.273  28.349  1.00  0.00    -0.269 OA
BRANCH  24  27
ATOM     27  C   UNL A   1      35.025  31.532  28.021  1.00  0.00     0.039 A 
ATOM     28  C   UNL A   1      36.208  32.273  28.032  1.00  0.00     0.014 A 
ATOM     29  C   UNL A   1      35.030  30.183  28.376  1.00  0.00     0.014 A 
ATOM     30  C   UNL A   1      37.378  31.685  28.522  1.00  0.00     0.010 A 
ATOM     31  C   UNL A   1      36.165  29.639  28.965  1.00  0.00     0.010 A 
ATOM     32  C   UNL A   1      37.349  30.388  29.062  1.00  0.00    -0.014 A 
BRANCH  32  33
ATOM     33  C   UNL A   1      38.523  29.798  29.763  1.00  0.00     0.031 A 
ATOM     34  C   UNL A   1      38.884  30.275  31.146  1.00  0.00     0.074 A 
ATOM     35  C   UNL A   1      39.324  28.924  29.117  1.00  0.00     0.049 A 
ATOM     36  N   UNL A   1      39.942  30.003  31.864  1.00  0.00    -0.248 NA
ATOM     37  C   UNL A   1      37.953  31.220  31.785  1.00  0.00     0.031 C 
ATOM     38  C   UNL A   1      39.121  28.437  27.748  1.00  0.00     0.029 A 
ATOM     39  N   UNL A   1      40.481  28.300  29.513  1.00  0.00    -0.354 N 
ATOM     40  C   UNL A   1      39.822  30.770  33.019  1.00  0.00     0.074 A 
ATOM     41  C   UNL A   1      38.618  31.557  32.879  1.00  0.00     0.031 C 
ATOM     42  C   UNL A   1      40.100  27.573  27.434  1.00  0.00     0.029 A 
ATOM     43  C   UNL A   1      41.033  27.482  28.551  1.00  0.00     0.049 A 
ATOM     44  H   UNL A   1      40.881  28.425  30.404  1.00  0.00     0.167 HD
ATOM     45  C   UNL A   1      40.631  30.795  34.107  1.00  0.00     0.034 A 
ATOM     46  C   UNL A   1      42.170  26.756  28.560  1.00  0.00     0.034 A 
ATOM     47  C   UNL A   1      41.795  29.962  34.257  1.00  0.00     0.049 A 
ATOM     48  C   UNL A   1      43.038  26.787  29.795  1.00  0.00     0.074 A 
ATOM     49  C   UNL A   1      42.618  29.824  35.361  1.00  0.00     0.029 A 
ATOM     50  N   UNL A   1      42.304  29.124  33.274  1.00  0.00    -0.354 N 
ATOM     51  N   UNL A   1      42.862  27.458  30.910  1.00  0.00    -0.248 NA
ATOM     52  C   UNL A   1      44.254  25.962  29.774  1.00  0.00     0.031 C 
ATOM     53  C   UNL A   1      43.657  28.951  35.027  1.00  0.00     0.029 A 
ATOM     54  C   UNL A   1      43.449  28.494  33.735  1.00  0.00     0.049 A 
ATOM     55  H   UNL A   1      41.910  28.997  32.381  1.00  0.00     0.167 HD
ATOM     56  C   UNL A   1      43.935  27.117  31.729  1.00  0.00     0.074 A 
ATOM     57  C   UNL A   1      44.734  26.162  30.991  1.00  0.00     0.031 C 
ATOM     58  C   UNL A   1      44.236  27.551  32.979  1.00  0.00     0.034 A 
BRANCH  45  59
ATOM     59  C   UNL A   1      40.286  31.759  35.214  1.00  0.00     0.023 A 
ATOM     60  C   UNL A   1      39.358  31.433  36.218  1.00  0.00     0.031 A 
ATOM     61  C   UNL A   1      40.899  33.024  35.267  1.00  0.00     0.131 A 
ATOM     62  C   UNL A   1      39.024  32.381  37.195  1.00  0.00     0.055 A 
ATOM     63  C   UNL A   1      40.616  33.936  36.285  1.00  0.00     0.041 A 
ATOM     64  F   UNL A   1      41.779  33.397  34.325  1.00  0.00    -0.206 F 
ATOM     65  C   UNL A   1      39.665  33.621  37.252  1.00  0.00     0.022 A 
BRANCH  62  66
ATOM     66  S   UNL A   1      37.658  32.011  38.330  1.00  0.00     0.124 S 
ATOM     67  O   UNL A   1      38.313  32.150  39.630  1.00  0.00    -0.237 OA
ATOM     68  O   UNL A   1      36.681  33.039  37.996  1.00  0.00    -0.237 OA
ATOM     69  O   UNL A   1      37.276  30.647  37.974  1.00  0.00    -0.744 OA
ENDBRANCH  62  66
ENDBRANCH  45  59
BRANCH  46  70
ATOM     70  C   UNL A   1      42.582  25.953  27.370  1.00  0.00     0.023 A 
ATOM     71  C   UNL A   1      42.183  24.614  27.230  1.00  0.00     0.031 A 
ATOM     72  C   UNL A   1      43.442  26.487  26.395  1.00  0.00     0.131 A 
ATOM     73  C   UNL A   1      42.693  23.836  26.179  1.00  0.00     0.055 A 
ATOM     74  C   UNL A   1      43.900  25.726  25.317  1.00  0.00     0.041 A 
ATOM     75  F   UNL A   1      43.853  27.763  26.476  1.00  0.00    -0.206 F 
ATOM     76  C   UNL A   1      43.540  24.386  25.214  1.00  0.00     0.022 A 
BRANCH  73  77
ATOM     77  S   UNL A   1      42.326  22.059  26.157  1.00  0.00     0.124 S 
ATOM     78  O   UNL A   1      43.141  21.600  25.038  1.00  0.00    -0.237 OA
ATOM     79  O   UNL A   1      42.767  21.645  27.485  1.00  0.00    -0.237 OA
ATOM     80  O   UNL A   1      40.882  22.013  25.939  1.00  0.00    -0.744 OA
ENDBRANCH  73  77
ENDBRANCH  46  70
BRANCH  58  81
ATOM     81  C   UNL A   1      45.466  26.970  33.626  1.00  0.00     0.023 A 
ATOM     82  C   UNL A   1      46.720  27.594  33.509  1.00  0.00     0.031 A 
ATOM     83  C   UNL A   1      45.384  25.773  34.358  1.00  0.00     0.131 A 
ATOM     84  C   UNL A   1      47.853  26.992  34.074  1.00  0.00     0.055 A 
ATOM     85  C   UNL A   1      46.506  25.209  34.967  1.00  0.00     0.041 A 
ATOM     86  F   UNL A   1      44.210  25.137  34.499  1.00  0.00    -0.206 F 
ATOM     87  C   UNL A   1      47.752  25.812  34.816  1.00  0.00     0.022 A 
BRANCH  84  88
ATOM     88  S   UNL A   1      49.479  27.731  33.759  1.00  0.00     0.124 S 
ATOM     89  O   UNL A   1      49.351  29.032  34.409  1.00  0.00    -0.237 OA
ATOM     90  O   UNL A   1      50.383  26.785  34.403  1.00  0.00    -0.237 OA
ATOM     91  O   UNL A   1      49.561  27.772  32.301  1.00  0.00    -0.744 OA
ENDBRANCH  84  88
ENDBRANCH  58  81
ENDBRANCH  32  33
ENDBRANCH  24  27
ENDBRANCH  22  23
ENDBRANCH  21  22
ENDBRANCH   1  21
TORSDOF 18
ENDMDL
