MODEL 1
REMARK VINA RESULT:     -12.3      0.000      0.000
REMARK SMILES C[C@](NC(=O)c1c(F)cccc1F)(C(=O)NCCCNC(=O)c1ccc(-c2c3nc(c(-c4cc(S(=O)(=O)[O-])ccc4F)c4ccc([nH]4)c(-c4cc(S(=O)(=O)[O-])ccc4F)c4nc(c(-c5cc(S(=O)(=O)[O-])ccc5F)c5ccc2[nH]5)C=C4)C=C3)cc1)C(F)(F)F
REMARK SMILES IDX 18 1 17 2 16 3 14 4 15 5 2 7 1 8 86 9 87 10 88 11 89 12 3 13
REMARK SMILES IDX 4 14 5 16 6 17 7 18 12 19 8 20 9 21 11 22 13 23 10 24 19 25
REMARK SMILES IDX 20 26 21 27 22 29 23 30 24 31 85 32 25 33 84 34 26 35 27 36
REMARK SMILES IDX 28 37 78 38 29 39 83 40 77 41 79 42 30 43 82 44 76 45 75 46
REMARK SMILES IDX 31 48 63 49 43 50 62 51 44 52 47 53 61 54 80 55 45 56 46 57
REMARK SMILES IDX 60 59 81 60 48 61 32 62 33 63 41 64 34 65 40 66 42 67 39 68
REMARK SMILES IDX 35 69 36 70 37 71 38 72 64 73 65 74 73 75 66 76 72 77 74 78
REMARK SMILES IDX 71 79 67 80 68 81 69 82 70 83 49 84 50 85 58 86 51 87 57 88
REMARK SMILES IDX 59 89 56 90 52 91 53 92 54 93 55 94
REMARK H PARENT 16 6 3 15 20 28 79 47 47 58
REMARK Flexibility Score: inf
ROOT
ATOM      1  C   UNL A   1      34.706  21.605  26.520  1.00  0.00     0.042 C 
ENDROOT
BRANCH   1   2
ATOM      2  C   UNL A   1      33.373  21.758  25.806  1.00  0.00     0.117 C 
BRANCH   2   3
ATOM      3  N   UNL A   1      32.278  22.140  26.683  1.00  0.00    -0.354 N 
ATOM      4  C   UNL A   1      31.510  23.271  26.753  1.00  0.00     0.254 C 
ATOM      5  O   UNL A   1      30.510  23.187  27.469  1.00  0.00    -0.272 OA
ATOM      6  H   UNL A   1      32.044  21.457  27.352  1.00  0.00     0.163 HD
BRANCH   4   7
ATOM      7  C   UNL A   1      31.852  24.559  25.973  1.00  0.00     0.212 C 
ATOM      8  C   UNL A   1      33.367  24.656  25.664  1.00  0.00     0.056 C 
BRANCH   7   9
ATOM      9  C   UNL A   1      31.159  24.457  24.588  1.00  0.00     0.420 C 
ATOM     10  F   UNL A   1      31.831  25.032  23.573  1.00  0.00    -0.168 F 
ATOM     11  F   UNL A   1      30.983  23.151  24.250  1.00  0.00    -0.168 F 
ATOM     12  F   UNL A   1      29.919  25.009  24.597  1.00  0.00    -0.168 F 
ENDBRANCH   7   9
BRANCH   7  13
ATOM     13  N   UNL A   1      31.499  25.739  26.842  1.00  0.00    -0.330 N 
ATOM     14  C   UNL A   1      31.489  27.097  26.649  1.00  0.00     0.258 C 
ATOM     15  H   UNL A   1      31.212  25.478  27.748  1.00  0.00     0.165 HD
ATOM     16  O   UNL A   1      31.027  27.825  27.520  1.00  0.00    -0.269 OA
BRANCH  14  17
ATOM     17  C   UNL A   1      32.057  27.711  25.461  1.00  0.00     0.111 A 
ATOM     18  C   UNL A   1      31.254  28.013  24.368  1.00  0.00     0.138 A 
ATOM     19  C   UNL A   1      33.410  28.037  25.436  1.00  0.00     0.138 A 
ATOM     20  F   UNL A   1      29.944  27.731  24.383  1.00  0.00    -0.206 F 
ATOM     21  C   UNL A   1      31.812  28.580  23.223  1.00  0.00     0.040 A 
ATOM     22  C   UNL A   1      33.980  28.600  24.297  1.00  0.00     0.040 A 
ATOM     23  F   UNL A   1      34.197  27.770  26.488  1.00  0.00    -0.206 F 
ATOM     24  C   UNL A   1      33.181  28.864  23.182  1.00  0.00     0.006 A 
ENDBRANCH  14  17
ENDBRANCH   7  13
ENDBRANCH   4   7
ENDBRANCH   2   3
ENDBRANCH   1   2
BRANCH   1  25
ATOM     25  C   UNL A   1      35.930  22.007  25.706  1.00  0.00     0.118 C 
BRANCH  25  26
ATOM     26  N   UNL A   1      36.918  20.944  25.585  1.00  0.00    -0.352 N 
ATOM     27  C   UNL A   1      38.288  20.981  25.699  1.00  0.00     0.251 C 
ATOM     28  H   UNL A   1      36.544  20.054  25.392  1.00  0.00     0.163 HD
ATOM     29  O   UNL A   1      38.933  19.978  25.399  1.00  0.00    -0.269 OA
BRANCH  27  30
ATOM     30  C   UNL A   1      38.988  22.210  26.140  1.00  0.00     0.039 A 
ATOM     31  C   UNL A   1      40.144  22.086  26.918  1.00  0.00     0.014 A 
ATOM     32  C   UNL A   1      38.504  23.481  25.824  1.00  0.00     0.014 A 
ATOM     33  C   UNL A   1      40.847  23.229  27.315  1.00  0.00     0.010 A 
ATOM     34  C   UNL A   1      39.254  24.613  26.139  1.00  0.00     0.010 A 
ATOM     35  C   UNL A   1      40.428  24.502  26.898  1.00  0.00    -0.014 A 
BRANCH  35  36
ATOM     36  C   UNL A   1      41.180  25.732  27.273  1.00  0.00     0.031 A 
ATOM     37  C   UNL A   1      40.522  26.782  28.130  1.00  0.00     0.074 A 
ATOM     38  C   UNL A   1      42.424  25.935  26.794  1.00  0.00     0.049 A 
ATOM     39  N   UNL A   1      40.965  27.960  28.488  1.00  0.00    -0.248 NA
ATOM     40  C   UNL A   1      39.167  26.478  28.617  1.00  0.00     0.031 C 
ATOM     41  C   UNL A   1      43.155  25.015  25.920  1.00  0.00     0.029 A 
ATOM     42  N   UNL A   1      43.292  26.984  26.967  1.00  0.00    -0.354 N 
ATOM     43  C   UNL A   1      39.937  28.546  29.221  1.00  0.00     0.074 A 
ATOM     44  C   UNL A   1      38.827  27.618  29.197  1.00  0.00     0.031 C 
ATOM     45  C   UNL A   1      44.367  25.529  25.655  1.00  0.00     0.029 A 
ATOM     46  C   UNL A   1      44.486  26.833  26.300  1.00  0.00     0.049 A 
ATOM     47  H   UNL A   1      43.078  27.773  27.517  1.00  0.00     0.167 HD
ATOM     48  C   UNL A   1      39.929  29.734  29.877  1.00  0.00     0.034 A 
ATOM     49  C   UNL A   1      45.551  27.654  26.211  1.00  0.00     0.034 A 
ATOM     50  C   UNL A   1      41.053  30.637  29.911  1.00  0.00     0.049 A 
ATOM     51  C   UNL A   1      45.520  28.972  26.946  1.00  0.00     0.074 A 
ATOM     52  C   UNL A   1      41.174  31.840  30.586  1.00  0.00     0.029 A 
ATOM     53  N   UNL A   1      42.254  30.439  29.241  1.00  0.00    -0.354 N 
ATOM     54  N   UNL A   1      44.557  29.490  27.672  1.00  0.00    -0.248 NA
ATOM     55  C   UNL A   1      46.725  29.805  26.859  1.00  0.00     0.031 C 
ATOM     56  C   UNL A   1      42.421  32.394  30.278  1.00  0.00     0.029 A 
ATOM     57  C   UNL A   1      43.110  31.505  29.468  1.00  0.00     0.049 A 
ATOM     58  H   UNL A   1      42.466  29.654  28.685  1.00  0.00     0.167 HD
ATOM     59  C   UNL A   1      45.055  30.696  28.156  1.00  0.00     0.074 A 
ATOM     60  C   UNL A   1      46.407  30.819  27.650  1.00  0.00     0.031 C 
ATOM     61  C   UNL A   1      44.454  31.617  28.952  1.00  0.00     0.034 A 
BRANCH  48  62
ATOM     62  C   UNL A   1      38.653  30.124  30.585  1.00  0.00     0.023 A 
ATOM     63  C   UNL A   1      37.634  30.840  29.932  1.00  0.00     0.031 A 
ATOM     64  C   UNL A   1      38.465  29.809  31.944  1.00  0.00     0.131 A 
ATOM     65  C   UNL A   1      36.520  31.294  30.654  1.00  0.00     0.055 A 
ATOM     66  C   UNL A   1      37.312  30.189  32.635  1.00  0.00     0.041 A 
ATOM     67  F   UNL A   1      39.409  29.144  32.628  1.00  0.00    -0.206 F 
ATOM     68  C   UNL A   1      36.340  30.951  31.995  1.00  0.00     0.022 A 
BRANCH  65  69
ATOM     69  S   UNL A   1      35.394  32.471  29.856  1.00  0.00     0.124 S 
ATOM     70  O   UNL A   1      34.981  31.725  28.670  1.00  0.00    -0.237 OA
ATOM     71  O   UNL A   1      34.371  32.669  30.876  1.00  0.00    -0.237 OA
ATOM     72  O   UNL A   1      36.243  33.631  29.589  1.00  0.00    -0.744 OA
ENDBRANCH  65  69
ENDBRANCH  48  62
BRANCH  49  73
ATOM     73  C   UNL A   1      46.739  27.266  25.398  1.00  0.00     0.023 A 
ATOM     74  C   UNL A   1      46.925  27.775  24.103  1.00  0.00     0.031 A 
ATOM     75  C   UNL A   1      47.684  26.348  25.888  1.00  0.00     0.131 A 
ATOM     76  C   UNL A   1      48.002  27.328  23.323  1.00  0.00     0.055 A 
ATOM     77  C   UNL A   1      48.782  25.944  25.127  1.00  0.00     0.041 A 
ATOM     78  F   UNL A   1      47.557  25.837  27.123  1.00  0.00    -0.206 F 
ATOM     79  C   UNL A   1      48.939  26.425  23.830  1.00  0.00     0.022 A 
BRANCH  76  80
ATOM     80  S   UNL A   1      48.115  27.883  21.600  1.00  0.00     0.124 S 
ATOM     81  O   UNL A   1      48.295  26.622  20.891  1.00  0.00    -0.237 OA
ATOM     82  O   UNL A   1      46.830  28.548  21.411  1.00  0.00    -0.237 OA
ATOM     83  O   UNL A   1      49.278  28.769  21.604  1.00  0.00    -0.744 OA
ENDBRANCH  76  80
ENDBRANCH  49  73
BRANCH  61  84
ATOM     84  C   UNL A   1      45.280  32.809  29.366  1.00  0.00     0.023 A 
ATOM     85  C   UNL A   1      45.300  33.996  28.614  1.00  0.00     0.031 A 
ATOM     86  C   UNL A   1      46.071  32.748  30.528  1.00  0.00     0.131 A 
ATOM     87  C   UNL A   1      46.136  35.054  29.000  1.00  0.00     0.055 A 
ATOM     88  C   UNL A   1      46.856  33.826  30.940  1.00  0.00     0.041 A 
ATOM     89  F   UNL A   1      46.091  31.639  31.284  1.00  0.00    -0.206 F 
ATOM     90  C   UNL A   1      46.903  34.983  30.167  1.00  0.00     0.022 A 
BRANCH  87  91
ATOM     91  S   UNL A   1      46.282  36.495  27.908  1.00  0.00     0.124 S 
ATOM     92  O   UNL A   1      45.694  37.555  28.722  1.00  0.00    -0.237 OA
ATOM     93  O   UNL A   1      47.724  36.579  27.695  1.00  0.00    -0.237 OA
ATOM     94  O   UNL A   1      45.504  36.114  26.731  1.00  0.00    -0.744 OA
ENDBRANCH  87  91
ENDBRANCH  61  84
ENDBRANCH  35  36
ENDBRANCH  27  30
ENDBRANCH  25  26
ENDBRANCH   1  25
TORSDOF 16
ENDMDL
MODEL 2
REMARK VINA RESULT:     -12.3      5.626     10.645
REMARK SMILES C[C@](NC(=O)c1c(F)cccc1F)(C(=O)NCCCNC(=O)c1ccc(-c2c3nc(c(-c4cc(S(=O)(=O)[O-])ccc4F)c4ccc([nH]4)c(-c4cc(S(=O)(=O)[O-])ccc4F)c4nc(c(-c5cc(S(=O)(=O)[O-])ccc5F)c5ccc2[nH]5)C=C4)C=C3)cc1)C(F)(F)F
REMARK SMILES IDX 18 1 17 2 16 3 14 4 15 5 2 7 1 8 86 9 87 10 88 11 89 12 3 13
REMARK SMILES IDX 4 14 5 16 6 17 7 18 12 19 8 20 9 21 11 22 13 23 10 24 19 25
REMARK SMILES IDX 20 26 21 27 22 29 23 30 24 31 85 32 25 33 84 34 26 35 27 36
REMARK SMILES IDX 28 37 78 38 29 39 83 40 77 41 79 42 30 43 82 44 76 45 75 46
REMARK SMILES IDX 31 48 63 49 43 50 62 51 44 52 47 53 61 54 80 55 45 56 46 57
REMARK SMILES IDX 60 59 81 60 48 61 32 62 33 63 41 64 34 65 40 66 42 67 39 68
REMARK SMILES IDX 35 69 36 70 37 71 38 72 64 73 65 74 73 75 66 76 72 77 74 78
REMARK SMILES IDX 71 79 67 80 68 81 69 82 70 83 49 84 50 85 58 86 51 87 57 88
REMARK SMILES IDX 59 89 56 90 52 91 53 92 54 93 55 94
REMARK H PARENT 16 6 3 15 20 28 79 47 47 58
REMARK Flexibility Score: inf
ROOT
ATOM      1  C   UNL A   1      31.461  31.555  26.500  1.00  0.00     0.042 C 
ENDROOT
BRANCH   1   2
ATOM      2  C   UNL A   1      31.679  30.210  25.827  1.00  0.00     0.117 C 
BRANCH   2   3
ATOM      3  N   UNL A   1      31.025  30.089  24.533  1.00  0.00    -0.354 N 
ATOM      4  C   UNL A   1      30.927  29.048  23.650  1.00  0.00     0.254 C 
ATOM      5  O   UNL A   1      30.107  29.203  22.741  1.00  0.00    -0.272 OA
ATOM      6  H   UNL A   1      30.568  30.908  24.237  1.00  0.00     0.163 HD
BRANCH   4   7
ATOM      7  C   UNL A   1      31.761  27.756  23.788  1.00  0.00     0.212 C 
ATOM      8  C   UNL A   1      31.426  26.737  22.670  1.00  0.00     0.056 C 
BRANCH   7   9
ATOM      9  C   UNL A   1      33.247  28.139  23.559  1.00  0.00     0.420 C 
ATOM     10  F   UNL A   1      33.973  27.223  22.891  1.00  0.00    -0.168 F 
ATOM     11  F   UNL A   1      33.326  29.295  22.846  1.00  0.00    -0.168 F 
ATOM     12  F   UNL A   1      33.897  28.376  24.726  1.00  0.00    -0.168 F 
ENDBRANCH   7   9
BRANCH   7  13
ATOM     13  N   UNL A   1      31.404  27.108  25.101  1.00  0.00    -0.330 N 
ATOM     14  C   UNL A   1      31.780  25.946  25.725  1.00  0.00     0.258 C 
ATOM     15  H   UNL A   1      30.759  27.635  25.628  1.00  0.00     0.165 HD
ATOM     16  O   UNL A   1      31.410  25.733  26.874  1.00  0.00    -0.269 OA
BRANCH  14  17
ATOM     17  C   UNL A   1      32.567  24.928  25.050  1.00  0.00     0.111 A 
ATOM     18  C   UNL A   1      31.948  23.922  24.319  1.00  0.00     0.138 A 
ATOM     19  C   UNL A   1      33.957  24.988  25.103  1.00  0.00     0.138 A 
ATOM     20  F   UNL A   1      30.611  23.862  24.235  1.00  0.00    -0.206 F 
ATOM     21  C   UNL A   1      32.712  22.936  23.695  1.00  0.00     0.040 A 
ATOM     22  C   UNL A   1      34.731  24.007  24.487  1.00  0.00     0.040 A 
ATOM     23  F   UNL A   1      34.574  25.963  25.788  1.00  0.00    -0.206 F 
ATOM     24  C   UNL A   1      34.106  22.971  23.789  1.00  0.00     0.006 A 
ENDBRANCH  14  17
ENDBRANCH   7  13
ENDBRANCH   4   7
ENDBRANCH   2   3
ENDBRANCH   1   2
BRANCH   1  25
ATOM     25  C   UNL A   1      32.706  32.186  27.113  1.00  0.00     0.118 C 
BRANCH  25  26
ATOM     26  N   UNL A   1      32.525  33.584  27.477  1.00  0.00    -0.352 N 
ATOM     27  C   UNL A   1      33.154  34.345  28.435  1.00  0.00     0.251 C 
ATOM     28  H   UNL A   1      31.843  34.062  26.953  1.00  0.00     0.163 HD
ATOM     29  O   UNL A   1      32.723  35.472  28.670  1.00  0.00    -0.269 OA
BRANCH  27  30
ATOM     30  C   UNL A   1      34.309  33.817  29.198  1.00  0.00     0.039 A 
ATOM     31  C   UNL A   1      34.076  32.887  30.216  1.00  0.00     0.014 A 
ATOM     32  C   UNL A   1      35.613  34.247  28.943  1.00  0.00     0.014 A 
ATOM     33  C   UNL A   1      35.152  32.342  30.925  1.00  0.00     0.010 A 
ATOM     34  C   UNL A   1      36.689  33.636  29.584  1.00  0.00     0.010 A 
ATOM     35  C   UNL A   1      36.472  32.684  30.591  1.00  0.00    -0.014 A 
BRANCH  35  36
ATOM     36  C   UNL A   1      37.636  32.089  31.303  1.00  0.00     0.031 A 
ATOM     37  C   UNL A   1      38.424  30.979  30.657  1.00  0.00     0.074 A 
ATOM     38  C   UNL A   1      37.945  32.497  32.550  1.00  0.00     0.049 A 
ATOM     39  N   UNL A   1      39.406  30.264  31.144  1.00  0.00    -0.248 NA
ATOM     40  C   UNL A   1      38.025  30.599  29.293  1.00  0.00     0.031 C 
ATOM     41  C   UNL A   1      37.233  33.533  33.303  1.00  0.00     0.029 A 
ATOM     42  N   UNL A   1      38.933  32.086  33.410  1.00  0.00    -0.354 N 
ATOM     43  C   UNL A   1      39.727  29.337  30.157  1.00  0.00     0.074 A 
ATOM     44  C   UNL A   1      38.789  29.540  29.073  1.00  0.00     0.031 C 
ATOM     45  C   UNL A   1      37.823  33.691  34.499  1.00  0.00     0.029 A 
ATOM     46  C   UNL A   1      38.925  32.742  34.620  1.00  0.00     0.049 A 
ATOM     47  H   UNL A   1      39.587  31.385  33.183  1.00  0.00     0.167 HD
ATOM     48  C   UNL A   1      40.728  28.420  30.142  1.00  0.00     0.034 A 
ATOM     49  C   UNL A   1      39.709  32.589  35.706  1.00  0.00     0.034 A 
ATOM     50  C   UNL A   1      41.670  28.247  31.220  1.00  0.00     0.049 A 
ATOM     51  C   UNL A   1      40.814  31.563  35.669  1.00  0.00     0.074 A 
ATOM     52  C   UNL A   1      42.754  27.388  31.291  1.00  0.00     0.029 A 
ATOM     53  N   UNL A   1      41.643  28.946  32.421  1.00  0.00    -0.354 N 
ATOM     54  N   UNL A   1      41.133  30.725  34.710  1.00  0.00    -0.248 NA
ATOM     55  C   UNL A   1      41.672  31.474  36.857  1.00  0.00     0.031 C 
ATOM     56  C   UNL A   1      43.343  27.525  32.552  1.00  0.00     0.029 A 
ATOM     57  C   UNL A   1      42.674  28.522  33.244  1.00  0.00     0.049 A 
ATOM     58  H   UNL A   1      40.985  29.641  32.654  1.00  0.00     0.167 HD
ATOM     59  C   UNL A   1      42.250  30.033  35.167  1.00  0.00     0.074 A 
ATOM     60  C   UNL A   1      42.556  30.562  36.480  1.00  0.00     0.031 C 
ATOM     61  C   UNL A   1      42.965  29.054  34.556  1.00  0.00     0.034 A 
BRANCH  48  62
ATOM     62  C   UNL A   1      40.830  27.527  28.929  1.00  0.00     0.023 A 
ATOM     63  C   UNL A   1      41.798  27.742  27.932  1.00  0.00     0.031 A 
ATOM     64  C   UNL A   1      39.924  26.467  28.744  1.00  0.00     0.131 A 
ATOM     65  C   UNL A   1      41.782  26.972  26.759  1.00  0.00     0.055 A 
ATOM     66  C   UNL A   1      39.970  25.646  27.614  1.00  0.00     0.041 A 
ATOM     67  F   UNL A   1      38.965  26.221  29.650  1.00  0.00    -0.206 F 
ATOM     68  C   UNL A   1      40.892  25.909  26.605  1.00  0.00     0.022 A 
BRANCH  65  69
ATOM     69  S   UNL A   1      42.838  27.484  25.376  1.00  0.00     0.124 S 
ATOM     70  O   UNL A   1      42.969  26.236  24.628  1.00  0.00    -0.237 OA
ATOM     71  O   UNL A   1      42.042  28.528  24.742  1.00  0.00    -0.237 OA
ATOM     72  O   UNL A   1      44.062  27.941  26.029  1.00  0.00    -0.744 OA
ENDBRANCH  65  69
ENDBRANCH  48  62
BRANCH  49  73
ATOM     73  C   UNL A   1      39.486  33.422  36.923  1.00  0.00     0.023 A 
ATOM     74  C   UNL A   1      38.778  32.915  38.024  1.00  0.00     0.031 A 
ATOM     75  C   UNL A   1      39.940  34.750  36.985  1.00  0.00     0.131 A 
ATOM     76  C   UNL A   1      38.503  33.745  39.122  1.00  0.00     0.055 A 
ATOM     77  C   UNL A   1      39.708  35.557  38.101  1.00  0.00     0.041 A 
ATOM     78  F   UNL A   1      40.628  35.282  35.962  1.00  0.00    -0.206 F 
ATOM     79  C   UNL A   1      38.973  35.058  39.173  1.00  0.00     0.022 A 
BRANCH  76  80
ATOM     80  S   UNL A   1      37.447  33.105  40.450  1.00  0.00     0.124 S 
ATOM     81  O   UNL A   1      37.310  34.273  41.312  1.00  0.00    -0.237 OA
ATOM     82  O   UNL A   1      36.250  32.703  39.718  1.00  0.00    -0.237 OA
ATOM     83  O   UNL A   1      38.233  32.005  41.009  1.00  0.00    -0.744 OA
ENDBRANCH  76  80
ENDBRANCH  49  73
BRANCH  61  84
ATOM     84  C   UNL A   1      44.179  28.534  35.284  1.00  0.00     0.023 A 
ATOM     85  C   UNL A   1      44.081  27.546  36.279  1.00  0.00     0.031 A 
ATOM     86  C   UNL A   1      45.453  29.048  34.983  1.00  0.00     0.131 A 
ATOM     87  C   UNL A   1      45.229  27.143  36.977  1.00  0.00     0.055 A 
ATOM     88  C   UNL A   1      46.600  28.600  35.641  1.00  0.00     0.041 A 
ATOM     89  F   UNL A   1      45.604  29.993  34.043  1.00  0.00    -0.206 F 
ATOM     90  C   UNL A   1      46.490  27.651  36.654  1.00  0.00     0.022 A 
BRANCH  87  91
ATOM     91  S   UNL A   1      45.043  26.008  38.380  1.00  0.00     0.124 S 
ATOM     92  O   UNL A   1      44.540  24.801  37.731  1.00  0.00    -0.237 OA
ATOM     93  O   UNL A   1      46.404  25.932  38.902  1.00  0.00    -0.237 OA
ATOM     94  O   UNL A   1      44.085  26.690  39.249  1.00  0.00    -0.744 OA
ENDBRANCH  87  91
ENDBRANCH  61  84
ENDBRANCH  35  36
ENDBRANCH  27  30
ENDBRANCH  25  26
ENDBRANCH   1  25
TORSDOF 16
ENDMDL
MODEL 3
REMARK VINA RESULT:     -12.2      5.051      7.593
REMARK SMILES C[C@](NC(=O)c1c(F)cccc1F)(C(=O)NCCCNC(=O)c1ccc(-c2c3nc(c(-c4cc(S(=O)(=O)[O-])ccc4F)c4ccc([nH]4)c(-c4cc(S(=O)(=O)[O-])ccc4F)c4nc(c(-c5cc(S(=O)(=O)[O-])ccc5F)c5ccc2[nH]5)C=C4)C=C3)cc1)C(F)(F)F
REMARK SMILES IDX 18 1 17 2 16 3 14 4 15 5 2 7 1 8 86 9 87 10 88 11 89 12 3 13
REMARK SMILES IDX 4 14 5 16 6 17 7 18 12 19 8 20 9 21 11 22 13 23 10 24 19 25
REMARK SMILES IDX 20 26 21 27 22 29 23 30 24 31 85 32 25 33 84 34 26 35 27 36
REMARK SMILES IDX 28 37 78 38 29 39 83 40 77 41 79 42 30 43 82 44 76 45 75 46
REMARK SMILES IDX 31 48 63 49 43 50 62 51 44 52 47 53 61 54 80 55 45 56 46 57
REMARK SMILES IDX 60 59 81 60 48 61 32 62 33 63 41 64 34 65 40 66 42 67 39 68
REMARK SMILES IDX 35 69 36 70 37 71 38 72 64 73 65 74 73 75 66 76 72 77 74 78
REMARK SMILES IDX 71 79 67 80 68 81 69 82 70 83 49 84 50 85 58 86 51 87 57 88
REMARK SMILES IDX 59 89 56 90 52 91 53 92 54 93 55 94
REMARK H PARENT 16 6 3 15 20 28 79 47 47 58
REMARK Flexibility Score: inf
ROOT
ATOM      1  C   UNL A   1      31.870  28.767  26.913  1.00  0.00     0.042 C 
ENDROOT
BRANCH   1   2
ATOM      2  C   UNL A   1      31.763  27.318  26.468  1.00  0.00     0.117 C 
BRANCH   2   3
ATOM      3  N   UNL A   1      31.379  27.159  25.074  1.00  0.00    -0.354 N 
ATOM      4  C   UNL A   1      31.538  26.126  24.191  1.00  0.00     0.254 C 
ATOM      5  O   UNL A   1      30.896  26.223  23.143  1.00  0.00    -0.272 OA
ATOM      6  H   UNL A   1      30.920  27.942  24.694  1.00  0.00     0.163 HD
BRANCH   4   7
ATOM      7  C   UNL A   1      32.436  24.906  24.489  1.00  0.00     0.212 C 
ATOM      8  C   UNL A   1      32.304  23.817  23.396  1.00  0.00     0.056 C 
BRANCH   7   9
ATOM      9  C   UNL A   1      33.910  25.386  24.411  1.00  0.00     0.420 C 
ATOM     10  F   UNL A   1      34.775  24.485  23.912  1.00  0.00    -0.168 F 
ATOM     11  F   UNL A   1      33.998  26.491  23.623  1.00  0.00    -0.168 F 
ATOM     12  F   UNL A   1      34.390  25.756  25.626  1.00  0.00    -0.168 F 
ENDBRANCH   7   9
BRANCH   7  13
ATOM     13  N   UNL A   1      31.973  24.291  25.786  1.00  0.00    -0.330 N 
ATOM     14  C   UNL A   1      32.371  23.204  26.522  1.00  0.00     0.258 C 
ATOM     15  H   UNL A   1      31.219  24.776  26.195  1.00  0.00     0.165 HD
ATOM     16  O   UNL A   1      31.875  23.012  27.627  1.00  0.00    -0.269 OA
BRANCH  14  17
ATOM     17  C   UNL A   1      33.330  22.238  26.015  1.00  0.00     0.111 A 
ATOM     18  C   UNL A   1      34.685  22.374  26.289  1.00  0.00     0.138 A 
ATOM     19  C   UNL A   1      32.879  21.143  25.282  1.00  0.00     0.138 A 
ATOM     20  F   UNL A   1      35.135  23.408  27.014  1.00  0.00    -0.206 F 
ATOM     21  C   UNL A   1      35.600  21.455  25.776  1.00  0.00     0.040 A 
ATOM     22  C   UNL A   1      33.784  20.221  24.762  1.00  0.00     0.040 A 
ATOM     23  F   UNL A   1      31.573  20.984  25.023  1.00  0.00    -0.206 F 
ATOM     24  C   UNL A   1      35.151  20.382  25.001  1.00  0.00     0.006 A 
ENDBRANCH  14  17
ENDBRANCH   7  13
ENDBRANCH   4   7
ENDBRANCH   2   3
ENDBRANCH   1   2
BRANCH   1  25
ATOM     25  C   UNL A   1      33.034  29.548  26.314  1.00  0.00     0.118 C 
BRANCH  25  26
ATOM     26  N   UNL A   1      33.015  30.964  26.651  1.00  0.00    -0.352 N 
ATOM     27  C   UNL A   1      33.854  31.703  27.453  1.00  0.00     0.251 C 
ATOM     28  H   UNL A   1      32.282  31.476  26.239  1.00  0.00     0.163 HD
ATOM     29  O   UNL A   1      33.547  32.863  27.718  1.00  0.00    -0.269 OA
BRANCH  27  30
ATOM     30  C   UNL A   1      35.090  31.113  28.018  1.00  0.00     0.039 A 
ATOM     31  C   UNL A   1      36.232  31.913  28.124  1.00  0.00     0.014 A 
ATOM     32  C   UNL A   1      35.147  29.776  28.417  1.00  0.00     0.014 A 
ATOM     33  C   UNL A   1      37.400  31.393  28.691  1.00  0.00     0.010 A 
ATOM     34  C   UNL A   1      36.278  29.287  29.067  1.00  0.00     0.010 A 
ATOM     35  C   UNL A   1      37.424  30.086  29.202  1.00  0.00    -0.014 A 
BRANCH  35  36
ATOM     36  C   UNL A   1      38.642  29.522  29.845  1.00  0.00     0.031 A 
ATOM     37  C   UNL A   1      39.081  30.029  31.194  1.00  0.00     0.074 A 
ATOM     38  C   UNL A   1      39.386  28.605  29.195  1.00  0.00     0.049 A 
ATOM     39  N   UNL A   1      40.159  29.741  31.880  1.00  0.00    -0.248 NA
ATOM     40  C   UNL A   1      38.209  31.024  31.838  1.00  0.00     0.031 C 
ATOM     41  C   UNL A   1      39.091  28.064  27.866  1.00  0.00     0.029 A 
ATOM     42  N   UNL A   1      40.548  27.970  29.558  1.00  0.00    -0.354 N 
ATOM     43  C   UNL A   1      40.104  30.533  33.023  1.00  0.00     0.074 A 
ATOM     44  C   UNL A   1      38.922  31.360  32.901  1.00  0.00     0.031 C 
ATOM     45  C   UNL A   1      40.032  27.163  27.539  1.00  0.00     0.029 A 
ATOM     46  C   UNL A   1      41.021  27.093  28.610  1.00  0.00     0.049 A 
ATOM     47  H   UNL A   1      41.001  28.130  30.418  1.00  0.00     0.167 HD
ATOM     48  C   UNL A   1      40.945  30.551  34.088  1.00  0.00     0.034 A 
ATOM     49  C   UNL A   1      42.130  26.326  28.600  1.00  0.00     0.034 A 
ATOM     50  C   UNL A   1      42.105  29.703  34.205  1.00  0.00     0.049 A 
ATOM     51  C   UNL A   1      43.053  26.363  29.793  1.00  0.00     0.074 A 
ATOM     52  C   UNL A   1      42.996  29.599  35.261  1.00  0.00     0.029 A 
ATOM     53  N   UNL A   1      42.540  28.811  33.233  1.00  0.00    -0.354 N 
ATOM     54  N   UNL A   1      42.962  27.085  30.886  1.00  0.00    -0.248 NA
ATOM     55  C   UNL A   1      44.217  25.470  29.756  1.00  0.00     0.031 C 
ATOM     56  C   UNL A   1      43.998  28.691  34.903  1.00  0.00     0.029 A 
ATOM     57  C   UNL A   1      43.696  28.171  33.654  1.00  0.00     0.049 A 
ATOM     58  H   UNL A   1      42.093  28.655  32.369  1.00  0.00     0.167 HD
ATOM     59  C   UNL A   1      44.041  26.706  31.680  1.00  0.00     0.074 A 
ATOM     60  C   UNL A   1      44.758  25.685  30.946  1.00  0.00     0.031 C 
ATOM     61  C   UNL A   1      44.404  27.157  32.908  1.00  0.00     0.034 A 
BRANCH  48  62
ATOM     62  C   UNL A   1      40.643  31.538  35.192  1.00  0.00     0.023 A 
ATOM     63  C   UNL A   1      39.610  31.313  36.120  1.00  0.00     0.031 A 
ATOM     64  C   UNL A   1      41.370  32.736  35.298  1.00  0.00     0.131 A 
ATOM     65  C   UNL A   1      39.275  32.308  37.051  1.00  0.00     0.055 A 
ATOM     66  C   UNL A   1      41.089  33.684  36.285  1.00  0.00     0.041 A 
ATOM     67  F   UNL A   1      42.355  33.017  34.431  1.00  0.00    -0.206 F 
ATOM     68  C   UNL A   1      40.025  33.480  37.158  1.00  0.00     0.022 A 
BRANCH  65  69
ATOM     69  S   UNL A   1      37.750  32.112  38.013  1.00  0.00     0.124 S 
ATOM     70  O   UNL A   1      38.203  32.457  39.358  1.00  0.00    -0.237 OA
ATOM     71  O   UNL A   1      36.851  33.067  37.376  1.00  0.00    -0.237 OA
ATOM     72  O   UNL A   1      37.403  30.705  37.823  1.00  0.00    -0.744 OA
ENDBRANCH  65  69
ENDBRANCH  48  62
BRANCH  49  73
ATOM     73  C   UNL A   1      42.438  25.457  27.428  1.00  0.00     0.023 A 
ATOM     74  C   UNL A   1      42.013  24.120  27.389  1.00  0.00     0.031 A 
ATOM     75  C   UNL A   1      43.200  25.939  26.350  1.00  0.00     0.131 A 
ATOM     76  C   UNL A   1      42.391  23.296  26.318  1.00  0.00     0.055 A 
ATOM     77  C   UNL A   1      43.531  25.130  25.262  1.00  0.00     0.041 A 
ATOM     78  F   UNL A   1      43.626  27.213  26.334  1.00  0.00    -0.206 F 
ATOM     79  C   UNL A   1      43.137  23.795  25.248  1.00  0.00     0.022 A 
BRANCH  76  80
ATOM     80  S   UNL A   1      41.961  21.535  26.383  1.00  0.00     0.124 S 
ATOM     81  O   UNL A   1      42.852  20.973  25.375  1.00  0.00    -0.237 OA
ATOM     82  O   UNL A   1      42.267  21.201  27.771  1.00  0.00    -0.237 OA
ATOM     83  O   UNL A   1      40.540  21.520  26.040  1.00  0.00    -0.744 OA
ENDBRANCH  76  80
ENDBRANCH  49  73
BRANCH  61  84
ATOM     84  C   UNL A   1      45.601  26.503  33.552  1.00  0.00     0.023 A 
ATOM     85  C   UNL A   1      45.486  25.326  34.311  1.00  0.00     0.031 A 
ATOM     86  C   UNL A   1      46.877  27.079  33.413  1.00  0.00     0.131 A 
ATOM     87  C   UNL A   1      46.616  24.792  34.948  1.00  0.00     0.055 A 
ATOM     88  C   UNL A   1      48.008  26.511  34.001  1.00  0.00     0.041 A 
ATOM     89  F   UNL A   1      47.045  28.204  32.700  1.00  0.00    -0.206 F 
ATOM     90  C   UNL A   1      47.879  25.368  34.786  1.00  0.00     0.022 A 
BRANCH  87  91
ATOM     91  S   UNL A   1      46.401  23.385  36.072  1.00  0.00     0.124 S 
ATOM     92  O   UNL A   1      47.096  23.843  37.271  1.00  0.00    -0.237 OA
ATOM     93  O   UNL A   1      44.948  23.288  36.175  1.00  0.00    -0.237 OA
ATOM     94  O   UNL A   1      47.045  22.279  35.366  1.00  0.00    -0.744 OA
ENDBRANCH  87  91
ENDBRANCH  61  84
ENDBRANCH  35  36
ENDBRANCH  27  30
ENDBRANCH  25  26
ENDBRANCH   1  25
TORSDOF 16
ENDMDL
