MODEL 1
REMARK VINA RESULT:     -12.8      0.000      0.000
REMARK SMILES CC(C)Cc1ccc(S(=O)(=O)Nc2cnc(N3CCCC3)c(C(=O)NCCCNC(=O)c3ccc(-c4c5nc(c(-c6cc(S(=O)(=O)[O-])ccc6F)c6ccc([nH]6)c(-c6cc(S(=O)(=O)[O-])ccc6F)c6nc(c(-c7cc(S(=O)(=O)[O-])ccc7F)c7ccc4[nH]7)C=C6)C=C5)cc3)c2)cc1
REMARK SMILES IDX 26 1 25 2 23 3 24 4 22 6 13 7 14 8 95 9 15 10 16 11 12 12
REMARK SMILES IDX 9 14 10 15 11 16 8 17 5 18 6 19 97 20 7 21 96 22 4 23 2 24
REMARK SMILES IDX 1 25 3 26 17 27 18 28 21 29 19 30 20 31 27 32 28 33 29 34
REMARK SMILES IDX 30 35 31 37 32 38 33 39 94 40 34 41 93 42 35 43 36 44 37 45
REMARK SMILES IDX 87 46 38 47 92 48 86 49 88 50 39 51 91 52 85 53 84 54 40 56
REMARK SMILES IDX 72 57 52 58 71 59 53 60 56 61 70 62 89 63 54 64 55 65 69 67
REMARK SMILES IDX 90 68 57 69 41 70 42 71 50 72 43 73 49 74 51 75 48 76 44 77
REMARK SMILES IDX 45 78 46 79 47 80 73 81 74 82 82 83 75 84 81 85 83 86 80 87
REMARK SMILES IDX 76 88 77 89 78 90 79 91 58 92 59 93 67 94 60 95 66 96 68 97
REMARK SMILES IDX 65 98 61 99 62 100 63 101 64 102
REMARK H PARENT 25 5 12 13 29 36 88 55 56 66
REMARK Flexibility Score: inf
ROOT
ATOM      1  C   UNL A   1      36.421  20.934  24.707  1.00  0.00     0.118 C 
ENDROOT
BRANCH   1   2
ATOM      2  N   UNL A   1      35.443  20.836  25.773  1.00  0.00    -0.352 N 
ATOM      3  C   UNL A   1      34.083  20.961  25.883  1.00  0.00     0.255 C 
ATOM      4  O   UNL A   1      33.694  20.937  27.050  1.00  0.00    -0.269 OA
ATOM      5  H   UNL A   1      35.862  20.624  26.637  1.00  0.00     0.163 HD
BRANCH   3   6
ATOM      6  C   UNL A   1      33.139  21.040  24.714  1.00  0.00     0.084 A 
ATOM      7  C   UNL A   1      32.227  22.353  22.909  1.00  0.00     0.068 A 
ATOM      8  C   UNL A   1      31.899  21.170  22.275  1.00  0.00     0.140 A 
ATOM      9  C   UNL A   1      32.715  22.279  24.205  1.00  0.00     0.046 A 
ATOM     10  N   UNL A   1      32.159  19.954  22.788  1.00  0.00    -0.236 NA
ATOM     11  C   UNL A   1      32.796  19.874  23.987  1.00  0.00     0.141 A 
BRANCH   7  12
ATOM     12  N   UNL A   1      32.023  23.563  22.173  1.00  0.00    -0.278 N 
ATOM     13  H   UNL A   1      31.206  23.666  21.634  1.00  0.00     0.180 HD
BRANCH  12  14
ATOM     14  S   UNL A   1      33.161  24.825  22.209  1.00  0.00     0.261 S 
ATOM     15  O   UNL A   1      33.302  25.223  20.819  1.00  0.00    -0.201 OA
ATOM     16  O   UNL A   1      34.295  24.330  22.951  1.00  0.00    -0.201 OA
BRANCH  14  17
ATOM     17  C   UNL A   1      32.557  26.266  23.068  1.00  0.00     0.087 A 
ATOM     18  C   UNL A   1      31.382  28.704  23.883  1.00  0.00    -0.048 A 
ATOM     19  C   UNL A   1      32.492  28.698  23.035  1.00  0.00     0.005 A 
ATOM     20  C   UNL A   1      30.931  27.469  24.387  1.00  0.00     0.005 A 
ATOM     21  C   UNL A   1      33.070  27.493  22.626  1.00  0.00     0.022 A 
ATOM     22  C   UNL A   1      31.534  26.258  24.011  1.00  0.00     0.022 A 
BRANCH  18  23
ATOM     23  C   UNL A   1      30.579  29.966  24.151  1.00  0.00     0.038 C 
BRANCH  23  24
ATOM     24  C   UNL A   1      29.255  30.150  23.375  1.00  0.00    -0.013 C 
ATOM     25  C   UNL A   1      28.510  31.433  23.760  1.00  0.00     0.008 C 
ATOM     26  C   UNL A   1      29.547  30.215  21.868  1.00  0.00     0.008 C 
ENDBRANCH  23  24
ENDBRANCH  18  23
ENDBRANCH  14  17
ENDBRANCH  12  14
ENDBRANCH   7  12
BRANCH  11  27
ATOM     27  N   UNL A   1      33.119  18.606  24.367  1.00  0.00    -0.356 N 
ATOM     28  C   UNL A   1      34.392  17.975  24.059  1.00  0.00     0.118 C 
ATOM     29  C   UNL A   1      32.479  17.962  25.500  1.00  0.00     0.118 C 
ATOM     30  C   UNL A   1      34.079  16.520  24.390  1.00  0.00     0.023 C 
ATOM     31  C   UNL A   1      33.250  16.645  25.665  1.00  0.00     0.023 C 
ENDBRANCH  11  27
ENDBRANCH   3   6
ENDBRANCH   1   2
BRANCH   1  32
ATOM     32  C   UNL A   1      36.878  22.378  24.530  1.00  0.00     0.042 C 
BRANCH  32  33
ATOM     33  C   UNL A   1      37.601  22.929  25.758  1.00  0.00     0.118 C 
BRANCH  33  34
ATOM     34  N   UNL A   1      38.680  22.055  26.194  1.00  0.00    -0.352 N 
ATOM     35  C   UNL A   1      39.923  22.368  26.678  1.00  0.00     0.251 C 
ATOM     36  H   UNL A   1      38.486  21.092  26.133  1.00  0.00     0.163 HD
ATOM     37  O   UNL A   1      40.772  21.484  26.758  1.00  0.00    -0.269 OA
BRANCH  35  38
ATOM     38  C   UNL A   1      40.241  23.752  27.088  1.00  0.00     0.039 A 
ATOM     39  C   UNL A   1      40.770  23.971  28.363  1.00  0.00     0.014 A 
ATOM     40  C   UNL A   1      39.984  24.834  26.241  1.00  0.00     0.014 A 
ATOM     41  C   UNL A   1      41.085  25.268  28.768  1.00  0.00     0.010 A 
ATOM     42  C   UNL A   1      40.364  26.119  26.618  1.00  0.00     0.010 A 
ATOM     43  C   UNL A   1      40.908  26.350  27.890  1.00  0.00    -0.014 A 
BRANCH  43  44
ATOM     44  C   UNL A   1      41.281  27.728  28.300  1.00  0.00     0.031 A 
ATOM     45  C   UNL A   1      42.721  28.157  28.306  1.00  0.00     0.074 A 
ATOM     46  C   UNL A   1      40.321  28.572  28.723  1.00  0.00     0.049 A 
ATOM     47  N   UNL A   1      43.244  29.307  28.650  1.00  0.00    -0.248 NA
ATOM     48  C   UNL A   1      43.708  27.143  27.908  1.00  0.00     0.031 C 
ATOM     49  C   UNL A   1      38.898  28.242  28.840  1.00  0.00     0.029 A 
ATOM     50  N   UNL A   1      40.396  29.874  29.143  1.00  0.00    -0.354 N 
ATOM     51  C   UNL A   1      44.621  29.151  28.521  1.00  0.00     0.074 A 
ATOM     52  C   UNL A   1      44.848  27.774  28.138  1.00  0.00     0.031 C 
ATOM     53  C   UNL A   1      38.234  29.319  29.287  1.00  0.00     0.029 A 
ATOM     54  C   UNL A   1      39.183  30.405  29.510  1.00  0.00     0.049 A 
ATOM     55  H   UNL A   1      41.240  30.380  29.181  1.00  0.00     0.167 HD
ATOM     56  C   UNL A   1      45.600  30.078  28.680  1.00  0.00     0.034 A 
ATOM     57  C   UNL A   1      38.870  31.630  29.972  1.00  0.00     0.034 A 
ATOM     58  C   UNL A   1      45.350  31.449  29.060  1.00  0.00     0.049 A 
ATOM     59  C   UNL A   1      39.960  32.658  30.101  1.00  0.00     0.074 A 
ATOM     60  C   UNL A   1      46.252  32.490  29.195  1.00  0.00     0.029 A 
ATOM     61  N   UNL A   1      44.100  31.969  29.377  1.00  0.00    -0.354 N 
ATOM     62  N   UNL A   1      41.251  32.523  29.901  1.00  0.00    -0.248 NA
ATOM     63  C   UNL A   1      39.545  34.010  30.490  1.00  0.00     0.031 C 
ATOM     64  C   UNL A   1      45.557  33.621  29.646  1.00  0.00     0.029 A 
ATOM     65  C   UNL A   1      44.210  33.307  29.731  1.00  0.00     0.049 A 
ATOM     66  H   UNL A   1      43.256  31.461  29.356  1.00  0.00     0.167 HD
ATOM     67  C   UNL A   1      41.803  33.777  30.136  1.00  0.00     0.074 A 
ATOM     68  C   UNL A   1      40.699  34.660  30.458  1.00  0.00     0.031 C 
ATOM     69  C   UNL A   1      43.104  34.165  30.088  1.00  0.00     0.034 A 
BRANCH  56  70
ATOM     70  C   UNL A   1      47.023  29.615  28.464  1.00  0.00     0.023 A 
ATOM     71  C   UNL A   1      47.492  29.250  27.188  1.00  0.00     0.031 A 
ATOM     72  C   UNL A   1      47.903  29.466  29.549  1.00  0.00     0.131 A 
ATOM     73  C   UNL A   1      48.756  28.659  27.045  1.00  0.00     0.055 A 
ATOM     74  C   UNL A   1      49.196  28.962  29.387  1.00  0.00     0.041 A 
ATOM     75  F   UNL A   1      47.512  29.779  30.795  1.00  0.00    -0.206 F 
ATOM     76  C   UNL A   1      49.622  28.533  28.134  1.00  0.00     0.022 A 
BRANCH  73  77
ATOM     77  S   UNL A   1      49.175  27.889  25.456  1.00  0.00     0.124 S 
ATOM     78  O   UNL A   1      48.033  28.274  24.631  1.00  0.00    -0.237 OA
ATOM     79  O   UNL A   1      50.446  28.521  25.125  1.00  0.00    -0.237 OA
ATOM     80  O   UNL A   1      49.250  26.464  25.774  1.00  0.00    -0.744 OA
ENDBRANCH  73  77
ENDBRANCH  56  70
BRANCH  57  81
ATOM     81  C   UNL A   1      37.464  31.945  30.340  1.00  0.00     0.023 A 
ATOM     82  C   UNL A   1      36.560  32.448  29.391  1.00  0.00     0.031 A 
ATOM     83  C   UNL A   1      37.005  31.739  31.653  1.00  0.00     0.131 A 
ATOM     84  C   UNL A   1      35.246  32.757  29.777  1.00  0.00     0.055 A 
ATOM     85  C   UNL A   1      35.688  32.014  32.022  1.00  0.00     0.041 A 
ATOM     86  F   UNL A   1      37.829  31.244  32.589  1.00  0.00    -0.206 F 
ATOM     87  C   UNL A   1      34.802  32.534  31.083  1.00  0.00     0.022 A 
BRANCH  84  88
ATOM     88  S   UNL A   1      34.130  33.492  28.551  1.00  0.00     0.124 S 
ATOM     89  O   UNL A   1      35.040  34.339  27.790  1.00  0.00    -0.237 OA
ATOM     90  O   UNL A   1      33.622  32.311  27.859  1.00  0.00    -0.237 OA
ATOM     91  O   UNL A   1      33.148  34.202  29.367  1.00  0.00    -0.744 OA
ENDBRANCH  84  88
ENDBRANCH  57  81
BRANCH  69  92
ATOM     92  C   UNL A   1      43.383  35.617  30.390  1.00  0.00     0.023 A 
ATOM     93  C   UNL A   1      43.393  36.589  29.374  1.00  0.00     0.031 A 
ATOM     94  C   UNL A   1      43.690  36.025  31.700  1.00  0.00     0.131 A 
ATOM     95  C   UNL A   1      43.771  37.908  29.671  1.00  0.00     0.055 A 
ATOM     96  C   UNL A   1      44.006  37.351  32.001  1.00  0.00     0.041 A 
ATOM     97  F   UNL A   1      43.698  35.139  32.708  1.00  0.00    -0.206 F 
ATOM     98  C   UNL A   1      44.064  38.297  30.980  1.00  0.00     0.022 A 
BRANCH  95  99
ATOM     99  S   UNL A   1      43.986  39.080  28.304  1.00  0.00     0.124 S 
ATOM    100  O   UNL A   1      44.039  38.191  27.147  1.00  0.00    -0.237 OA
ATOM    101  O   UNL A   1      42.791  39.911  28.416  1.00  0.00    -0.237 OA
ATOM    102  O   UNL A   1      45.242  39.754  28.625  1.00  0.00    -0.744 OA
ENDBRANCH  95  99
ENDBRANCH  69  92
ENDBRANCH  43  44
ENDBRANCH  35  38
ENDBRANCH  33  34
ENDBRANCH  32  33
ENDBRANCH   1  32
TORSDOF 19
ENDMDL
MODEL 2
REMARK VINA RESULT:     -12.6      5.497      9.290
REMARK SMILES CC(C)Cc1ccc(S(=O)(=O)Nc2cnc(N3CCCC3)c(C(=O)NCCCNC(=O)c3ccc(-c4c5nc(c(-c6cc(S(=O)(=O)[O-])ccc6F)c6ccc([nH]6)c(-c6cc(S(=O)(=O)[O-])ccc6F)c6nc(c(-c7cc(S(=O)(=O)[O-])ccc7F)c7ccc4[nH]7)C=C6)C=C5)cc3)c2)cc1
REMARK SMILES IDX 26 1 25 2 23 3 24 4 22 6 13 7 14 8 95 9 15 10 16 11 12 12
REMARK SMILES IDX 9 14 10 15 11 16 8 17 5 18 6 19 97 20 7 21 96 22 4 23 2 24
REMARK SMILES IDX 1 25 3 26 17 27 18 28 21 29 19 30 20 31 27 32 28 33 29 34
REMARK SMILES IDX 30 35 31 37 32 38 33 39 94 40 34 41 93 42 35 43 36 44 37 45
REMARK SMILES IDX 87 46 38 47 92 48 86 49 88 50 39 51 91 52 85 53 84 54 40 56
REMARK SMILES IDX 72 57 52 58 71 59 53 60 56 61 70 62 89 63 54 64 55 65 69 67
REMARK SMILES IDX 90 68 57 69 41 70 42 71 50 72 43 73 49 74 51 75 48 76 44 77
REMARK SMILES IDX 45 78 46 79 47 80 73 81 74 82 82 83 75 84 81 85 83 86 80 87
REMARK SMILES IDX 76 88 77 89 78 90 79 91 58 92 59 93 67 94 60 95 66 96 68 97
REMARK SMILES IDX 65 98 61 99 62 100 63 101 64 102
REMARK H PARENT 25 5 12 13 29 36 88 55 56 66
REMARK Flexibility Score: inf
ROOT
ATOM      1  C   UNL A   1      31.904  30.528  25.750  1.00  0.00     0.118 C 
ENDROOT
BRANCH   1   2
ATOM      2  N   UNL A   1      31.572  29.372  26.558  1.00  0.00    -0.352 N 
ATOM      3  C   UNL A   1      31.580  28.012  26.392  1.00  0.00     0.255 C 
ATOM      4  O   UNL A   1      31.059  27.413  27.332  1.00  0.00    -0.269 OA
ATOM      5  H   UNL A   1      31.261  29.630  27.456  1.00  0.00     0.163 HD
BRANCH   3   6
ATOM      6  C   UNL A   1      32.224  27.301  25.233  1.00  0.00     0.084 A 
ATOM      7  C   UNL A   1      33.762  25.606  24.475  1.00  0.00     0.068 A 
ATOM      8  C   UNL A   1      33.064  25.570  23.283  1.00  0.00     0.140 A 
ATOM      9  C   UNL A   1      33.424  26.589  25.394  1.00  0.00     0.046 A 
ATOM     10  N   UNL A   1      31.988  26.337  23.028  1.00  0.00    -0.236 NA
ATOM     11  C   UNL A   1      31.545  27.183  23.996  1.00  0.00     0.141 A 
BRANCH   7  12
ATOM     12  N   UNL A   1      34.790  24.628  24.656  1.00  0.00    -0.278 N 
ATOM     13  H   UNL A   1      35.534  24.588  24.013  1.00  0.00     0.180 HD
BRANCH  12  14
ATOM     14  S   UNL A   1      34.754  23.534  25.956  1.00  0.00     0.261 S 
ATOM     15  O   UNL A   1      33.752  24.078  26.857  1.00  0.00    -0.201 OA
ATOM     16  O   UNL A   1      36.120  23.369  26.387  1.00  0.00    -0.201 OA
BRANCH  14  17
ATOM     17  C   UNL A   1      34.154  21.925  25.479  1.00  0.00     0.087 A 
ATOM     18  C   UNL A   1      33.067  19.650  24.199  1.00  0.00    -0.048 A 
ATOM     19  C   UNL A   1      32.248  20.723  24.561  1.00  0.00     0.005 A 
ATOM     20  C   UNL A   1      34.423  19.701  24.575  1.00  0.00     0.005 A 
ATOM     21  C   UNL A   1      32.784  21.850  25.188  1.00  0.00     0.022 A 
ATOM     22  C   UNL A   1      34.959  20.815  25.240  1.00  0.00     0.022 A 
BRANCH  18  23
ATOM     23  C   UNL A   1      32.574  18.525  23.305  1.00  0.00     0.038 C 
BRANCH  23  24
ATOM     24  C   UNL A   1      32.749  17.077  23.817  1.00  0.00    -0.013 C 
ATOM     25  C   UNL A   1      34.118  16.481  23.471  1.00  0.00     0.008 C 
ATOM     26  C   UNL A   1      32.602  17.050  25.346  1.00  0.00     0.008 C 
ENDBRANCH  23  24
ENDBRANCH  18  23
ENDBRANCH  14  17
ENDBRANCH  12  14
ENDBRANCH   7  12
BRANCH  11  27
ATOM     27  N   UNL A   1      30.385  27.829  23.688  1.00  0.00    -0.356 N 
ATOM     28  C   UNL A   1      30.323  29.003  22.835  1.00  0.00     0.118 C 
ATOM     29  C   UNL A   1      29.098  27.157  23.746  1.00  0.00     0.118 C 
ATOM     30  C   UNL A   1      28.906  29.490  23.118  1.00  0.00     0.023 C 
ATOM     31  C   UNL A   1      28.116  28.185  23.169  1.00  0.00     0.023 C 
ENDBRANCH  11  27
ENDBRANCH   3   6
ENDBRANCH   1   2
BRANCH   1  32
ATOM     32  C   UNL A   1      31.626  31.817  26.516  1.00  0.00     0.042 C 
BRANCH  32  33
ATOM     33  C   UNL A   1      32.889  32.446  27.103  1.00  0.00     0.118 C 
BRANCH  33  34
ATOM     34  N   UNL A   1      32.658  33.809  27.559  1.00  0.00    -0.352 N 
ATOM     35  C   UNL A   1      33.192  34.479  28.629  1.00  0.00     0.251 C 
ATOM     36  H   UNL A   1      32.023  34.328  27.016  1.00  0.00     0.163 HD
ATOM     37  O   UNL A   1      32.682  35.539  28.983  1.00  0.00    -0.269 OA
BRANCH  35  38
ATOM     38  C   UNL A   1      34.357  33.928  29.353  1.00  0.00     0.039 A 
ATOM     39  C   UNL A   1      34.132  33.085  30.444  1.00  0.00     0.014 A 
ATOM     40  C   UNL A   1      35.663  34.269  28.988  1.00  0.00     0.014 A 
ATOM     41  C   UNL A   1      35.217  32.547  31.138  1.00  0.00     0.010 A 
ATOM     42  C   UNL A   1      36.744  33.676  29.635  1.00  0.00     0.010 A 
ATOM     43  C   UNL A   1      36.531  32.818  30.724  1.00  0.00    -0.014 A 
BRANCH  43  44
ATOM     44  C   UNL A   1      37.689  32.215  31.432  1.00  0.00     0.031 A 
ATOM     45  C   UNL A   1      38.456  31.084  30.808  1.00  0.00     0.074 A 
ATOM     46  C   UNL A   1      38.008  32.652  32.664  1.00  0.00     0.049 A 
ATOM     47  N   UNL A   1      39.479  30.416  31.279  1.00  0.00    -0.248 NA
ATOM     48  C   UNL A   1      37.985  30.616  29.497  1.00  0.00     0.031 C 
ATOM     49  C   UNL A   1      37.284  33.688  33.406  1.00  0.00     0.029 A 
ATOM     50  N   UNL A   1      39.013  32.275  33.515  1.00  0.00    -0.354 N 
ATOM     51  C   UNL A   1      39.767  29.442  30.327  1.00  0.00     0.074 A 
ATOM     52  C   UNL A   1      38.763  29.565  29.291  1.00  0.00     0.031 C 
ATOM     53  C   UNL A   1      37.880  33.873  34.595  1.00  0.00     0.029 A 
ATOM     54  C   UNL A   1      39.010  32.956  34.708  1.00  0.00     0.049 A 
ATOM     55  H   UNL A   1      39.675  31.580  33.293  1.00  0.00     0.167 HD
ATOM     56  C   UNL A   1      40.789  28.549  30.306  1.00  0.00     0.034 A 
ATOM     57  C   UNL A   1      39.826  32.854  35.774  1.00  0.00     0.034 A 
ATOM     58  C   UNL A   1      41.783  28.445  31.349  1.00  0.00     0.049 A 
ATOM     59  C   UNL A   1      40.979  31.890  35.717  1.00  0.00     0.074 A 
ATOM     60  C   UNL A   1      42.894  27.621  31.410  1.00  0.00     0.029 A 
ATOM     61  N   UNL A   1      41.778  29.186  32.525  1.00  0.00    -0.354 N 
ATOM     62  N   UNL A   1      41.288  31.027  34.776  1.00  0.00    -0.248 NA
ATOM     63  C   UNL A   1      41.908  31.909  36.852  1.00  0.00     0.031 C 
ATOM     64  C   UNL A   1      43.527  27.825  32.644  1.00  0.00     0.029 A 
ATOM     65  C   UNL A   1      42.851  28.822  33.327  1.00  0.00     0.049 A 
ATOM     66  H   UNL A   1      41.109  29.870  32.757  1.00  0.00     0.167 HD
ATOM     67  C   UNL A   1      42.454  30.402  35.206  1.00  0.00     0.074 A 
ATOM     68  C   UNL A   1      42.807  31.013  36.472  1.00  0.00     0.031 C 
ATOM     69  C   UNL A   1      43.168  29.413  34.607  1.00  0.00     0.034 A 
BRANCH  56  70
ATOM     70  C   UNL A   1      40.851  27.607  29.124  1.00  0.00     0.023 A 
ATOM     71  C   UNL A   1      41.793  27.783  28.092  1.00  0.00     0.031 A 
ATOM     72  C   UNL A   1      39.919  26.566  28.985  1.00  0.00     0.131 A 
ATOM     73  C   UNL A   1      41.714  27.006  26.927  1.00  0.00     0.055 A 
ATOM     74  C   UNL A   1      39.904  25.734  27.862  1.00  0.00     0.041 A 
ATOM     75  F   UNL A   1      38.983  26.355  29.924  1.00  0.00    -0.206 F 
ATOM     76  C   UNL A   1      40.790  25.965  26.815  1.00  0.00     0.022 A 
BRANCH  73  77
ATOM     77  S   UNL A   1      42.711  27.496  25.492  1.00  0.00     0.124 S 
ATOM     78  O   UNL A   1      41.932  28.611  24.958  1.00  0.00    -0.237 OA
ATOM     79  O   UNL A   1      43.990  27.843  26.100  1.00  0.00    -0.237 OA
ATOM     80  O   UNL A   1      42.721  26.298  24.655  1.00  0.00    -0.744 OA
ENDBRANCH  73  77
ENDBRANCH  56  70
BRANCH  57  81
ATOM     81  C   UNL A   1      39.579  33.692  36.978  1.00  0.00     0.023 A 
ATOM     82  C   UNL A   1      38.879  33.185  38.084  1.00  0.00     0.031 A 
ATOM     83  C   UNL A   1      40.051  35.014  37.038  1.00  0.00     0.131 A 
ATOM     84  C   UNL A   1      38.643  34.010  39.196  1.00  0.00     0.055 A 
ATOM     85  C   UNL A   1      39.846  35.818  38.161  1.00  0.00     0.041 A 
ATOM     86  F   UNL A   1      40.741  35.535  36.011  1.00  0.00    -0.206 F 
ATOM     87  C   UNL A   1      39.130  35.318  39.245  1.00  0.00     0.022 A 
BRANCH  84  88
ATOM     88  S   UNL A   1      37.655  33.355  40.569  1.00  0.00     0.124 S 
ATOM     89  O   UNL A   1      37.436  34.551  41.375  1.00  0.00    -0.237 OA
ATOM     90  O   UNL A   1      36.485  32.827  39.874  1.00  0.00    -0.237 OA
ATOM     91  O   UNL A   1      38.528  32.348  41.167  1.00  0.00    -0.744 OA
ENDBRANCH  84  88
ENDBRANCH  57  81
BRANCH  69  92
ATOM     92  C   UNL A   1      44.408  28.948  35.332  1.00  0.00     0.023 A 
ATOM     93  C   UNL A   1      44.333  28.039  36.403  1.00  0.00     0.031 A 
ATOM     94  C   UNL A   1      45.670  29.455  34.979  1.00  0.00     0.131 A 
ATOM     95  C   UNL A   1      45.490  27.717  37.129  1.00  0.00     0.055 A 
ATOM     96  C   UNL A   1      46.827  29.085  35.667  1.00  0.00     0.041 A 
ATOM     97  F   UNL A   1      45.798  30.327  33.969  1.00  0.00    -0.206 F 
ATOM     98  C   UNL A   1      46.739  28.224  36.760  1.00  0.00     0.022 A 
BRANCH  95  99
ATOM     99  S   UNL A   1      45.324  26.719  38.634  1.00  0.00     0.124 S 
ATOM    100  O   UNL A   1      44.895  27.715  39.613  1.00  0.00    -0.237 OA
ATOM    101  O   UNL A   1      44.320  25.734  38.244  1.00  0.00    -0.237 OA
ATOM    102  O   UNL A   1      46.668  26.186  38.843  1.00  0.00    -0.744 OA
ENDBRANCH  95  99
ENDBRANCH  69  92
ENDBRANCH  43  44
ENDBRANCH  35  38
ENDBRANCH  33  34
ENDBRANCH  32  33
ENDBRANCH   1  32
TORSDOF 19
ENDMDL
MODEL 3
REMARK VINA RESULT:     -12.5      1.855      2.126
REMARK SMILES CC(C)Cc1ccc(S(=O)(=O)Nc2cnc(N3CCCC3)c(C(=O)NCCCNC(=O)c3ccc(-c4c5nc(c(-c6cc(S(=O)(=O)[O-])ccc6F)c6ccc([nH]6)c(-c6cc(S(=O)(=O)[O-])ccc6F)c6nc(c(-c7cc(S(=O)(=O)[O-])ccc7F)c7ccc4[nH]7)C=C6)C=C5)cc3)c2)cc1
REMARK SMILES IDX 26 1 25 2 23 3 24 4 22 6 13 7 14 8 95 9 15 10 16 11 12 12
REMARK SMILES IDX 9 14 10 15 11 16 8 17 5 18 6 19 97 20 7 21 96 22 4 23 2 24
REMARK SMILES IDX 1 25 3 26 17 27 18 28 21 29 19 30 20 31 27 32 28 33 29 34
REMARK SMILES IDX 30 35 31 37 32 38 33 39 94 40 34 41 93 42 35 43 36 44 37 45
REMARK SMILES IDX 87 46 38 47 92 48 86 49 88 50 39 51 91 52 85 53 84 54 40 56
REMARK SMILES IDX 72 57 52 58 71 59 53 60 56 61 70 62 89 63 54 64 55 65 69 67
REMARK SMILES IDX 90 68 57 69 41 70 42 71 50 72 43 73 49 74 51 75 48 76 44 77
REMARK SMILES IDX 45 78 46 79 47 80 73 81 74 82 82 83 75 84 81 85 83 86 80 87
REMARK SMILES IDX 76 88 77 89 78 90 79 91 58 92 59 93 67 94 60 95 66 96 68 97
REMARK SMILES IDX 65 98 61 99 62 100 63 101 64 102
REMARK H PARENT 25 5 12 13 29 36 88 55 56 66
REMARK Flexibility Score: inf
ROOT
ATOM      1  C   UNL A   1      36.500  21.078  24.786  1.00  0.00     0.118 C 
ENDROOT
BRANCH   1   2
ATOM      2  N   UNL A   1      35.529  20.984  25.858  1.00  0.00    -0.352 N 
ATOM      3  C   UNL A   1      34.166  21.062  25.968  1.00  0.00     0.255 C 
ATOM      4  O   UNL A   1      33.780  21.068  27.137  1.00  0.00    -0.269 OA
ATOM      5  H   UNL A   1      35.959  20.822  26.728  1.00  0.00     0.163 HD
BRANCH   3   6
ATOM      6  C   UNL A   1      33.217  21.059  24.801  1.00  0.00     0.084 A 
ATOM      7  C   UNL A   1      32.284  22.250  22.923  1.00  0.00     0.068 A 
ATOM      8  C   UNL A   1      31.966  21.027  22.363  1.00  0.00     0.140 A 
ATOM      9  C   UNL A   1      32.777  22.260  24.220  1.00  0.00     0.046 A 
ATOM     10  N   UNL A   1      32.242  19.847  22.949  1.00  0.00    -0.236 NA
ATOM     11  C   UNL A   1      32.885  19.847  24.147  1.00  0.00     0.141 A 
BRANCH   7  12
ATOM     12  N   UNL A   1      32.064  23.410  22.116  1.00  0.00    -0.278 N 
ATOM     13  H   UNL A   1      31.275  23.445  21.529  1.00  0.00     0.180 HD
BRANCH  12  14
ATOM     14  S   UNL A   1      33.135  24.729  22.150  1.00  0.00     0.261 S 
ATOM     15  O   UNL A   1      33.230  25.151  20.762  1.00  0.00    -0.201 OA
ATOM     16  O   UNL A   1      34.306  24.285  22.866  1.00  0.00    -0.201 OA
BRANCH  14  17
ATOM     17  C   UNL A   1      32.472  26.126  23.037  1.00  0.00     0.087 A 
ATOM     18  C   UNL A   1      31.259  28.533  23.891  1.00  0.00    -0.048 A 
ATOM     19  C   UNL A   1      32.447  28.556  23.155  1.00  0.00     0.005 A 
ATOM     20  C   UNL A   1      30.744  27.278  24.269  1.00  0.00     0.005 A 
ATOM     21  C   UNL A   1      33.044  27.368  22.727  1.00  0.00     0.022 A 
ATOM     22  C   UNL A   1      31.363  26.080  23.875  1.00  0.00     0.022 A 
BRANCH  18  23
ATOM     23  C   UNL A   1      30.454  29.792  24.162  1.00  0.00     0.038 C 
BRANCH  23  24
ATOM     24  C   UNL A   1      29.426  30.226  23.092  1.00  0.00    -0.013 C 
ATOM     25  C   UNL A   1      29.881  29.913  21.662  1.00  0.00     0.008 C 
ATOM     26  C   UNL A   1      28.096  29.495  23.329  1.00  0.00     0.008 C 
ENDBRANCH  23  24
ENDBRANCH  18  23
ENDBRANCH  14  17
ENDBRANCH  12  14
ENDBRANCH   7  12
BRANCH  11  27
ATOM     27  N   UNL A   1      33.223  18.608  24.602  1.00  0.00    -0.356 N 
ATOM     28  C   UNL A   1      32.250  17.615  25.026  1.00  0.00     0.118 C 
ATOM     29  C   UNL A   1      34.486  17.983  24.248  1.00  0.00     0.118 C 
ATOM     30  C   UNL A   1      33.152  16.614  25.739  1.00  0.00     0.023 C 
ATOM     31  C   UNL A   1      34.374  16.565  24.825  1.00  0.00     0.023 C 
ENDBRANCH  11  27
ENDBRANCH   3   6
ENDBRANCH   1   2
BRANCH   1  32
ATOM     32  C   UNL A   1      36.920  22.528  24.568  1.00  0.00     0.042 C 
BRANCH  32  33
ATOM     33  C   UNL A   1      37.753  23.086  25.721  1.00  0.00     0.118 C 
BRANCH  33  34
ATOM     34  N   UNL A   1      38.880  22.225  26.047  1.00  0.00    -0.352 N 
ATOM     35  C   UNL A   1      40.143  22.551  26.468  1.00  0.00     0.251 C 
ATOM     36  H   UNL A   1      38.708  21.260  25.951  1.00  0.00     0.163 HD
ATOM     37  O   UNL A   1      41.018  21.690  26.452  1.00  0.00    -0.269 OA
BRANCH  35  38
ATOM     38  C   UNL A   1      40.450  23.924  26.923  1.00  0.00     0.039 A 
ATOM     39  C   UNL A   1      40.886  24.115  28.237  1.00  0.00     0.014 A 
ATOM     40  C   UNL A   1      40.271  25.023  26.077  1.00  0.00     0.014 A 
ATOM     41  C   UNL A   1      41.188  25.401  28.686  1.00  0.00     0.010 A 
ATOM     42  C   UNL A   1      40.641  26.296  26.504  1.00  0.00     0.010 A 
ATOM     43  C   UNL A   1      41.092  26.499  27.816  1.00  0.00    -0.014 A 
BRANCH  43  44
ATOM     44  C   UNL A   1      41.453  27.864  28.275  1.00  0.00     0.031 A 
ATOM     45  C   UNL A   1      42.889  28.305  28.294  1.00  0.00     0.074 A 
ATOM     46  C   UNL A   1      40.486  28.683  28.730  1.00  0.00     0.049 A 
ATOM     47  N   UNL A   1      43.402  29.446  28.680  1.00  0.00    -0.248 NA
ATOM     48  C   UNL A   1      43.885  27.315  27.859  1.00  0.00     0.031 C 
ATOM     49  C   UNL A   1      39.067  28.336  28.836  1.00  0.00     0.029 A 
ATOM     50  N   UNL A   1      40.551  29.969  29.197  1.00  0.00    -0.354 N 
ATOM     51  C   UNL A   1      44.780  29.308  28.544  1.00  0.00     0.074 A 
ATOM     52  C   UNL A   1      45.020  27.948  28.110  1.00  0.00     0.031 C 
ATOM     53  C   UNL A   1      38.394  29.390  29.323  1.00  0.00     0.029 A 
ATOM     54  C   UNL A   1      39.333  30.476  29.584  1.00  0.00     0.049 A 
ATOM     55  H   UNL A   1      41.390  30.482  29.252  1.00  0.00     0.167 HD
ATOM     56  C   UNL A   1      45.751  30.238  28.735  1.00  0.00     0.034 A 
ATOM     57  C   UNL A   1      39.010  31.680  30.091  1.00  0.00     0.034 A 
ATOM     58  C   UNL A   1      45.489  31.592  29.166  1.00  0.00     0.049 A 
ATOM     59  C   UNL A   1      40.091  32.712  30.256  1.00  0.00     0.074 A 
ATOM     60  C   UNL A   1      46.383  32.635  29.337  1.00  0.00     0.029 A 
ATOM     61  N   UNL A   1      44.235  32.088  29.503  1.00  0.00    -0.354 N 
ATOM     62  N   UNL A   1      41.382  32.596  30.050  1.00  0.00    -0.248 NA
ATOM     63  C   UNL A   1      39.664  34.046  30.695  1.00  0.00     0.031 C 
ATOM     64  C   UNL A   1      45.678  33.742  29.830  1.00  0.00     0.029 A 
ATOM     65  C   UNL A   1      44.335  33.413  29.905  1.00  0.00     0.049 A 
ATOM     66  H   UNL A   1      43.397  31.573  29.464  1.00  0.00     0.167 HD
ATOM     67  C   UNL A   1      41.924  33.846  30.329  1.00  0.00     0.074 A 
ATOM     68  C   UNL A   1      40.812  34.707  30.685  1.00  0.00     0.031 C 
ATOM     69  C   UNL A   1      43.221  34.248  30.295  1.00  0.00     0.034 A 
BRANCH  56  70
ATOM     70  C   UNL A   1      47.178  29.795  28.501  1.00  0.00     0.023 A 
ATOM     71  C   UNL A   1      47.968  29.276  29.544  1.00  0.00     0.031 A 
ATOM     72  C   UNL A   1      47.784  29.957  27.243  1.00  0.00     0.131 A 
ATOM     73  C   UNL A   1      49.336  29.040  29.341  1.00  0.00     0.055 A 
ATOM     74  C   UNL A   1      49.125  29.634  27.023  1.00  0.00     0.041 A 
ATOM     75  F   UNL A   1      47.091  30.465  26.210  1.00  0.00    -0.206 F 
ATOM     76  C   UNL A   1      49.915  29.193  28.079  1.00  0.00     0.022 A 
BRANCH  73  77
ATOM     77  S   UNL A   1      50.380  28.711  30.788  1.00  0.00     0.124 S 
ATOM     78  O   UNL A   1      51.526  28.038  30.179  1.00  0.00    -0.237 OA
ATOM     79  O   UNL A   1      50.628  30.050  31.308  1.00  0.00    -0.237 OA
ATOM     80  O   UNL A   1      49.543  27.858  31.629  1.00  0.00    -0.744 OA
ENDBRANCH  73  77
ENDBRANCH  56  70
BRANCH  57  81
ATOM     81  C   UNL A   1      37.601  31.969  30.472  1.00  0.00     0.023 A 
ATOM     82  C   UNL A   1      36.703  32.539  29.557  1.00  0.00     0.031 A 
ATOM     83  C   UNL A   1      37.134  31.669  31.764  1.00  0.00     0.131 A 
ATOM     84  C   UNL A   1      35.387  32.821  29.956  1.00  0.00     0.055 A 
ATOM     85  C   UNL A   1      35.814  31.917  32.144  1.00  0.00     0.041 A 
ATOM     86  F   UNL A   1      37.953  31.107  32.667  1.00  0.00    -0.206 F 
ATOM     87  C   UNL A   1      34.935  32.505  31.239  1.00  0.00     0.022 A 
BRANCH  84  88
ATOM     88  S   UNL A   1      34.280  33.643  28.779  1.00  0.00     0.124 S 
ATOM     89  O   UNL A   1      35.176  34.605  28.148  1.00  0.00    -0.237 OA
ATOM     90  O   UNL A   1      33.844  32.528  27.944  1.00  0.00    -0.237 OA
ATOM     91  O   UNL A   1      33.243  34.220  29.632  1.00  0.00    -0.744 OA
ENDBRANCH  84  88
ENDBRANCH  57  81
BRANCH  69  92
ATOM     92  C   UNL A   1      43.488  35.691  30.649  1.00  0.00     0.023 A 
ATOM     93  C   UNL A   1      43.529  36.121  31.987  1.00  0.00     0.031 A 
ATOM     94  C   UNL A   1      43.654  36.652  29.638  1.00  0.00     0.131 A 
ATOM     95  C   UNL A   1      43.663  37.487  32.278  1.00  0.00     0.055 A 
ATOM     96  C   UNL A   1      43.847  38.002  29.934  1.00  0.00     0.041 A 
ATOM     97  F   UNL A   1      43.620  36.297  28.344  1.00  0.00    -0.206 F 
ATOM     98  C   UNL A   1      43.835  38.429  31.260  1.00  0.00     0.022 A 
BRANCH  95  99
ATOM     99  S   UNL A   1      43.491  38.031  34.000  1.00  0.00     0.124 S 
ATOM    100  O   UNL A   1      42.899  39.357  33.842  1.00  0.00    -0.237 OA
ATOM    101  O   UNL A   1      42.620  37.006  34.564  1.00  0.00    -0.237 OA
ATOM    102  O   UNL A   1      44.864  38.023  34.501  1.00  0.00    -0.744 OA
ENDBRANCH  95  99
ENDBRANCH  69  92
ENDBRANCH  43  44
ENDBRANCH  35  38
ENDBRANCH  33  34
ENDBRANCH  32  33
ENDBRANCH   1  32
TORSDOF 19
ENDMDL
