MODEL 1
REMARK VINA RESULT:     -11.8      0.000      0.000
REMARK SMILES CC(C)C[C@H](NC(=O)[C@@H](NC(=O)N1CC(NCCCNC(=O)c2ccc(-c3c4nc(c(-c5cc(S(=O)(=O)[O-])ccc5F)c5ccc([nH]5)c(-c5cc(S(=O)(=O)[O-])ccc5F)c5nc(c(-c6cc(S(=O)(=O)[O-])ccc6F)c6ccc3[nH]6)C=C5)C=C4)cc2)=[NH+]c2ccccc21)C(C)C)C(=O)[O-]
REMARK SMILES IDX 17 1 16 2 13 3 14 4 92 5 15 6 87 7 91 8 86 9 88 10 90 11
REMARK SMILES IDX 89 14 11 15 10 16 12 18 9 19 7 20 6 21 8 23 5 24 4 25 2 26
REMARK SMILES IDX 1 27 3 28 96 29 97 30 98 31 93 32 94 33 95 34 18 35 19 36
REMARK SMILES IDX 20 37 21 38 22 40 23 41 24 42 85 43 25 44 84 45 26 46 27 47
REMARK SMILES IDX 28 48 78 49 29 50 83 51 77 52 79 53 30 54 82 55 76 56 75 57
REMARK SMILES IDX 31 59 63 60 43 61 62 62 44 63 47 64 61 65 80 66 45 67 46 68
REMARK SMILES IDX 60 70 81 71 48 72 32 73 33 74 41 75 34 76 40 77 42 78 39 79
REMARK SMILES IDX 35 80 36 81 37 82 38 83 64 84 65 85 73 86 66 87 72 88 74 89
REMARK SMILES IDX 71 90 67 91 68 92 69 93 70 94 49 95 50 96 58 97 51 98 57 99
REMARK SMILES IDX 59 100 56 101 52 102 53 103 54 104 55 105
REMARK H PARENT 16 12 86 13 10 17 6 22 20 39 79 58 47 69
REMARK Flexibility Score: inf
ROOT
ATOM      1  C   UNL A   1      30.883  31.385  25.526  1.00  0.00     0.235 C 
ENDROOT
BRANCH   1   2
ATOM      2  N   UNL A   1      31.847  30.362  25.182  1.00  0.00    -0.277 N 
ATOM      3  N   UNL A   1      30.454  27.208  23.976  1.00  0.00    -0.278 N 
ATOM      4  C   UNL A   1      30.283  28.649  24.139  1.00  0.00     0.255 C 
ATOM      5  C   UNL A   1      31.393  26.882  22.961  1.00  0.00     0.093 A 
ATOM      6  C   UNL A   1      31.667  29.278  24.354  1.00  0.00     0.268 C 
ATOM      7  C   UNL A   1      32.544  27.692  22.896  1.00  0.00     0.148 A 
ATOM      8  C   UNL A   1      31.242  25.780  22.114  1.00  0.00     0.031 A 
ATOM      9  N   UNL A   1      32.725  28.811  23.742  1.00  0.00    -0.241 N 
ATOM     10  C   UNL A   1      33.587  27.306  22.054  1.00  0.00     0.054 A 
ATOM     11  C   UNL A   1      32.280  25.431  21.250  1.00  0.00     0.002 A 
ATOM     12  H   UNL A   1      32.740  30.452  25.589  1.00  0.00     0.304 HD
ATOM     13  H   UNL A   1      33.610  29.223  23.865  1.00  0.00     0.312 HD
ATOM     14  C   UNL A   1      33.462  26.174  21.242  1.00  0.00     0.005 A 
BRANCH   3  15
ATOM     15  C   UNL A   1      29.501  26.340  24.406  1.00  0.00     0.323 C 
ATOM     16  N   UNL A   1      29.849  25.312  25.232  1.00  0.00    -0.326 N 
ATOM     17  H   UNL A   1      29.066  24.757  25.449  1.00  0.00     0.166 HD
ATOM     18  O   UNL A   1      28.305  26.512  24.169  1.00  0.00    -0.248 OA
BRANCH  16  19
ATOM     19  C   UNL A   1      31.075  24.788  25.899  1.00  0.00     0.175 C 
BRANCH  19  20
ATOM     20  C   UNL A   1      31.117  23.361  26.530  1.00  0.00     0.243 C 
ATOM     21  N   UNL A   1      31.840  22.294  26.136  1.00  0.00    -0.346 N 
ATOM     22  H   UNL A   1      31.581  21.478  26.620  1.00  0.00     0.164 HD
ATOM     23  O   UNL A   1      30.313  23.108  27.444  1.00  0.00    -0.273 OA
BRANCH  21  24
ATOM     24  C   UNL A   1      32.917  22.037  25.169  1.00  0.00     0.128 C 
BRANCH  24  25
ATOM     25  C   UNL A   1      34.239  22.648  25.617  1.00  0.00     0.034 C 
BRANCH  25  26
ATOM     26  C   UNL A   1      35.259  23.299  24.672  1.00  0.00    -0.015 C 
ATOM     27  C   UNL A   1      36.562  22.533  24.485  1.00  0.00     0.007 C 
ATOM     28  C   UNL A   1      34.579  23.446  23.298  1.00  0.00     0.007 C 
ENDBRANCH  25  26
ENDBRANCH  24  25
BRANCH  24  29
ATOM     29  C   UNL A   1      32.927  20.517  24.931  1.00  0.00     0.064 C 
ATOM     30  O   UNL A   1      31.984  19.777  25.106  1.00  0.00    -0.548 OA
ATOM     31  O   UNL A   1      34.155  20.016  24.678  1.00  0.00    -0.548 OA
ENDBRANCH  24  29
ENDBRANCH  21  24
ENDBRANCH  19  20
BRANCH  19  32
ATOM     32  C   UNL A   1      31.935  25.820  26.670  1.00  0.00     0.015 C 
ATOM     33  C   UNL A   1      33.215  26.315  25.988  1.00  0.00     0.010 C 
ATOM     34  C   UNL A   1      31.076  27.049  27.005  1.00  0.00     0.010 C 
ENDBRANCH  19  32
ENDBRANCH  16  19
ENDBRANCH   3  15
ENDBRANCH   1   2
BRANCH   1  35
ATOM     35  C   UNL A   1      31.220  32.059  26.852  1.00  0.00     0.067 C 
BRANCH  35  36
ATOM     36  C   UNL A   1      32.589  32.727  26.931  1.00  0.00     0.120 C 
BRANCH  36  37
ATOM     37  N   UNL A   1      32.527  34.043  27.547  1.00  0.00    -0.352 N 
ATOM     38  C   UNL A   1      33.220  34.574  28.610  1.00  0.00     0.251 C 
ATOM     39  H   UNL A   1      31.881  34.659  27.132  1.00  0.00     0.163 HD
ATOM     40  O   UNL A   1      32.836  35.648  29.071  1.00  0.00    -0.269 OA
BRANCH  38  41
ATOM     41  C   UNL A   1      34.389  33.888  29.222  1.00  0.00     0.039 A 
ATOM     42  C   UNL A   1      35.673  34.312  28.859  1.00  0.00     0.014 A 
ATOM     43  C   UNL A   1      34.253  32.795  30.081  1.00  0.00     0.014 A 
ATOM     44  C   UNL A   1      36.805  33.681  29.389  1.00  0.00     0.010 A 
ATOM     45  C   UNL A   1      35.382  32.215  30.669  1.00  0.00     0.010 A 
ATOM     46  C   UNL A   1      36.673  32.644  30.324  1.00  0.00    -0.014 A 
BRANCH  46  47
ATOM     47  C   UNL A   1      37.868  32.002  30.941  1.00  0.00     0.031 A 
ATOM     48  C   UNL A   1      38.656  30.963  30.186  1.00  0.00     0.074 A 
ATOM     49  C   UNL A   1      38.212  32.305  32.207  1.00  0.00     0.049 A 
ATOM     50  N   UNL A   1      39.680  30.248  30.580  1.00  0.00    -0.248 NA
ATOM     51  C   UNL A   1      38.211  30.672  28.817  1.00  0.00     0.031 C 
ATOM     52  C   UNL A   1      37.510  33.262  33.065  1.00  0.00     0.029 A 
ATOM     53  N   UNL A   1      39.228  31.832  33.002  1.00  0.00    -0.354 N 
ATOM     54  C   UNL A   1      39.992  29.409  29.514  1.00  0.00     0.074 A 
ATOM     55  C   UNL A   1      39.006  29.666  28.485  1.00  0.00     0.031 C 
ATOM     56  C   UNL A   1      38.120  33.313  34.259  1.00  0.00     0.029 A 
ATOM     57  C   UNL A   1      39.228  32.361  34.272  1.00  0.00     0.049 A 
ATOM     58  H   UNL A   1      39.893  31.176  32.693  1.00  0.00     0.167 HD
ATOM     59  C   UNL A   1      41.015  28.521  29.396  1.00  0.00     0.034 A 
ATOM     60  C   UNL A   1      40.014  32.101  35.336  1.00  0.00     0.034 A 
ATOM     61  C   UNL A   1      41.990  28.278  30.433  1.00  0.00     0.049 A 
ATOM     62  C   UNL A   1      41.129  31.098  35.199  1.00  0.00     0.074 A 
ATOM     63  C   UNL A   1      43.106  27.458  30.393  1.00  0.00     0.029 A 
ATOM     64  N   UNL A   1      41.960  28.835  31.706  1.00  0.00    -0.354 N 
ATOM     65  N   UNL A   1      41.454  30.361  34.161  1.00  0.00    -0.248 NA
ATOM     66  C   UNL A   1      41.991  30.903  36.371  1.00  0.00     0.031 C 
ATOM     67  C   UNL A   1      43.699  27.456  31.662  1.00  0.00     0.029 A 
ATOM     68  C   UNL A   1      43.008  28.343  32.473  1.00  0.00     0.049 A 
ATOM     69  H   UNL A   1      41.290  29.485  32.021  1.00  0.00     0.167 HD
ATOM     70  C   UNL A   1      42.573  29.629  34.551  1.00  0.00     0.074 A 
ATOM     71  C   UNL A   1      42.874  30.026  35.911  1.00  0.00     0.031 C 
ATOM     72  C   UNL A   1      43.289  28.719  33.841  1.00  0.00     0.034 A 
BRANCH  59  73
ATOM     73  C   UNL A   1      41.093  27.723  28.112  1.00  0.00     0.023 A 
ATOM     74  C   UNL A   1      40.629  26.398  28.034  1.00  0.00     0.031 A 
ATOM     75  C   UNL A   1      41.689  28.274  26.963  1.00  0.00     0.131 A 
ATOM     76  C   UNL A   1      40.865  25.637  26.877  1.00  0.00     0.055 A 
ATOM     77  C   UNL A   1      41.832  27.543  25.782  1.00  0.00     0.041 A 
ATOM     78  F   UNL A   1      42.166  29.529  26.974  1.00  0.00    -0.206 F 
ATOM     79  C   UNL A   1      41.442  26.208  25.741  1.00  0.00     0.022 A 
BRANCH  76  80
ATOM     80  S   UNL A   1      40.588  23.845  26.952  1.00  0.00     0.124 S 
ATOM     81  O   UNL A   1      39.204  23.741  26.495  1.00  0.00    -0.237 OA
ATOM     82  O   UNL A   1      41.603  23.332  26.040  1.00  0.00    -0.237 OA
ATOM     83  O   UNL A   1      40.794  23.525  28.362  1.00  0.00    -0.744 OA
ENDBRANCH  76  80
ENDBRANCH  59  73
BRANCH  60  84
ATOM     84  C   UNL A   1      39.751  32.787  36.633  1.00  0.00     0.023 A 
ATOM     85  C   UNL A   1      38.760  32.329  37.514  1.00  0.00     0.031 A 
ATOM     86  C   UNL A   1      40.505  33.914  37.011  1.00  0.00     0.131 A 
ATOM     87  C   UNL A   1      38.532  33.008  38.721  1.00  0.00     0.055 A 
ATOM     88  C   UNL A   1      40.303  34.560  38.232  1.00  0.00     0.041 A 
ATOM     89  F   UNL A   1      41.473  34.385  36.208  1.00  0.00    -0.206 F 
ATOM     90  C   UNL A   1      39.306  34.111  39.092  1.00  0.00     0.022 A 
BRANCH  87  91
ATOM     91  S   UNL A   1      37.175  32.455  39.791  1.00  0.00     0.124 S 
ATOM     92  O   UNL A   1      36.052  32.432  38.860  1.00  0.00    -0.237 OA
ATOM     93  O   UNL A   1      37.660  31.156  40.246  1.00  0.00    -0.237 OA
ATOM     94  O   UNL A   1      37.113  33.488  40.822  1.00  0.00    -0.744 OA
ENDBRANCH  87  91
ENDBRANCH  60  84
BRANCH  72  95
ATOM     95  C   UNL A   1      44.495  28.110  34.519  1.00  0.00     0.023 A 
ATOM     96  C   UNL A   1      44.409  26.916  35.256  1.00  0.00     0.031 A 
ATOM     97  C   UNL A   1      45.749  28.742  34.434  1.00  0.00     0.131 A 
ATOM     98  C   UNL A   1      45.542  26.419  35.920  1.00  0.00     0.055 A 
ATOM     99  C   UNL A   1      46.885  28.210  35.044  1.00  0.00     0.041 A 
ATOM    100  F   UNL A   1      45.890  29.888  33.749  1.00  0.00    -0.206 F 
ATOM    101  C   UNL A   1      46.783  27.048  35.804  1.00  0.00     0.022 A 
BRANCH  98 102
ATOM    102  S   UNL A   1      45.353  24.989  37.021  1.00  0.00     0.124 S 
ATOM    103  O   UNL A   1      46.451  24.129  36.592  1.00  0.00    -0.237 OA
ATOM    104  O   UNL A   1      45.492  25.591  38.343  1.00  0.00    -0.237 OA
ATOM    105  O   UNL A   1      44.015  24.488  36.707  1.00  0.00    -0.744 OA
ENDBRANCH  98 102
ENDBRANCH  72  95
ENDBRANCH  46  47
ENDBRANCH  38  41
ENDBRANCH  36  37
ENDBRANCH  35  36
ENDBRANCH   1  35
TORSDOF 20
ENDMDL
MODEL 2
REMARK VINA RESULT:     -11.5      2.575      8.242
REMARK SMILES CC(C)C[C@H](NC(=O)[C@@H](NC(=O)N1CC(NCCCNC(=O)c2ccc(-c3c4nc(c(-c5cc(S(=O)(=O)[O-])ccc5F)c5ccc([nH]5)c(-c5cc(S(=O)(=O)[O-])ccc5F)c5nc(c(-c6cc(S(=O)(=O)[O-])ccc6F)c6ccc3[nH]6)C=C5)C=C4)cc2)=[NH+]c2ccccc21)C(C)C)C(=O)[O-]
REMARK SMILES IDX 17 1 16 2 13 3 14 4 92 5 15 6 87 7 91 8 86 9 88 10 90 11
REMARK SMILES IDX 89 14 11 15 10 16 12 18 9 19 7 20 6 21 8 23 5 24 4 25 2 26
REMARK SMILES IDX 1 27 3 28 96 29 97 30 98 31 93 32 94 33 95 34 18 35 19 36
REMARK SMILES IDX 20 37 21 38 22 40 23 41 24 42 85 43 25 44 84 45 26 46 27 47
REMARK SMILES IDX 28 48 78 49 29 50 83 51 77 52 79 53 30 54 82 55 76 56 75 57
REMARK SMILES IDX 31 59 63 60 43 61 62 62 44 63 47 64 61 65 80 66 45 67 46 68
REMARK SMILES IDX 60 70 81 71 48 72 32 73 33 74 41 75 34 76 40 77 42 78 39 79
REMARK SMILES IDX 35 80 36 81 37 82 38 83 64 84 65 85 73 86 66 87 72 88 74 89
REMARK SMILES IDX 71 90 67 91 68 92 69 93 70 94 49 95 50 96 58 97 51 98 57 99
REMARK SMILES IDX 59 100 56 101 52 102 53 103 54 104 55 105
REMARK H PARENT 16 12 86 13 10 17 6 22 20 39 79 58 47 69
REMARK Flexibility Score: inf
ROOT
ATOM      1  C   UNL A   1      33.058  27.739  25.008  1.00  0.00     0.235 C 
ENDROOT
BRANCH   1   2
ATOM      2  N   UNL A   1      33.651  26.619  25.707  1.00  0.00    -0.277 N 
ATOM      3  N   UNL A   1      34.461  23.711  23.652  1.00  0.00    -0.278 N 
ATOM      4  C   UNL A   1      34.251  25.154  23.716  1.00  0.00     0.255 C 
ATOM      5  C   UNL A   1      35.691  23.313  24.240  1.00  0.00     0.093 A 
ATOM      6  C   UNL A   1      34.407  25.599  25.177  1.00  0.00     0.268 C 
ATOM      7  C   UNL A   1      36.056  23.976  25.429  1.00  0.00     0.148 A 
ATOM      8  C   UNL A   1      36.474  22.272  23.732  1.00  0.00     0.031 A 
ATOM      9  N   UNL A   1      35.282  25.031  25.968  1.00  0.00    -0.241 N 
ATOM     10  C   UNL A   1      37.146  23.498  26.155  1.00  0.00     0.054 A 
ATOM     11  C   UNL A   1      37.584  21.832  24.452  1.00  0.00     0.002 A 
ATOM     12  H   UNL A   1      33.496  26.583  26.679  1.00  0.00     0.304 HD
ATOM     13  H   UNL A   1      35.396  25.325  26.900  1.00  0.00     0.312 HD
ATOM     14  C   UNL A   1      37.902  22.424  25.675  1.00  0.00     0.005 A 
BRANCH   3  15
ATOM     15  C   UNL A   1      33.799  22.950  22.742  1.00  0.00     0.323 C 
ATOM     16  N   UNL A   1      33.062  21.883  23.164  1.00  0.00    -0.326 N 
ATOM     17  H   UNL A   1      32.653  21.416  22.401  1.00  0.00     0.166 HD
ATOM     18  O   UNL A   1      33.742  23.256  21.550  1.00  0.00    -0.248 OA
BRANCH  16  19
ATOM     19  C   UNL A   1      32.701  21.219  24.450  1.00  0.00     0.175 C 
BRANCH  19  20
ATOM     20  C   UNL A   1      32.957  21.908  25.827  1.00  0.00     0.243 C 
ATOM     21  N   UNL A   1      32.302  22.952  26.372  1.00  0.00    -0.346 N 
ATOM     22  H   UNL A   1      32.749  23.278  27.187  1.00  0.00     0.164 HD
ATOM     23  O   UNL A   1      33.951  21.546  26.479  1.00  0.00    -0.273 OA
BRANCH  21  24
ATOM     24  C   UNL A   1      31.094  23.729  26.064  1.00  0.00     0.128 C 
BRANCH  24  25
ATOM     25  C   UNL A   1      30.941  23.972  24.568  1.00  0.00     0.034 C 
BRANCH  25  26
ATOM     26  C   UNL A   1      30.121  25.115  23.952  1.00  0.00    -0.015 C 
ATOM     27  C   UNL A   1      29.806  26.274  24.889  1.00  0.00     0.007 C 
ATOM     28  C   UNL A   1      30.924  25.660  22.757  1.00  0.00     0.007 C 
ENDBRANCH  25  26
ENDBRANCH  24  25
BRANCH  24  29
ATOM     29  C   UNL A   1      29.926  22.998  26.747  1.00  0.00     0.064 C 
ATOM     30  O   UNL A   1      29.561  21.871  26.488  1.00  0.00    -0.548 OA
ATOM     31  O   UNL A   1      29.190  23.788  27.558  1.00  0.00    -0.548 OA
ENDBRANCH  24  29
ENDBRANCH  21  24
ENDBRANCH  19  20
BRANCH  19  32
ATOM     32  C   UNL A   1      32.864  19.680  24.500  1.00  0.00     0.015 C 
ATOM     33  C   UNL A   1      32.306  18.877  23.320  1.00  0.00     0.010 C 
ATOM     34  C   UNL A   1      34.353  19.330  24.644  1.00  0.00     0.010 C 
ENDBRANCH  19  32
ENDBRANCH  16  19
ENDBRANCH   3  15
ENDBRANCH   1   2
BRANCH   1  35
ATOM     35  C   UNL A   1      33.627  29.071  25.484  1.00  0.00     0.067 C 
BRANCH  35  36
ATOM     36  C   UNL A   1      33.739  29.245  26.995  1.00  0.00     0.120 C 
BRANCH  36  37
ATOM     37  N   UNL A   1      33.705  30.643  27.395  1.00  0.00    -0.352 N 
ATOM     38  C   UNL A   1      34.547  31.370  28.203  1.00  0.00     0.251 C 
ATOM     39  H   UNL A   1      32.951  31.157  27.024  1.00  0.00     0.163 HD
ATOM     40  O   UNL A   1      34.184  32.492  28.556  1.00  0.00    -0.269 OA
BRANCH  38  41
ATOM     41  C   UNL A   1      35.854  30.839  28.674  1.00  0.00     0.039 A 
ATOM     42  C   UNL A   1      35.850  29.806  29.620  1.00  0.00     0.014 A 
ATOM     43  C   UNL A   1      37.076  31.380  28.266  1.00  0.00     0.014 A 
ATOM     44  C   UNL A   1      37.055  29.290  30.112  1.00  0.00     0.010 A 
ATOM     45  C   UNL A   1      38.279  30.815  28.700  1.00  0.00     0.010 A 
ATOM     46  C   UNL A   1      38.285  29.768  29.635  1.00  0.00    -0.014 A 
BRANCH  46  47
ATOM     47  C   UNL A   1      39.575  29.189  30.107  1.00  0.00     0.031 A 
ATOM     48  C   UNL A   1      40.330  29.824  31.244  1.00  0.00     0.074 A 
ATOM     49  C   UNL A   1      40.103  28.125  29.470  1.00  0.00     0.049 A 
ATOM     50  N   UNL A   1      41.496  29.505  31.749  1.00  0.00    -0.248 NA
ATOM     51  C   UNL A   1      39.701  30.990  31.877  1.00  0.00     0.031 C 
ATOM     52  C   UNL A   1      39.496  27.440  28.327  1.00  0.00     0.029 A 
ATOM     53  N   UNL A   1      41.275  27.440  29.681  1.00  0.00    -0.354 N 
ATOM     54  C   UNL A   1      41.749  30.441  32.746  1.00  0.00     0.074 A 
ATOM     55  C   UNL A   1      40.640  31.373  32.728  1.00  0.00     0.031 C 
ATOM     56  C   UNL A   1      40.293  26.430  27.945  1.00  0.00     0.029 A 
ATOM     57  C   UNL A   1      41.489  26.421  28.783  1.00  0.00     0.049 A 
ATOM     58  H   UNL A   1      41.904  27.660  30.406  1.00  0.00     0.167 HD
ATOM     59  C   UNL A   1      42.797  30.508  33.610  1.00  0.00     0.034 A 
ATOM     60  C   UNL A   1      42.535  25.583  28.632  1.00  0.00     0.034 A 
ATOM     61  C   UNL A   1      43.895  29.570  33.615  1.00  0.00     0.049 A 
ATOM     62  C   UNL A   1      43.700  25.683  29.582  1.00  0.00     0.074 A 
ATOM     63  C   UNL A   1      44.968  29.500  34.488  1.00  0.00     0.029 A 
ATOM     64  N   UNL A   1      44.077  28.547  32.690  1.00  0.00    -0.354 N 
ATOM     65  N   UNL A   1      43.894  26.532  30.564  1.00  0.00    -0.248 NA
ATOM     66  C   UNL A   1      44.780  24.703  29.409  1.00  0.00     0.031 C 
ATOM     67  C   UNL A   1      45.834  28.493  34.045  1.00  0.00     0.029 A 
ATOM     68  C   UNL A   1      45.263  27.872  32.945  1.00  0.00     0.049 A 
ATOM     69  H   UNL A   1      43.453  28.331  31.959  1.00  0.00     0.167 HD
ATOM     70  C   UNL A   1      45.110  26.174  31.141  1.00  0.00     0.074 A 
ATOM     71  C   UNL A   1      45.595  25.024  30.405  1.00  0.00     0.031 C 
ATOM     72  C   UNL A   1      45.759  26.742  32.191  1.00  0.00     0.034 A 
BRANCH  59  73
ATOM     73  C   UNL A   1      42.816  31.665  34.587  1.00  0.00     0.023 A 
ATOM     74  C   UNL A   1      42.160  31.596  35.829  1.00  0.00     0.031 A 
ATOM     75  C   UNL A   1      43.451  32.874  34.251  1.00  0.00     0.131 A 
ATOM     76  C   UNL A   1      42.061  32.740  36.636  1.00  0.00     0.055 A 
ATOM     77  C   UNL A   1      43.433  33.980  35.103  1.00  0.00     0.041 A 
ATOM     78  F   UNL A   1      44.083  33.012  33.074  1.00  0.00    -0.206 F 
ATOM     79  C   UNL A   1      42.715  33.925  36.294  1.00  0.00     0.022 A 
BRANCH  76  80
ATOM     80  S   UNL A   1      40.906  32.712  38.035  1.00  0.00     0.124 S 
ATOM     81  O   UNL A   1      41.672  31.974  39.037  1.00  0.00    -0.237 OA
ATOM     82  O   UNL A   1      40.702  34.130  38.303  1.00  0.00    -0.237 OA
ATOM     83  O   UNL A   1      39.744  32.002  37.506  1.00  0.00    -0.744 OA
ENDBRANCH  76  80
ENDBRANCH  59  73
BRANCH  60  84
ATOM     84  C   UNL A   1      42.532  24.593  27.518  1.00  0.00     0.023 A 
ATOM     85  C   UNL A   1      41.988  23.310  27.682  1.00  0.00     0.031 A 
ATOM     86  C   UNL A   1      43.071  24.929  26.262  1.00  0.00     0.131 A 
ATOM     87  C   UNL A   1      42.014  22.400  26.614  1.00  0.00     0.055 A 
ATOM     88  C   UNL A   1      43.056  24.034  25.191  1.00  0.00     0.041 A 
ATOM     89  F   UNL A   1      43.593  26.148  26.051  1.00  0.00    -0.206 F 
ATOM     90  C   UNL A   1      42.532  22.758  25.366  1.00  0.00     0.022 A 
BRANCH  87  91
ATOM     91  S   UNL A   1      41.397  20.716  26.888  1.00  0.00     0.124 S 
ATOM     92  O   UNL A   1      40.415  20.927  27.946  1.00  0.00    -0.237 OA
ATOM     93  O   UNL A   1      40.863  20.372  25.574  1.00  0.00    -0.237 OA
ATOM     94  O   UNL A   1      42.593  19.976  27.282  1.00  0.00    -0.744 OA
ENDBRANCH  87  91
ENDBRANCH  60  84
BRANCH  72  95
ATOM     95  C   UNL A   1      47.057  26.103  32.625  1.00  0.00     0.023 A 
ATOM     96  C   UNL A   1      47.094  25.069  33.577  1.00  0.00     0.031 A 
ATOM     97  C   UNL A   1      48.279  26.542  32.083  1.00  0.00     0.131 A 
ATOM     98  C   UNL A   1      48.328  24.545  33.996  1.00  0.00     0.055 A 
ATOM     99  C   UNL A   1      49.498  25.975  32.458  1.00  0.00     0.041 A 
ATOM    100  F   UNL A   1      48.307  27.530  31.175  1.00  0.00    -0.206 F 
ATOM    101  C   UNL A   1      49.529  24.979  33.429  1.00  0.00     0.022 A 
BRANCH  98 102
ATOM    102  S   UNL A   1      48.353  23.355  35.365  1.00  0.00     0.124 S 
ATOM    103  O   UNL A   1      47.134  23.701  36.089  1.00  0.00    -0.237 OA
ATOM    104  O   UNL A   1      48.340  22.074  34.667  1.00  0.00    -0.237 OA
ATOM    105  O   UNL A   1      49.598  23.664  36.067  1.00  0.00    -0.744 OA
ENDBRANCH  98 102
ENDBRANCH  72  95
ENDBRANCH  46  47
ENDBRANCH  38  41
ENDBRANCH  36  37
ENDBRANCH  35  36
ENDBRANCH   1  35
TORSDOF 20
ENDMDL
MODEL 3
REMARK VINA RESULT:     -11.5      2.175      2.521
REMARK SMILES CC(C)C[C@H](NC(=O)[C@@H](NC(=O)N1CC(NCCCNC(=O)c2ccc(-c3c4nc(c(-c5cc(S(=O)(=O)[O-])ccc5F)c5ccc([nH]5)c(-c5cc(S(=O)(=O)[O-])ccc5F)c5nc(c(-c6cc(S(=O)(=O)[O-])ccc6F)c6ccc3[nH]6)C=C5)C=C4)cc2)=[NH+]c2ccccc21)C(C)C)C(=O)[O-]
REMARK SMILES IDX 17 1 16 2 13 3 14 4 92 5 15 6 87 7 91 8 86 9 88 10 90 11
REMARK SMILES IDX 89 14 11 15 10 16 12 18 9 19 7 20 6 21 8 23 5 24 4 25 2 26
REMARK SMILES IDX 1 27 3 28 96 29 97 30 98 31 93 32 94 33 95 34 18 35 19 36
REMARK SMILES IDX 20 37 21 38 22 40 23 41 24 42 85 43 25 44 84 45 26 46 27 47
REMARK SMILES IDX 28 48 78 49 29 50 83 51 77 52 79 53 30 54 82 55 76 56 75 57
REMARK SMILES IDX 31 59 63 60 43 61 62 62 44 63 47 64 61 65 80 66 45 67 46 68
REMARK SMILES IDX 60 70 81 71 48 72 32 73 33 74 41 75 34 76 40 77 42 78 39 79
REMARK SMILES IDX 35 80 36 81 37 82 38 83 64 84 65 85 73 86 66 87 72 88 74 89
REMARK SMILES IDX 71 90 67 91 68 92 69 93 70 94 49 95 50 96 58 97 51 98 57 99
REMARK SMILES IDX 59 100 56 101 52 102 53 103 54 104 55 105
REMARK H PARENT 16 12 86 13 10 17 6 22 20 39 79 58 47 69
REMARK Flexibility Score: inf
ROOT
ATOM      1  C   UNL A   1      30.995  31.366  25.549  1.00  0.00     0.235 C 
ENDROOT
BRANCH   1   2
ATOM      2  N   UNL A   1      31.921  30.306  25.209  1.00  0.00    -0.277 N 
ATOM      3  N   UNL A   1      30.413  27.210  23.991  1.00  0.00    -0.278 N 
ATOM      4  C   UNL A   1      30.296  28.656  24.155  1.00  0.00     0.255 C 
ATOM      5  C   UNL A   1      31.344  26.849  22.981  1.00  0.00     0.093 A 
ATOM      6  C   UNL A   1      31.703  29.231  24.378  1.00  0.00     0.268 C 
ATOM      7  C   UNL A   1      32.526  27.613  22.922  1.00  0.00     0.148 A 
ATOM      8  C   UNL A   1      31.155  25.755  22.131  1.00  0.00     0.031 A 
ATOM      9  N   UNL A   1      32.745  28.724  23.771  1.00  0.00    -0.241 N 
ATOM     10  C   UNL A   1      33.557  27.188  22.086  1.00  0.00     0.054 A 
ATOM     11  C   UNL A   1      32.183  25.367  21.273  1.00  0.00     0.002 A 
ATOM     12  H   UNL A   1      32.814  30.361  25.620  1.00  0.00     0.304 HD
ATOM     13  H   UNL A   1      33.645  29.101  23.899  1.00  0.00     0.312 HD
ATOM     14  C   UNL A   1      33.392  26.063  21.272  1.00  0.00     0.005 A 
BRANCH   3  15
ATOM     15  C   UNL A   1      29.425  26.380  24.414  1.00  0.00     0.323 C 
ATOM     16  N   UNL A   1      29.730  25.329  25.229  1.00  0.00    -0.326 N 
ATOM     17  H   UNL A   1      28.925  24.806  25.442  1.00  0.00     0.166 HD
ATOM     18  O   UNL A   1      28.236  26.605  24.183  1.00  0.00    -0.248 OA
BRANCH  16  19
ATOM     19  C   UNL A   1      30.934  24.746  25.888  1.00  0.00     0.175 C 
BRANCH  19  20
ATOM     20  C   UNL A   1      30.929  23.297  26.467  1.00  0.00     0.243 C 
ATOM     21  N   UNL A   1      31.633  22.227  26.046  1.00  0.00    -0.346 N 
ATOM     22  H   UNL A   1      31.344  21.400  26.496  1.00  0.00     0.164 HD
ATOM     23  O   UNL A   1      30.102  23.032  27.356  1.00  0.00    -0.273 OA
BRANCH  21  24
ATOM     24  C   UNL A   1      32.720  21.977  25.090  1.00  0.00     0.128 C 
BRANCH  24  25
ATOM     25  C   UNL A   1      34.087  22.017  25.762  1.00  0.00     0.034 C 
BRANCH  25  26
ATOM     26  C   UNL A   1      35.378  22.492  25.078  1.00  0.00    -0.015 C 
ATOM     27  C   UNL A   1      36.018  23.736  25.681  1.00  0.00     0.007 C 
ATOM     28  C   UNL A   1      36.389  21.335  25.161  1.00  0.00     0.007 C 
ENDBRANCH  25  26
ENDBRANCH  24  25
BRANCH  24  29
ATOM     29  C   UNL A   1      32.366  20.666  24.368  1.00  0.00     0.064 C 
ATOM     30  O   UNL A   1      32.161  20.557  23.179  1.00  0.00    -0.548 OA
ATOM     31  O   UNL A   1      32.111  19.638  25.205  1.00  0.00    -0.548 OA
ENDBRANCH  24  29
ENDBRANCH  21  24
ENDBRANCH  19  20
BRANCH  19  32
ATOM     32  C   UNL A   1      31.816  25.724  26.703  1.00  0.00     0.015 C 
ATOM     33  C   UNL A   1      33.126  26.188  26.060  1.00  0.00     0.010 C 
ATOM     34  C   UNL A   1      30.996  26.976  27.054  1.00  0.00     0.010 C 
ENDBRANCH  19  32
ENDBRANCH  16  19
ENDBRANCH   3  15
ENDBRANCH   1   2
BRANCH   1  35
ATOM     35  C   UNL A   1      31.247  31.909  26.951  1.00  0.00     0.067 C 
BRANCH  35  36
ATOM     36  C   UNL A   1      32.630  32.503  27.198  1.00  0.00     0.120 C 
BRANCH  36  37
ATOM     37  N   UNL A   1      32.568  33.894  27.619  1.00  0.00    -0.352 N 
ATOM     38  C   UNL A   1      33.264  34.572  28.592  1.00  0.00     0.251 C 
ATOM     39  H   UNL A   1      31.917  34.443  27.124  1.00  0.00     0.163 HD
ATOM     40  O   UNL A   1      32.880  35.700  28.897  1.00  0.00    -0.269 OA
BRANCH  38  41
ATOM     41  C   UNL A   1      34.438  33.983  29.289  1.00  0.00     0.039 A 
ATOM     42  C   UNL A   1      34.209  33.007  30.267  1.00  0.00     0.014 A 
ATOM     43  C   UNL A   1      35.745  34.418  29.059  1.00  0.00     0.014 A 
ATOM     44  C   UNL A   1      35.280  32.439  30.968  1.00  0.00     0.010 A 
ATOM     45  C   UNL A   1      36.820  33.798  29.705  1.00  0.00     0.010 A 
ATOM     46  C   UNL A   1      36.601  32.807  30.674  1.00  0.00    -0.014 A 
BRANCH  46  47
ATOM     47  C   UNL A   1      37.754  32.171  31.372  1.00  0.00     0.031 A 
ATOM     48  C   UNL A   1      38.520  31.049  30.722  1.00  0.00     0.074 A 
ATOM     49  C   UNL A   1      38.075  32.558  32.622  1.00  0.00     0.049 A 
ATOM     50  N   UNL A   1      39.506  30.329  31.199  1.00  0.00    -0.248 NA
ATOM     51  C   UNL A   1      38.101  30.670  29.367  1.00  0.00     0.031 C 
ATOM     52  C   UNL A   1      37.388  33.603  33.383  1.00  0.00     0.029 A 
ATOM     53  N   UNL A   1      39.051  32.111  33.480  1.00  0.00    -0.354 N 
ATOM     54  C   UNL A   1      39.813  29.400  30.211  1.00  0.00     0.074 A 
ATOM     55  C   UNL A   1      38.866  29.613  29.136  1.00  0.00     0.031 C 
ATOM     56  C   UNL A   1      37.967  33.723  34.588  1.00  0.00     0.029 A 
ATOM     57  C   UNL A   1      39.037  32.736  34.706  1.00  0.00     0.049 A 
ATOM     58  H   UNL A   1      39.698  31.409  33.241  1.00  0.00     0.167 HD
ATOM     59  C   UNL A   1      40.803  28.469  30.190  1.00  0.00     0.034 A 
ATOM     60  C   UNL A   1      39.783  32.530  35.809  1.00  0.00     0.034 A 
ATOM     61  C   UNL A   1      41.741  28.271  31.271  1.00  0.00     0.049 A 
ATOM     62  C   UNL A   1      40.863  31.479  35.782  1.00  0.00     0.074 A 
ATOM     63  C   UNL A   1      42.825  27.410  31.327  1.00  0.00     0.029 A 
ATOM     64  N   UNL A   1      41.698  28.925  32.497  1.00  0.00    -0.354 N 
ATOM     65  N   UNL A   1      41.186  30.653  34.813  1.00  0.00    -0.248 NA
ATOM     66  C   UNL A   1      41.685  31.344  36.990  1.00  0.00     0.031 C 
ATOM     67  C   UNL A   1      43.383  27.485  32.609  1.00  0.00     0.029 A 
ATOM     68  C   UNL A   1      42.706  28.456  33.330  1.00  0.00     0.049 A 
ATOM     69  H   UNL A   1      41.046  29.622  32.742  1.00  0.00     0.167 HD
ATOM     70  C   UNL A   1      42.265  29.913  35.290  1.00  0.00     0.074 A 
ATOM     71  C   UNL A   1      42.545  30.402  36.625  1.00  0.00     0.031 C 
ATOM     72  C   UNL A   1      42.965  28.925  34.673  1.00  0.00     0.034 A 
BRANCH  59  73
ATOM     73  C   UNL A   1      40.885  27.572  28.974  1.00  0.00     0.023 A 
ATOM     74  C   UNL A   1      41.874  27.747  27.989  1.00  0.00     0.031 A 
ATOM     75  C   UNL A   1      39.929  26.562  28.765  1.00  0.00     0.131 A 
ATOM     76  C   UNL A   1      41.821  27.004  26.799  1.00  0.00     0.055 A 
ATOM     77  C   UNL A   1      39.939  25.759  27.623  1.00  0.00     0.041 A 
ATOM     78  F   UNL A   1      38.948  26.352  29.658  1.00  0.00    -0.206 F 
ATOM     79  C   UNL A   1      40.875  25.993  26.620  1.00  0.00     0.022 A 
BRANCH  76  80
ATOM     80  S   UNL A   1      42.880  27.512  25.416  1.00  0.00     0.124 S 
ATOM     81  O   UNL A   1      42.064  28.547  24.784  1.00  0.00    -0.237 OA
ATOM     82  O   UNL A   1      44.084  27.973  26.095  1.00  0.00    -0.237 OA
ATOM     83  O   UNL A   1      43.032  26.288  24.633  1.00  0.00    -0.744 OA
ENDBRANCH  76  80
ENDBRANCH  59  73
BRANCH  60  84
ATOM     84  C   UNL A   1      39.513  33.323  37.042  1.00  0.00     0.023 A 
ATOM     85  C   UNL A   1      40.173  34.536  37.289  1.00  0.00     0.031 A 
ATOM     86  C   UNL A   1      38.573  32.874  37.989  1.00  0.00     0.131 A 
ATOM     87  C   UNL A   1      39.901  35.249  38.467  1.00  0.00     0.055 A 
ATOM     88  C   UNL A   1      38.276  33.609  39.138  1.00  0.00     0.041 A 
ATOM     89  F   UNL A   1      37.906  31.725  37.793  1.00  0.00    -0.206 F 
ATOM     90  C   UNL A   1      38.948  34.802  39.385  1.00  0.00     0.022 A 
BRANCH  87  91
ATOM     91  S   UNL A   1      40.845  36.761  38.808  1.00  0.00     0.124 S 
ATOM     92  O   UNL A   1      39.786  37.760  38.897  1.00  0.00    -0.237 OA
ATOM     93  O   UNL A   1      41.517  36.423  40.059  1.00  0.00    -0.237 OA
ATOM     94  O   UNL A   1      41.723  36.882  37.647  1.00  0.00    -0.744 OA
ENDBRANCH  87  91
ENDBRANCH  60  84
BRANCH  72  95
ATOM     95  C   UNL A   1      44.127  28.327  35.431  1.00  0.00     0.023 A 
ATOM     96  C   UNL A   1      45.399  28.927  35.435  1.00  0.00     0.031 A 
ATOM     97  C   UNL A   1      43.960  27.132  36.155  1.00  0.00     0.131 A 
ATOM     98  C   UNL A   1      46.465  28.304  36.104  1.00  0.00     0.055 A 
ATOM     99  C   UNL A   1      45.008  26.551  36.868  1.00  0.00     0.041 A 
ATOM    100  F   UNL A   1      42.770  26.511  36.182  1.00  0.00    -0.206 F 
ATOM    101  C   UNL A   1      46.274  27.129  36.836  1.00  0.00     0.022 A 
BRANCH  98 102
ATOM    102  S   UNL A   1      48.132  28.996  35.925  1.00  0.00     0.124 S 
ATOM    103  O   UNL A   1      47.850  30.406  35.672  1.00  0.00    -0.237 OA
ATOM    104  O   UNL A   1      48.739  28.688  37.215  1.00  0.00    -0.237 OA
ATOM    105  O   UNL A   1      48.689  28.263  34.789  1.00  0.00    -0.744 OA
ENDBRANCH  98 102
ENDBRANCH  72  95
ENDBRANCH  46  47
ENDBRANCH  38  41
ENDBRANCH  36  37
ENDBRANCH  35  36
ENDBRANCH   1  35
TORSDOF 20
ENDMDL
