MODEL 1
REMARK VINA RESULT:     -10.4      0.000      0.000
REMARK SMILES C[C@H]1CC[C@](C#N)([C@H](O)C(=O)NCCCNC(=O)c2ccc(-c3c4nc(c(-c5cc(S(=O)(=O)[O-])ccc5F)c5ccc([nH]5)c(-c5cc(S(=O)(=O)[O-])ccc5F)c5nc(c(-c6cc(S(=O)(=O)[O-])ccc6F)c6ccc3[nH]6)C=C5)C=C4)cc2)C1
REMARK SMILES IDX 14 1 13 2 12 3 10 4 11 5 8 7 5 8 1 9 2 10 3 11 82 12 4 13
REMARK SMILES IDX 6 14 7 15 9 16 15 18 16 19 17 20 18 22 19 23 20 24 81 25
REMARK SMILES IDX 21 26 80 27 22 28 23 29 24 30 74 31 25 32 79 33 73 34 75 35
REMARK SMILES IDX 26 36 78 37 72 38 71 39 27 41 59 42 39 43 58 44 40 45 43 46
REMARK SMILES IDX 57 47 76 48 41 49 42 50 56 52 77 53 44 54 28 55 29 56 37 57
REMARK SMILES IDX 30 58 36 59 38 60 35 61 31 62 32 63 33 64 34 65 60 66 61 67
REMARK SMILES IDX 69 68 62 69 68 70 70 71 67 72 63 73 64 74 65 75 66 76 45 77
REMARK SMILES IDX 46 78 54 79 47 80 53 81 55 82 52 83 48 84 49 85 50 86 51 87
REMARK H PARENT 12 6 9 17 16 21 75 40 43 51
REMARK Flexibility Score: inf
ROOT
ATOM      1  C   UNL A   1      34.345  35.040  28.999  1.00  0.00     0.042 C 
ENDROOT
BRANCH   1   2
ATOM      2  C   UNL A   1      33.391  35.290  30.144  1.00  0.00     0.117 C 
BRANCH   2   3
ATOM      3  N   UNL A   1      33.686  36.491  30.903  1.00  0.00    -0.354 N 
ATOM      4  C   UNL A   1      33.988  36.600  32.228  1.00  0.00     0.250 C 
ATOM      5  O   UNL A   1      34.360  37.692  32.662  1.00  0.00    -0.272 OA
ATOM      6  H   UNL A   1      33.666  37.335  30.396  1.00  0.00     0.163 HD
BRANCH   4   7
ATOM      7  C   UNL A   1      33.837  35.392  33.168  1.00  0.00     0.223 C 
BRANCH   7   8
ATOM      8  C   UNL A   1      35.043  34.395  33.205  1.00  0.00     0.092 C 
ATOM      9  C   UNL A   1      37.115  32.170  34.170  1.00  0.00     0.008 C 
ATOM     10  C   UNL A   1      36.926  33.627  34.592  1.00  0.00    -0.013 C 
ATOM     11  C   UNL A   1      37.517  34.584  33.568  1.00  0.00     0.005 C 
ATOM     12  C   UNL A   1      35.464  34.089  34.664  1.00  0.00     0.029 C 
ATOM     13  C   UNL A   1      36.381  34.909  32.593  1.00  0.00     0.026 C 
BRANCH   8  14
ATOM     14  C   UNL A   1      34.657  33.110  32.560  1.00  0.00     0.072 C 
ATOM     15  N   UNL A   1      34.354  32.130  32.015  1.00  0.00    -0.198 NA
ENDBRANCH   8  14
ENDBRANCH   7   8
BRANCH   7  16
ATOM     16  O   UNL A   1      32.585  34.751  32.891  1.00  0.00    -0.382 OA
ATOM     17  H   UNL A   1      31.899  35.424  32.760  1.00  0.00     0.211 HD
ENDBRANCH   7  16
ENDBRANCH   4   7
ENDBRANCH   2   3
ENDBRANCH   1   2
BRANCH   1  18
ATOM     18  C   UNL A   1      34.922  33.637  28.979  1.00  0.00     0.118 C 
BRANCH  18  19
ATOM     19  N   UNL A   1      34.046  32.666  28.335  1.00  0.00    -0.352 N 
ATOM     20  C   UNL A   1      34.297  31.371  27.952  1.00  0.00     0.251 C 
ATOM     21  H   UNL A   1      33.135  32.987  28.146  1.00  0.00     0.163 HD
ATOM     22  O   UNL A   1      33.471  30.777  27.265  1.00  0.00    -0.269 OA
BRANCH  20  23
ATOM     23  C   UNL A   1      35.565  30.715  28.340  1.00  0.00     0.039 A 
ATOM     24  C   UNL A   1      36.737  31.045  27.660  1.00  0.00     0.014 A 
ATOM     25  C   UNL A   1      35.601  29.785  29.382  1.00  0.00     0.014 A 
ATOM     26  C   UNL A   1      37.952  30.495  28.074  1.00  0.00     0.010 A 
ATOM     27  C   UNL A   1      36.820  29.336  29.869  1.00  0.00     0.010 A 
ATOM     28  C   UNL A   1      38.010  29.670  29.210  1.00  0.00    -0.014 A 
BRANCH  28  29
ATOM     29  C   UNL A   1      39.301  29.120  29.701  1.00  0.00     0.031 A 
ATOM     30  C   UNL A   1      39.993  29.765  30.875  1.00  0.00     0.074 A 
ATOM     31  C   UNL A   1      39.866  28.072  29.070  1.00  0.00     0.049 A 
ATOM     32  N   UNL A   1      41.142  29.467  31.423  1.00  0.00    -0.248 NA
ATOM     33  C   UNL A   1      39.318  30.918  31.491  1.00  0.00     0.031 C 
ATOM     34  C   UNL A   1      39.311  27.392  27.896  1.00  0.00     0.029 A 
ATOM     35  N   UNL A   1      41.030  27.392  29.324  1.00  0.00    -0.354 N 
ATOM     36  C   UNL A   1      41.327  30.396  32.442  1.00  0.00     0.074 A 
ATOM     37  C   UNL A   1      40.216  31.318  32.377  1.00  0.00     0.031 C 
ATOM     38  C   UNL A   1      40.109  26.365  27.565  1.00  0.00     0.029 A 
ATOM     39  C   UNL A   1      41.260  26.345  28.461  1.00  0.00     0.049 A 
ATOM     40  H   UNL A   1      41.644  27.631  30.056  1.00  0.00     0.167 HD
ATOM     41  C   UNL A   1      42.314  30.454  33.370  1.00  0.00     0.034 A 
ATOM     42  C   UNL A   1      42.285  25.472  28.398  1.00  0.00     0.034 A 
ATOM     43  C   UNL A   1      43.411  29.521  33.426  1.00  0.00     0.049 A 
ATOM     44  C   UNL A   1      43.398  25.589  29.410  1.00  0.00     0.074 A 
ATOM     45  C   UNL A   1      44.444  29.460  34.344  1.00  0.00     0.029 A 
ATOM     46  N   UNL A   1      43.622  28.486  32.523  1.00  0.00    -0.354 N 
ATOM     47  N   UNL A   1      43.531  26.443  30.399  1.00  0.00    -0.248 NA
ATOM     48  C   UNL A   1      44.492  24.615  29.305  1.00  0.00     0.031 C 
ATOM     49  C   UNL A   1      45.319  28.442  33.951  1.00  0.00     0.029 A 
ATOM     50  C   UNL A   1      44.786  27.805  32.842  1.00  0.00     0.049 A 
ATOM     51  H   UNL A   1      43.029  28.268  31.766  1.00  0.00     0.167 HD
ATOM     52  C   UNL A   1      44.706  26.083  31.055  1.00  0.00     0.074 A 
ATOM     53  C   UNL A   1      45.229  24.925  30.360  1.00  0.00     0.031 C 
ATOM     54  C   UNL A   1      45.299  26.655  32.135  1.00  0.00     0.034 A 
BRANCH  41  55
ATOM     55  C   UNL A   1      42.252  31.573  34.383  1.00  0.00     0.023 A 
ATOM     56  C   UNL A   1      41.341  31.548  35.454  1.00  0.00     0.031 A 
ATOM     57  C   UNL A   1      43.094  32.692  34.265  1.00  0.00     0.131 A 
ATOM     58  C   UNL A   1      41.238  32.650  36.315  1.00  0.00     0.055 A 
ATOM     59  C   UNL A   1      43.050  33.747  35.181  1.00  0.00     0.041 A 
ATOM     60  F   UNL A   1      43.968  32.788  33.251  1.00  0.00    -0.206 F 
ATOM     61  C   UNL A   1      42.107  33.737  36.204  1.00  0.00     0.022 A 
BRANCH  58  62
ATOM     62  S   UNL A   1      39.851  32.709  37.483  1.00  0.00     0.124 S 
ATOM     63  O   UNL A   1      40.538  32.545  38.762  1.00  0.00    -0.237 OA
ATOM     64  O   UNL A   1      39.282  34.028  37.229  1.00  0.00    -0.237 OA
ATOM     65  O   UNL A   1      39.017  31.579  37.083  1.00  0.00    -0.744 OA
ENDBRANCH  58  62
ENDBRANCH  41  55
BRANCH  42  66
ATOM     66  C   UNL A   1      42.324  24.415  27.345  1.00  0.00     0.023 A 
ATOM     67  C   UNL A   1      41.701  23.173  27.546  1.00  0.00     0.031 A 
ATOM     68  C   UNL A   1      43.036  24.605  26.146  1.00  0.00     0.131 A 
ATOM     69  C   UNL A   1      41.854  22.149  26.598  1.00  0.00     0.055 A 
ATOM     70  C   UNL A   1      43.128  23.606  25.175  1.00  0.00     0.041 A 
ATOM     71  F   UNL A   1      43.651  25.773  25.899  1.00  0.00    -0.206 F 
ATOM     72  C   UNL A   1      42.549  22.363  25.406  1.00  0.00     0.022 A 
BRANCH  69  73
ATOM     73  S   UNL A   1      41.228  20.495  27.001  1.00  0.00     0.124 S 
ATOM     74  O   UNL A   1      42.404  19.667  26.756  1.00  0.00    -0.237 OA
ATOM     75  O   UNL A   1      40.832  20.652  28.395  1.00  0.00    -0.237 OA
ATOM     76  O   UNL A   1      40.126  20.310  26.059  1.00  0.00    -0.744 OA
ENDBRANCH  69  73
ENDBRANCH  42  66
BRANCH  54  77
ATOM     77  C   UNL A   1      46.553  25.998  32.659  1.00  0.00     0.023 A 
ATOM     78  C   UNL A   1      46.510  24.982  33.629  1.00  0.00     0.031 A 
ATOM     79  C   UNL A   1      47.814  26.405  32.184  1.00  0.00     0.131 A 
ATOM     80  C   UNL A   1      47.704  24.452  34.139  1.00  0.00     0.055 A 
ATOM     81  C   UNL A   1      48.996  25.822  32.643  1.00  0.00     0.041 A 
ATOM     82  F   UNL A   1      47.917  27.373  31.260  1.00  0.00    -0.206 F 
ATOM     83  C   UNL A   1      48.945  24.850  33.638  1.00  0.00     0.022 A 
BRANCH  80  84
ATOM     84  S   UNL A   1      47.617  23.308  35.544  1.00  0.00     0.124 S 
ATOM     85  O   UNL A   1      46.960  22.149  34.950  1.00  0.00    -0.237 OA
ATOM     86  O   UNL A   1      49.024  23.134  35.892  1.00  0.00    -0.237 OA
ATOM     87  O   UNL A   1      46.820  24.036  36.530  1.00  0.00    -0.744 OA
ENDBRANCH  80  84
ENDBRANCH  54  77
ENDBRANCH  28  29
ENDBRANCH  20  23
ENDBRANCH  18  19
ENDBRANCH   1  18
TORSDOF 16
ENDMDL
MODEL 2
REMARK VINA RESULT:     -10.3      4.576     12.212
REMARK SMILES C[C@H]1CC[C@](C#N)([C@H](O)C(=O)NCCCNC(=O)c2ccc(-c3c4nc(c(-c5cc(S(=O)(=O)[O-])ccc5F)c5ccc([nH]5)c(-c5cc(S(=O)(=O)[O-])ccc5F)c5nc(c(-c6cc(S(=O)(=O)[O-])ccc6F)c6ccc3[nH]6)C=C5)C=C4)cc2)C1
REMARK SMILES IDX 14 1 13 2 12 3 10 4 11 5 8 7 5 8 1 9 2 10 3 11 82 12 4 13
REMARK SMILES IDX 6 14 7 15 9 16 15 18 16 19 17 20 18 22 19 23 20 24 81 25
REMARK SMILES IDX 21 26 80 27 22 28 23 29 24 30 74 31 25 32 79 33 73 34 75 35
REMARK SMILES IDX 26 36 78 37 72 38 71 39 27 41 59 42 39 43 58 44 40 45 43 46
REMARK SMILES IDX 57 47 76 48 41 49 42 50 56 52 77 53 44 54 28 55 29 56 37 57
REMARK SMILES IDX 30 58 36 59 38 60 35 61 31 62 32 63 33 64 34 65 60 66 61 67
REMARK SMILES IDX 69 68 62 69 68 70 70 71 67 72 63 73 64 74 65 75 66 76 45 77
REMARK SMILES IDX 46 78 54 79 47 80 53 81 55 82 52 83 48 84 49 85 50 86 51 87
REMARK H PARENT 12 6 9 17 16 21 75 40 43 51
REMARK Flexibility Score: inf
ROOT
ATOM      1  C   UNL A   1      41.795  21.447  26.453  1.00  0.00     0.042 C 
ENDROOT
BRANCH   1   2
ATOM      2  C   UNL A   1      42.620  20.182  26.422  1.00  0.00     0.117 C 
BRANCH   2   3
ATOM      3  N   UNL A   1      43.122  19.840  25.104  1.00  0.00    -0.354 N 
ATOM      4  C   UNL A   1      44.344  20.117  24.567  1.00  0.00     0.250 C 
ATOM      5  O   UNL A   1      44.642  19.611  23.484  1.00  0.00    -0.272 OA
ATOM      6  H   UNL A   1      42.499  19.346  24.523  1.00  0.00     0.163 HD
BRANCH   4   7
ATOM      7  C   UNL A   1      45.318  21.066  25.286  1.00  0.00     0.223 C 
BRANCH   7   8
ATOM      8  C   UNL A   1      45.149  22.590  24.974  1.00  0.00     0.092 C 
ATOM      9  C   UNL A   1      45.177  25.768  25.250  1.00  0.00     0.008 C 
ATOM     10  C   UNL A   1      44.277  24.705  25.881  1.00  0.00    -0.013 C 
ATOM     11  C   UNL A   1      43.232  24.204  24.895  1.00  0.00     0.005 C 
ATOM     12  C   UNL A   1      44.997  23.409  26.279  1.00  0.00     0.029 C 
ATOM     13  C   UNL A   1      43.861  22.995  24.195  1.00  0.00     0.026 C 
BRANCH   8  14
ATOM     14  C   UNL A   1      46.350  23.094  24.254  1.00  0.00     0.072 C 
ATOM     15  N   UNL A   1      47.309  23.496  23.733  1.00  0.00    -0.198 NA
ENDBRANCH   8  14
ENDBRANCH   7   8
BRANCH   7  16
ATOM     16  O   UNL A   1      46.655  20.593  25.078  1.00  0.00    -0.382 OA
ATOM     17  H   UNL A   1      47.286  21.294  25.307  1.00  0.00     0.211 HD
ENDBRANCH   7  16
ENDBRANCH   4   7
ENDBRANCH   2   3
ENDBRANCH   1   2
BRANCH   1  18
ATOM     18  C   UNL A   1      40.522  21.328  27.269  1.00  0.00     0.118 C 
BRANCH  18  19
ATOM     19  N   UNL A   1      39.319  21.627  26.504  1.00  0.00    -0.352 N 
ATOM     20  C   UNL A   1      38.642  22.814  26.353  1.00  0.00     0.251 C 
ATOM     21  H   UNL A   1      38.931  20.862  26.019  1.00  0.00     0.163 HD
ATOM     22  O   UNL A   1      37.546  22.814  25.801  1.00  0.00    -0.269 OA
BRANCH  20  23
ATOM     23  C   UNL A   1      39.220  24.069  26.881  1.00  0.00     0.039 A 
ATOM     24  C   UNL A   1      39.950  24.893  26.024  1.00  0.00     0.014 A 
ATOM     25  C   UNL A   1      39.032  24.440  28.214  1.00  0.00     0.014 A 
ATOM     26  C   UNL A   1      40.428  26.120  26.491  1.00  0.00     0.010 A 
ATOM     27  C   UNL A   1      39.399  25.709  28.640  1.00  0.00     0.010 A 
ATOM     28  C   UNL A   1      40.119  26.558  27.789  1.00  0.00    -0.014 A 
BRANCH  28  29
ATOM     29  C   UNL A   1      40.569  27.885  28.286  1.00  0.00     0.031 A 
ATOM     30  C   UNL A   1      42.042  28.193  28.372  1.00  0.00     0.074 A 
ATOM     31  C   UNL A   1      39.659  28.790  28.697  1.00  0.00     0.049 A 
ATOM     32  N   UNL A   1      42.636  29.268  28.820  1.00  0.00    -0.248 NA
ATOM     33  C   UNL A   1      42.967  27.140  27.925  1.00  0.00     0.031 C 
ATOM     34  C   UNL A   1      38.208  28.588  28.702  1.00  0.00     0.029 A 
ATOM     35  N   UNL A   1      39.815  30.061  29.187  1.00  0.00    -0.354 N 
ATOM     36  C   UNL A   1      44.001  29.018  28.712  1.00  0.00     0.074 A 
ATOM     37  C   UNL A   1      44.142  27.660  28.240  1.00  0.00     0.031 C 
ATOM     38  C   UNL A   1      37.608  29.712  29.125  1.00  0.00     0.029 A 
ATOM     39  C   UNL A   1      38.627  30.695  29.477  1.00  0.00     0.049 A 
ATOM     40  H   UNL A   1      40.696  30.483  29.319  1.00  0.00     0.167 HD
ATOM     41  C   UNL A   1      45.040  29.856  28.951  1.00  0.00     0.034 A 
ATOM     42  C   UNL A   1      38.390  31.924  29.974  1.00  0.00     0.034 A 
ATOM     43  C   UNL A   1      44.880  31.212  29.413  1.00  0.00     0.049 A 
ATOM     44  C   UNL A   1      39.565  32.821  30.279  1.00  0.00     0.074 A 
ATOM     45  C   UNL A   1      45.857  32.162  29.650  1.00  0.00     0.029 A 
ATOM     46  N   UNL A   1      43.663  31.811  29.715  1.00  0.00    -0.354 N 
ATOM     47  N   UNL A   1      40.848  32.586  30.123  1.00  0.00    -0.248 NA
ATOM     48  C   UNL A   1      39.258  34.152  30.816  1.00  0.00     0.031 C 
ATOM     49  C   UNL A   1      45.240  33.305  30.169  1.00  0.00     0.029 A 
ATOM     50  C   UNL A   1      43.868  33.104  30.169  1.00  0.00     0.049 A 
ATOM     51  H   UNL A   1      42.783  31.379  29.620  1.00  0.00     0.167 HD
ATOM     52  C   UNL A   1      41.497  33.756  30.508  1.00  0.00     0.074 A 
ATOM     53  C   UNL A   1      40.463  34.698  30.884  1.00  0.00     0.031 C 
ATOM     54  C   UNL A   1      42.827  34.030  30.546  1.00  0.00     0.034 A 
BRANCH  41  55
ATOM     55  C   UNL A   1      46.434  29.318  28.727  1.00  0.00     0.023 A 
ATOM     56  C   UNL A   1      46.942  29.102  27.434  1.00  0.00     0.031 A 
ATOM     57  C   UNL A   1      47.257  28.991  29.819  1.00  0.00     0.131 A 
ATOM     58  C   UNL A   1      48.199  28.504  27.264  1.00  0.00     0.055 A 
ATOM     59  C   UNL A   1      48.546  28.481  29.642  1.00  0.00     0.041 A 
ATOM     60  F   UNL A   1      46.821  29.151  31.078  1.00  0.00    -0.206 F 
ATOM     61  C   UNL A   1      49.017  28.219  28.359  1.00  0.00     0.022 A 
BRANCH  58  62
ATOM     62  S   UNL A   1      48.683  27.962  25.602  1.00  0.00     0.124 S 
ATOM     63  O   UNL A   1      49.957  28.655  25.428  1.00  0.00    -0.237 OA
ATOM     64  O   UNL A   1      48.758  26.514  25.752  1.00  0.00    -0.237 OA
ATOM     65  O   UNL A   1      47.597  28.448  24.754  1.00  0.00    -0.744 OA
ENDBRANCH  58  62
ENDBRANCH  41  55
BRANCH  42  66
ATOM     66  C   UNL A   1      36.994  32.390  30.223  1.00  0.00     0.023 A 
ATOM     67  C   UNL A   1      36.244  33.000  29.205  1.00  0.00     0.031 A 
ATOM     68  C   UNL A   1      36.409  32.291  31.499  1.00  0.00     0.131 A 
ATOM     69  C   UNL A   1      34.982  33.543  29.492  1.00  0.00     0.055 A 
ATOM     70  C   UNL A   1      35.125  32.772  31.762  1.00  0.00     0.041 A 
ATOM     71  F   UNL A   1      37.079  31.716  32.511  1.00  0.00    -0.206 F 
ATOM     72  C   UNL A   1      34.410  33.418  30.759  1.00  0.00     0.022 A 
BRANCH  69  73
ATOM     73  S   UNL A   1      34.147  34.519  28.210  1.00  0.00     0.124 S 
ATOM     74  O   UNL A   1      35.145  34.524  27.146  1.00  0.00    -0.237 OA
ATOM     75  O   UNL A   1      32.947  33.729  27.962  1.00  0.00    -0.237 OA
ATOM     76  O   UNL A   1      33.920  35.808  28.860  1.00  0.00    -0.744 OA
ENDBRANCH  69  73
ENDBRANCH  42  66
BRANCH  54  77
ATOM     77  C   UNL A   1      43.229  35.425  30.962  1.00  0.00     0.023 A 
ATOM     78  C   UNL A   1      43.282  35.811  32.312  1.00  0.00     0.031 A 
ATOM     79  C   UNL A   1      43.555  36.385  29.987  1.00  0.00     0.131 A 
ATOM     80  C   UNL A   1      43.590  37.138  32.648  1.00  0.00     0.055 A 
ATOM     81  C   UNL A   1      43.932  37.684  30.331  1.00  0.00     0.041 A 
ATOM     82  F   UNL A   1      43.520  36.075  28.681  1.00  0.00    -0.206 F 
ATOM     83  C   UNL A   1      43.936  38.071  31.668  1.00  0.00     0.022 A 
BRANCH  80  84
ATOM     84  S   UNL A   1      43.430  37.656  34.379  1.00  0.00     0.124 S 
ATOM     85  O   UNL A   1      44.802  37.531  34.860  1.00  0.00    -0.237 OA
ATOM     86  O   UNL A   1      42.921  39.018  34.251  1.00  0.00    -0.237 OA
ATOM     87  O   UNL A   1      42.485  36.692  34.940  1.00  0.00    -0.744 OA
ENDBRANCH  80  84
ENDBRANCH  54  77
ENDBRANCH  28  29
ENDBRANCH  20  23
ENDBRANCH  18  19
ENDBRANCH   1  18
TORSDOF 16
ENDMDL
MODEL 3
REMARK VINA RESULT:     -10.1      3.172      5.401
REMARK SMILES C[C@H]1CC[C@](C#N)([C@H](O)C(=O)NCCCNC(=O)c2ccc(-c3c4nc(c(-c5cc(S(=O)(=O)[O-])ccc5F)c5ccc([nH]5)c(-c5cc(S(=O)(=O)[O-])ccc5F)c5nc(c(-c6cc(S(=O)(=O)[O-])ccc6F)c6ccc3[nH]6)C=C5)C=C4)cc2)C1
REMARK SMILES IDX 14 1 13 2 12 3 10 4 11 5 8 7 5 8 1 9 2 10 3 11 82 12 4 13
REMARK SMILES IDX 6 14 7 15 9 16 15 18 16 19 17 20 18 22 19 23 20 24 81 25
REMARK SMILES IDX 21 26 80 27 22 28 23 29 24 30 74 31 25 32 79 33 73 34 75 35
REMARK SMILES IDX 26 36 78 37 72 38 71 39 27 41 59 42 39 43 58 44 40 45 43 46
REMARK SMILES IDX 57 47 76 48 41 49 42 50 56 52 77 53 44 54 28 55 29 56 37 57
REMARK SMILES IDX 30 58 36 59 38 60 35 61 31 62 32 63 33 64 34 65 60 66 61 67
REMARK SMILES IDX 69 68 62 69 68 70 70 71 67 72 63 73 64 74 65 75 66 76 45 77
REMARK SMILES IDX 46 78 54 79 47 80 53 81 55 82 52 83 48 84 49 85 50 86 51 87
REMARK H PARENT 12 6 9 17 16 21 75 40 43 51
REMARK Flexibility Score: inf
ROOT
ATOM      1  C   UNL A   1      32.646  29.328  24.812  1.00  0.00     0.042 C 
ENDROOT
BRANCH   1   2
ATOM      2  C   UNL A   1      31.210  28.970  25.112  1.00  0.00     0.117 C 
BRANCH   2   3
ATOM      3  N   UNL A   1      30.638  28.010  24.186  1.00  0.00    -0.354 N 
ATOM      4  C   UNL A   1      30.301  26.710  24.418  1.00  0.00     0.250 C 
ATOM      5  O   UNL A   1      29.684  26.094  23.546  1.00  0.00    -0.272 OA
ATOM      6  H   UNL A   1      30.472  28.341  23.273  1.00  0.00     0.163 HD
BRANCH   4   7
ATOM      7  C   UNL A   1      30.711  26.016  25.729  1.00  0.00     0.223 C 
BRANCH   7   8
ATOM      8  C   UNL A   1      31.959  25.076  25.648  1.00  0.00     0.092 C 
ATOM      9  C   UNL A   1      34.852  23.821  26.130  1.00  0.00     0.008 C 
ATOM     10  C   UNL A   1      34.403  25.061  25.357  1.00  0.00    -0.013 C 
ATOM     11  C   UNL A   1      33.813  24.691  24.005  1.00  0.00     0.005 C 
ATOM     12  C   UNL A   1      33.255  25.843  26.010  1.00  0.00     0.029 C 
ATOM     13  C   UNL A   1      32.309  24.515  24.237  1.00  0.00     0.026 C 
BRANCH   8  14
ATOM     14  C   UNL A   1      31.808  23.952  26.612  1.00  0.00     0.072 C 
ATOM     15  N   UNL A   1      31.656  23.055  27.336  1.00  0.00    -0.198 NA
ENDBRANCH   8  14
ENDBRANCH   7   8
BRANCH   7  16
ATOM     16  O   UNL A   1      29.557  25.375  26.287  1.00  0.00    -0.382 OA
ATOM     17  H   UNL A   1      29.347  24.581  25.771  1.00  0.00     0.211 HD
ENDBRANCH   7  16
ENDBRANCH   4   7
ENDBRANCH   2   3
ENDBRANCH   1   2
BRANCH   1  18
ATOM     18  C   UNL A   1      33.488  29.571  26.050  1.00  0.00     0.118 C 
BRANCH  18  19
ATOM     19  N   UNL A   1      33.326  30.910  26.600  1.00  0.00    -0.352 N 
ATOM     20  C   UNL A   1      34.065  31.568  27.554  1.00  0.00     0.251 C 
ATOM     21  H   UNL A   1      32.570  31.424  26.232  1.00  0.00     0.163 HD
ATOM     22  O   UNL A   1      33.655  32.634  28.002  1.00  0.00    -0.269 OA
BRANCH  20  23
ATOM     23  C   UNL A   1      35.327  30.977  28.051  1.00  0.00     0.039 A 
ATOM     24  C   UNL A   1      36.508  31.713  27.950  1.00  0.00     0.014 A 
ATOM     25  C   UNL A   1      35.344  29.706  28.628  1.00  0.00     0.014 A 
ATOM     26  C   UNL A   1      37.688  31.199  28.493  1.00  0.00     0.010 A 
ATOM     27  C   UNL A   1      36.486  29.252  29.273  1.00  0.00     0.010 A 
ATOM     28  C   UNL A   1      37.678  29.984  29.198  1.00  0.00    -0.014 A 
BRANCH  28  29
ATOM     29  C   UNL A   1      38.910  29.447  29.832  1.00  0.00     0.031 A 
ATOM     30  C   UNL A   1      39.342  29.956  31.183  1.00  0.00     0.074 A 
ATOM     31  C   UNL A   1      39.658  28.537  29.177  1.00  0.00     0.049 A 
ATOM     32  N   UNL A   1      40.405  29.651  31.881  1.00  0.00    -0.248 NA
ATOM     33  C   UNL A   1      38.479  30.966  31.818  1.00  0.00     0.031 C 
ATOM     34  C   UNL A   1      39.365  28.002  27.845  1.00  0.00     0.029 A 
ATOM     35  N   UNL A   1      40.817  27.898  29.539  1.00  0.00    -0.354 N 
ATOM     36  C   UNL A   1      40.340  30.432  33.030  1.00  0.00     0.074 A 
ATOM     37  C   UNL A   1      39.182  31.286  32.893  1.00  0.00     0.031 C 
ATOM     38  C   UNL A   1      40.290  27.083  27.526  1.00  0.00     0.029 A 
ATOM     39  C   UNL A   1      41.274  27.002  28.600  1.00  0.00     0.049 A 
ATOM     40  H   UNL A   1      41.278  28.065  30.393  1.00  0.00     0.167 HD
ATOM     41  C   UNL A   1      41.151  30.415  34.116  1.00  0.00     0.034 A 
ATOM     42  C   UNL A   1      42.365  26.211  28.603  1.00  0.00     0.034 A 
ATOM     43  C   UNL A   1      42.297  29.550  34.241  1.00  0.00     0.049 A 
ATOM     44  C   UNL A   1      43.280  26.246  29.802  1.00  0.00     0.074 A 
ATOM     45  C   UNL A   1      43.166  29.420  35.310  1.00  0.00     0.029 A 
ATOM     46  N   UNL A   1      42.741  28.671  33.260  1.00  0.00    -0.354 N 
ATOM     47  N   UNL A   1      43.176  26.955  30.903  1.00  0.00    -0.248 NA
ATOM     48  C   UNL A   1      44.454  25.365  29.764  1.00  0.00     0.031 C 
ATOM     49  C   UNL A   1      44.176  28.523  34.947  1.00  0.00     0.029 A 
ATOM     50  C   UNL A   1      43.889  28.022  33.687  1.00  0.00     0.049 A 
ATOM     51  H   UNL A   1      42.303  28.530  32.389  1.00  0.00     0.167 HD
ATOM     52  C   UNL A   1      44.251  26.575  31.702  1.00  0.00     0.074 A 
ATOM     53  C   UNL A   1      44.977  25.562  30.964  1.00  0.00     0.031 C 
ATOM     54  C   UNL A   1      44.606  27.019  32.936  1.00  0.00     0.034 A 
BRANCH  41  55
ATOM     55  C   UNL A   1      40.828  31.370  35.242  1.00  0.00     0.023 A 
ATOM     56  C   UNL A   1      39.715  31.174  36.079  1.00  0.00     0.031 A 
ATOM     57  C   UNL A   1      41.625  32.506  35.467  1.00  0.00     0.131 A 
ATOM     58  C   UNL A   1      39.385  32.134  37.046  1.00  0.00     0.055 A 
ATOM     59  C   UNL A   1      41.344  33.412  36.493  1.00  0.00     0.041 A 
ATOM     60  F   UNL A   1      42.687  32.762  34.687  1.00  0.00    -0.206 F 
ATOM     61  C   UNL A   1      40.209  33.237  37.279  1.00  0.00     0.022 A 
BRANCH  58  62
ATOM     62  S   UNL A   1      37.784  32.001  37.887  1.00  0.00     0.124 S 
ATOM     63  O   UNL A   1      37.404  30.625  37.578  1.00  0.00    -0.237 OA
ATOM     64  O   UNL A   1      38.135  32.269  39.277  1.00  0.00    -0.237 OA
ATOM     65  O   UNL A   1      36.969  33.025  37.238  1.00  0.00    -0.744 OA
ENDBRANCH  58  62
ENDBRANCH  41  55
BRANCH  42  66
ATOM     66  C   UNL A   1      42.665  25.321  27.443  1.00  0.00     0.023 A 
ATOM     67  C   UNL A   1      42.124  24.028  27.367  1.00  0.00     0.031 A 
ATOM     68  C   UNL A   1      43.548  25.725  26.424  1.00  0.00     0.131 A 
ATOM     69  C   UNL A   1      42.517  23.163  26.333  1.00  0.00     0.055 A 
ATOM     70  C   UNL A   1      43.883  24.883  25.362  1.00  0.00     0.041 A 
ATOM     71  F   UNL A   1      44.096  26.951  26.446  1.00  0.00    -0.206 F 
ATOM     72  C   UNL A   1      43.380  23.587  25.321  1.00  0.00     0.022 A 
BRANCH  69  73
ATOM     73  S   UNL A   1      41.974  21.433  26.397  1.00  0.00     0.124 S 
ATOM     74  O   UNL A   1      40.556  21.558  26.079  1.00  0.00    -0.237 OA
ATOM     75  O   UNL A   1      42.809  20.815  25.375  1.00  0.00    -0.237 OA
ATOM     76  O   UNL A   1      42.273  21.034  27.771  1.00  0.00    -0.744 OA
ENDBRANCH  69  73
ENDBRANCH  42  66
BRANCH  54  77
ATOM     77  C   UNL A   1      45.807  26.370  33.580  1.00  0.00     0.023 A 
ATOM     78  C   UNL A   1      45.700  25.181  34.323  1.00  0.00     0.031 A 
ATOM     79  C   UNL A   1      47.079  26.958  33.456  1.00  0.00     0.131 A 
ATOM     80  C   UNL A   1      46.830  24.654  34.965  1.00  0.00     0.055 A 
ATOM     81  C   UNL A   1      48.213  26.388  34.036  1.00  0.00     0.041 A 
ATOM     82  F   UNL A   1      47.243  28.095  32.761  1.00  0.00    -0.206 F 
ATOM     83  C   UNL A   1      48.089  25.238  34.809  1.00  0.00     0.022 A 
BRANCH  80  84
ATOM     84  S   UNL A   1      46.612  23.252  36.095  1.00  0.00     0.124 S 
ATOM     85  O   UNL A   1      47.294  22.179  35.380  1.00  0.00    -0.237 OA
ATOM     86  O   UNL A   1      47.267  23.725  37.310  1.00  0.00    -0.237 OA
ATOM     87  O   UNL A   1      45.160  23.110  36.190  1.00  0.00    -0.744 OA
ENDBRANCH  80  84
ENDBRANCH  54  77
ENDBRANCH  28  29
ENDBRANCH  20  23
ENDBRANCH  18  19
ENDBRANCH   1  18
TORSDOF 16
ENDMDL
