MODEL 1
REMARK VINA RESULT:     -12.5      0.000      0.000
REMARK SMILES CC1=C(C)C[C@@H](C(=O)NCCCNC(=O)c2ccc(-c3c4nc(c(-c5cc(S(=O)(=O)[O-])ccc5F)c5ccc([nH]5)c(-c5cc(S(=O)(=O)[O-])ccc5F)c5nc(c(-c6cc(S(=O)(=O)[O-])ccc6F)c6ccc3[nH]6)C=C5)C=C4)cc2)[C@@H](C(=O)NCC[NH+]2CCOCC2)C1
REMARK SMILES IDX 10 1 9 2 7 3 8 4 6 6 1 7 2 8 3 9 91 10 4 11 5 12 79 13 80 14
REMARK SMILES IDX 81 15 82 16 83 18 84 19 85 20 86 21 90 22 87 24 89 25 88 26
REMARK SMILES IDX 11 27 12 28 13 29 14 30 15 32 16 33 17 34 78 35 18 36 77 37
REMARK SMILES IDX 19 38 20 39 21 40 71 41 22 42 76 43 70 44 72 45 23 46 75 47
REMARK SMILES IDX 69 48 68 49 24 51 56 52 36 53 55 54 37 55 40 56 54 57 73 58
REMARK SMILES IDX 38 59 39 60 53 62 74 63 41 64 25 65 26 66 34 67 27 68 33 69
REMARK SMILES IDX 35 70 32 71 28 72 29 73 30 74 31 75 57 76 58 77 66 78 59 79
REMARK SMILES IDX 65 80 67 81 64 82 60 83 61 84 62 85 63 86 42 87 43 88 51 89
REMARK SMILES IDX 44 90 50 91 52 92 49 93 45 94 46 95 47 96 48 97
REMARK H PARENT 9 5 82 17 85 23 13 31 72 50 40 61
REMARK Flexibility Score: inf
ROOT
ATOM      1  C   UNL A   1      31.573  26.824  25.963  1.00  0.00     0.117 C 
ENDROOT
BRANCH   1   2
ATOM      2  N   UNL A   1      31.505  25.854  24.887  1.00  0.00    -0.356 N 
ATOM      3  C   UNL A   1      32.289  24.785  24.590  1.00  0.00     0.224 C 
ATOM      4  O   UNL A   1      31.901  24.040  23.683  1.00  0.00    -0.275 OA
ATOM      5  H   UNL A   1      30.758  25.996  24.261  1.00  0.00     0.163 HD
BRANCH   3   6
ATOM      6  C   UNL A   1      33.568  24.443  25.358  1.00  0.00     0.095 C 
ATOM      7  C   UNL A   1      36.377  20.988  25.387  1.00  0.00     0.039 C 
ATOM      8  C   UNL A   1      35.570  22.260  25.375  1.00  0.00    -0.074 C 
ATOM      9  C   UNL A   1      35.585  23.144  24.357  1.00  0.00    -0.074 C 
ATOM     10  C   UNL A   1      34.805  22.586  26.636  1.00  0.00     0.045 C 
ATOM     11  C   UNL A   1      36.418  23.013  23.108  1.00  0.00     0.039 C 
ATOM     12  C   UNL A   1      34.798  24.432  24.432  1.00  0.00     0.045 C 
ATOM     13  C   UNL A   1      33.477  23.313  26.414  1.00  0.00     0.095 C 
BRANCH  13  14
ATOM     14  C   UNL A   1      32.148  22.541  26.431  1.00  0.00     0.224 C 
ATOM     15  O   UNL A   1      31.271  22.895  27.230  1.00  0.00    -0.275 OA
ATOM     16  N   UNL A   1      31.831  21.481  25.657  1.00  0.00    -0.350 N 
ATOM     17  H   UNL A   1      30.938  21.116  25.855  1.00  0.00     0.163 HD
BRANCH  16  18
ATOM     18  C   UNL A   1      32.514  20.760  24.602  1.00  0.00     0.177 C 
BRANCH  18  19
ATOM     19  C   UNL A   1      32.957  19.352  25.046  1.00  0.00     0.283 C 
BRANCH  19  20
ATOM     20  N   UNL A   1      32.154  18.243  24.497  1.00  0.00    -0.330 N 
ATOM     21  C   UNL A   1      32.249  17.047  25.379  1.00  0.00     0.291 C 
ATOM     22  C   UNL A   1      32.624  17.804  23.163  1.00  0.00     0.291 C 
ATOM     23  H   UNL A   1      31.202  18.603  24.431  1.00  0.00     0.348 HD
ATOM     24  C   UNL A   1      33.644  16.396  25.389  1.00  0.00     0.221 C 
ATOM     25  C   UNL A   1      34.010  17.138  23.157  1.00  0.00     0.221 C 
ATOM     26  O   UNL A   1      34.089  16.049  24.075  1.00  0.00    -0.370 OA
ENDBRANCH  19  20
ENDBRANCH  18  19
ENDBRANCH  16  18
ENDBRANCH  13  14
ENDBRANCH   3   6
ENDBRANCH   1   2
BRANCH   1  27
ATOM     27  C   UNL A   1      31.438  28.262  25.478  1.00  0.00     0.042 C 
BRANCH  27  28
ATOM     28  C   UNL A   1      32.725  29.077  25.503  1.00  0.00     0.118 C 
BRANCH  28  29
ATOM     29  N   UNL A   1      32.507  30.423  26.007  1.00  0.00    -0.352 N 
ATOM     30  C   UNL A   1      33.148  31.212  26.929  1.00  0.00     0.251 C 
ATOM     31  H   UNL A   1      31.728  30.865  25.597  1.00  0.00     0.163 HD
ATOM     32  O   UNL A   1      32.545  32.229  27.282  1.00  0.00    -0.269 OA
BRANCH  30  33
ATOM     33  C   UNL A   1      34.482  30.922  27.539  1.00  0.00     0.039 A 
ATOM     34  C   UNL A   1      34.707  29.611  27.992  1.00  0.00     0.014 A 
ATOM     35  C   UNL A   1      35.473  31.871  27.792  1.00  0.00     0.014 A 
ATOM     36  C   UNL A   1      35.880  29.266  28.682  1.00  0.00     0.010 A 
ATOM     37  C   UNL A   1      36.687  31.506  28.400  1.00  0.00     0.010 A 
ATOM     38  C   UNL A   1      36.895  30.209  28.890  1.00  0.00    -0.014 A 
BRANCH  38  39
ATOM     39  C   UNL A   1      38.125  29.859  29.667  1.00  0.00     0.031 A 
ATOM     40  C   UNL A   1      38.366  30.441  31.039  1.00  0.00     0.074 A 
ATOM     41  C   UNL A   1      39.049  29.025  29.151  1.00  0.00     0.049 A 
ATOM     42  N   UNL A   1      39.358  30.228  31.870  1.00  0.00    -0.248 NA
ATOM     43  C   UNL A   1      37.377  31.409  31.528  1.00  0.00     0.031 C 
ATOM     44  C   UNL A   1      38.975  28.411  27.830  1.00  0.00     0.029 A 
ATOM     45  N   UNL A   1      40.228  28.546  29.669  1.00  0.00    -0.354 N 
ATOM     46  C   UNL A   1      39.114  31.038  32.975  1.00  0.00     0.074 A 
ATOM     47  C   UNL A   1      37.928  31.808  32.664  1.00  0.00     0.031 C 
ATOM     48  C   UNL A   1      40.047  27.626  27.640  1.00  0.00     0.029 A 
ATOM     49  C   UNL A   1      40.892  27.683  28.827  1.00  0.00     0.049 A 
ATOM     50  H   UNL A   1      40.567  28.796  30.559  1.00  0.00     0.167 HD
ATOM     51  C   UNL A   1      39.785  31.110  34.154  1.00  0.00     0.034 A 
ATOM     52  C   UNL A   1      42.040  26.997  28.990  1.00  0.00     0.034 A 
ATOM     53  C   UNL A   1      40.961  30.332  34.468  1.00  0.00     0.049 A 
ATOM     54  C   UNL A   1      42.780  27.095  30.296  1.00  0.00     0.074 A 
ATOM     55  C   UNL A   1      41.676  30.284  35.653  1.00  0.00     0.029 A 
ATOM     56  N   UNL A   1      41.605  29.472  33.587  1.00  0.00    -0.354 N 
ATOM     57  N   UNL A   1      42.494  27.811  31.357  1.00  0.00    -0.248 NA
ATOM     58  C   UNL A   1      43.984  26.266  30.433  1.00  0.00     0.031 C 
ATOM     59  C   UNL A   1      42.780  29.441  35.472  1.00  0.00     0.029 A 
ATOM     60  C   UNL A   1      42.722  28.912  34.194  1.00  0.00     0.049 A 
ATOM     61  H   UNL A   1      41.311  29.286  32.666  1.00  0.00     0.167 HD
ATOM     62  C   UNL A   1      43.463  27.490  32.303  1.00  0.00     0.074 A 
ATOM     63  C   UNL A   1      44.337  26.512  31.686  1.00  0.00     0.031 C 
ATOM     64  C   UNL A   1      43.607  27.954  33.571  1.00  0.00     0.034 A 
BRANCH  51  65
ATOM     65  C   UNL A   1      39.253  32.088  35.179  1.00  0.00     0.023 A 
ATOM     66  C   UNL A   1      39.759  33.398  35.275  1.00  0.00     0.031 A 
ATOM     67  C   UNL A   1      38.289  31.688  36.121  1.00  0.00     0.131 A 
ATOM     68  C   UNL A   1      39.392  34.216  36.353  1.00  0.00     0.055 A 
ATOM     69  C   UNL A   1      37.853  32.544  37.136  1.00  0.00     0.041 A 
ATOM     70  F   UNL A   1      37.776  30.448  36.091  1.00  0.00    -0.206 F 
ATOM     71  C   UNL A   1      38.424  33.807  37.272  1.00  0.00     0.022 A 
BRANCH  68  72
ATOM     72  S   UNL A   1      40.345  35.732  36.646  1.00  0.00     0.124 S 
ATOM     73  O   UNL A   1      40.192  35.903  38.090  1.00  0.00    -0.237 OA
ATOM     74  O   UNL A   1      41.675  35.363  36.182  1.00  0.00    -0.237 OA
ATOM     75  O   UNL A   1      39.654  36.733  35.833  1.00  0.00    -0.744 OA
ENDBRANCH  68  72
ENDBRANCH  51  65
BRANCH  52  76
ATOM     76  C   UNL A   1      42.545  26.116  27.901  1.00  0.00     0.023 A 
ATOM     77  C   UNL A   1      42.040  24.817  27.737  1.00  0.00     0.031 A 
ATOM     78  C   UNL A   1      43.551  26.556  27.024  1.00  0.00     0.131 A 
ATOM     79  C   UNL A   1      42.570  23.985  26.740  1.00  0.00     0.055 A 
ATOM     80  C   UNL A   1      44.052  25.735  26.012  1.00  0.00     0.041 A 
ATOM     81  F   UNL A   1      44.056  27.795  27.135  1.00  0.00    -0.206 F 
ATOM     82  C   UNL A   1      43.566  24.437  25.871  1.00  0.00     0.022 A 
BRANCH  79  83
ATOM     83  S   UNL A   1      41.964  22.279  26.618  1.00  0.00     0.124 S 
ATOM     84  O   UNL A   1      40.520  22.476  26.601  1.00  0.00    -0.237 OA
ATOM     85  O   UNL A   1      42.566  21.831  25.365  1.00  0.00    -0.237 OA
ATOM     86  O   UNL A   1      42.495  21.642  27.822  1.00  0.00    -0.744 OA
ENDBRANCH  79  83
ENDBRANCH  52  76
BRANCH  64  87
ATOM     87  C   UNL A   1      44.735  27.367  34.383  1.00  0.00     0.023 A 
ATOM     88  C   UNL A   1      44.573  26.186  35.131  1.00  0.00     0.031 A 
ATOM     89  C   UNL A   1      45.974  28.027  34.452  1.00  0.00     0.131 A 
ATOM     90  C   UNL A   1      45.608  25.738  35.967  1.00  0.00     0.055 A 
ATOM     91  C   UNL A   1      47.022  27.545  35.241  1.00  0.00     0.041 A 
ATOM     92  F   UNL A   1      46.185  29.160  33.763  1.00  0.00    -0.206 F 
ATOM     93  C   UNL A   1      46.836  26.404  36.016  1.00  0.00     0.022 A 
BRANCH  90  94
ATOM     94  S   UNL A   1      45.289  24.341  37.078  1.00  0.00     0.124 S 
ATOM     95  O   UNL A   1      44.795  23.323  36.156  1.00  0.00    -0.237 OA
ATOM     96  O   UNL A   1      46.606  24.093  37.653  1.00  0.00    -0.237 OA
ATOM     97  O   UNL A   1      44.294  24.865  38.012  1.00  0.00    -0.744 OA
ENDBRANCH  90  94
ENDBRANCH  64  87
ENDBRANCH  38  39
ENDBRANCH  30  33
ENDBRANCH  28  29
ENDBRANCH  27  28
ENDBRANCH   1  27
TORSDOF 17
ENDMDL
MODEL 2
REMARK VINA RESULT:     -12.4      4.736      9.461
REMARK SMILES CC1=C(C)C[C@@H](C(=O)NCCCNC(=O)c2ccc(-c3c4nc(c(-c5cc(S(=O)(=O)[O-])ccc5F)c5ccc([nH]5)c(-c5cc(S(=O)(=O)[O-])ccc5F)c5nc(c(-c6cc(S(=O)(=O)[O-])ccc6F)c6ccc3[nH]6)C=C5)C=C4)cc2)[C@@H](C(=O)NCC[NH+]2CCOCC2)C1
REMARK SMILES IDX 10 1 9 2 7 3 8 4 6 6 1 7 2 8 3 9 91 10 4 11 5 12 79 13 80 14
REMARK SMILES IDX 81 15 82 16 83 18 84 19 85 20 86 21 90 22 87 24 89 25 88 26
REMARK SMILES IDX 11 27 12 28 13 29 14 30 15 32 16 33 17 34 78 35 18 36 77 37
REMARK SMILES IDX 19 38 20 39 21 40 71 41 22 42 76 43 70 44 72 45 23 46 75 47
REMARK SMILES IDX 69 48 68 49 24 51 56 52 36 53 55 54 37 55 40 56 54 57 73 58
REMARK SMILES IDX 38 59 39 60 53 62 74 63 41 64 25 65 26 66 34 67 27 68 33 69
REMARK SMILES IDX 35 70 32 71 28 72 29 73 30 74 31 75 57 76 58 77 66 78 59 79
REMARK SMILES IDX 65 80 67 81 64 82 60 83 61 84 62 85 63 86 42 87 43 88 51 89
REMARK SMILES IDX 44 90 50 91 52 92 49 93 45 94 46 95 47 96 48 97
REMARK H PARENT 9 5 82 17 85 23 13 31 72 50 40 61
REMARK Flexibility Score: inf
ROOT
ATOM      1  C   UNL A   1      35.719  20.803  25.339  1.00  0.00     0.117 C 
ENDROOT
BRANCH   1   2
ATOM      2  N   UNL A   1      35.269  21.529  26.511  1.00  0.00    -0.356 N 
ATOM      3  C   UNL A   1      34.519  22.654  26.638  1.00  0.00     0.224 C 
ATOM      4  O   UNL A   1      34.163  22.966  27.780  1.00  0.00    -0.275 OA
ATOM      5  H   UNL A   1      35.558  21.135  27.366  1.00  0.00     0.163 HD
BRANCH   3   6
ATOM      6  C   UNL A   1      34.056  23.494  25.444  1.00  0.00     0.095 C 
ATOM      7  C   UNL A   1      31.042  26.719  24.862  1.00  0.00     0.039 C 
ATOM      8  C   UNL A   1      32.171  25.728  24.964  1.00  0.00    -0.074 C 
ATOM      9  C   UNL A   1      33.338  25.988  25.588  1.00  0.00    -0.074 C 
ATOM     10  C   UNL A   1      31.998  24.426  24.217  1.00  0.00     0.045 C 
ATOM     11  C   UNL A   1      33.696  27.297  26.243  1.00  0.00     0.039 C 
ATOM     12  C   UNL A   1      34.456  24.972  25.604  1.00  0.00     0.045 C 
ATOM     13  C   UNL A   1      32.639  23.209  24.887  1.00  0.00     0.095 C 
BRANCH  13  14
ATOM     14  C   UNL A   1      31.792  22.237  25.724  1.00  0.00     0.224 C 
ATOM     15  O   UNL A   1      31.053  22.705  26.601  1.00  0.00    -0.275 OA
ATOM     16  N   UNL A   1      31.776  20.892  25.611  1.00  0.00    -0.350 N 
ATOM     17  H   UNL A   1      31.185  20.460  26.269  1.00  0.00     0.163 HD
BRANCH  16  18
ATOM     18  C   UNL A   1      32.436  19.944  24.737  1.00  0.00     0.177 C 
BRANCH  18  19
ATOM     19  C   UNL A   1      32.703  18.594  25.433  1.00  0.00     0.283 C 
BRANCH  19  20
ATOM     20  N   UNL A   1      32.165  17.413  24.732  1.00  0.00    -0.330 N 
ATOM     21  C   UNL A   1      32.555  16.164  25.443  1.00  0.00     0.291 C 
ATOM     22  C   UNL A   1      32.692  17.278  23.354  1.00  0.00     0.291 C 
ATOM     23  H   UNL A   1      31.154  17.547  24.708  1.00  0.00     0.348 HD
ATOM     24  C   UNL A   1      34.063  15.860  25.375  1.00  0.00     0.221 C 
ATOM     25  C   UNL A   1      34.193  16.959  23.268  1.00  0.00     0.221 C 
ATOM     26  O   UNL A   1      34.544  15.806  24.030  1.00  0.00    -0.370 OA
ENDBRANCH  19  20
ENDBRANCH  18  19
ENDBRANCH  16  18
ENDBRANCH  13  14
ENDBRANCH   3   6
ENDBRANCH   1   2
BRANCH   1  27
ATOM     27  C   UNL A   1      36.995  21.378  24.736  1.00  0.00     0.042 C 
BRANCH  27  28
ATOM     28  C   UNL A   1      37.859  22.184  25.698  1.00  0.00     0.118 C 
BRANCH  28  29
ATOM     29  N   UNL A   1      39.186  21.610  25.848  1.00  0.00    -0.352 N 
ATOM     30  C   UNL A   1      40.402  22.109  26.243  1.00  0.00     0.251 C 
ATOM     31  H   UNL A   1      39.219  20.654  25.614  1.00  0.00     0.163 HD
ATOM     32  O   UNL A   1      41.379  21.385  26.027  1.00  0.00    -0.269 OA
BRANCH  30  33
ATOM     33  C   UNL A   1      40.626  23.443  26.879  1.00  0.00     0.039 A 
ATOM     34  C   UNL A   1      40.344  24.578  26.101  1.00  0.00     0.014 A 
ATOM     35  C   UNL A   1      41.192  23.647  28.138  1.00  0.00     0.014 A 
ATOM     36  C   UNL A   1      40.629  25.872  26.565  1.00  0.00     0.010 A 
ATOM     37  C   UNL A   1      41.392  24.945  28.640  1.00  0.00     0.010 A 
ATOM     38  C   UNL A   1      41.151  26.077  27.849  1.00  0.00    -0.014 A 
BRANCH  38  39
ATOM     39  C   UNL A   1      41.502  27.451  28.329  1.00  0.00     0.031 A 
ATOM     40  C   UNL A   1      42.932  27.931  28.325  1.00  0.00     0.074 A 
ATOM     41  C   UNL A   1      40.546  28.283  28.787  1.00  0.00     0.049 A 
ATOM     42  N   UNL A   1      43.419  29.097  28.674  1.00  0.00    -0.248 NA
ATOM     43  C   UNL A   1      43.952  26.964  27.897  1.00  0.00     0.031 C 
ATOM     44  C   UNL A   1      39.128  27.952  28.884  1.00  0.00     0.029 A 
ATOM     45  N   UNL A   1      40.614  29.573  29.253  1.00  0.00    -0.354 N 
ATOM     46  C   UNL A   1      44.798  29.001  28.514  1.00  0.00     0.074 A 
ATOM     47  C   UNL A   1      45.071  27.635  28.120  1.00  0.00     0.031 C 
ATOM     48  C   UNL A   1      38.454  29.010  29.363  1.00  0.00     0.029 A 
ATOM     49  C   UNL A   1      39.393  30.097  29.613  1.00  0.00     0.049 A 
ATOM     50  H   UNL A   1      41.457  30.077  29.323  1.00  0.00     0.167 HD
ATOM     51  C   UNL A   1      45.748  29.964  28.641  1.00  0.00     0.034 A 
ATOM     52  C   UNL A   1      39.056  31.317  30.075  1.00  0.00     0.034 A 
ATOM     53  C   UNL A   1      45.474  31.331  29.021  1.00  0.00     0.049 A 
ATOM     54  C   UNL A   1      40.120  32.370  30.222  1.00  0.00     0.074 A 
ATOM     55  C   UNL A   1      46.354  32.396  29.116  1.00  0.00     0.029 A 
ATOM     56  N   UNL A   1      44.225  31.821  29.382  1.00  0.00    -0.354 N 
ATOM     57  N   UNL A   1      41.409  32.282  29.996  1.00  0.00    -0.248 NA
ATOM     58  C   UNL A   1      39.672  33.698  30.662  1.00  0.00     0.031 C 
ATOM     59  C   UNL A   1      45.650  33.512  29.587  1.00  0.00     0.029 A 
ATOM     60  C   UNL A   1      44.317  33.163  29.725  1.00  0.00     0.049 A 
ATOM     61  H   UNL A   1      43.394  31.293  29.391  1.00  0.00     0.167 HD
ATOM     62  C   UNL A   1      41.921  33.555  30.230  1.00  0.00     0.074 A 
ATOM     63  C   UNL A   1      40.800  34.391  30.609  1.00  0.00     0.031 C 
ATOM     64  C   UNL A   1      43.203  33.992  30.126  1.00  0.00     0.034 A 
BRANCH  51  65
ATOM     65  C   UNL A   1      47.178  29.546  28.376  1.00  0.00     0.023 A 
ATOM     66  C   UNL A   1      47.615  29.202  27.084  1.00  0.00     0.031 A 
ATOM     67  C   UNL A   1      48.095  29.414  29.434  1.00  0.00     0.131 A 
ATOM     68  C   UNL A   1      48.883  28.633  26.899  1.00  0.00     0.055 A 
ATOM     69  C   UNL A   1      49.393  28.939  29.227  1.00  0.00     0.041 A 
ATOM     70  F   UNL A   1      47.737  29.715  30.692  1.00  0.00    -0.206 F 
ATOM     71  C   UNL A   1      49.785  28.520  27.959  1.00  0.00     0.022 A 
BRANCH  68  72
ATOM     72  S   UNL A   1      49.255  27.860  25.299  1.00  0.00     0.124 S 
ATOM     73  O   UNL A   1      48.017  28.103  24.560  1.00  0.00    -0.237 OA
ATOM     74  O   UNL A   1      50.424  28.604  24.854  1.00  0.00    -0.237 OA
ATOM     75  O   UNL A   1      49.498  26.459  25.644  1.00  0.00    -0.744 OA
ENDBRANCH  68  72
ENDBRANCH  51  65
BRANCH  52  76
ATOM     76  C   UNL A   1      37.635  31.628  30.393  1.00  0.00     0.023 A 
ATOM     77  C   UNL A   1      36.756  32.070  29.392  1.00  0.00     0.031 A 
ATOM     78  C   UNL A   1      37.146  31.508  31.704  1.00  0.00     0.131 A 
ATOM     79  C   UNL A   1      35.437  32.412  29.724  1.00  0.00     0.055 A 
ATOM     80  C   UNL A   1      35.822  31.817  32.024  1.00  0.00     0.041 A 
ATOM     81  F   UNL A   1      37.946  31.078  32.692  1.00  0.00    -0.206 F 
ATOM     82  C   UNL A   1      34.962  32.281  31.031  1.00  0.00     0.022 A 
BRANCH  79  83
ATOM     83  S   UNL A   1      34.356  33.071  28.426  1.00  0.00     0.124 S 
ATOM     84  O   UNL A   1      33.444  33.910  29.195  1.00  0.00    -0.237 OA
ATOM     85  O   UNL A   1      35.304  33.773  27.566  1.00  0.00    -0.237 OA
ATOM     86  O   UNL A   1      33.758  31.873  27.839  1.00  0.00    -0.744 OA
ENDBRANCH  79  83
ENDBRANCH  52  76
BRANCH  64  87
ATOM     87  C   UNL A   1      43.442  35.458  30.390  1.00  0.00     0.023 A 
ATOM     88  C   UNL A   1      43.355  36.419  29.366  1.00  0.00     0.031 A 
ATOM     89  C   UNL A   1      43.812  35.894  31.674  1.00  0.00     0.131 A 
ATOM     90  C   UNL A   1      43.701  37.754  29.626  1.00  0.00     0.055 A 
ATOM     91  C   UNL A   1      44.099  37.235  31.942  1.00  0.00     0.041 A 
ATOM     92  F   UNL A   1      43.915  35.022  32.689  1.00  0.00    -0.206 F 
ATOM     93  C   UNL A   1      44.060  38.170  30.911  1.00  0.00     0.022 A 
BRANCH  90  94
ATOM     94  S   UNL A   1      43.789  38.919  28.239  1.00  0.00     0.124 S 
ATOM     95  O   UNL A   1      42.873  39.973  28.665  1.00  0.00    -0.237 OA
ATOM     96  O   UNL A   1      45.203  39.274  28.219  1.00  0.00    -0.237 OA
ATOM     97  O   UNL A   1      43.332  38.129  27.097  1.00  0.00    -0.744 OA
ENDBRANCH  90  94
ENDBRANCH  64  87
ENDBRANCH  38  39
ENDBRANCH  30  33
ENDBRANCH  28  29
ENDBRANCH  27  28
ENDBRANCH   1  27
TORSDOF 17
ENDMDL
MODEL 3
REMARK VINA RESULT:     -12.4      2.941      5.221
REMARK SMILES CC1=C(C)C[C@@H](C(=O)NCCCNC(=O)c2ccc(-c3c4nc(c(-c5cc(S(=O)(=O)[O-])ccc5F)c5ccc([nH]5)c(-c5cc(S(=O)(=O)[O-])ccc5F)c5nc(c(-c6cc(S(=O)(=O)[O-])ccc6F)c6ccc3[nH]6)C=C5)C=C4)cc2)[C@@H](C(=O)NCC[NH+]2CCOCC2)C1
REMARK SMILES IDX 10 1 9 2 7 3 8 4 6 6 1 7 2 8 3 9 91 10 4 11 5 12 79 13 80 14
REMARK SMILES IDX 81 15 82 16 83 18 84 19 85 20 86 21 90 22 87 24 89 25 88 26
REMARK SMILES IDX 11 27 12 28 13 29 14 30 15 32 16 33 17 34 78 35 18 36 77 37
REMARK SMILES IDX 19 38 20 39 21 40 71 41 22 42 76 43 70 44 72 45 23 46 75 47
REMARK SMILES IDX 69 48 68 49 24 51 56 52 36 53 55 54 37 55 40 56 54 57 73 58
REMARK SMILES IDX 38 59 39 60 53 62 74 63 41 64 25 65 26 66 34 67 27 68 33 69
REMARK SMILES IDX 35 70 32 71 28 72 29 73 30 74 31 75 57 76 58 77 66 78 59 79
REMARK SMILES IDX 65 80 67 81 64 82 60 83 61 84 62 85 63 86 42 87 43 88 51 89
REMARK SMILES IDX 44 90 50 91 52 92 49 93 45 94 46 95 47 96 48 97
REMARK H PARENT 9 5 82 17 85 23 13 31 72 50 40 61
REMARK Flexibility Score: inf
ROOT
ATOM      1  C   UNL A   1      31.740  30.021  25.302  1.00  0.00     0.117 C 
ENDROOT
BRANCH   1   2
ATOM      2  N   UNL A   1      32.935  29.626  24.582  1.00  0.00    -0.356 N 
ATOM      3  C   UNL A   1      33.445  28.400  24.290  1.00  0.00     0.224 C 
ATOM      4  O   UNL A   1      34.415  28.364  23.525  1.00  0.00    -0.275 OA
ATOM      5  H   UNL A   1      33.472  30.379  24.244  1.00  0.00     0.163 HD
BRANCH   3   6
ATOM      6  C   UNL A   1      32.838  27.094  24.809  1.00  0.00     0.095 C 
ATOM      7  C   UNL A   1      33.465  22.777  23.917  1.00  0.00     0.039 C 
ATOM      8  C   UNL A   1      33.255  24.191  24.389  1.00  0.00    -0.074 C 
ATOM      9  C   UNL A   1      34.160  24.877  25.117  1.00  0.00    -0.074 C 
ATOM     10  C   UNL A   1      31.901  24.803  24.113  1.00  0.00     0.045 C 
ATOM     11  C   UNL A   1      35.485  24.333  25.587  1.00  0.00     0.039 C 
ATOM     12  C   UNL A   1      33.865  26.274  25.612  1.00  0.00     0.045 C 
ATOM     13  C   UNL A   1      31.918  26.309  23.841  1.00  0.00     0.095 C 
BRANCH  13  14
ATOM     14  C   UNL A   1      31.874  26.846  22.402  1.00  0.00     0.224 C 
ATOM     15  O   UNL A   1      32.672  26.384  21.575  1.00  0.00    -0.275 OA
ATOM     16  N   UNL A   1      31.045  27.804  21.934  1.00  0.00    -0.350 N 
ATOM     17  H   UNL A   1      31.209  28.021  20.987  1.00  0.00     0.163 HD
BRANCH  16  18
ATOM     18  C   UNL A   1      29.970  28.582  22.514  1.00  0.00     0.177 C 
BRANCH  18  19
ATOM     19  C   UNL A   1      29.603  29.808  21.653  1.00  0.00     0.283 C 
BRANCH  19  20
ATOM     20  N   UNL A   1      28.157  30.047  21.492  1.00  0.00    -0.330 N 
ATOM     21  C   UNL A   1      27.918  31.363  20.838  1.00  0.00     0.291 C 
ATOM     22  C   UNL A   1      27.440  30.099  22.787  1.00  0.00     0.291 C 
ATOM     23  H   UNL A   1      27.813  29.267  20.933  1.00  0.00     0.348 HD
ATOM     24  C   UNL A   1      28.298  32.568  21.718  1.00  0.00     0.221 C 
ATOM     25  C   UNL A   1      27.796  31.304  23.672  1.00  0.00     0.221 C 
ATOM     26  O   UNL A   1      27.635  32.544  22.985  1.00  0.00    -0.370 OA
ENDBRANCH  19  20
ENDBRANCH  18  19
ENDBRANCH  16  18
ENDBRANCH  13  14
ENDBRANCH   3   6
ENDBRANCH   1   2
BRANCH   1  27
ATOM     27  C   UNL A   1      31.979  30.208  26.795  1.00  0.00     0.042 C 
BRANCH  27  28
ATOM     28  C   UNL A   1      33.435  30.405  27.198  1.00  0.00     0.118 C 
BRANCH  28  29
ATOM     29  N   UNL A   1      33.650  31.685  27.851  1.00  0.00    -0.352 N 
ATOM     30  C   UNL A   1      34.632  32.185  28.671  1.00  0.00     0.251 C 
ATOM     31  H   UNL A   1      32.935  32.336  27.665  1.00  0.00     0.163 HD
ATOM     32  O   UNL A   1      34.372  33.252  29.235  1.00  0.00    -0.269 OA
BRANCH  30  33
ATOM     33  C   UNL A   1      35.950  31.535  28.940  1.00  0.00     0.039 A 
ATOM     34  C   UNL A   1      35.927  30.281  29.573  1.00  0.00     0.014 A 
ATOM     35  C   UNL A   1      37.196  32.120  28.712  1.00  0.00     0.014 A 
ATOM     36  C   UNL A   1      37.112  29.641  29.972  1.00  0.00     0.010 A 
ATOM     37  C   UNL A   1      38.385  31.439  29.027  1.00  0.00     0.010 A 
ATOM     38  C   UNL A   1      38.363  30.208  29.696  1.00  0.00    -0.014 A 
BRANCH  38  39
ATOM     39  C   UNL A   1      39.626  29.554  30.163  1.00  0.00     0.031 A 
ATOM     40  C   UNL A   1      40.330  30.030  31.411  1.00  0.00     0.074 A 
ATOM     41  C   UNL A   1      40.166  28.533  29.470  1.00  0.00     0.049 A 
ATOM     42  N   UNL A   1      41.415  29.565  31.982  1.00  0.00    -0.248 NA
ATOM     43  C   UNL A   1      39.753  31.198  32.089  1.00  0.00     0.031 C 
ATOM     44  C   UNL A   1      39.624  27.984  28.232  1.00  0.00     0.029 A 
ATOM     45  N   UNL A   1      41.286  27.771  29.703  1.00  0.00    -0.354 N 
ATOM     46  C   UNL A   1      41.652  30.386  33.080  1.00  0.00     0.074 A 
ATOM     47  C   UNL A   1      40.646  31.427  33.039  1.00  0.00     0.031 C 
ATOM     48  C   UNL A   1      40.395  26.967  27.817  1.00  0.00     0.029 A 
ATOM     49  C   UNL A   1      41.495  26.792  28.759  1.00  0.00     0.049 A 
ATOM     50  H   UNL A   1      41.884  27.912  30.473  1.00  0.00     0.167 HD
ATOM     51  C   UNL A   1      42.589  30.267  34.056  1.00  0.00     0.034 A 
ATOM     52  C   UNL A   1      42.448  25.845  28.663  1.00  0.00     0.034 A 
ATOM     53  C   UNL A   1      43.585  29.222  34.104  1.00  0.00     0.049 A 
ATOM     54  C   UNL A   1      43.488  25.732  29.745  1.00  0.00     0.074 A 
ATOM     55  C   UNL A   1      44.536  28.976  35.080  1.00  0.00     0.029 A 
ATOM     56  N   UNL A   1      43.766  28.251  33.127  1.00  0.00    -0.354 N 
ATOM     57  N   UNL A   1      43.653  26.473  30.814  1.00  0.00    -0.248 NA
ATOM     58  C   UNL A   1      44.454  24.634  29.615  1.00  0.00     0.031 C 
ATOM     59  C   UNL A   1      45.326  27.895  34.667  1.00  0.00     0.029 A 
ATOM     60  C   UNL A   1      44.830  27.423  33.464  1.00  0.00     0.049 A 
ATOM     61  H   UNL A   1      43.219  28.161  32.313  1.00  0.00     0.167 HD
ATOM     62  C   UNL A   1      44.719  25.906  31.506  1.00  0.00     0.074 A 
ATOM     63  C   UNL A   1      45.153  24.759  30.734  1.00  0.00     0.031 C 
ATOM     64  C   UNL A   1      45.278  26.294  32.682  1.00  0.00     0.034 A 
BRANCH  51  65
ATOM     65  C   UNL A   1      42.577  31.322  35.141  1.00  0.00     0.023 A 
ATOM     66  C   UNL A   1      41.546  31.380  36.097  1.00  0.00     0.031 A 
ATOM     67  C   UNL A   1      43.559  32.328  35.177  1.00  0.00     0.131 A 
ATOM     68  C   UNL A   1      41.453  32.477  36.965  1.00  0.00     0.055 A 
ATOM     69  C   UNL A   1      43.515  33.366  36.111  1.00  0.00     0.041 A 
ATOM     70  F   UNL A   1      44.563  32.336  34.286  1.00  0.00    -0.206 F 
ATOM     71  C   UNL A   1      42.444  33.460  36.995  1.00  0.00     0.022 A 
BRANCH  68  72
ATOM     72  S   UNL A   1      39.918  32.701  37.907  1.00  0.00     0.124 S 
ATOM     73  O   UNL A   1      39.622  34.111  37.658  1.00  0.00    -0.237 OA
ATOM     74  O   UNL A   1      39.021  31.738  37.282  1.00  0.00    -0.237 OA
ATOM     75  O   UNL A   1      40.311  32.390  39.282  1.00  0.00    -0.744 OA
ENDBRANCH  68  72
ENDBRANCH  51  65
BRANCH  52  76
ATOM     76  C   UNL A   1      42.443  24.892  27.519  1.00  0.00     0.023 A 
ATOM     77  C   UNL A   1      41.651  23.735  27.553  1.00  0.00     0.031 A 
ATOM     78  C   UNL A   1      43.245  25.118  26.387  1.00  0.00     0.131 A 
ATOM     79  C   UNL A   1      41.704  22.822  26.489  1.00  0.00     0.055 A 
ATOM     80  C   UNL A   1      43.269  24.224  25.315  1.00  0.00     0.041 A 
ATOM     81  F   UNL A   1      44.010  26.217  26.304  1.00  0.00    -0.206 F 
ATOM     82  C   UNL A   1      42.501  23.062  25.367  1.00  0.00     0.022 A 
BRANCH  79  83
ATOM     83  S   UNL A   1      40.742  21.289  26.608  1.00  0.00     0.124 S 
ATOM     84  O   UNL A   1      40.757  21.038  28.045  1.00  0.00    -0.237 OA
ATOM     85  O   UNL A   1      39.458  21.689  26.039  1.00  0.00    -0.237 OA
ATOM     86  O   UNL A   1      41.508  20.342  25.801  1.00  0.00    -0.744 OA
ENDBRANCH  79  83
ENDBRANCH  52  76
BRANCH  64  87
ATOM     87  C   UNL A   1      46.396  25.434  33.217  1.00  0.00     0.023 A 
ATOM     88  C   UNL A   1      46.147  24.332  34.056  1.00  0.00     0.031 A 
ATOM     89  C   UNL A   1      47.734  25.752  32.924  1.00  0.00     0.131 A 
ATOM     90  C   UNL A   1      47.220  23.630  34.628  1.00  0.00     0.055 A 
ATOM     91  C   UNL A   1      48.798  25.014  33.450  1.00  0.00     0.041 A 
ATOM     92  F   UNL A   1      48.031  26.794  32.133  1.00  0.00    -0.206 F 
ATOM     93  C   UNL A   1      48.543  23.957  34.320  1.00  0.00     0.022 A 
BRANCH  90  94
ATOM     94  S   UNL A   1      46.866  22.359  35.872  1.00  0.00     0.124 S 
ATOM     95  O   UNL A   1      47.216  21.132  35.164  1.00  0.00    -0.237 OA
ATOM     96  O   UNL A   1      47.753  22.738  36.966  1.00  0.00    -0.237 OA
ATOM     97  O   UNL A   1      45.440  22.531  36.143  1.00  0.00    -0.744 OA
ENDBRANCH  90  94
ENDBRANCH  64  87
ENDBRANCH  38  39
ENDBRANCH  30  33
ENDBRANCH  28  29
ENDBRANCH  27  28
ENDBRANCH   1  27
TORSDOF 17
ENDMDL
