MODEL 1
REMARK VINA RESULT:     -11.9      0.000      0.000
REMARK SMILES COc1ncnc(N2CCSC[C@@H]2CC(=O)NCCCNC(=O)c2ccc(-c3c4nc(c(-c5cc(S(=O)(=O)[O-])ccc5F)c5ccc([nH]5)c(-c5cc(S(=O)(=O)[O-])ccc5F)c5nc(c(-c6cc(S(=O)(=O)[O-])ccc6F)c6ccc3[nH]6)C=C5)C=C4)cc2)c1[N+](=O)[O-]
REMARK SMILES IDX 19 1 18 2 17 3 15 4 16 5 14 7 13 8 8 9 9 10 10 11 12 12
REMARK SMILES IDX 11 13 7 14 3 15 4 16 87 17 5 18 6 19 2 20 1 21 88 22 89 23
REMARK SMILES IDX 90 24 20 25 21 26 22 27 23 29 24 30 25 31 86 32 26 33 85 34
REMARK SMILES IDX 27 35 28 36 29 37 79 38 30 39 84 40 78 41 80 42 31 43 83 44
REMARK SMILES IDX 77 45 76 46 32 48 64 49 44 50 63 51 45 52 48 53 62 54 81 55
REMARK SMILES IDX 46 56 47 57 61 59 82 60 49 61 33 62 34 63 42 64 35 65 41 66
REMARK SMILES IDX 43 67 40 68 36 69 37 70 38 71 39 72 65 73 66 74 74 75 67 76
REMARK SMILES IDX 73 77 75 78 72 79 68 80 69 81 70 82 71 83 50 84 51 85 59 86
REMARK SMILES IDX 52 87 58 88 60 89 57 90 53 91 54 92 55 93 56 94
REMARK H PARENT 17 6 21 28 80 47 48 58
REMARK Flexibility Score: inf
ROOT
ATOM      1  C   UNL A   1      35.746  21.242  25.039  1.00  0.00     0.042 C 
ENDROOT
BRANCH   1   2
ATOM      2  C   UNL A   1      34.732  22.362  24.780  1.00  0.00     0.117 C 
BRANCH   2   3
ATOM      3  N   UNL A   1      34.418  22.555  23.371  1.00  0.00    -0.356 N 
ATOM      4  C   UNL A   1      33.776  23.591  22.748  1.00  0.00     0.222 C 
ATOM      5  O   UNL A   1      33.748  23.587  21.516  1.00  0.00    -0.275 OA
ATOM      6  H   UNL A   1      34.711  21.828  22.775  1.00  0.00     0.163 HD
BRANCH   4   7
ATOM      7  C   UNL A   1      33.191  24.755  23.530  1.00  0.00     0.126 C 
BRANCH   7   8
ATOM      8  C   UNL A   1      31.662  24.907  23.659  1.00  0.00     0.103 C 
ATOM      9  N   UNL A   1      31.239  25.991  24.576  1.00  0.00    -0.345 N 
ATOM     10  C   UNL A   1      31.108  25.671  26.023  1.00  0.00     0.129 C 
ATOM     11  C   UNL A   1      30.374  24.394  26.425  1.00  0.00     0.091 C 
ATOM     12  C   UNL A   1      30.900  23.584  23.907  1.00  0.00     0.095 C 
ATOM     13  S   UNL A   1      31.034  22.927  25.587  1.00  0.00    -0.158 SA
BRANCH   9  14
ATOM     14  C   UNL A   1      30.332  26.922  24.061  1.00  0.00     0.215 A 
ATOM     15  C   UNL A   1      29.652  29.110  23.352  1.00  0.00     0.299 A 
ATOM     16  N   UNL A   1      28.388  28.688  23.190  1.00  0.00    -0.196 NA
ATOM     17  C   UNL A   1      30.650  28.243  23.750  1.00  0.00     0.372 A 
ATOM     18  C   UNL A   1      28.157  27.397  23.466  1.00  0.00     0.228 A 
ATOM     19  N   UNL A   1      29.061  26.501  23.908  1.00  0.00    -0.212 NA
BRANCH  15  20
ATOM     20  O   UNL A   1      29.778  30.474  23.374  1.00  0.00    -0.476 OA
ATOM     21  C   UNL A   1      28.581  31.230  23.519  1.00  0.00     0.280 C 
ENDBRANCH  15  20
BRANCH  17  22
ATOM     22  N   UNL A   1      31.986  28.726  23.760  1.00  0.00     0.072 N 
ATOM     23  O   UNL A   1      32.454  29.050  24.862  1.00  0.00    -0.258 OA
ATOM     24  O   UNL A   1      32.628  28.699  22.703  1.00  0.00    -0.258 OA
ENDBRANCH  17  22
ENDBRANCH   9  14
ENDBRANCH   7   8
ENDBRANCH   4   7
ENDBRANCH   2   3
ENDBRANCH   1   2
BRANCH   1  25
ATOM     25  C   UNL A   1      37.178  21.601  24.684  1.00  0.00     0.118 C 
BRANCH  25  26
ATOM     26  N   UNL A   1      38.115  20.710  25.342  1.00  0.00    -0.352 N 
ATOM     27  C   UNL A   1      39.280  20.927  26.039  1.00  0.00     0.251 C 
ATOM     28  H   UNL A   1      37.867  19.760  25.275  1.00  0.00     0.163 HD
ATOM     29  O   UNL A   1      40.010  19.947  26.197  1.00  0.00    -0.269 OA
BRANCH  27  30
ATOM     30  C   UNL A   1      39.707  22.243  26.610  1.00  0.00     0.039 A 
ATOM     31  C   UNL A   1      39.038  23.393  26.156  1.00  0.00     0.014 A 
ATOM     32  C   UNL A   1      40.815  22.423  27.438  1.00  0.00     0.014 A 
ATOM     33  C   UNL A   1      39.493  24.681  26.484  1.00  0.00     0.010 A 
ATOM     34  C   UNL A   1      41.212  23.706  27.845  1.00  0.00     0.010 A 
ATOM     35  C   UNL A   1      40.595  24.855  27.331  1.00  0.00    -0.014 A 
BRANCH  35  36
ATOM     36  C   UNL A   1      41.183  26.204  27.601  1.00  0.00     0.031 A 
ATOM     37  C   UNL A   1      42.558  26.547  27.063  1.00  0.00     0.074 A 
ATOM     38  C   UNL A   1      40.525  27.113  28.348  1.00  0.00     0.049 A 
ATOM     39  N   UNL A   1      43.307  27.597  27.291  1.00  0.00    -0.248 NA
ATOM     40  C   UNL A   1      43.183  25.552  26.178  1.00  0.00     0.031 C 
ATOM     41  C   UNL A   1      39.197  26.924  28.933  1.00  0.00     0.029 A 
ATOM     42  N   UNL A   1      40.888  28.376  28.754  1.00  0.00    -0.354 N 
ATOM     43  C   UNL A   1      44.501  27.373  26.608  1.00  0.00     0.074 A 
ATOM     44  C   UNL A   1      44.394  26.059  26.010  1.00  0.00     0.031 C 
ATOM     45  C   UNL A   1      38.852  28.034  29.607  1.00  0.00     0.029 A 
ATOM     46  C   UNL A   1      39.949  28.995  29.551  1.00  0.00     0.049 A 
ATOM     47  H   UNL A   1      41.739  28.798  28.500  1.00  0.00     0.167 HD
ATOM     48  C   UNL A   1      45.578  28.190  26.472  1.00  0.00     0.034 A 
ATOM     49  C   UNL A   1      39.975  30.187  30.181  1.00  0.00     0.034 A 
ATOM     50  C   UNL A   1      45.659  29.515  27.039  1.00  0.00     0.049 A 
ATOM     51  C   UNL A   1      41.191  31.071  30.036  1.00  0.00     0.074 A 
ATOM     52  C   UNL A   1      46.679  30.444  26.917  1.00  0.00     0.029 A 
ATOM     53  N   UNL A   1      44.685  30.102  27.836  1.00  0.00    -0.354 N 
ATOM     54  N   UNL A   1      42.302  30.848  29.373  1.00  0.00    -0.248 NA
ATOM     55  C   UNL A   1      41.147  32.373  30.715  1.00  0.00     0.031 C 
ATOM     56  C   UNL A   1      46.354  31.561  27.695  1.00  0.00     0.029 A 
ATOM     57  C   UNL A   1      45.092  31.367  28.234  1.00  0.00     0.049 A 
ATOM     58  H   UNL A   1      43.829  29.681  28.081  1.00  0.00     0.167 HD
ATOM     59  C   UNL A   1      43.074  31.999  29.527  1.00  0.00     0.074 A 
ATOM     60  C   UNL A   1      42.295  32.915  30.333  1.00  0.00     0.031 C 
ATOM     61  C   UNL A   1      44.312  32.274  29.043  1.00  0.00     0.034 A 
BRANCH  48  62
ATOM     62  C   UNL A   1      46.767  27.660  25.698  1.00  0.00     0.023 A 
ATOM     63  C   UNL A   1      47.033  28.059  24.376  1.00  0.00     0.031 A 
ATOM     64  C   UNL A   1      47.637  26.722  26.284  1.00  0.00     0.131 A 
ATOM     65  C   UNL A   1      48.081  27.463  23.659  1.00  0.00     0.055 A 
ATOM     66  C   UNL A   1      48.734  26.200  25.594  1.00  0.00     0.041 A 
ATOM     67  F   UNL A   1      47.430  26.285  27.536  1.00  0.00    -0.206 F 
ATOM     68  C   UNL A   1      48.952  26.557  24.267  1.00  0.00     0.022 A 
BRANCH  65  69
ATOM     69  S   UNL A   1      48.194  27.770  21.874  1.00  0.00     0.124 S 
ATOM     70  O   UNL A   1      46.877  28.332  21.589  1.00  0.00    -0.237 OA
ATOM     71  O   UNL A   1      49.318  28.696  21.784  1.00  0.00    -0.237 OA
ATOM     72  O   UNL A   1      48.433  26.442  21.312  1.00  0.00    -0.744 OA
ENDBRANCH  65  69
ENDBRANCH  48  62
BRANCH  49  73
ATOM     73  C   UNL A   1      38.824  30.619  31.029  1.00  0.00     0.023 A 
ATOM     74  C   UNL A   1      37.682  31.200  30.457  1.00  0.00     0.031 A 
ATOM     75  C   UNL A   1      38.871  30.500  32.430  1.00  0.00     0.131 A 
ATOM     76  C   UNL A   1      36.654  31.684  31.281  1.00  0.00     0.055 A 
ATOM     77  C   UNL A   1      37.819  30.929  33.242  1.00  0.00     0.041 A 
ATOM     78  F   UNL A   1      39.939  29.952  33.030  1.00  0.00    -0.206 F 
ATOM     79  C   UNL A   1      36.708  31.538  32.669  1.00  0.00     0.022 A 
BRANCH  76  80
ATOM     80  S   UNL A   1      35.281  32.592  30.519  1.00  0.00     0.124 S 
ATOM     81  O   UNL A   1      34.305  32.620  31.603  1.00  0.00    -0.237 OA
ATOM     82  O   UNL A   1      35.908  33.867  30.186  1.00  0.00    -0.237 OA
ATOM     83  O   UNL A   1      34.917  31.761  29.374  1.00  0.00    -0.744 OA
ENDBRANCH  76  80
ENDBRANCH  49  73
BRANCH  61  84
ATOM     84  C   UNL A   1      44.875  33.647  29.327  1.00  0.00     0.023 A 
ATOM     85  C   UNL A   1      44.678  34.730  28.452  1.00  0.00     0.031 A 
ATOM     86  C   UNL A   1      45.638  33.869  30.489  1.00  0.00     0.131 A 
ATOM     87  C   UNL A   1      45.286  35.965  28.720  1.00  0.00     0.055 A 
ATOM     88  C   UNL A   1      46.186  35.117  30.783  1.00  0.00     0.041 A 
ATOM     89  F   UNL A   1      45.862  32.872  31.360  1.00  0.00    -0.206 F 
ATOM     90  C   UNL A   1      46.025  36.172  29.889  1.00  0.00     0.022 A 
BRANCH  87  91
ATOM     91  S   UNL A   1      45.188  37.275  27.468  1.00  0.00     0.124 S 
ATOM     92  O   UNL A   1      43.775  37.238  27.102  1.00  0.00    -0.237 OA
ATOM     93  O   UNL A   1      45.623  38.451  28.213  1.00  0.00    -0.237 OA
ATOM     94  O   UNL A   1      46.110  36.825  26.427  1.00  0.00    -0.744 OA
ENDBRANCH  87  91
ENDBRANCH  61  84
ENDBRANCH  35  36
ENDBRANCH  27  30
ENDBRANCH  25  26
ENDBRANCH   1  25
TORSDOF 17
ENDMDL
MODEL 2
REMARK VINA RESULT:     -11.7      1.423      7.617
REMARK SMILES COc1ncnc(N2CCSC[C@@H]2CC(=O)NCCCNC(=O)c2ccc(-c3c4nc(c(-c5cc(S(=O)(=O)[O-])ccc5F)c5ccc([nH]5)c(-c5cc(S(=O)(=O)[O-])ccc5F)c5nc(c(-c6cc(S(=O)(=O)[O-])ccc6F)c6ccc3[nH]6)C=C5)C=C4)cc2)c1[N+](=O)[O-]
REMARK SMILES IDX 19 1 18 2 17 3 15 4 16 5 14 7 13 8 8 9 9 10 10 11 12 12
REMARK SMILES IDX 11 13 7 14 3 15 4 16 87 17 5 18 6 19 2 20 1 21 88 22 89 23
REMARK SMILES IDX 90 24 20 25 21 26 22 27 23 29 24 30 25 31 86 32 26 33 85 34
REMARK SMILES IDX 27 35 28 36 29 37 79 38 30 39 84 40 78 41 80 42 31 43 83 44
REMARK SMILES IDX 77 45 76 46 32 48 64 49 44 50 63 51 45 52 48 53 62 54 81 55
REMARK SMILES IDX 46 56 47 57 61 59 82 60 49 61 33 62 34 63 42 64 35 65 41 66
REMARK SMILES IDX 43 67 40 68 36 69 37 70 38 71 39 72 65 73 66 74 74 75 67 76
REMARK SMILES IDX 73 77 75 78 72 79 68 80 69 81 70 82 71 83 50 84 51 85 59 86
REMARK SMILES IDX 52 87 58 88 60 89 57 90 53 91 54 92 55 93 56 94
REMARK H PARENT 17 6 21 28 80 47 48 58
REMARK Flexibility Score: inf
ROOT
ATOM      1  C   UNL A   1      35.260  21.560  26.130  1.00  0.00     0.042 C 
ENDROOT
BRANCH   1   2
ATOM      2  C   UNL A   1      33.853  21.601  25.524  1.00  0.00     0.117 C 
BRANCH   2   3
ATOM      3  N   UNL A   1      32.848  22.171  26.411  1.00  0.00    -0.356 N 
ATOM      4  C   UNL A   1      32.593  23.479  26.724  1.00  0.00     0.222 C 
ATOM      5  O   UNL A   1      31.593  23.718  27.405  1.00  0.00    -0.275 OA
ATOM      6  H   UNL A   1      32.265  21.514  26.857  1.00  0.00     0.163 HD
BRANCH   4   7
ATOM      7  C   UNL A   1      33.450  24.612  26.186  1.00  0.00     0.126 C 
BRANCH   7   8
ATOM      8  C   UNL A   1      32.941  25.476  25.014  1.00  0.00     0.103 C 
ATOM      9  N   UNL A   1      31.614  26.090  25.249  1.00  0.00    -0.345 N 
ATOM     10  C   UNL A   1      30.404  25.296  24.900  1.00  0.00     0.129 C 
ATOM     11  C   UNL A   1      30.366  24.580  23.552  1.00  0.00     0.091 C 
ATOM     12  C   UNL A   1      33.052  24.808  23.624  1.00  0.00     0.095 C 
ATOM     13  S   UNL A   1      31.819  23.527  23.289  1.00  0.00    -0.158 SA
BRANCH   9  14
ATOM     14  C   UNL A   1      31.527  27.472  25.058  1.00  0.00     0.215 A 
ATOM     15  C   UNL A   1      31.627  29.760  25.769  1.00  0.00     0.299 A 
ATOM     16  N   UNL A   1      31.157  30.173  24.582  1.00  0.00    -0.196 NA
ATOM     17  C   UNL A   1      31.856  28.423  26.024  1.00  0.00     0.372 A 
ATOM     18  C   UNL A   1      30.899  29.212  23.683  1.00  0.00     0.228 A 
ATOM     19  N   UNL A   1      31.044  27.885  23.869  1.00  0.00    -0.212 NA
BRANCH  15  20
ATOM     20  O   UNL A   1      31.569  30.720  26.746  1.00  0.00    -0.476 OA
ATOM     21  C   UNL A   1      31.143  32.018  26.351  1.00  0.00     0.280 C 
ENDBRANCH  15  20
BRANCH  17  22
ATOM     22  N   UNL A   1      32.489  28.077  27.247  1.00  0.00     0.072 N 
ATOM     23  O   UNL A   1      33.714  28.261  27.312  1.00  0.00    -0.258 OA
ATOM     24  O   UNL A   1      31.780  27.718  28.195  1.00  0.00    -0.258 OA
ENDBRANCH  17  22
ENDBRANCH   9  14
ENDBRANCH   7   8
ENDBRANCH   4   7
ENDBRANCH   2   3
ENDBRANCH   1   2
BRANCH   1  25
ATOM     25  C   UNL A   1      36.381  21.687  25.115  1.00  0.00     0.118 C 
BRANCH  25  26
ATOM     26  N   UNL A   1      37.431  20.721  25.377  1.00  0.00    -0.352 N 
ATOM     27  C   UNL A   1      38.737  20.848  25.789  1.00  0.00     0.251 C 
ATOM     28  H   UNL A   1      37.153  19.788  25.232  1.00  0.00     0.163 HD
ATOM     29  O   UNL A   1      39.461  19.867  25.611  1.00  0.00    -0.269 OA
BRANCH  27  30
ATOM     30  C   UNL A   1      39.322  22.068  26.429  1.00  0.00     0.039 A 
ATOM     31  C   UNL A   1      38.758  23.310  26.088  1.00  0.00     0.014 A 
ATOM     32  C   UNL A   1      40.475  22.074  27.214  1.00  0.00     0.014 A 
ATOM     33  C   UNL A   1      39.357  24.518  26.482  1.00  0.00     0.010 A 
ATOM     34  C   UNL A   1      41.020  23.277  27.689  1.00  0.00     0.010 A 
ATOM     35  C   UNL A   1      40.504  24.518  27.286  1.00  0.00    -0.014 A 
BRANCH  35  36
ATOM     36  C   UNL A   1      41.241  25.777  27.620  1.00  0.00     0.031 A 
ATOM     37  C   UNL A   1      40.548  26.864  28.416  1.00  0.00     0.074 A 
ATOM     38  C   UNL A   1      42.503  25.978  27.194  1.00  0.00     0.049 A 
ATOM     39  N   UNL A   1      40.950  28.080  28.698  1.00  0.00    -0.248 NA
ATOM     40  C   UNL A   1      39.208  26.547  28.933  1.00  0.00     0.031 C 
ATOM     41  C   UNL A   1      43.296  25.023  26.417  1.00  0.00     0.029 A 
ATOM     42  N   UNL A   1      43.341  27.059  27.343  1.00  0.00    -0.354 N 
ATOM     43  C   UNL A   1      39.900  28.680  29.391  1.00  0.00     0.074 A 
ATOM     44  C   UNL A   1      38.824  27.712  29.432  1.00  0.00     0.031 C 
ATOM     45  C   UNL A   1      44.506  25.552  26.174  1.00  0.00     0.029 A 
ATOM     46  C   UNL A   1      44.564  26.903  26.726  1.00  0.00     0.049 A 
ATOM     47  H   UNL A   1      43.091  27.868  27.843  1.00  0.00     0.167 HD
ATOM     48  C   UNL A   1      39.842  29.912  29.960  1.00  0.00     0.034 A 
ATOM     49  C   UNL A   1      45.603  27.754  26.600  1.00  0.00     0.034 A 
ATOM     50  C   UNL A   1      40.934  30.856  29.949  1.00  0.00     0.049 A 
ATOM     51  C   UNL A   1      45.510  29.127  27.220  1.00  0.00     0.074 A 
ATOM     52  C   UNL A   1      41.000  32.107  30.539  1.00  0.00     0.029 A 
ATOM     53  N   UNL A   1      42.155  30.655  29.315  1.00  0.00    -0.354 N 
ATOM     54  N   UNL A   1      44.516  29.670  27.885  1.00  0.00    -0.248 NA
ATOM     55  C   UNL A   1      46.686  29.997  27.081  1.00  0.00     0.031 C 
ATOM     56  C   UNL A   1      42.227  32.689  30.205  1.00  0.00     0.029 A 
ATOM     57  C   UNL A   1      42.966  31.769  29.477  1.00  0.00     0.049 A 
ATOM     58  H   UNL A   1      42.407  29.841  28.823  1.00  0.00     0.167 HD
ATOM     59  C   UNL A   1      44.964  30.931  28.273  1.00  0.00     0.074 A 
ATOM     60  C   UNL A   1      46.319  31.061  27.781  1.00  0.00     0.031 C 
ATOM     61  C   UNL A   1      44.315  31.893  28.978  1.00  0.00     0.034 A 
BRANCH  48  62
ATOM     62  C   UNL A   1      38.542  30.319  30.620  1.00  0.00     0.023 A 
ATOM     63  C   UNL A   1      37.502  30.937  29.901  1.00  0.00     0.031 A 
ATOM     64  C   UNL A   1      38.345  30.108  31.997  1.00  0.00     0.131 A 
ATOM     65  C   UNL A   1      36.359  31.396  30.572  1.00  0.00     0.055 A 
ATOM     66  C   UNL A   1      37.165  30.486  32.643  1.00  0.00     0.041 A 
ATOM     67  F   UNL A   1      39.304  29.540  32.746  1.00  0.00    -0.206 F 
ATOM     68  C   UNL A   1      36.170  31.150  31.933  1.00  0.00     0.022 A 
BRANCH  65  69
ATOM     69  S   UNL A   1      35.195  32.459  29.673  1.00  0.00     0.124 S 
ATOM     70  O   UNL A   1      34.386  32.996  30.763  1.00  0.00    -0.237 OA
ATOM     71  O   UNL A   1      36.083  33.406  29.008  1.00  0.00    -0.237 OA
ATOM     72  O   UNL A   1      34.496  31.530  28.786  1.00  0.00    -0.744 OA
ENDBRANCH  65  69
ENDBRANCH  48  62
BRANCH  49  73
ATOM     73  C   UNL A   1      46.823  27.349  25.839  1.00  0.00     0.023 A 
ATOM     74  C   UNL A   1      47.024  27.771  24.515  1.00  0.00     0.031 A 
ATOM     75  C   UNL A   1      47.782  26.492  26.409  1.00  0.00     0.131 A 
ATOM     76  C   UNL A   1      48.129  27.301  23.790  1.00  0.00     0.055 A 
ATOM     77  C   UNL A   1      48.911  26.075  25.702  1.00  0.00     0.041 A 
ATOM     78  F   UNL A   1      47.639  26.058  27.671  1.00  0.00    -0.206 F 
ATOM     79  C   UNL A   1      49.083  26.468  24.380  1.00  0.00     0.022 A 
BRANCH  76  80
ATOM     80  S   UNL A   1      48.258  27.720  22.029  1.00  0.00     0.124 S 
ATOM     81  O   UNL A   1      49.394  28.635  22.025  1.00  0.00    -0.237 OA
ATOM     82  O   UNL A   1      48.483  26.413  21.422  1.00  0.00    -0.237 OA
ATOM     83  O   UNL A   1      46.965  28.331  21.729  1.00  0.00    -0.744 OA
ENDBRANCH  76  80
ENDBRANCH  49  73
BRANCH  61  84
ATOM     84  C   UNL A   1      45.087  33.150  29.305  1.00  0.00     0.023 A 
ATOM     85  C   UNL A   1      45.060  34.280  28.469  1.00  0.00     0.031 A 
ATOM     86  C   UNL A   1      45.877  33.209  30.468  1.00  0.00     0.131 A 
ATOM     87  C   UNL A   1      45.855  35.396  28.774  1.00  0.00     0.055 A 
ATOM     88  C   UNL A   1      46.615  34.346  30.800  1.00  0.00     0.041 A 
ATOM     89  F   UNL A   1      45.945  32.160  31.303  1.00  0.00    -0.206 F 
ATOM     90  C   UNL A   1      46.619  35.443  29.944  1.00  0.00     0.022 A 
BRANCH  87  91
ATOM     91  S   UNL A   1      45.960  36.747  27.569  1.00  0.00     0.124 S 
ATOM     92  O   UNL A   1      46.155  36.022  26.317  1.00  0.00    -0.237 OA
ATOM     93  O   UNL A   1      44.669  37.408  27.728  1.00  0.00    -0.237 OA
ATOM     94  O   UNL A   1      47.113  37.524  28.022  1.00  0.00    -0.744 OA
ENDBRANCH  87  91
ENDBRANCH  61  84
ENDBRANCH  35  36
ENDBRANCH  27  30
ENDBRANCH  25  26
ENDBRANCH   1  25
TORSDOF 17
ENDMDL
MODEL 3
REMARK VINA RESULT:     -11.7      1.825      7.632
REMARK SMILES COc1ncnc(N2CCSC[C@@H]2CC(=O)NCCCNC(=O)c2ccc(-c3c4nc(c(-c5cc(S(=O)(=O)[O-])ccc5F)c5ccc([nH]5)c(-c5cc(S(=O)(=O)[O-])ccc5F)c5nc(c(-c6cc(S(=O)(=O)[O-])ccc6F)c6ccc3[nH]6)C=C5)C=C4)cc2)c1[N+](=O)[O-]
REMARK SMILES IDX 19 1 18 2 17 3 15 4 16 5 14 7 13 8 8 9 9 10 10 11 12 12
REMARK SMILES IDX 11 13 7 14 3 15 4 16 87 17 5 18 6 19 2 20 1 21 88 22 89 23
REMARK SMILES IDX 90 24 20 25 21 26 22 27 23 29 24 30 25 31 86 32 26 33 85 34
REMARK SMILES IDX 27 35 28 36 29 37 79 38 30 39 84 40 78 41 80 42 31 43 83 44
REMARK SMILES IDX 77 45 76 46 32 48 64 49 44 50 63 51 45 52 48 53 62 54 81 55
REMARK SMILES IDX 46 56 47 57 61 59 82 60 49 61 33 62 34 63 42 64 35 65 41 66
REMARK SMILES IDX 43 67 40 68 36 69 37 70 38 71 39 72 65 73 66 74 74 75 67 76
REMARK SMILES IDX 73 77 75 78 72 79 68 80 69 81 70 82 71 83 50 84 51 85 59 86
REMARK SMILES IDX 52 87 58 88 60 89 57 90 53 91 54 92 55 93 56 94
REMARK H PARENT 17 6 21 28 80 47 48 58
REMARK Flexibility Score: inf
ROOT
ATOM      1  C   UNL A   1      35.825  20.831  24.965  1.00  0.00     0.042 C 
ENDROOT
BRANCH   1   2
ATOM      2  C   UNL A   1      34.872  22.031  24.935  1.00  0.00     0.117 C 
BRANCH   2   3
ATOM      3  N   UNL A   1      34.691  22.605  23.609  1.00  0.00    -0.356 N 
ATOM      4  C   UNL A   1      33.546  22.802  22.886  1.00  0.00     0.222 C 
ATOM      5  O   UNL A   1      33.639  23.434  21.831  1.00  0.00    -0.275 OA
ATOM      6  H   UNL A   1      35.521  22.892  23.163  1.00  0.00     0.163 HD
BRANCH   4   7
ATOM      7  C   UNL A   1      32.190  22.343  23.394  1.00  0.00     0.126 C 
BRANCH   7   8
ATOM      8  C   UNL A   1      31.274  23.328  24.146  1.00  0.00     0.103 C 
ATOM      9  N   UNL A   1      31.781  24.719  24.180  1.00  0.00    -0.345 N 
ATOM     10  C   UNL A   1      32.716  25.097  25.274  1.00  0.00     0.129 C 
ATOM     11  C   UNL A   1      32.372  24.681  26.703  1.00  0.00     0.091 C 
ATOM     12  C   UNL A   1      30.794  22.834  25.531  1.00  0.00     0.095 C 
ATOM     13  S   UNL A   1      32.039  22.903  26.842  1.00  0.00    -0.158 SA
BRANCH   9  14
ATOM     14  C   UNL A   1      30.898  25.713  23.746  1.00  0.00     0.215 A 
ATOM     15  C   UNL A   1      30.298  27.677  22.507  1.00  0.00     0.299 A 
ATOM     16  N   UNL A   1      29.096  27.712  23.102  1.00  0.00    -0.196 NA
ATOM     17  C   UNL A   1      31.204  26.672  22.780  1.00  0.00     0.372 A 
ATOM     18  C   UNL A   1      28.849  26.739  23.991  1.00  0.00     0.228 A 
ATOM     19  N   UNL A   1      29.696  25.755  24.353  1.00  0.00    -0.212 NA
BRANCH  15  20
ATOM     20  O   UNL A   1      30.629  28.842  21.866  1.00  0.00    -0.476 OA
ATOM     21  C   UNL A   1      29.725  29.932  22.004  1.00  0.00     0.280 C 
ENDBRANCH  15  20
BRANCH  17  22
ATOM     22  N   UNL A   1      32.393  26.619  22.006  1.00  0.00     0.072 N 
ATOM     23  O   UNL A   1      33.414  27.106  22.517  1.00  0.00    -0.258 OA
ATOM     24  O   UNL A   1      32.368  26.008  20.931  1.00  0.00    -0.258 OA
ENDBRANCH  17  22
ENDBRANCH   9  14
ENDBRANCH   7   8
ENDBRANCH   4   7
ENDBRANCH   2   3
ENDBRANCH   1   2
BRANCH   1  25
ATOM     25  C   UNL A   1      37.263  21.167  24.611  1.00  0.00     0.118 C 
BRANCH  25  26
ATOM     26  N   UNL A   1      38.178  20.195  25.178  1.00  0.00    -0.352 N 
ATOM     27  C   UNL A   1      39.372  20.316  25.850  1.00  0.00     0.251 C 
ATOM     28  H   UNL A   1      37.886  19.263  25.059  1.00  0.00     0.163 HD
ATOM     29  O   UNL A   1      40.062  19.297  25.921  1.00  0.00    -0.269 OA
BRANCH  27  30
ATOM     30  C   UNL A   1      39.874  21.572  26.492  1.00  0.00     0.039 A 
ATOM     31  C   UNL A   1      39.330  22.788  26.044  1.00  0.00     0.014 A 
ATOM     32  C   UNL A   1      40.944  21.630  27.385  1.00  0.00     0.014 A 
ATOM     33  C   UNL A   1      39.871  24.022  26.444  1.00  0.00     0.010 A 
ATOM     34  C   UNL A   1      41.423  22.862  27.859  1.00  0.00     0.010 A 
ATOM     35  C   UNL A   1      40.933  24.075  27.355  1.00  0.00    -0.014 A 
BRANCH  35  36
ATOM     36  C   UNL A   1      41.615  25.360  27.706  1.00  0.00     0.031 A 
ATOM     37  C   UNL A   1      40.856  26.434  28.457  1.00  0.00     0.074 A 
ATOM     38  C   UNL A   1      42.889  25.595  27.333  1.00  0.00     0.049 A 
ATOM     39  N   UNL A   1      41.207  27.664  28.740  1.00  0.00    -0.248 NA
ATOM     40  C   UNL A   1      39.504  26.082  28.918  1.00  0.00     0.031 C 
ATOM     41  C   UNL A   1      43.744  24.655  26.604  1.00  0.00     0.029 A 
ATOM     42  N   UNL A   1      43.687  26.702  27.505  1.00  0.00    -0.354 N 
ATOM     43  C   UNL A   1      40.111  28.240  29.379  1.00  0.00     0.074 A 
ATOM     44  C   UNL A   1      39.064  27.240  29.384  1.00  0.00     0.031 C 
ATOM     45  C   UNL A   1      44.947  25.219  26.408  1.00  0.00     0.029 A 
ATOM     46  C   UNL A   1      44.939  26.576  26.945  1.00  0.00     0.049 A 
ATOM     47  H   UNL A   1      43.390  27.508  27.984  1.00  0.00     0.167 HD
ATOM     48  C   UNL A   1      39.990  29.476  29.929  1.00  0.00     0.034 A 
ATOM     49  C   UNL A   1      45.957  27.457  26.854  1.00  0.00     0.034 A 
ATOM     50  C   UNL A   1      41.053  30.453  29.955  1.00  0.00     0.049 A 
ATOM     51  C   UNL A   1      45.796  28.834  27.452  1.00  0.00     0.074 A 
ATOM     52  C   UNL A   1      41.055  31.712  30.532  1.00  0.00     0.029 A 
ATOM     53  N   UNL A   1      42.306  30.282  29.378  1.00  0.00    -0.354 N 
ATOM     54  N   UNL A   1      44.757  29.354  28.066  1.00  0.00    -0.248 NA
ATOM     55  C   UNL A   1      46.950  29.738  27.355  1.00  0.00     0.031 C 
ATOM     56  C   UNL A   1      42.278  32.328  30.245  1.00  0.00     0.029 A 
ATOM     57  C   UNL A   1      43.075  31.422  29.562  1.00  0.00     0.049 A 
ATOM     58  H   UNL A   1      42.604  29.470  28.908  1.00  0.00     0.167 HD
ATOM     59  C   UNL A   1      45.149  30.633  28.458  1.00  0.00     0.074 A 
ATOM     60  C   UNL A   1      46.520  30.798  28.025  1.00  0.00     0.031 C 
ATOM     61  C   UNL A   1      44.441  31.582  29.122  1.00  0.00     0.034 A 
BRANCH  48  62
ATOM     62  C   UNL A   1      38.650  29.851  30.527  1.00  0.00     0.023 A 
ATOM     63  C   UNL A   1      37.658  30.508  29.777  1.00  0.00     0.031 A 
ATOM     64  C   UNL A   1      38.367  29.566  31.875  1.00  0.00     0.131 A 
ATOM     65  C   UNL A   1      36.474  30.934  30.397  1.00  0.00     0.055 A 
ATOM     66  C   UNL A   1      37.148  29.912  32.464  1.00  0.00     0.041 A 
ATOM     67  F   UNL A   1      39.277  28.957  32.652  1.00  0.00    -0.206 F 
ATOM     68  C   UNL A   1      36.199  30.616  31.729  1.00  0.00     0.022 A 
BRANCH  65  69
ATOM     69  S   UNL A   1      35.369  32.046  29.484  1.00  0.00     0.124 S 
ATOM     70  O   UNL A   1      34.464  32.492  30.539  1.00  0.00    -0.237 OA
ATOM     71  O   UNL A   1      36.291  33.050  28.965  1.00  0.00    -0.237 OA
ATOM     72  O   UNL A   1      34.761  31.176  28.478  1.00  0.00    -0.744 OA
ENDBRANCH  65  69
ENDBRANCH  48  62
BRANCH  49  73
ATOM     73  C   UNL A   1      47.221  27.081  26.153  1.00  0.00     0.023 A 
ATOM     74  C   UNL A   1      48.226  26.356  26.811  1.00  0.00     0.031 A 
ATOM     75  C   UNL A   1      47.462  27.485  24.827  1.00  0.00     0.131 A 
ATOM     76  C   UNL A   1      49.444  26.097  26.162  1.00  0.00     0.055 A 
ATOM     77  C   UNL A   1      48.652  27.173  24.166  1.00  0.00     0.041 A 
ATOM     78  F   UNL A   1      46.536  28.181  24.150  1.00  0.00    -0.206 F 
ATOM     79  C   UNL A   1      49.657  26.487  24.838  1.00  0.00     0.022 A 
BRANCH  76  80
ATOM     80  S   UNL A   1      50.785  25.319  27.105  1.00  0.00     0.124 S 
ATOM     81  O   UNL A   1      50.063  24.305  27.865  1.00  0.00    -0.237 OA
ATOM     82  O   UNL A   1      51.656  24.827  26.043  1.00  0.00    -0.237 OA
ATOM     83  O   UNL A   1      51.329  26.421  27.895  1.00  0.00    -0.744 OA
ENDBRANCH  76  80
ENDBRANCH  49  73
BRANCH  61  84
ATOM     84  C   UNL A   1      45.160  32.865  29.467  1.00  0.00     0.023 A 
ATOM     85  C   UNL A   1      45.129  33.988  28.620  1.00  0.00     0.031 A 
ATOM     86  C   UNL A   1      45.903  32.959  30.658  1.00  0.00     0.131 A 
ATOM     87  C   UNL A   1      45.875  35.130  28.945  1.00  0.00     0.055 A 
ATOM     88  C   UNL A   1      46.590  34.121  31.008  1.00  0.00     0.041 A 
ATOM     89  F   UNL A   1      45.972  31.918  31.504  1.00  0.00    -0.206 F 
ATOM     90  C   UNL A   1      46.592  35.211  30.142  1.00  0.00     0.022 A 
BRANCH  87  91
ATOM     91  S   UNL A   1      45.983  36.475  27.733  1.00  0.00     0.124 S 
ATOM     92  O   UNL A   1      45.241  35.925  26.603  1.00  0.00    -0.237 OA
ATOM     93  O   UNL A   1      45.344  37.582  28.437  1.00  0.00    -0.237 OA
ATOM     94  O   UNL A   1      47.421  36.628  27.515  1.00  0.00    -0.744 OA
ENDBRANCH  87  91
ENDBRANCH  61  84
ENDBRANCH  35  36
ENDBRANCH  27  30
ENDBRANCH  25  26
ENDBRANCH   1  25
TORSDOF 17
ENDMDL
