MODEL 1
REMARK VINA RESULT:     -11.2      0.000      0.000
REMARK SMILES CC(C)C[C@H](CNC(=O)N[C@@H](C)c1nccs1)C(=O)NCCCNC(=O)c1ccc(-c2c3nc(c(-c4cc(S(=O)(=O)[O-])ccc4F)c4ccc([nH]4)c(-c4cc(S(=O)(=O)[O-])ccc4F)c4nc(c(-c5cc(S(=O)(=O)[O-])ccc5F)c5ccc2[nH]5)C=C4)C=C3)cc1
REMARK SMILES IDX 21 1 20 2 18 3 19 4 5 6 4 7 2 8 1 9 3 10 6 11 7 12 8 13 9 15
REMARK SMILES IDX 10 16 11 18 12 19 13 20 14 21 17 22 15 23 16 24 22 25 23 26
REMARK SMILES IDX 24 27 25 28 26 30 27 31 28 32 89 33 29 34 88 35 30 36 31 37
REMARK SMILES IDX 32 38 82 39 33 40 87 41 81 42 83 43 34 44 86 45 80 46 79 47
REMARK SMILES IDX 35 49 67 50 47 51 66 52 48 53 51 54 65 55 84 56 49 57 50 58
REMARK SMILES IDX 64 60 85 61 52 62 36 63 37 64 45 65 38 66 44 67 46 68 43 69
REMARK SMILES IDX 39 70 40 71 41 72 42 73 68 74 69 75 77 76 70 77 76 78 78 79
REMARK SMILES IDX 75 80 71 81 72 82 73 83 74 84 53 85 54 86 62 87 55 88 61 89
REMARK SMILES IDX 63 90 60 91 56 92 57 93 58 94 59 95
REMARK H PARENT 20 5 7 14 10 17 24 29 83 48 51 59
REMARK Flexibility Score: inf
ROOT
ATOM      1  C   UNL A   1      35.529  22.691  23.719  1.00  0.00     0.117 C 
ENDROOT
BRANCH   1   2
ATOM      2  N   UNL A   1      34.171  22.889  23.248  1.00  0.00    -0.356 N 
ATOM      3  C   UNL A   1      32.996  22.469  23.785  1.00  0.00     0.224 C 
ATOM      4  O   UNL A   1      31.951  22.759  23.197  1.00  0.00    -0.275 OA
ATOM      5  H   UNL A   1      34.089  23.406  22.414  1.00  0.00     0.163 HD
BRANCH   3   6
ATOM      6  C   UNL A   1      32.965  21.627  25.055  1.00  0.00     0.098 C 
BRANCH   6   7
ATOM      7  C   UNL A   1      32.202  20.281  24.948  1.00  0.00     0.018 C 
BRANCH   7   8
ATOM      8  C   UNL A   1      33.005  19.041  24.479  1.00  0.00    -0.017 C 
ATOM      9  C   UNL A   1      34.512  19.178  24.680  1.00  0.00     0.007 C 
ATOM     10  C   UNL A   1      32.495  17.780  25.187  1.00  0.00     0.007 C 
ENDBRANCH   7   8
ENDBRANCH   6   7
BRANCH   6  11
ATOM     11  C   UNL A   1      32.630  22.572  26.241  1.00  0.00     0.131 C 
BRANCH  11  12
ATOM     12  N   UNL A   1      31.289  22.466  26.796  1.00  0.00    -0.337 N 
ATOM     13  C   UNL A   1      30.239  23.267  26.973  1.00  0.00     0.315 C 
ATOM     14  H   UNL A   1      31.109  21.558  27.130  1.00  0.00     0.165 HD
ATOM     15  O   UNL A   1      29.310  22.828  27.656  1.00  0.00    -0.249 OA
ATOM     16  N   UNL A   1      30.125  24.498  26.486  1.00  0.00    -0.329 N 
ATOM     17  H   UNL A   1      29.376  24.999  26.883  1.00  0.00     0.166 HD
BRANCH  16  18
ATOM     18  C   UNL A   1      30.859  25.271  25.499  1.00  0.00     0.140 C 
ATOM     19  C   UNL A   1      29.914  25.738  24.395  1.00  0.00     0.039 C 
BRANCH  18  20
ATOM     20  C   UNL A   1      31.538  26.415  26.208  1.00  0.00     0.115 A 
ATOM     21  N   UNL A   1      30.988  27.201  27.112  1.00  0.00    -0.247 NA
ATOM     22  S   UNL A   1      33.196  26.754  25.852  1.00  0.00    -0.125 S 
ATOM     23  C   UNL A   1      31.913  28.131  27.544  1.00  0.00     0.123 A 
ATOM     24  C   UNL A   1      33.165  28.038  26.980  1.00  0.00     0.087 A 
ENDBRANCH  18  20
ENDBRANCH  16  18
ENDBRANCH  11  12
ENDBRANCH   6  11
ENDBRANCH   3   6
ENDBRANCH   1   2
BRANCH   1  25
ATOM     25  C   UNL A   1      35.938  23.746  24.726  1.00  0.00     0.042 C 
BRANCH  25  26
ATOM     26  C   UNL A   1      36.280  23.150  26.078  1.00  0.00     0.118 C 
BRANCH  26  27
ATOM     27  N   UNL A   1      37.109  21.959  25.950  1.00  0.00    -0.352 N 
ATOM     28  C   UNL A   1      38.476  21.853  26.034  1.00  0.00     0.251 C 
ATOM     29  H   UNL A   1      36.626  21.118  25.782  1.00  0.00     0.163 HD
ATOM     30  O   UNL A   1      39.038  20.827  25.665  1.00  0.00    -0.269 OA
BRANCH  28  31
ATOM     31  C   UNL A   1      39.247  22.999  26.555  1.00  0.00     0.039 A 
ATOM     32  C   UNL A   1      40.241  22.785  27.511  1.00  0.00     0.014 A 
ATOM     33  C   UNL A   1      39.006  24.280  26.053  1.00  0.00     0.014 A 
ATOM     34  C   UNL A   1      41.042  23.855  27.916  1.00  0.00     0.010 A 
ATOM     35  C   UNL A   1      39.868  25.316  26.378  1.00  0.00     0.010 A 
ATOM     36  C   UNL A   1      40.885  25.119  27.326  1.00  0.00    -0.014 A 
BRANCH  36  37
ATOM     37  C   UNL A   1      41.721  26.282  27.707  1.00  0.00     0.031 A 
ATOM     38  C   UNL A   1      41.112  27.373  28.547  1.00  0.00     0.074 A 
ATOM     39  C   UNL A   1      42.971  26.408  27.220  1.00  0.00     0.049 A 
ATOM     40  N   UNL A   1      41.579  28.559  28.835  1.00  0.00    -0.248 NA
ATOM     41  C   UNL A   1      39.772  27.103  29.093  1.00  0.00     0.031 C 
ATOM     42  C   UNL A   1      43.653  25.429  26.371  1.00  0.00     0.029 A 
ATOM     43  N   UNL A   1      43.883  27.424  27.352  1.00  0.00    -0.354 N 
ATOM     44  C   UNL A   1      40.576  29.189  29.566  1.00  0.00     0.074 A 
ATOM     45  C   UNL A   1      39.455  28.276  29.616  1.00  0.00     0.031 C 
ATOM     46  C   UNL A   1      44.881  25.886  26.073  1.00  0.00     0.029 A 
ATOM     47  C   UNL A   1      45.052  27.210  26.659  1.00  0.00     0.049 A 
ATOM     48  H   UNL A   1      43.716  28.230  27.890  1.00  0.00     0.167 HD
ATOM     49  C   UNL A   1      40.600  30.408  30.158  1.00  0.00     0.034 A 
ATOM     50  C   UNL A   1      46.130  28.005  26.500  1.00  0.00     0.034 A 
ATOM     51  C   UNL A   1      41.743  31.286  30.120  1.00  0.00     0.049 A 
ATOM     52  C   UNL A   1      46.135  29.359  27.164  1.00  0.00     0.074 A 
ATOM     53  C   UNL A   1      41.905  32.519  30.724  1.00  0.00     0.029 A 
ATOM     54  N   UNL A   1      42.925  31.018  29.438  1.00  0.00    -0.354 N 
ATOM     55  N   UNL A   1      45.191  29.935  27.873  1.00  0.00    -0.248 NA
ATOM     56  C   UNL A   1      47.351  30.168  27.013  1.00  0.00     0.031 C 
ATOM     57  C   UNL A   1      43.158  33.023  30.360  1.00  0.00     0.029 A 
ATOM     58  C   UNL A   1      43.810  32.071  29.591  1.00  0.00     0.049 A 
ATOM     59  H   UNL A   1      43.105  30.200  28.921  1.00  0.00     0.167 HD
ATOM     60  C   UNL A   1      45.718  31.155  28.289  1.00  0.00     0.074 A 
ATOM     61  C   UNL A   1      47.061  31.230  27.750  1.00  0.00     0.031 C 
ATOM     62  C   UNL A   1      45.150  32.121  29.053  1.00  0.00     0.034 A 
BRANCH  49  63
ATOM     63  C   UNL A   1      39.346  30.859  30.870  1.00  0.00     0.023 A 
ATOM     64  C   UNL A   1      38.344  31.589  30.208  1.00  0.00     0.031 A 
ATOM     65  C   UNL A   1      39.169  30.594  32.239  1.00  0.00     0.131 A 
ATOM     66  C   UNL A   1      37.257  32.103  30.932  1.00  0.00     0.055 A 
ATOM     67  C   UNL A   1      38.040  31.029  32.934  1.00  0.00     0.041 A 
ATOM     68  F   UNL A   1      40.101  29.920  32.932  1.00  0.00    -0.206 F 
ATOM     69  C   UNL A   1      37.083  31.805  32.285  1.00  0.00     0.022 A 
BRANCH  66  70
ATOM     70  S   UNL A   1      36.162  33.296  30.114  1.00  0.00     0.124 S 
ATOM     71  O   UNL A   1      35.792  34.166  31.228  1.00  0.00    -0.237 OA
ATOM     72  O   UNL A   1      37.034  33.886  29.106  1.00  0.00    -0.237 OA
ATOM     73  O   UNL A   1      35.077  32.465  29.594  1.00  0.00    -0.744 OA
ENDBRANCH  66  70
ENDBRANCH  49  63
BRANCH  50  74
ATOM     74  C   UNL A   1      47.289  27.552  25.678  1.00  0.00     0.023 A 
ATOM     75  C   UNL A   1      47.382  27.886  24.319  1.00  0.00     0.031 A 
ATOM     76  C   UNL A   1      48.302  26.748  26.230  1.00  0.00     0.131 A 
ATOM     77  C   UNL A   1      48.436  27.381  23.543  1.00  0.00     0.055 A 
ATOM     78  C   UNL A   1      49.379  26.292  25.466  1.00  0.00     0.041 A 
ATOM     79  F   UNL A   1      48.266  26.404  27.527  1.00  0.00    -0.206 F 
ATOM     80  C   UNL A   1      49.442  26.597  24.110  1.00  0.00     0.022 A 
BRANCH  77  81
ATOM     81  S   UNL A   1      48.425  27.692  21.756  1.00  0.00     0.124 S 
ATOM     82  O   UNL A   1      49.550  28.609  21.608  1.00  0.00    -0.237 OA
ATOM     83  O   UNL A   1      48.614  26.351  21.214  1.00  0.00    -0.237 OA
ATOM     84  O   UNL A   1      47.107  28.277  21.521  1.00  0.00    -0.744 OA
ENDBRANCH  77  81
ENDBRANCH  50  74
BRANCH  62  85
ATOM     85  C   UNL A   1      46.006  33.308  29.414  1.00  0.00     0.023 A 
ATOM     86  C   UNL A   1      45.997  34.491  28.659  1.00  0.00     0.031 A 
ATOM     87  C   UNL A   1      46.836  33.248  30.549  1.00  0.00     0.131 A 
ATOM     88  C   UNL A   1      46.835  35.556  29.024  1.00  0.00     0.055 A 
ATOM     89  C   UNL A   1      47.625  34.330  30.938  1.00  0.00     0.041 A 
ATOM     90  F   UNL A   1      46.882  32.139  31.304  1.00  0.00    -0.206 F 
ATOM     91  C   UNL A   1      47.635  35.489  30.168  1.00  0.00     0.022 A 
BRANCH  88  92
ATOM     92  S   UNL A   1      46.919  37.010  27.943  1.00  0.00     0.124 S 
ATOM     93  O   UNL A   1      46.195  38.009  28.723  1.00  0.00    -0.237 OA
ATOM     94  O   UNL A   1      48.356  37.222  27.814  1.00  0.00    -0.237 OA
ATOM     95  O   UNL A   1      46.246  36.569  26.722  1.00  0.00    -0.744 OA
ENDBRANCH  88  92
ENDBRANCH  62  85
ENDBRANCH  36  37
ENDBRANCH  28  31
ENDBRANCH  26  27
ENDBRANCH  25  26
ENDBRANCH   1  25
TORSDOF 19
ENDMDL
MODEL 2
REMARK VINA RESULT:     -11.0      4.815     10.034
REMARK SMILES CC(C)C[C@H](CNC(=O)N[C@@H](C)c1nccs1)C(=O)NCCCNC(=O)c1ccc(-c2c3nc(c(-c4cc(S(=O)(=O)[O-])ccc4F)c4ccc([nH]4)c(-c4cc(S(=O)(=O)[O-])ccc4F)c4nc(c(-c5cc(S(=O)(=O)[O-])ccc5F)c5ccc2[nH]5)C=C4)C=C3)cc1
REMARK SMILES IDX 21 1 20 2 18 3 19 4 5 6 4 7 2 8 1 9 3 10 6 11 7 12 8 13 9 15
REMARK SMILES IDX 10 16 11 18 12 19 13 20 14 21 17 22 15 23 16 24 22 25 23 26
REMARK SMILES IDX 24 27 25 28 26 30 27 31 28 32 89 33 29 34 88 35 30 36 31 37
REMARK SMILES IDX 32 38 82 39 33 40 87 41 81 42 83 43 34 44 86 45 80 46 79 47
REMARK SMILES IDX 35 49 67 50 47 51 66 52 48 53 51 54 65 55 84 56 49 57 50 58
REMARK SMILES IDX 64 60 85 61 52 62 36 63 37 64 45 65 38 66 44 67 46 68 43 69
REMARK SMILES IDX 39 70 40 71 41 72 42 73 68 74 69 75 77 76 70 77 76 78 78 79
REMARK SMILES IDX 75 80 71 81 72 82 73 83 74 84 53 85 54 86 62 87 55 88 61 89
REMARK SMILES IDX 63 90 60 91 56 92 57 93 58 94 59 95
REMARK H PARENT 20 5 7 14 10 17 24 29 83 48 51 59
REMARK Flexibility Score: inf
ROOT
ATOM      1  C   UNL A   1      32.499  27.006  26.111  1.00  0.00     0.117 C 
ENDROOT
BRANCH   1   2
ATOM      2  N   UNL A   1      31.515  26.026  26.531  1.00  0.00    -0.356 N 
ATOM      3  C   UNL A   1      30.502  25.456  25.828  1.00  0.00     0.224 C 
ATOM      4  O   UNL A   1      29.780  24.639  26.406  1.00  0.00    -0.275 OA
ATOM      5  H   UNL A   1      31.593  25.730  27.467  1.00  0.00     0.163 HD
BRANCH   3   6
ATOM      6  C   UNL A   1      30.233  25.841  24.378  1.00  0.00     0.098 C 
BRANCH   6   7
ATOM      7  C   UNL A   1      28.888  26.568  24.117  1.00  0.00     0.018 C 
BRANCH   7   8
ATOM      8  C   UNL A   1      28.911  27.787  23.159  1.00  0.00    -0.017 C 
ATOM      9  C   UNL A   1      27.601  28.572  23.140  1.00  0.00     0.007 C 
ATOM     10  C   UNL A   1      30.075  28.719  23.513  1.00  0.00     0.007 C 
ENDBRANCH   7   8
ENDBRANCH   6   7
BRANCH   6  11
ATOM     11  C   UNL A   1      30.595  24.620  23.489  1.00  0.00     0.131 C 
BRANCH  11  12
ATOM     12  N   UNL A   1      31.524  24.866  22.397  1.00  0.00    -0.337 N 
ATOM     13  C   UNL A   1      32.794  24.584  22.111  1.00  0.00     0.315 C 
ATOM     14  H   UNL A   1      31.098  25.379  21.673  1.00  0.00     0.165 HD
ATOM     15  O   UNL A   1      33.279  25.131  21.118  1.00  0.00    -0.249 OA
ATOM     16  N   UNL A   1      33.576  23.776  22.820  1.00  0.00    -0.329 N 
ATOM     17  H   UNL A   1      34.526  23.847  22.571  1.00  0.00     0.166 HD
BRANCH  16  18
ATOM     18  C   UNL A   1      33.343  22.812  23.881  1.00  0.00     0.140 C 
ATOM     19  C   UNL A   1      32.725  21.541  23.304  1.00  0.00     0.039 C 
BRANCH  18  20
ATOM     20  C   UNL A   1      34.653  22.557  24.581  1.00  0.00     0.115 A 
ATOM     21  N   UNL A   1      35.283  21.401  24.648  1.00  0.00    -0.247 NA
ATOM     22  S   UNL A   1      35.454  23.874  25.364  1.00  0.00    -0.125 S 
ATOM     23  C   UNL A   1      36.454  21.550  25.365  1.00  0.00     0.123 A 
ATOM     24  C   UNL A   1      36.718  22.820  25.823  1.00  0.00     0.087 A 
ENDBRANCH  18  20
ENDBRANCH  16  18
ENDBRANCH  11  12
ENDBRANCH   6  11
ENDBRANCH   3   6
ENDBRANCH   1   2
BRANCH   1  25
ATOM     25  C   UNL A   1      32.100  28.413  26.506  1.00  0.00     0.042 C 
BRANCH  25  26
ATOM     26  C   UNL A   1      33.006  29.463  25.891  1.00  0.00     0.118 C 
BRANCH  26  27
ATOM     27  N   UNL A   1      32.556  30.813  26.198  1.00  0.00    -0.352 N 
ATOM     28  C   UNL A   1      33.073  31.703  27.107  1.00  0.00     0.251 C 
ATOM     29  H   UNL A   1      31.778  31.131  25.686  1.00  0.00     0.163 HD
ATOM     30  O   UNL A   1      32.437  32.705  27.420  1.00  0.00    -0.269 OA
BRANCH  28  31
ATOM     31  C   UNL A   1      34.390  31.420  27.709  1.00  0.00     0.039 A 
ATOM     32  C   UNL A   1      35.338  32.440  27.810  1.00  0.00     0.014 A 
ATOM     33  C   UNL A   1      34.661  30.145  28.213  1.00  0.00     0.014 A 
ATOM     34  C   UNL A   1      36.539  32.195  28.480  1.00  0.00     0.010 A 
ATOM     35  C   UNL A   1      35.805  29.935  28.967  1.00  0.00     0.010 A 
ATOM     36  C   UNL A   1      36.765  30.953  29.094  1.00  0.00    -0.014 A 
BRANCH  36  37
ATOM     37  C   UNL A   1      38.014  30.649  29.833  1.00  0.00     0.031 A 
ATOM     38  C   UNL A   1      39.007  29.696  29.224  1.00  0.00     0.074 A 
ATOM     39  C   UNL A   1      38.203  31.137  31.075  1.00  0.00     0.049 A 
ATOM     40  N   UNL A   1      40.057  29.135  29.761  1.00  0.00    -0.248 NA
ATOM     41  C   UNL A   1      38.746  29.283  27.835  1.00  0.00     0.031 C 
ATOM     42  C   UNL A   1      37.294  32.044  31.778  1.00  0.00     0.029 A 
ATOM     43  N   UNL A   1      39.215  30.919  31.975  1.00  0.00    -0.354 N 
ATOM     44  C   UNL A   1      40.563  28.278  28.788  1.00  0.00     0.074 A 
ATOM     45  C   UNL A   1      39.663  28.346  27.657  1.00  0.00     0.031 C 
ATOM     46  C   UNL A   1      37.798  32.317  32.992  1.00  0.00     0.029 A 
ATOM     47  C   UNL A   1      39.034  31.564  33.177  1.00  0.00     0.049 A 
ATOM     48  H   UNL A   1      39.997  30.355  31.780  1.00  0.00     0.167 HD
ATOM     49  C   UNL A   1      41.687  27.522  28.828  1.00  0.00     0.034 A 
ATOM     50  C   UNL A   1      39.771  31.531  34.305  1.00  0.00     0.034 A 
ATOM     51  C   UNL A   1      42.585  27.496  29.956  1.00  0.00     0.049 A 
ATOM     52  C   UNL A   1      41.016  30.679  34.331  1.00  0.00     0.074 A 
ATOM     53  C   UNL A   1      43.779  26.811  30.093  1.00  0.00     0.029 A 
ATOM     54  N   UNL A   1      42.386  28.191  31.143  1.00  0.00    -0.354 N 
ATOM     55  N   UNL A   1      41.498  29.891  33.396  1.00  0.00    -0.248 NA
ATOM     56  C   UNL A   1      41.820  30.717  35.559  1.00  0.00     0.031 C 
ATOM     57  C   UNL A   1      44.271  27.044  31.382  1.00  0.00     0.029 A 
ATOM     58  C   UNL A   1      43.424  27.937  32.023  1.00  0.00     0.049 A 
ATOM     59  H   UNL A   1      41.618  28.779  31.331  1.00  0.00     0.167 HD
ATOM     60  C   UNL A   1      42.685  29.375  33.909  1.00  0.00     0.074 A 
ATOM     61  C   UNL A   1      42.844  29.941  35.234  1.00  0.00     0.031 C 
ATOM     62  C   UNL A   1      43.568  28.520  33.336  1.00  0.00     0.034 A 
BRANCH  49  63
ATOM     63  C   UNL A   1      41.983  26.651  27.629  1.00  0.00     0.023 A 
ATOM     64  C   UNL A   1      41.545  25.317  27.559  1.00  0.00     0.031 A 
ATOM     65  C   UNL A   1      42.749  27.148  26.560  1.00  0.00     0.131 A 
ATOM     66  C   UNL A   1      41.949  24.502  26.491  1.00  0.00     0.055 A 
ATOM     67  C   UNL A   1      43.070  26.358  25.455  1.00  0.00     0.041 A 
ATOM     68  F   UNL A   1      43.214  28.407  26.578  1.00  0.00    -0.206 F 
ATOM     69  C   UNL A   1      42.686  25.020  25.424  1.00  0.00     0.022 A 
BRANCH  66  70
ATOM     70  S   UNL A   1      41.633  22.719  26.598  1.00  0.00     0.124 S 
ATOM     71  O   UNL A   1      40.175  22.684  26.690  1.00  0.00    -0.237 OA
ATOM     72  O   UNL A   1      42.207  22.221  25.355  1.00  0.00    -0.237 OA
ATOM     73  O   UNL A   1      42.337  22.319  27.816  1.00  0.00    -0.744 OA
ENDBRANCH  66  70
ENDBRANCH  49  63
BRANCH  50  74
ATOM     74  C   UNL A   1      39.357  32.316  35.503  1.00  0.00     0.023 A 
ATOM     75  C   UNL A   1      39.780  33.643  35.676  1.00  0.00     0.031 A 
ATOM     76  C   UNL A   1      38.560  31.743  36.509  1.00  0.00     0.131 A 
ATOM     77  C   UNL A   1      39.449  34.337  36.849  1.00  0.00     0.055 A 
ATOM     78  C   UNL A   1      38.188  32.456  37.651  1.00  0.00     0.041 A 
ATOM     79  F   UNL A   1      38.122  30.479  36.392  1.00  0.00    -0.206 F 
ATOM     80  C   UNL A   1      38.644  33.757  37.832  1.00  0.00     0.022 A 
BRANCH  77  81
ATOM     81  S   UNL A   1      40.160  35.985  37.112  1.00  0.00     0.124 S 
ATOM     82  O   UNL A   1      41.582  35.679  37.228  1.00  0.00    -0.237 OA
ATOM     83  O   UNL A   1      39.752  36.688  35.901  1.00  0.00    -0.237 OA
ATOM     84  O   UNL A   1      39.517  36.440  38.343  1.00  0.00    -0.744 OA
ENDBRANCH  77  81
ENDBRANCH  50  74
BRANCH  62  85
ATOM     85  C   UNL A   1      44.823  28.204  34.109  1.00  0.00     0.023 A 
ATOM     86  C   UNL A   1      44.881  27.153  35.040  1.00  0.00     0.031 A 
ATOM     87  C   UNL A   1      45.985  28.967  33.893  1.00  0.00     0.131 A 
ATOM     88  C   UNL A   1      46.067  26.921  35.753  1.00  0.00     0.055 A 
ATOM     89  C   UNL A   1      47.177  28.694  34.565  1.00  0.00     0.041 A 
ATOM     90  F   UNL A   1      45.982  29.982  33.015  1.00  0.00    -0.206 F 
ATOM     91  C   UNL A   1      47.219  27.672  35.508  1.00  0.00     0.022 A 
BRANCH  88  92
ATOM     92  S   UNL A   1      46.066  25.662  37.059  1.00  0.00     0.124 S 
ATOM     93  O   UNL A   1      46.890  24.612  36.468  1.00  0.00    -0.237 OA
ATOM     94  O   UNL A   1      46.657  26.377  38.184  1.00  0.00    -0.237 OA
ATOM     95  O   UNL A   1      44.651  25.326  37.212  1.00  0.00    -0.744 OA
ENDBRANCH  88  92
ENDBRANCH  62  85
ENDBRANCH  36  37
ENDBRANCH  28  31
ENDBRANCH  26  27
ENDBRANCH  25  26
ENDBRANCH   1  25
TORSDOF 19
ENDMDL
MODEL 3
REMARK VINA RESULT:     -11.0      5.110      7.824
REMARK SMILES CC(C)C[C@H](CNC(=O)N[C@@H](C)c1nccs1)C(=O)NCCCNC(=O)c1ccc(-c2c3nc(c(-c4cc(S(=O)(=O)[O-])ccc4F)c4ccc([nH]4)c(-c4cc(S(=O)(=O)[O-])ccc4F)c4nc(c(-c5cc(S(=O)(=O)[O-])ccc5F)c5ccc2[nH]5)C=C4)C=C3)cc1
REMARK SMILES IDX 21 1 20 2 18 3 19 4 5 6 4 7 2 8 1 9 3 10 6 11 7 12 8 13 9 15
REMARK SMILES IDX 10 16 11 18 12 19 13 20 14 21 17 22 15 23 16 24 22 25 23 26
REMARK SMILES IDX 24 27 25 28 26 30 27 31 28 32 89 33 29 34 88 35 30 36 31 37
REMARK SMILES IDX 32 38 82 39 33 40 87 41 81 42 83 43 34 44 86 45 80 46 79 47
REMARK SMILES IDX 35 49 67 50 47 51 66 52 48 53 51 54 65 55 84 56 49 57 50 58
REMARK SMILES IDX 64 60 85 61 52 62 36 63 37 64 45 65 38 66 44 67 46 68 43 69
REMARK SMILES IDX 39 70 40 71 41 72 42 73 68 74 69 75 77 76 70 77 76 78 78 79
REMARK SMILES IDX 75 80 71 81 72 82 73 83 74 84 53 85 54 86 62 87 55 88 61 89
REMARK SMILES IDX 63 90 60 91 56 92 57 93 58 94 59 95
REMARK H PARENT 20 5 7 14 10 17 24 29 83 48 51 59
REMARK Flexibility Score: inf
ROOT
ATOM      1  C   UNL A   1      31.765  28.378  26.432  1.00  0.00     0.117 C 
ENDROOT
BRANCH   1   2
ATOM      2  N   UNL A   1      30.941  27.323  25.874  1.00  0.00    -0.356 N 
ATOM      3  C   UNL A   1      30.601  27.078  24.582  1.00  0.00     0.224 C 
ATOM      4  O   UNL A   1      29.875  26.109  24.345  1.00  0.00    -0.275 OA
ATOM      5  H   UNL A   1      30.572  26.689  26.532  1.00  0.00     0.163 HD
BRANCH   3   6
ATOM      6  C   UNL A   1      31.066  27.994  23.457  1.00  0.00     0.098 C 
BRANCH   6   7
ATOM      7  C   UNL A   1      30.013  28.293  22.358  1.00  0.00     0.018 C 
BRANCH   7   8
ATOM      8  C   UNL A   1      28.980  29.412  22.645  1.00  0.00    -0.017 C 
ATOM      9  C   UNL A   1      27.616  28.885  23.082  1.00  0.00     0.007 C 
ATOM     10  C   UNL A   1      29.528  30.384  23.696  1.00  0.00     0.007 C 
ENDBRANCH   7   8
ENDBRANCH   6   7
BRANCH   6  11
ATOM     11  C   UNL A   1      32.478  27.522  23.015  1.00  0.00     0.131 C 
BRANCH  11  12
ATOM     12  N   UNL A   1      32.574  26.900  21.703  1.00  0.00    -0.337 N 
ATOM     13  C   UNL A   1      32.846  25.692  21.212  1.00  0.00     0.315 C 
ATOM     14  H   UNL A   1      32.386  27.546  20.985  1.00  0.00     0.165 HD
ATOM     15  O   UNL A   1      32.994  25.606  19.991  1.00  0.00    -0.249 OA
ATOM     16  N   UNL A   1      32.986  24.586  21.936  1.00  0.00    -0.329 N 
ATOM     17  H   UNL A   1      33.377  23.841  21.425  1.00  0.00     0.166 HD
BRANCH  16  18
ATOM     18  C   UNL A   1      32.691  24.230  23.313  1.00  0.00     0.140 C 
ATOM     19  C   UNL A   1      31.624  23.139  23.352  1.00  0.00     0.039 C 
BRANCH  18  20
ATOM     20  C   UNL A   1      33.978  23.811  23.976  1.00  0.00     0.115 A 
ATOM     21  N   UNL A   1      34.894  23.018  23.456  1.00  0.00    -0.247 NA
ATOM     22  S   UNL A   1      34.341  24.414  25.555  1.00  0.00    -0.125 S 
ATOM     23  C   UNL A   1      35.936  22.863  24.349  1.00  0.00     0.123 A 
ATOM     24  C   UNL A   1      35.816  23.551  25.535  1.00  0.00     0.087 A 
ENDBRANCH  18  20
ENDBRANCH  16  18
ENDBRANCH  11  12
ENDBRANCH   6  11
ENDBRANCH   3   6
ENDBRANCH   1   2
BRANCH   1  25
ATOM     25  C   UNL A   1      33.180  27.907  26.702  1.00  0.00     0.042 C 
BRANCH  25  26
ATOM     26  C   UNL A   1      34.220  28.894  26.207  1.00  0.00     0.118 C 
BRANCH  26  27
ATOM     27  N   UNL A   1      33.909  30.258  26.614  1.00  0.00    -0.352 N 
ATOM     28  C   UNL A   1      34.476  31.002  27.619  1.00  0.00     0.251 C 
ATOM     29  H   UNL A   1      33.199  30.705  26.101  1.00  0.00     0.163 HD
ATOM     30  O   UNL A   1      33.941  32.042  27.993  1.00  0.00    -0.269 OA
BRANCH  28  31
ATOM     31  C   UNL A   1      35.720  30.518  28.247  1.00  0.00     0.039 A 
ATOM     32  C   UNL A   1      35.657  29.793  29.438  1.00  0.00     0.014 A 
ATOM     33  C   UNL A   1      36.947  30.750  27.620  1.00  0.00     0.014 A 
ATOM     34  C   UNL A   1      36.827  29.242  29.967  1.00  0.00     0.010 A 
ATOM     35  C   UNL A   1      38.087  30.116  28.089  1.00  0.00     0.010 A 
ATOM     36  C   UNL A   1      38.043  29.369  29.277  1.00  0.00    -0.014 A 
BRANCH  36  37
ATOM     37  C   UNL A   1      39.308  28.787  29.787  1.00  0.00     0.031 A 
ATOM     38  C   UNL A   1      40.019  29.473  30.922  1.00  0.00     0.074 A 
ATOM     39  C   UNL A   1      39.861  27.724  29.172  1.00  0.00     0.049 A 
ATOM     40  N   UNL A   1      41.219  29.267  31.396  1.00  0.00    -0.248 NA
ATOM     41  C   UNL A   1      39.294  30.576  31.574  1.00  0.00     0.031 C 
ATOM     42  C   UNL A   1      39.277  26.998  28.042  1.00  0.00     0.029 A 
ATOM     43  N   UNL A   1      41.052  27.082  29.397  1.00  0.00    -0.354 N 
ATOM     44  C   UNL A   1      41.405  30.234  32.379  1.00  0.00     0.074 A 
ATOM     45  C   UNL A   1      40.221  31.065  32.382  1.00  0.00     0.031 C 
ATOM     46  C   UNL A   1      40.104  26.001  27.686  1.00  0.00     0.029 A 
ATOM     47  C   UNL A   1      41.300  26.052  28.520  1.00  0.00     0.049 A 
ATOM     48  H   UNL A   1      41.672  27.336  30.118  1.00  0.00     0.167 HD
ATOM     49  C   UNL A   1      42.458  30.398  33.217  1.00  0.00     0.034 A 
ATOM     50  C   UNL A   1      42.379  25.253  28.393  1.00  0.00     0.034 A 
ATOM     51  C   UNL A   1      43.614  29.535  33.215  1.00  0.00     0.049 A 
ATOM     52  C   UNL A   1      43.543  25.455  29.331  1.00  0.00     0.074 A 
ATOM     53  C   UNL A   1      44.717  29.569  34.048  1.00  0.00     0.029 A 
ATOM     54  N   UNL A   1      43.811  28.478  32.335  1.00  0.00    -0.354 N 
ATOM     55  N   UNL A   1      43.698  26.358  30.273  1.00  0.00    -0.248 NA
ATOM     56  C   UNL A   1      44.673  24.528  29.196  1.00  0.00     0.031 C 
ATOM     57  C   UNL A   1      45.608  28.573  33.635  1.00  0.00     0.029 A 
ATOM     58  C   UNL A   1      45.026  27.866  32.593  1.00  0.00     0.049 A 
ATOM     59  H   UNL A   1      43.180  28.204  31.631  1.00  0.00     0.167 HD
ATOM     60  C   UNL A   1      44.923  26.077  30.871  1.00  0.00     0.074 A 
ATOM     61  C   UNL A   1      45.465  24.923  30.182  1.00  0.00     0.031 C 
ATOM     62  C   UNL A   1      45.542  26.709  31.899  1.00  0.00     0.034 A 
BRANCH  49  63
ATOM     63  C   UNL A   1      42.409  31.564  34.176  1.00  0.00     0.023 A 
ATOM     64  C   UNL A   1      41.650  31.515  35.359  1.00  0.00     0.031 A 
ATOM     65  C   UNL A   1      43.095  32.756  33.885  1.00  0.00     0.131 A 
ATOM     66  C   UNL A   1      41.523  32.661  36.158  1.00  0.00     0.055 A 
ATOM     67  C   UNL A   1      43.038  33.864  34.733  1.00  0.00     0.041 A 
ATOM     68  F   UNL A   1      43.818  32.872  32.760  1.00  0.00    -0.206 F 
ATOM     69  C   UNL A   1      42.234  33.827  35.869  1.00  0.00     0.022 A 
BRANCH  66  70
ATOM     70  S   UNL A   1      40.292  32.653  37.490  1.00  0.00     0.124 S 
ATOM     71  O   UNL A   1      39.376  31.609  37.037  1.00  0.00    -0.237 OA
ATOM     72  O   UNL A   1      41.096  32.333  38.662  1.00  0.00    -0.237 OA
ATOM     73  O   UNL A   1      39.745  34.009  37.458  1.00  0.00    -0.744 OA
ENDBRANCH  66  70
ENDBRANCH  49  63
BRANCH  50  74
ATOM     74  C   UNL A   1      42.420  24.199  27.340  1.00  0.00     0.023 A 
ATOM     75  C   UNL A   1      41.796  22.958  27.539  1.00  0.00     0.031 A 
ATOM     76  C   UNL A   1      43.111  24.402  26.133  1.00  0.00     0.131 A 
ATOM     77  C   UNL A   1      41.917  21.949  26.571  1.00  0.00     0.055 A 
ATOM     78  C   UNL A   1      43.183  23.414  25.148  1.00  0.00     0.041 A 
ATOM     79  F   UNL A   1      43.720  25.573  25.887  1.00  0.00    -0.206 F 
ATOM     80  C   UNL A   1      42.595  22.173  25.371  1.00  0.00     0.022 A 
BRANCH  77  81
ATOM     81  S   UNL A   1      41.247  20.305  26.943  1.00  0.00     0.124 S 
ATOM     82  O   UNL A   1      40.113  20.233  26.028  1.00  0.00    -0.237 OA
ATOM     83  O   UNL A   1      42.379  19.439  26.632  1.00  0.00    -0.237 OA
ATOM     84  O   UNL A   1      40.901  20.391  28.360  1.00  0.00    -0.744 OA
ENDBRANCH  77  81
ENDBRANCH  50  74
BRANCH  62  85
ATOM     85  C   UNL A   1      46.839  26.118  32.392  1.00  0.00     0.023 A 
ATOM     86  C   UNL A   1      46.879  25.157  33.415  1.00  0.00     0.031 A 
ATOM     87  C   UNL A   1      48.054  26.521  31.809  1.00  0.00     0.131 A 
ATOM     88  C   UNL A   1      48.116  24.661  33.855  1.00  0.00     0.055 A 
ATOM     89  C   UNL A   1      49.276  25.983  32.212  1.00  0.00     0.041 A 
ATOM     90  F   UNL A   1      48.070  27.438  30.827  1.00  0.00    -0.206 F 
ATOM     91  C   UNL A   1      49.312  25.054  33.248  1.00  0.00     0.022 A 
BRANCH  88  92
ATOM     92  S   UNL A   1      48.149  23.541  35.281  1.00  0.00     0.124 S 
ATOM     93  O   UNL A   1      49.536  23.650  35.720  1.00  0.00    -0.237 OA
ATOM     94  O   UNL A   1      47.152  24.132  36.167  1.00  0.00    -0.237 OA
ATOM     95  O   UNL A   1      47.779  22.247  34.710  1.00  0.00    -0.744 OA
ENDBRANCH  88  92
ENDBRANCH  62  85
ENDBRANCH  36  37
ENDBRANCH  28  31
ENDBRANCH  26  27
ENDBRANCH  25  26
ENDBRANCH   1  25
TORSDOF 19
ENDMDL
