MODEL 1
REMARK VINA RESULT:     -12.2      0.000      0.000
REMARK SMILES COc1cc2c(c(OC)c1)[C@H](C)C[C@H](CC(=O)NCCCNC(=O)c1ccc(-c3c4nc(c(-c5cc(S(=O)(=O)[O-])ccc5F)c5ccc([nH]5)c(-c5cc(S(=O)(=O)[O-])ccc5F)c5nc(c(-c6cc(S(=O)(=O)[O-])ccc6F)c6ccc3[nH]6)C=C5)C=C4)cc1)C2
REMARK SMILES IDX 20 1 19 2 18 3 16 4 17 5 15 7 14 8 3 9 4 10 10 11 5 12 7 13
REMARK SMILES IDX 6 14 88 15 11 16 12 17 13 18 2 19 1 20 8 21 9 22 21 23 22 24
REMARK SMILES IDX 23 25 24 27 25 28 26 29 87 30 27 31 86 32 28 33 29 34 30 35
REMARK SMILES IDX 80 36 31 37 85 38 79 39 81 40 32 41 84 42 78 43 77 44 33 46
REMARK SMILES IDX 65 47 45 48 64 49 46 50 49 51 63 52 82 53 47 54 48 55 62 57
REMARK SMILES IDX 83 58 50 59 34 60 35 61 43 62 36 63 42 64 44 65 41 66 37 67
REMARK SMILES IDX 38 68 39 69 40 70 66 71 67 72 75 73 68 74 74 75 76 76 73 77
REMARK SMILES IDX 69 78 70 79 71 80 72 81 51 82 52 83 60 84 53 85 59 86 61 87
REMARK SMILES IDX 58 88 54 89 55 90 56 91 57 92
REMARK H PARENT 18 6 22 26 81 45 49 56
REMARK Flexibility Score: inf
ROOT
ATOM      1  C   UNL A   1      33.380  28.914  24.114  1.00  0.00     0.042 C 
ENDROOT
BRANCH   1   2
ATOM      2  C   UNL A   1      32.369  28.416  23.063  1.00  0.00     0.117 C 
BRANCH   2   3
ATOM      3  N   UNL A   1      32.941  27.592  21.998  1.00  0.00    -0.356 N 
ATOM      4  C   UNL A   1      32.730  26.296  21.614  1.00  0.00     0.220 C 
ATOM      5  O   UNL A   1      33.264  25.923  20.566  1.00  0.00    -0.275 OA
ATOM      6  H   UNL A   1      33.609  28.062  21.450  1.00  0.00     0.163 HD
BRANCH   4   7
ATOM      7  C   UNL A   1      31.899  25.308  22.437  1.00  0.00     0.104 C 
BRANCH   7   8
ATOM      8  C   UNL A   1      32.701  24.045  22.834  1.00  0.00     0.003 C 
ATOM      9  C   UNL A   1      32.855  19.422  24.546  1.00  0.00     0.122 A 
ATOM     10  C   UNL A   1      32.143  20.479  23.975  1.00  0.00     0.050 A 
ATOM     11  C   UNL A   1      34.147  19.629  25.016  1.00  0.00     0.093 A 
ATOM     12  C   UNL A   1      32.684  21.774  23.943  1.00  0.00    -0.037 A 
ATOM     13  C   UNL A   1      34.709  20.904  24.988  1.00  0.00     0.126 A 
ATOM     14  C   UNL A   1      33.964  22.000  24.503  1.00  0.00     0.000 A 
ATOM     15  C   UNL A   1      31.839  22.910  23.391  1.00  0.00     0.040 C 
ATOM     16  C   UNL A   1      34.505  23.399  24.618  1.00  0.00     0.020 C 
ATOM     17  C   UNL A   1      34.658  23.844  26.084  1.00  0.00     0.013 C 
ATOM     18  C   UNL A   1      33.709  24.462  23.880  1.00  0.00     0.012 C 
BRANCH   9  19
ATOM     19  O   UNL A   1      32.219  18.210  24.599  1.00  0.00    -0.497 OA
ATOM     20  C   UNL A   1      32.906  17.261  25.418  1.00  0.00     0.278 C 
ENDBRANCH   9  19
BRANCH  13  21
ATOM     21  O   UNL A   1      35.932  20.987  25.603  1.00  0.00    -0.496 OA
ATOM     22  C   UNL A   1      37.072  20.841  24.758  1.00  0.00     0.278 C 
ENDBRANCH  13  21
ENDBRANCH   7   8
ENDBRANCH   4   7
ENDBRANCH   2   3
ENDBRANCH   1   2
BRANCH   1  23
ATOM     23  C   UNL A   1      32.853  29.020  25.541  1.00  0.00     0.118 C 
BRANCH  23  24
ATOM     24  N   UNL A   1      32.577  30.401  25.890  1.00  0.00    -0.352 N 
ATOM     25  C   UNL A   1      33.105  31.202  26.873  1.00  0.00     0.251 C 
ATOM     26  H   UNL A   1      31.896  30.836  25.327  1.00  0.00     0.163 HD
ATOM     27  O   UNL A   1      32.462  32.200  27.201  1.00  0.00    -0.269 OA
BRANCH  25  28
ATOM     28  C   UNL A   1      34.403  30.915  27.547  1.00  0.00     0.039 A 
ATOM     29  C   UNL A   1      34.635  29.611  28.009  1.00  0.00     0.014 A 
ATOM     30  C   UNL A   1      35.338  31.908  27.849  1.00  0.00     0.014 A 
ATOM     31  C   UNL A   1      35.789  29.306  28.746  1.00  0.00     0.010 A 
ATOM     32  C   UNL A   1      36.526  31.588  28.522  1.00  0.00     0.010 A 
ATOM     33  C   UNL A   1      36.757  30.289  29.001  1.00  0.00    -0.014 A 
BRANCH  33  34
ATOM     34  C   UNL A   1      37.977  29.984  29.809  1.00  0.00     0.031 A 
ATOM     35  C   UNL A   1      39.021  29.028  29.281  1.00  0.00     0.074 A 
ATOM     36  C   UNL A   1      38.143  30.539  31.028  1.00  0.00     0.049 A 
ATOM     37  N   UNL A   1      40.104  28.576  29.861  1.00  0.00    -0.248 NA
ATOM     38  C   UNL A   1      38.804  28.495  27.928  1.00  0.00     0.031 C 
ATOM     39  C   UNL A   1      37.208  31.467  31.666  1.00  0.00     0.029 A 
ATOM     40  N   UNL A   1      39.152  30.400  31.951  1.00  0.00    -0.354 N 
ATOM     41  C   UNL A   1      40.688  27.696  28.955  1.00  0.00     0.074 A 
ATOM     42  C   UNL A   1      39.808  27.638  27.807  1.00  0.00     0.031 C 
ATOM     43  C   UNL A   1      37.695  31.827  32.865  1.00  0.00     0.029 A 
ATOM     44  C   UNL A   1      38.952  31.124  33.106  1.00  0.00     0.049 A 
ATOM     45  H   UNL A   1      39.944  29.836  31.801  1.00  0.00     0.167 HD
ATOM     46  C   UNL A   1      41.859  27.016  29.055  1.00  0.00     0.034 A 
ATOM     47  C   UNL A   1      39.685  31.201  34.236  1.00  0.00     0.034 A 
ATOM     48  C   UNL A   1      42.746  27.095  30.191  1.00  0.00     0.049 A 
ATOM     49  C   UNL A   1      40.970  30.414  34.334  1.00  0.00     0.074 A 
ATOM     50  C   UNL A   1      43.972  26.476  30.373  1.00  0.00     0.029 A 
ATOM     51  N   UNL A   1      42.507  27.840  31.337  1.00  0.00    -0.354 N 
ATOM     52  N   UNL A   1      41.516  29.608  33.452  1.00  0.00    -0.248 NA
ATOM     53  C   UNL A   1      41.742  30.556  35.576  1.00  0.00     0.031 C 
ATOM     54  C   UNL A   1      44.445  26.798  31.649  1.00  0.00     0.029 A 
ATOM     55  C   UNL A   1      43.549  27.677  32.238  1.00  0.00     0.049 A 
ATOM     56  H   UNL A   1      41.713  28.401  31.490  1.00  0.00     0.167 HD
ATOM     57  C   UNL A   1      42.711  29.179  34.022  1.00  0.00     0.074 A 
ATOM     58  C   UNL A   1      42.816  29.825  35.313  1.00  0.00     0.031 C 
ATOM     59  C   UNL A   1      43.643  28.326  33.522  1.00  0.00     0.034 A 
BRANCH  46  60
ATOM     60  C   UNL A   1      42.241  26.108  27.909  1.00  0.00     0.023 A 
ATOM     61  C   UNL A   1      41.686  24.824  27.768  1.00  0.00     0.031 A 
ATOM     62  C   UNL A   1      43.174  26.530  26.945  1.00  0.00     0.131 A 
ATOM     63  C   UNL A   1      42.114  23.985  26.728  1.00  0.00     0.055 A 
ATOM     64  C   UNL A   1      43.540  25.719  25.868  1.00  0.00     0.041 A 
ATOM     65  F   UNL A   1      43.752  27.738  27.036  1.00  0.00    -0.206 F 
ATOM     66  C   UNL A   1      43.018  24.432  25.763  1.00  0.00     0.022 A 
BRANCH  63  67
ATOM     67  S   UNL A   1      41.565  22.256  26.728  1.00  0.00     0.124 S 
ATOM     68  O   UNL A   1      40.132  22.404  26.967  1.00  0.00    -0.237 OA
ATOM     69  O   UNL A   1      41.949  21.803  25.397  1.00  0.00    -0.237 OA
ATOM     70  O   UNL A   1      42.315  21.659  27.832  1.00  0.00    -0.744 OA
ENDBRANCH  63  67
ENDBRANCH  46  60
BRANCH  47  71
ATOM     71  C   UNL A   1      39.226  32.036  35.386  1.00  0.00     0.023 A 
ATOM     72  C   UNL A   1      38.622  31.451  36.510  1.00  0.00     0.031 A 
ATOM     73  C   UNL A   1      39.321  33.439  35.345  1.00  0.00     0.131 A 
ATOM     74  C   UNL A   1      38.080  32.264  37.518  1.00  0.00     0.055 A 
ATOM     75  C   UNL A   1      38.834  34.242  36.379  1.00  0.00     0.041 A 
ATOM     76  F   UNL A   1      39.892  34.052  34.295  1.00  0.00    -0.206 F 
ATOM     77  C   UNL A   1      38.194  33.656  37.466  1.00  0.00     0.022 A 
BRANCH  74  78
ATOM     78  S   UNL A   1      37.123  31.481  38.845  1.00  0.00     0.124 S 
ATOM     79  O   UNL A   1      35.886  32.253  38.813  1.00  0.00    -0.237 OA
ATOM     80  O   UNL A   1      37.031  30.102  38.376  1.00  0.00    -0.237 OA
ATOM     81  O   UNL A   1      37.956  31.682  40.029  1.00  0.00    -0.744 OA
ENDBRANCH  74  78
ENDBRANCH  47  71
BRANCH  59  82
ATOM     82  C   UNL A   1      44.879  28.093  34.356  1.00  0.00     0.023 A 
ATOM     83  C   UNL A   1      44.944  27.068  35.317  1.00  0.00     0.031 A 
ATOM     84  C   UNL A   1      46.005  28.921  34.196  1.00  0.00     0.131 A 
ATOM     85  C   UNL A   1      46.087  26.934  36.120  1.00  0.00     0.055 A 
ATOM     86  C   UNL A   1      47.161  28.746  34.958  1.00  0.00     0.041 A 
ATOM     87  F   UNL A   1      45.999  29.915  33.294  1.00  0.00    -0.206 F 
ATOM     88  C   UNL A   1      47.201  27.756  35.935  1.00  0.00     0.022 A 
BRANCH  85  89
ATOM     89  S   UNL A   1      46.065  25.724  37.472  1.00  0.00     0.124 S 
ATOM     90  O   UNL A   1      45.301  26.429  38.497  1.00  0.00    -0.237 OA
ATOM     91  O   UNL A   1      45.402  24.580  36.856  1.00  0.00    -0.237 OA
ATOM     92  O   UNL A   1      47.481  25.528  37.780  1.00  0.00    -0.744 OA
ENDBRANCH  85  89
ENDBRANCH  59  82
ENDBRANCH  33  34
ENDBRANCH  25  28
ENDBRANCH  23  24
ENDBRANCH   1  23
TORSDOF 16
ENDMDL
MODEL 2
REMARK VINA RESULT:     -11.8      5.203      8.060
REMARK SMILES COc1cc2c(c(OC)c1)[C@H](C)C[C@H](CC(=O)NCCCNC(=O)c1ccc(-c3c4nc(c(-c5cc(S(=O)(=O)[O-])ccc5F)c5ccc([nH]5)c(-c5cc(S(=O)(=O)[O-])ccc5F)c5nc(c(-c6cc(S(=O)(=O)[O-])ccc6F)c6ccc3[nH]6)C=C5)C=C4)cc1)C2
REMARK SMILES IDX 20 1 19 2 18 3 16 4 17 5 15 7 14 8 3 9 4 10 10 11 5 12 7 13
REMARK SMILES IDX 6 14 88 15 11 16 12 17 13 18 2 19 1 20 8 21 9 22 21 23 22 24
REMARK SMILES IDX 23 25 24 27 25 28 26 29 87 30 27 31 86 32 28 33 29 34 30 35
REMARK SMILES IDX 80 36 31 37 85 38 79 39 81 40 32 41 84 42 78 43 77 44 33 46
REMARK SMILES IDX 65 47 45 48 64 49 46 50 49 51 63 52 82 53 47 54 48 55 62 57
REMARK SMILES IDX 83 58 50 59 34 60 35 61 43 62 36 63 42 64 44 65 41 66 37 67
REMARK SMILES IDX 38 68 39 69 40 70 66 71 67 72 75 73 68 74 74 75 76 76 73 77
REMARK SMILES IDX 69 78 70 79 71 80 72 81 51 82 52 83 60 84 53 85 59 86 61 87
REMARK SMILES IDX 58 88 54 89 55 90 56 91 57 92
REMARK H PARENT 18 6 22 26 81 45 49 56
REMARK Flexibility Score: inf
ROOT
ATOM      1  C   UNL A   1      36.350  20.653  25.060  1.00  0.00     0.042 C 
ENDROOT
BRANCH   1   2
ATOM      2  C   UNL A   1      35.262  21.672  24.670  1.00  0.00     0.117 C 
BRANCH   2   3
ATOM      3  N   UNL A   1      33.917  21.353  25.149  1.00  0.00    -0.356 N 
ATOM      4  C   UNL A   1      32.670  21.598  24.644  1.00  0.00     0.220 C 
ATOM      5  O   UNL A   1      31.715  21.065  25.214  1.00  0.00    -0.275 OA
ATOM      6  H   UNL A   1      33.908  20.866  26.005  1.00  0.00     0.163 HD
BRANCH   4   7
ATOM      7  C   UNL A   1      32.424  22.514  23.442  1.00  0.00     0.104 C 
BRANCH   7   8
ATOM      8  C   UNL A   1      31.829  23.883  23.851  1.00  0.00     0.003 C 
ATOM      9  C   UNL A   1      30.425  28.468  22.700  1.00  0.00     0.122 A 
ATOM     10  C   UNL A   1      30.744  27.166  22.311  1.00  0.00     0.050 A 
ATOM     11  C   UNL A   1      30.648  28.876  24.011  1.00  0.00     0.093 A 
ATOM     12  C   UNL A   1      31.368  26.282  23.206  1.00  0.00    -0.037 A 
ATOM     13  C   UNL A   1      31.259  28.014  24.919  1.00  0.00     0.126 A 
ATOM     14  C   UNL A   1      31.676  26.729  24.513  1.00  0.00     0.000 A 
ATOM     15  C   UNL A   1      31.776  24.904  22.713  1.00  0.00     0.040 C 
ATOM     16  C   UNL A   1      32.476  25.859  25.444  1.00  0.00     0.020 C 
ATOM     17  C   UNL A   1      33.854  26.465  25.766  1.00  0.00     0.013 C 
ATOM     18  C   UNL A   1      32.686  24.430  24.970  1.00  0.00     0.012 C 
BRANCH   9  19
ATOM     19  O   UNL A   1      29.886  29.282  21.740  1.00  0.00    -0.497 OA
ATOM     20  C   UNL A   1      28.533  29.650  22.022  1.00  0.00     0.278 C 
ENDBRANCH   9  19
BRANCH  13  21
ATOM     21  O   UNL A   1      31.538  28.591  26.133  1.00  0.00    -0.496 OA
ATOM     22  C   UNL A   1      32.463  29.676  26.115  1.00  0.00     0.278 C 
ENDBRANCH  13  21
ENDBRANCH   7   8
ENDBRANCH   4   7
ENDBRANCH   2   3
ENDBRANCH   1   2
BRANCH   1  23
ATOM     23  C   UNL A   1      37.784  21.173  25.029  1.00  0.00     0.118 C 
BRANCH  23  24
ATOM     24  N   UNL A   1      38.668  20.297  25.775  1.00  0.00    -0.352 N 
ATOM     25  C   UNL A   1      39.845  20.558  26.435  1.00  0.00     0.251 C 
ATOM     26  H   UNL A   1      38.375  19.358  25.814  1.00  0.00     0.163 HD
ATOM     27  O   UNL A   1      40.586  19.604  26.675  1.00  0.00    -0.269 OA
BRANCH  25  28
ATOM     28  C   UNL A   1      40.252  21.926  26.863  1.00  0.00     0.039 A 
ATOM     29  C   UNL A   1      39.726  23.022  26.163  1.00  0.00     0.014 A 
ATOM     30  C   UNL A   1      41.224  22.160  27.838  1.00  0.00     0.014 A 
ATOM     31  C   UNL A   1      40.155  24.327  26.447  1.00  0.00     0.010 A 
ATOM     32  C   UNL A   1      41.599  23.469  28.173  1.00  0.00     0.010 A 
ATOM     33  C   UNL A   1      41.087  24.569  27.467  1.00  0.00    -0.014 A 
BRANCH  33  34
ATOM     34  C   UNL A   1      41.574  25.951  27.761  1.00  0.00     0.031 A 
ATOM     35  C   UNL A   1      42.954  26.382  27.321  1.00  0.00     0.074 A 
ATOM     36  C   UNL A   1      40.796  26.816  28.445  1.00  0.00     0.049 A 
ATOM     37  N   UNL A   1      43.585  27.507  27.549  1.00  0.00    -0.248 NA
ATOM     38  C   UNL A   1      43.732  25.409  26.540  1.00  0.00     0.031 C 
ATOM     39  C   UNL A   1      39.449  26.528  28.942  1.00  0.00     0.029 A 
ATOM     40  N   UNL A   1      41.025  28.111  28.846  1.00  0.00    -0.354 N 
ATOM     41  C   UNL A   1      44.837  27.372  26.956  1.00  0.00     0.074 A 
ATOM     42  C   UNL A   1      44.893  26.034  26.405  1.00  0.00     0.031 C 
ATOM     43  C   UNL A   1      38.967  27.617  29.564  1.00  0.00     0.029 A 
ATOM     44  C   UNL A   1      39.982  28.667  29.553  1.00  0.00     0.049 A 
ATOM     45  H   UNL A   1      41.858  28.595  28.647  1.00  0.00     0.167 HD
ATOM     46  C   UNL A   1      45.840  28.281  26.856  1.00  0.00     0.034 A 
ATOM     47  C   UNL A   1      39.861  29.875  30.141  1.00  0.00     0.034 A 
ATOM     48  C   UNL A   1      45.771  29.623  27.386  1.00  0.00     0.049 A 
ATOM     49  C   UNL A   1      41.000  30.860  30.040  1.00  0.00     0.074 A 
ATOM     50  C   UNL A   1      46.717  30.632  27.304  1.00  0.00     0.029 A 
ATOM     51  N   UNL A   1      44.697  30.145  28.092  1.00  0.00    -0.354 N 
ATOM     52  N   UNL A   1      42.166  30.719  29.450  1.00  0.00    -0.248 NA
ATOM     53  C   UNL A   1      40.804  32.170  30.675  1.00  0.00     0.031 C 
ATOM     54  C   UNL A   1      46.241  31.741  28.011  1.00  0.00     0.029 A 
ATOM     55  C   UNL A   1      44.967  31.452  28.473  1.00  0.00     0.049 A 
ATOM     56  H   UNL A   1      43.865  29.659  28.296  1.00  0.00     0.167 HD
ATOM     57  C   UNL A   1      42.822  31.936  29.614  1.00  0.00     0.074 A 
ATOM     58  C   UNL A   1      41.920  32.803  30.341  1.00  0.00     0.031 C 
ATOM     59  C   UNL A   1      44.060  32.307  29.198  1.00  0.00     0.034 A 
BRANCH  46  60
ATOM     60  C   UNL A   1      47.111  27.849  26.162  1.00  0.00     0.023 A 
ATOM     61  C   UNL A   1      47.304  28.048  24.784  1.00  0.00     0.031 A 
ATOM     62  C   UNL A   1      48.143  27.226  26.887  1.00  0.00     0.131 A 
ATOM     63  C   UNL A   1      48.469  27.574  24.163  1.00  0.00     0.055 A 
ATOM     64  C   UNL A   1      49.334  26.825  26.277  1.00  0.00     0.041 A 
ATOM     65  F   UNL A   1      48.010  26.992  28.201  1.00  0.00    -0.206 F 
ATOM     66  C   UNL A   1      49.496  26.986  24.904  1.00  0.00     0.022 A 
BRANCH  63  67
ATOM     67  S   UNL A   1      48.568  27.625  22.352  1.00  0.00     0.124 S 
ATOM     68  O   UNL A   1      48.658  26.204  22.023  1.00  0.00    -0.237 OA
ATOM     69  O   UNL A   1      47.324  28.289  21.986  1.00  0.00    -0.237 OA
ATOM     70  O   UNL A   1      49.786  28.393  22.098  1.00  0.00    -0.744 OA
ENDBRANCH  63  67
ENDBRANCH  46  60
BRANCH  47  71
ATOM     71  C   UNL A   1      38.625  30.232  30.901  1.00  0.00     0.023 A 
ATOM     72  C   UNL A   1      37.597  30.976  30.302  1.00  0.00     0.031 A 
ATOM     73  C   UNL A   1      38.489  29.894  32.259  1.00  0.00     0.131 A 
ATOM     74  C   UNL A   1      36.507  31.412  31.072  1.00  0.00     0.055 A 
ATOM     75  C   UNL A   1      37.373  30.278  33.007  1.00  0.00     0.041 A 
ATOM     76  F   UNL A   1      39.441  29.181  32.882  1.00  0.00    -0.206 F 
ATOM     77  C   UNL A   1      36.381  31.056  32.417  1.00  0.00     0.022 A 
BRANCH  74  78
ATOM     78  S   UNL A   1      35.309  32.546  30.318  1.00  0.00     0.124 S 
ATOM     79  O   UNL A   1      36.135  33.719  30.057  1.00  0.00    -0.237 OA
ATOM     80  O   UNL A   1      34.877  31.791  29.146  1.00  0.00    -0.237 OA
ATOM     81  O   UNL A   1      34.297  32.713  31.359  1.00  0.00    -0.744 OA
ENDBRANCH  74  78
ENDBRANCH  47  71
BRANCH  59  82
ATOM     82  C   UNL A   1      44.482  33.729  29.476  1.00  0.00     0.023 A 
ATOM     83  C   UNL A   1      44.187  34.778  28.586  1.00  0.00     0.031 A 
ATOM     84  C   UNL A   1      45.205  34.035  30.643  1.00  0.00     0.131 A 
ATOM     85  C   UNL A   1      44.662  36.072  28.849  1.00  0.00     0.055 A 
ATOM     86  C   UNL A   1      45.624  35.336  30.927  1.00  0.00     0.041 A 
ATOM     87  F   UNL A   1      45.514  33.074  31.527  1.00  0.00    -0.206 F 
ATOM     88  C   UNL A   1      45.364  36.360  30.022  1.00  0.00     0.022 A 
BRANCH  85  89
ATOM     89  S   UNL A   1      44.424  37.359  27.593  1.00  0.00     0.124 S 
ATOM     90  O   UNL A   1      44.043  38.510  28.406  1.00  0.00    -0.237 OA
ATOM     91  O   UNL A   1      45.739  37.429  26.966  1.00  0.00    -0.237 OA
ATOM     92  O   UNL A   1      43.362  36.820  26.745  1.00  0.00    -0.744 OA
ENDBRANCH  85  89
ENDBRANCH  59  82
ENDBRANCH  33  34
ENDBRANCH  25  28
ENDBRANCH  23  24
ENDBRANCH   1  23
TORSDOF 16
ENDMDL
MODEL 3
REMARK VINA RESULT:     -11.8      2.794      3.915
REMARK SMILES COc1cc2c(c(OC)c1)[C@H](C)C[C@H](CC(=O)NCCCNC(=O)c1ccc(-c3c4nc(c(-c5cc(S(=O)(=O)[O-])ccc5F)c5ccc([nH]5)c(-c5cc(S(=O)(=O)[O-])ccc5F)c5nc(c(-c6cc(S(=O)(=O)[O-])ccc6F)c6ccc3[nH]6)C=C5)C=C4)cc1)C2
REMARK SMILES IDX 20 1 19 2 18 3 16 4 17 5 15 7 14 8 3 9 4 10 10 11 5 12 7 13
REMARK SMILES IDX 6 14 88 15 11 16 12 17 13 18 2 19 1 20 8 21 9 22 21 23 22 24
REMARK SMILES IDX 23 25 24 27 25 28 26 29 87 30 27 31 86 32 28 33 29 34 30 35
REMARK SMILES IDX 80 36 31 37 85 38 79 39 81 40 32 41 84 42 78 43 77 44 33 46
REMARK SMILES IDX 65 47 45 48 64 49 46 50 49 51 63 52 82 53 47 54 48 55 62 57
REMARK SMILES IDX 83 58 50 59 34 60 35 61 43 62 36 63 42 64 44 65 41 66 37 67
REMARK SMILES IDX 38 68 39 69 40 70 66 71 67 72 75 73 68 74 74 75 76 76 73 77
REMARK SMILES IDX 69 78 70 79 71 80 72 81 51 82 52 83 60 84 53 85 59 86 61 87
REMARK SMILES IDX 58 88 54 89 55 90 56 91 57 92
REMARK H PARENT 18 6 22 26 81 45 49 56
REMARK Flexibility Score: inf
ROOT
ATOM      1  C   UNL A   1      31.411  32.173  26.648  1.00  0.00     0.042 C 
ENDROOT
BRANCH   1   2
ATOM      2  C   UNL A   1      31.409  30.742  26.076  1.00  0.00     0.117 C 
BRANCH   2   3
ATOM      3  N   UNL A   1      31.403  29.676  27.079  1.00  0.00    -0.356 N 
ATOM      4  C   UNL A   1      31.831  28.378  27.054  1.00  0.00     0.220 C 
ATOM      5  O   UNL A   1      31.826  27.760  28.123  1.00  0.00    -0.275 OA
ATOM      6  H   UNL A   1      31.014  29.948  27.941  1.00  0.00     0.163 HD
BRANCH   4   7
ATOM      7  C   UNL A   1      32.275  27.671  25.771  1.00  0.00     0.104 C 
BRANCH   7   8
ATOM      8  C   UNL A   1      32.536  26.160  25.985  1.00  0.00     0.003 C 
ATOM      9  C   UNL A   1      35.522  22.244  25.735  1.00  0.00     0.122 A 
ATOM     10  C   UNL A   1      35.340  23.627  25.763  1.00  0.00     0.050 A 
ATOM     11  C   UNL A   1      34.422  21.401  25.617  1.00  0.00     0.093 A 
ATOM     12  C   UNL A   1      34.064  24.187  25.590  1.00  0.00    -0.037 A 
ATOM     13  C   UNL A   1      33.145  21.932  25.451  1.00  0.00     0.126 A 
ATOM     14  C   UNL A   1      32.958  23.329  25.380  1.00  0.00     0.000 A 
ATOM     15  C   UNL A   1      33.926  25.699  25.540  1.00  0.00     0.040 C 
ATOM     16  C   UNL A   1      31.608  23.900  25.042  1.00  0.00     0.020 C 
ATOM     17  C   UNL A   1      31.158  23.527  23.618  1.00  0.00     0.013 C 
ATOM     18  C   UNL A   1      31.488  25.407  25.198  1.00  0.00     0.012 C 
BRANCH   9  19
ATOM     19  O   UNL A   1      36.810  21.790  25.839  1.00  0.00    -0.497 OA
ATOM     20  C   UNL A   1      37.773  22.846  25.793  1.00  0.00     0.278 C 
ENDBRANCH   9  19
BRANCH  13  21
ATOM     21  O   UNL A   1      32.176  20.990  25.214  1.00  0.00    -0.496 OA
ATOM     22  C   UNL A   1      32.512  19.963  24.283  1.00  0.00     0.278 C 
ENDBRANCH  13  21
ENDBRANCH   7   8
ENDBRANCH   4   7
ENDBRANCH   2   3
ENDBRANCH   1   2
BRANCH   1  23
ATOM     23  C   UNL A   1      32.746  32.661  27.201  1.00  0.00     0.118 C 
BRANCH  23  24
ATOM     24  N   UNL A   1      32.665  34.056  27.590  1.00  0.00    -0.352 N 
ATOM     25  C   UNL A   1      33.192  34.719  28.674  1.00  0.00     0.251 C 
ATOM     26  H   UNL A   1      32.145  34.623  26.976  1.00  0.00     0.163 HD
ATOM     27  O   UNL A   1      32.690  35.802  28.977  1.00  0.00    -0.269 OA
BRANCH  25  28
ATOM     28  C   UNL A   1      34.326  34.187  29.480  1.00  0.00     0.039 A 
ATOM     29  C   UNL A   1      35.630  34.391  29.004  1.00  0.00     0.014 A 
ATOM     30  C   UNL A   1      34.145  33.390  30.613  1.00  0.00     0.014 A 
ATOM     31  C   UNL A   1      36.730  33.820  29.661  1.00  0.00     0.010 A 
ATOM     32  C   UNL A   1      35.249  32.881  31.312  1.00  0.00     0.010 A 
ATOM     33  C   UNL A   1      36.555  33.069  30.832  1.00  0.00    -0.014 A 
BRANCH  33  34
ATOM     34  C   UNL A   1      37.716  32.432  31.526  1.00  0.00     0.031 A 
ATOM     35  C   UNL A   1      38.456  31.287  30.876  1.00  0.00     0.074 A 
ATOM     36  C   UNL A   1      38.095  32.856  32.750  1.00  0.00     0.049 A 
ATOM     37  N   UNL A   1      39.433  30.553  31.348  1.00  0.00    -0.248 NA
ATOM     38  C   UNL A   1      38.023  30.903  29.524  1.00  0.00     0.031 C 
ATOM     39  C   UNL A   1      37.461  33.943  33.500  1.00  0.00     0.029 A 
ATOM     40  N   UNL A   1      39.100  32.425  33.582  1.00  0.00    -0.354 N 
ATOM     41  C   UNL A   1      39.721  29.614  30.362  1.00  0.00     0.074 A 
ATOM     42  C   UNL A   1      38.777  29.839  29.287  1.00  0.00     0.031 C 
ATOM     43  C   UNL A   1      38.102  34.102  34.669  1.00  0.00     0.029 A 
ATOM     44  C   UNL A   1      39.162  33.104  34.778  1.00  0.00     0.049 A 
ATOM     45  H   UNL A   1      39.718  31.696  33.345  1.00  0.00     0.167 HD
ATOM     46  C   UNL A   1      40.694  28.668  30.338  1.00  0.00     0.034 A 
ATOM     47  C   UNL A   1      39.967  32.935  35.847  1.00  0.00     0.034 A 
ATOM     48  C   UNL A   1      41.649  28.463  31.402  1.00  0.00     0.049 A 
ATOM     49  C   UNL A   1      41.024  31.858  35.809  1.00  0.00     0.074 A 
ATOM     50  C   UNL A   1      42.696  27.558  31.458  1.00  0.00     0.029 A 
ATOM     51  N   UNL A   1      41.678  29.174  32.593  1.00  0.00    -0.354 N 
ATOM     52  N   UNL A   1      41.295  30.999  34.853  1.00  0.00    -0.248 NA
ATOM     53  C   UNL A   1      41.891  31.735  36.989  1.00  0.00     0.031 C 
ATOM     54  C   UNL A   1      43.319  27.680  32.704  1.00  0.00     0.029 A 
ATOM     55  C   UNL A   1      42.708  28.711  33.399  1.00  0.00     0.049 A 
ATOM     56  H   UNL A   1      41.057  29.900  32.833  1.00  0.00     0.167 HD
ATOM     57  C   UNL A   1      42.386  30.261  35.306  1.00  0.00     0.074 A 
ATOM     58  C   UNL A   1      42.733  30.785  36.610  1.00  0.00     0.031 C 
ATOM     59  C   UNL A   1      43.045  29.241  34.698  1.00  0.00     0.034 A 
BRANCH  46  60
ATOM     60  C   UNL A   1      40.763  27.765  29.129  1.00  0.00     0.023 A 
ATOM     61  C   UNL A   1      41.686  27.989  28.093  1.00  0.00     0.031 A 
ATOM     62  C   UNL A   1      39.893  26.666  29.008  1.00  0.00     0.131 A 
ATOM     63  C   UNL A   1      41.675  27.168  26.954  1.00  0.00     0.055 A 
ATOM     64  C   UNL A   1      39.939  25.807  27.908  1.00  0.00     0.041 A 
ATOM     65  F   UNL A   1      38.978  26.412  29.956  1.00  0.00    -0.206 F 
ATOM     66  C   UNL A   1      40.826  26.064  26.866  1.00  0.00     0.022 A 
BRANCH  63  67
ATOM     67  S   UNL A   1      42.704  27.639  25.537  1.00  0.00     0.124 S 
ATOM     68  O   UNL A   1      41.981  28.800  25.022  1.00  0.00    -0.237 OA
ATOM     69  O   UNL A   1      43.993  27.913  26.158  1.00  0.00    -0.237 OA
ATOM     70  O   UNL A   1      42.663  26.457  24.676  1.00  0.00    -0.744 OA
ENDBRANCH  63  67
ENDBRANCH  46  60
BRANCH  47  71
ATOM     71  C   UNL A   1      39.806  33.785  37.064  1.00  0.00     0.023 A 
ATOM     72  C   UNL A   1      40.647  34.884  37.297  1.00  0.00     0.031 A 
ATOM     73  C   UNL A   1      38.853  33.466  38.049  1.00  0.00     0.131 A 
ATOM     74  C   UNL A   1      40.564  35.588  38.509  1.00  0.00     0.055 A 
ATOM     75  C   UNL A   1      38.732  34.207  39.227  1.00  0.00     0.041 A 
ATOM     76  F   UNL A   1      38.020  32.427  37.878  1.00  0.00    -0.206 F 
ATOM     77  C   UNL A   1      39.603  35.266  39.469  1.00  0.00     0.022 A 
BRANCH  74  78
ATOM     78  S   UNL A   1      41.805  36.864  38.859  1.00  0.00     0.124 S 
ATOM     79  O   UNL A   1      40.983  37.933  39.415  1.00  0.00    -0.237 OA
ATOM     80  O   UNL A   1      42.685  36.176  39.799  1.00  0.00    -0.237 OA
ATOM     81  O   UNL A   1      42.388  37.141  37.548  1.00  0.00    -0.744 OA
ENDBRANCH  74  78
ENDBRANCH  47  71
BRANCH  59  82
ATOM     82  C   UNL A   1      44.241  28.668  35.418  1.00  0.00     0.023 A 
ATOM     83  C   UNL A   1      44.115  27.622  36.350  1.00  0.00     0.031 A 
ATOM     84  C   UNL A   1      45.525  29.189  35.179  1.00  0.00     0.131 A 
ATOM     85  C   UNL A   1      45.243  27.169  37.050  1.00  0.00     0.055 A 
ATOM     86  C   UNL A   1      46.653  28.695  35.836  1.00  0.00     0.041 A 
ATOM     87  F   UNL A   1      45.704  30.188  34.300  1.00  0.00    -0.206 F 
ATOM     88  C   UNL A   1      46.513  27.689  36.787  1.00  0.00     0.022 A 
BRANCH  85  89
ATOM     89  S   UNL A   1      45.017  25.951  38.375  1.00  0.00     0.124 S 
ATOM     90  O   UNL A   1      44.819  24.716  37.622  1.00  0.00    -0.237 OA
ATOM     91  O   UNL A   1      46.271  26.055  39.112  1.00  0.00    -0.237 OA
ATOM     92  O   UNL A   1      43.837  26.437  39.090  1.00  0.00    -0.744 OA
ENDBRANCH  85  89
ENDBRANCH  59  82
ENDBRANCH  33  34
ENDBRANCH  25  28
ENDBRANCH  23  24
ENDBRANCH   1  23
TORSDOF 16
ENDMDL
