MODEL 1
REMARK VINA RESULT:     -13.1      0.000      0.000
REMARK SMILES Cc1ccc(OCC(=O)NNC(=O)[C@H]2CCCC[C@@H]2C(=O)NCCCNC(=O)c2ccc(-c3c4nc(c(-c5cc(S(=O)(=O)[O-])ccc5F)c5ccc([nH]5)c(-c5cc(S(=O)(=O)[O-])ccc5F)c5nc(c(-c6cc(S(=O)(=O)[O-])ccc6F)c6ccc3[nH]6)C=C5)C=C4)cc2)cc1
REMARK SMILES IDX 23 1 22 2 20 3 21 4 19 6 14 7 15 8 16 9 18 10 17 11 12 12
REMARK SMILES IDX 11 13 13 15 10 16 8 17 9 18 7 20 6 21 5 22 1 23 2 24 3 25
REMARK SMILES IDX 93 26 4 27 92 28 24 29 25 30 26 31 27 32 28 34 29 35 30 36
REMARK SMILES IDX 91 37 31 38 90 39 32 40 33 41 34 42 84 43 35 44 89 45 83 46
REMARK SMILES IDX 85 47 36 48 88 49 82 50 81 51 37 53 69 54 49 55 68 56 50 57
REMARK SMILES IDX 53 58 67 59 86 60 51 61 52 62 66 64 87 65 54 66 38 67 39 68
REMARK SMILES IDX 47 69 40 70 46 71 48 72 45 73 41 74 42 75 43 76 44 77 70 78
REMARK SMILES IDX 71 79 79 80 72 81 78 82 80 83 77 84 73 85 74 86 75 87 76 88
REMARK SMILES IDX 55 89 56 90 64 91 57 92 63 93 65 94 62 95 58 96 59 97 60 98
REMARK SMILES IDX 61 99
REMARK H PARENT 22 5 11 14 10 19 26 33 85 52 53 63
REMARK Flexibility Score: inf
ROOT
ATOM      1  C   UNL A   1      32.372  30.227  26.233  1.00  0.00     0.117 C 
ENDROOT
BRANCH   1   2
ATOM      2  N   UNL A   1      31.981  28.990  26.897  1.00  0.00    -0.356 N 
ATOM      3  C   UNL A   1      31.451  27.821  26.489  1.00  0.00     0.223 C 
ATOM      4  O   UNL A   1      31.278  26.960  27.368  1.00  0.00    -0.275 OA
ATOM      5  H   UNL A   1      32.142  29.013  27.868  1.00  0.00     0.163 HD
BRANCH   3   6
ATOM      6  C   UNL A   1      31.035  27.446  25.063  1.00  0.00     0.091 C 
ATOM      7  C   UNL A   1      31.978  26.325  24.568  1.00  0.00     0.092 C 
ATOM      8  C   UNL A   1      33.212  26.929  23.883  1.00  0.00     0.014 C 
ATOM      9  C   UNL A   1      32.865  27.842  22.713  1.00  0.00     0.001 C 
ATOM     10  C   UNL A   1      30.710  28.459  23.969  1.00  0.00     0.014 C 
ATOM     11  C   UNL A   1      31.852  28.918  23.065  1.00  0.00     0.001 C 
BRANCH   7  12
ATOM     12  C   UNL A   1      31.252  25.312  23.678  1.00  0.00     0.242 C 
ATOM     13  N   UNL A   1      30.419  24.380  24.238  1.00  0.00    -0.267 N 
ATOM     14  H   UNL A   1      29.921  23.798  23.618  1.00  0.00     0.191 HD
ATOM     15  O   UNL A   1      31.393  25.266  22.454  1.00  0.00    -0.273 OA
BRANCH  13  16
ATOM     16  N   UNL A   1      30.209  24.179  25.596  1.00  0.00    -0.265 N 
ATOM     17  C   UNL A   1      30.791  23.146  26.298  1.00  0.00     0.276 C 
ATOM     18  O   UNL A   1      30.678  23.076  27.522  1.00  0.00    -0.269 OA
ATOM     19  H   UNL A   1      29.619  24.802  26.079  1.00  0.00     0.191 HD
BRANCH  17  20
ATOM     20  C   UNL A   1      31.634  22.120  25.527  1.00  0.00     0.331 C 
BRANCH  20  21
ATOM     21  O   UNL A   1      32.597  22.650  24.629  1.00  0.00    -0.484 OA
BRANCH  21  22
ATOM     22  C   UNL A   1      33.918  22.518  24.962  1.00  0.00     0.120 A 
ATOM     23  C   UNL A   1      38.125  22.543  25.942  1.00  0.00     0.044 C 
ATOM     24  C   UNL A   1      36.664  22.533  25.608  1.00  0.00    -0.051 A 
ATOM     25  C   UNL A   1      35.980  23.733  25.391  1.00  0.00     0.007 A 
ATOM     26  C   UNL A   1      35.958  21.329  25.511  1.00  0.00     0.007 A 
ATOM     27  C   UNL A   1      34.619  23.722  25.067  1.00  0.00     0.047 A 
ATOM     28  C   UNL A   1      34.596  21.322  25.191  1.00  0.00     0.047 A 
ENDBRANCH  21  22
ENDBRANCH  20  21
ENDBRANCH  17  20
ENDBRANCH  13  16
ENDBRANCH   7  12
ENDBRANCH   3   6
ENDBRANCH   1   2
BRANCH   1  29
ATOM     29  C   UNL A   1      33.094  31.183  27.184  1.00  0.00     0.042 C 
BRANCH  29  30
ATOM     30  C   UNL A   1      34.329  30.557  27.815  1.00  0.00     0.118 C 
BRANCH  30  31
ATOM     31  N   UNL A   1      35.063  31.411  28.746  1.00  0.00    -0.352 N 
ATOM     32  C   UNL A   1      36.202  31.096  29.475  1.00  0.00     0.251 C 
ATOM     33  H   UNL A   1      34.706  32.320  28.873  1.00  0.00     0.163 HD
ATOM     34  O   UNL A   1      36.687  31.866  30.290  1.00  0.00    -0.269 OA
BRANCH  32  35
ATOM     35  C   UNL A   1      36.900  29.831  29.142  1.00  0.00     0.039 A 
ATOM     36  C   UNL A   1      37.168  28.956  30.200  1.00  0.00     0.014 A 
ATOM     37  C   UNL A   1      37.572  29.716  27.930  1.00  0.00     0.014 A 
ATOM     38  C   UNL A   1      38.296  28.144  30.135  1.00  0.00     0.010 A 
ATOM     39  C   UNL A   1      38.757  29.007  27.916  1.00  0.00     0.010 A 
ATOM     40  C   UNL A   1      39.154  28.275  29.042  1.00  0.00    -0.014 A 
BRANCH  40  41
ATOM     41  C   UNL A   1      40.537  27.803  29.056  1.00  0.00     0.031 A 
ATOM     42  C   UNL A   1      40.872  26.447  28.578  1.00  0.00     0.074 A 
ATOM     43  C   UNL A   1      41.540  28.618  29.456  1.00  0.00     0.049 A 
ATOM     44  N   UNL A   1      41.918  25.790  28.951  1.00  0.00    -0.248 NA
ATOM     45  C   UNL A   1      40.024  25.705  27.650  1.00  0.00     0.031 C 
ATOM     46  C   UNL A   1      42.978  28.391  29.321  1.00  0.00     0.029 A 
ATOM     47  N   UNL A   1      41.444  29.719  30.306  1.00  0.00    -0.354 N 
ATOM     48  C   UNL A   1      42.029  24.694  28.136  1.00  0.00     0.074 A 
ATOM     49  C   UNL A   1      40.806  24.660  27.367  1.00  0.00     0.031 C 
ATOM     50  C   UNL A   1      43.618  29.106  30.257  1.00  0.00     0.029 A 
ATOM     51  C   UNL A   1      42.612  29.721  31.101  1.00  0.00     0.049 A 
ATOM     52  H   UNL A   1      40.707  30.370  30.346  1.00  0.00     0.167 HD
ATOM     53  C   UNL A   1      43.187  23.980  28.104  1.00  0.00     0.034 A 
ATOM     54  C   UNL A   1      42.523  29.608  32.458  1.00  0.00     0.034 A 
ATOM     55  C   UNL A   1      44.187  24.492  29.033  1.00  0.00     0.049 A 
ATOM     56  C   UNL A   1      43.150  28.339  33.010  1.00  0.00     0.074 A 
ATOM     57  C   UNL A   1      45.321  25.279  28.918  1.00  0.00     0.029 A 
ATOM     58  N   UNL A   1      43.914  24.423  30.388  1.00  0.00    -0.354 N 
ATOM     59  N   UNL A   1      43.779  27.446  32.293  1.00  0.00    -0.248 NA
ATOM     60  C   UNL A   1      43.032  27.935  34.412  1.00  0.00     0.031 C 
ATOM     61  C   UNL A   1      45.703  25.702  30.228  1.00  0.00     0.029 A 
ATOM     62  C   UNL A   1      44.820  25.150  31.135  1.00  0.00     0.049 A 
ATOM     63  H   UNL A   1      43.163  23.915  30.772  1.00  0.00     0.167 HD
ATOM     64  C   UNL A   1      44.068  26.353  33.071  1.00  0.00     0.074 A 
ATOM     65  C   UNL A   1      43.589  26.712  34.394  1.00  0.00     0.031 C 
ATOM     66  C   UNL A   1      44.629  25.208  32.576  1.00  0.00     0.034 A 
BRANCH  53  67
ATOM     67  C   UNL A   1      43.455  22.957  27.038  1.00  0.00     0.023 A 
ATOM     68  C   UNL A   1      42.851  21.690  27.119  1.00  0.00     0.031 A 
ATOM     69  C   UNL A   1      44.322  23.162  25.947  1.00  0.00     0.131 A 
ATOM     70  C   UNL A   1      43.189  20.670  26.213  1.00  0.00     0.055 A 
ATOM     71  C   UNL A   1      44.715  22.129  25.091  1.00  0.00     0.041 A 
ATOM     72  F   UNL A   1      44.805  24.383  25.663  1.00  0.00    -0.206 F 
ATOM     73  C   UNL A   1      44.157  20.867  25.230  1.00  0.00     0.022 A 
BRANCH  70  74
ATOM     74  S   UNL A   1      42.331  19.077  26.328  1.00  0.00     0.124 S 
ATOM     75  O   UNL A   1      42.398  18.788  27.756  1.00  0.00    -0.237 OA
ATOM     76  O   UNL A   1      41.011  19.404  25.797  1.00  0.00    -0.237 OA
ATOM     77  O   UNL A   1      43.135  18.198  25.482  1.00  0.00    -0.744 OA
ENDBRANCH  70  74
ENDBRANCH  53  67
BRANCH  54  78
ATOM     78  C   UNL A   1      41.329  30.329  32.999  1.00  0.00     0.023 A 
ATOM     79  C   UNL A   1      41.396  31.743  32.998  1.00  0.00     0.031 A 
ATOM     80  C   UNL A   1      40.065  29.735  33.086  1.00  0.00     0.131 A 
ATOM     81  C   UNL A   1      40.227  32.505  32.873  1.00  0.00     0.055 A 
ATOM     82  C   UNL A   1      38.898  30.508  33.060  1.00  0.00     0.041 A 
ATOM     83  F   UNL A   1      39.929  28.401  33.054  1.00  0.00    -0.206 F 
ATOM     84  C   UNL A   1      38.973  31.893  32.896  1.00  0.00     0.022 A 
BRANCH  81  85
ATOM     85  S   UNL A   1      40.364  34.248  32.363  1.00  0.00     0.124 S 
ATOM     86  O   UNL A   1      38.986  34.579  32.023  1.00  0.00    -0.237 OA
ATOM     87  O   UNL A   1      40.903  34.902  33.553  1.00  0.00    -0.237 OA
ATOM     88  O   UNL A   1      41.303  34.201  31.243  1.00  0.00    -0.744 OA
ENDBRANCH  81  85
ENDBRANCH  54  78
BRANCH  66  89
ATOM     89  C   UNL A   1      44.994  24.021  33.437  1.00  0.00     0.023 A 
ATOM     90  C   UNL A   1      46.329  23.701  33.725  1.00  0.00     0.031 A 
ATOM     91  C   UNL A   1      44.021  23.125  33.937  1.00  0.00     0.131 A 
ATOM     92  C   UNL A   1      46.649  22.608  34.550  1.00  0.00     0.055 A 
ATOM     93  C   UNL A   1      44.346  21.990  34.684  1.00  0.00     0.041 A 
ATOM     94  F   UNL A   1      42.708  23.329  33.756  1.00  0.00    -0.206 F 
ATOM     95  C   UNL A   1      45.667  21.734  35.012  1.00  0.00     0.022 A 
BRANCH  92  96
ATOM     96  S   UNL A   1      48.368  22.403  35.080  1.00  0.00     0.124 S 
ATOM     97  O   UNL A   1      48.995  23.632  34.607  1.00  0.00    -0.237 OA
ATOM     98  O   UNL A   1      48.216  22.284  36.529  1.00  0.00    -0.237 OA
ATOM     99  O   UNL A   1      48.796  21.182  34.400  1.00  0.00    -0.744 OA
ENDBRANCH  92  96
ENDBRANCH  66  89
ENDBRANCH  40  41
ENDBRANCH  32  35
ENDBRANCH  30  31
ENDBRANCH  29  30
ENDBRANCH   1  29
TORSDOF 18
ENDMDL
MODEL 2
REMARK VINA RESULT:     -13.0      3.982     10.452
REMARK SMILES Cc1ccc(OCC(=O)NNC(=O)[C@H]2CCCC[C@@H]2C(=O)NCCCNC(=O)c2ccc(-c3c4nc(c(-c5cc(S(=O)(=O)[O-])ccc5F)c5ccc([nH]5)c(-c5cc(S(=O)(=O)[O-])ccc5F)c5nc(c(-c6cc(S(=O)(=O)[O-])ccc6F)c6ccc3[nH]6)C=C5)C=C4)cc2)cc1
REMARK SMILES IDX 23 1 22 2 20 3 21 4 19 6 14 7 15 8 16 9 18 10 17 11 12 12
REMARK SMILES IDX 11 13 13 15 10 16 8 17 9 18 7 20 6 21 5 22 1 23 2 24 3 25
REMARK SMILES IDX 93 26 4 27 92 28 24 29 25 30 26 31 27 32 28 34 29 35 30 36
REMARK SMILES IDX 91 37 31 38 90 39 32 40 33 41 34 42 84 43 35 44 89 45 83 46
REMARK SMILES IDX 85 47 36 48 88 49 82 50 81 51 37 53 69 54 49 55 68 56 50 57
REMARK SMILES IDX 53 58 67 59 86 60 51 61 52 62 66 64 87 65 54 66 38 67 39 68
REMARK SMILES IDX 47 69 40 70 46 71 48 72 45 73 41 74 42 75 43 76 44 77 70 78
REMARK SMILES IDX 71 79 79 80 72 81 78 82 80 83 77 84 73 85 74 86 75 87 76 88
REMARK SMILES IDX 55 89 56 90 64 91 57 92 63 93 65 94 62 95 58 96 59 97 60 98
REMARK SMILES IDX 61 99
REMARK H PARENT 22 5 11 14 10 19 26 33 85 52 53 63
REMARK Flexibility Score: inf
ROOT
ATOM      1  C   UNL A   1      37.722  23.115  25.777  1.00  0.00     0.117 C 
ENDROOT
BRANCH   1   2
ATOM      2  N   UNL A   1      37.432  23.142  24.350  1.00  0.00    -0.356 N 
ATOM      3  C   UNL A   1      36.361  22.834  23.593  1.00  0.00     0.223 C 
ATOM      4  O   UNL A   1      36.481  23.019  22.370  1.00  0.00    -0.275 OA
ATOM      5  H   UNL A   1      38.195  23.459  23.813  1.00  0.00     0.163 HD
BRANCH   3   6
ATOM      6  C   UNL A   1      35.020  22.275  24.080  1.00  0.00     0.091 C 
ATOM      7  C   UNL A   1      34.100  23.469  24.425  1.00  0.00     0.092 C 
ATOM      8  C   UNL A   1      34.285  23.879  25.893  1.00  0.00     0.014 C 
ATOM      9  C   UNL A   1      34.018  22.744  26.874  1.00  0.00     0.001 C 
ATOM     10  C   UNL A   1      34.878  21.125  25.073  1.00  0.00     0.014 C 
ATOM     11  C   UNL A   1      34.792  21.475  26.557  1.00  0.00     0.001 C 
BRANCH   7  12
ATOM     12  C   UNL A   1      32.636  23.189  24.076  1.00  0.00     0.242 C 
ATOM     13  N   UNL A   1      32.152  23.512  22.837  1.00  0.00    -0.267 N 
ATOM     14  H   UNL A   1      31.224  23.247  22.637  1.00  0.00     0.191 HD
ATOM     15  O   UNL A   1      31.834  22.698  24.875  1.00  0.00    -0.273 OA
BRANCH  13  16
ATOM     16  N   UNL A   1      32.846  24.176  21.833  1.00  0.00    -0.265 N 
ATOM     17  C   UNL A   1      32.570  25.475  21.467  1.00  0.00     0.276 C 
ATOM     18  O   UNL A   1      33.289  26.067  20.660  1.00  0.00    -0.269 OA
ATOM     19  H   UNL A   1      33.567  23.698  21.363  1.00  0.00     0.191 HD
BRANCH  17  20
ATOM     20  C   UNL A   1      31.384  26.188  22.133  1.00  0.00     0.331 C 
BRANCH  20  21
ATOM     21  O   UNL A   1      31.317  26.101  23.548  1.00  0.00    -0.484 OA
BRANCH  21  22
ATOM     22  C   UNL A   1      32.119  26.939  24.276  1.00  0.00     0.120 A 
ATOM     23  C   UNL A   1      34.529  29.345  26.933  1.00  0.00     0.044 C 
ATOM     24  C   UNL A   1      33.698  28.508  26.008  1.00  0.00    -0.051 A 
ATOM     25  C   UNL A   1      33.070  27.350  26.476  1.00  0.00     0.007 A 
ATOM     26  C   UNL A   1      33.539  28.865  24.665  1.00  0.00     0.007 A 
ATOM     27  C   UNL A   1      32.284  26.576  25.615  1.00  0.00     0.047 A 
ATOM     28  C   UNL A   1      32.756  28.086  23.806  1.00  0.00     0.047 A 
ENDBRANCH  21  22
ENDBRANCH  20  21
ENDBRANCH  17  20
ENDBRANCH  13  16
ENDBRANCH   7  12
ENDBRANCH   3   6
ENDBRANCH   1   2
BRANCH   1  29
ATOM     29  C   UNL A   1      38.850  22.139  26.114  1.00  0.00     0.042 C 
BRANCH  29  30
ATOM     30  C   UNL A   1      39.798  22.683  27.172  1.00  0.00     0.118 C 
BRANCH  30  31
ATOM     31  N   UNL A   1      41.112  23.099  26.689  1.00  0.00    -0.352 N 
ATOM     32  C   UNL A   1      41.545  24.385  26.394  1.00  0.00     0.251 C 
ATOM     33  H   UNL A   1      41.771  22.380  26.555  1.00  0.00     0.163 HD
ATOM     34  O   UNL A   1      42.647  24.608  25.915  1.00  0.00    -0.269 OA
BRANCH  32  35
ATOM     35  C   UNL A   1      40.669  25.511  26.797  1.00  0.00     0.039 A 
ATOM     36  C   UNL A   1      40.841  26.724  26.121  1.00  0.00     0.014 A 
ATOM     37  C   UNL A   1      40.001  25.459  28.016  1.00  0.00     0.014 A 
ATOM     38  C   UNL A   1      40.586  27.914  26.796  1.00  0.00     0.010 A 
ATOM     39  C   UNL A   1      39.868  26.635  28.727  1.00  0.00     0.010 A 
ATOM     40  C   UNL A   1      40.224  27.858  28.142  1.00  0.00    -0.014 A 
BRANCH  40  41
ATOM     41  C   UNL A   1      40.333  29.002  29.044  1.00  0.00     0.031 A 
ATOM     42  C   UNL A   1      39.248  29.999  29.126  1.00  0.00     0.074 A 
ATOM     43  C   UNL A   1      41.406  29.140  29.857  1.00  0.00     0.049 A 
ATOM     44  N   UNL A   1      39.418  31.219  29.510  1.00  0.00    -0.248 NA
ATOM     45  C   UNL A   1      37.870  29.700  28.746  1.00  0.00     0.031 C 
ATOM     46  C   UNL A   1      41.568  30.083  30.963  1.00  0.00     0.029 A 
ATOM     47  N   UNL A   1      42.680  28.605  29.671  1.00  0.00    -0.354 N 
ATOM     48  C   UNL A   1      38.177  31.773  29.690  1.00  0.00     0.074 A 
ATOM     49  C   UNL A   1      37.244  30.802  29.164  1.00  0.00     0.031 C 
ATOM     50  C   UNL A   1      42.877  30.285  31.169  1.00  0.00     0.029 A 
ATOM     51  C   UNL A   1      43.598  29.576  30.130  1.00  0.00     0.049 A 
ATOM     52  H   UNL A   1      42.899  27.723  29.294  1.00  0.00     0.167 HD
ATOM     53  C   UNL A   1      38.043  32.946  30.366  1.00  0.00     0.034 A 
ATOM     54  C   UNL A   1      44.514  30.117  29.275  1.00  0.00     0.034 A 
ATOM     55  C   UNL A   1      39.324  33.500  30.787  1.00  0.00     0.049 A 
ATOM     56  C   UNL A   1      44.330  31.607  29.041  1.00  0.00     0.074 A 
ATOM     57  C   UNL A   1      40.032  33.540  31.977  1.00  0.00     0.029 A 
ATOM     58  N   UNL A   1      40.213  33.902  29.806  1.00  0.00    -0.354 N 
ATOM     59  N   UNL A   1      43.429  32.347  29.631  1.00  0.00    -0.248 NA
ATOM     60  C   UNL A   1      45.094  32.359  28.045  1.00  0.00     0.031 C 
ATOM     61  C   UNL A   1      41.370  33.945  31.684  1.00  0.00     0.029 A 
ATOM     62  C   UNL A   1      41.463  34.178  30.325  1.00  0.00     0.049 A 
ATOM     63  H   UNL A   1      39.982  33.982  28.853  1.00  0.00     0.167 HD
ATOM     64  C   UNL A   1      43.425  33.600  29.069  1.00  0.00     0.074 A 
ATOM     65  C   UNL A   1      44.494  33.560  28.086  1.00  0.00     0.031 C 
ATOM     66  C   UNL A   1      42.518  34.567  29.402  1.00  0.00     0.034 A 
BRANCH  53  67
ATOM     67  C   UNL A   1      36.703  33.442  30.828  1.00  0.00     0.023 A 
ATOM     68  C   UNL A   1      35.835  34.063  29.914  1.00  0.00     0.031 A 
ATOM     69  C   UNL A   1      36.250  33.363  32.160  1.00  0.00     0.131 A 
ATOM     70  C   UNL A   1      34.636  34.657  30.346  1.00  0.00     0.055 A 
ATOM     71  C   UNL A   1      35.096  34.017  32.603  1.00  0.00     0.041 A 
ATOM     72  F   UNL A   1      36.904  32.630  33.075  1.00  0.00    -0.206 F 
ATOM     73  C   UNL A   1      34.286  34.682  31.694  1.00  0.00     0.022 A 
BRANCH  70  74
ATOM     74  S   UNL A   1      33.527  35.387  29.111  1.00  0.00     0.124 S 
ATOM     75  O   UNL A   1      32.934  36.500  29.844  1.00  0.00    -0.237 OA
ATOM     76  O   UNL A   1      34.453  35.739  28.040  1.00  0.00    -0.237 OA
ATOM     77  O   UNL A   1      32.607  34.295  28.797  1.00  0.00    -0.744 OA
ENDBRANCH  70  74
ENDBRANCH  53  67
BRANCH  54  78
ATOM     78  C   UNL A   1      45.022  29.109  28.294  1.00  0.00     0.023 A 
ATOM     79  C   UNL A   1      45.924  28.141  28.796  1.00  0.00     0.031 A 
ATOM     80  C   UNL A   1      44.358  28.823  27.095  1.00  0.00     0.131 A 
ATOM     81  C   UNL A   1      45.979  26.863  28.225  1.00  0.00     0.055 A 
ATOM     82  C   UNL A   1      44.492  27.575  26.473  1.00  0.00     0.041 A 
ATOM     83  F   UNL A   1      43.462  29.680  26.584  1.00  0.00    -0.206 F 
ATOM     84  C   UNL A   1      45.260  26.571  27.066  1.00  0.00     0.022 A 
BRANCH  81  85
ATOM     85  S   UNL A   1      46.736  25.506  29.176  1.00  0.00     0.124 S 
ATOM     86  O   UNL A   1      45.938  24.359  28.763  1.00  0.00    -0.237 OA
ATOM     87  O   UNL A   1      48.125  25.516  28.723  1.00  0.00    -0.237 OA
ATOM     88  O   UNL A   1      46.569  25.932  30.565  1.00  0.00    -0.744 OA
ENDBRANCH  81  85
ENDBRANCH  54  78
BRANCH  66  89
ATOM     89  C   UNL A   1      42.540  35.962  28.821  1.00  0.00     0.023 A 
ATOM     90  C   UNL A   1      43.005  37.061  29.560  1.00  0.00     0.031 A 
ATOM     91  C   UNL A   1      42.025  36.253  27.537  1.00  0.00     0.131 A 
ATOM     92  C   UNL A   1      43.042  38.348  28.994  1.00  0.00     0.055 A 
ATOM     93  C   UNL A   1      41.983  37.546  27.010  1.00  0.00     0.041 A 
ATOM     94  F   UNL A   1      41.574  35.291  26.718  1.00  0.00    -0.206 F 
ATOM     95  C   UNL A   1      42.511  38.604  27.732  1.00  0.00     0.022 A 
BRANCH  92  96
ATOM     96  S   UNL A   1      43.882  39.667  29.909  1.00  0.00     0.124 S 
ATOM     97  O   UNL A   1      44.629  40.353  28.861  1.00  0.00    -0.237 OA
ATOM     98  O   UNL A   1      42.751  40.402  30.470  1.00  0.00    -0.237 OA
ATOM     99  O   UNL A   1      44.696  38.944  30.884  1.00  0.00    -0.744 OA
ENDBRANCH  92  96
ENDBRANCH  66  89
ENDBRANCH  40  41
ENDBRANCH  32  35
ENDBRANCH  30  31
ENDBRANCH  29  30
ENDBRANCH   1  29
TORSDOF 18
ENDMDL
MODEL 3
REMARK VINA RESULT:     -12.6      3.949     10.548
REMARK SMILES Cc1ccc(OCC(=O)NNC(=O)[C@H]2CCCC[C@@H]2C(=O)NCCCNC(=O)c2ccc(-c3c4nc(c(-c5cc(S(=O)(=O)[O-])ccc5F)c5ccc([nH]5)c(-c5cc(S(=O)(=O)[O-])ccc5F)c5nc(c(-c6cc(S(=O)(=O)[O-])ccc6F)c6ccc3[nH]6)C=C5)C=C4)cc2)cc1
REMARK SMILES IDX 23 1 22 2 20 3 21 4 19 6 14 7 15 8 16 9 18 10 17 11 12 12
REMARK SMILES IDX 11 13 13 15 10 16 8 17 9 18 7 20 6 21 5 22 1 23 2 24 3 25
REMARK SMILES IDX 93 26 4 27 92 28 24 29 25 30 26 31 27 32 28 34 29 35 30 36
REMARK SMILES IDX 91 37 31 38 90 39 32 40 33 41 34 42 84 43 35 44 89 45 83 46
REMARK SMILES IDX 85 47 36 48 88 49 82 50 81 51 37 53 69 54 49 55 68 56 50 57
REMARK SMILES IDX 53 58 67 59 86 60 51 61 52 62 66 64 87 65 54 66 38 67 39 68
REMARK SMILES IDX 47 69 40 70 46 71 48 72 45 73 41 74 42 75 43 76 44 77 70 78
REMARK SMILES IDX 71 79 79 80 72 81 78 82 80 83 77 84 73 85 74 86 75 87 76 88
REMARK SMILES IDX 55 89 56 90 64 91 57 92 63 93 65 94 62 95 58 96 59 97 60 98
REMARK SMILES IDX 61 99
REMARK H PARENT 22 5 11 14 10 19 26 33 85 52 53 63
REMARK Flexibility Score: inf
ROOT
ATOM      1  C   UNL A   1      36.938  21.423  25.201  1.00  0.00     0.117 C 
ENDROOT
BRANCH   1   2
ATOM      2  N   UNL A   1      36.169  22.021  26.284  1.00  0.00    -0.356 N 
ATOM      3  C   UNL A   1      35.347  23.083  26.390  1.00  0.00     0.223 C 
ATOM      4  O   UNL A   1      34.833  23.270  27.506  1.00  0.00    -0.275 OA
ATOM      5  H   UNL A   1      36.272  21.537  27.135  1.00  0.00     0.163 HD
BRANCH   3   6
ATOM      6  C   UNL A   1      34.987  24.082  25.286  1.00  0.00     0.091 C 
ATOM      7  C   UNL A   1      33.533  24.551  25.520  1.00  0.00     0.092 C 
ATOM      8  C   UNL A   1      32.550  23.627  24.788  1.00  0.00     0.014 C 
ATOM      9  C   UNL A   1      32.810  23.536  23.288  1.00  0.00     0.001 C 
ATOM     10  C   UNL A   1      35.304  23.880  23.807  1.00  0.00     0.014 C 
ATOM     11  C   UNL A   1      34.249  23.190  22.944  1.00  0.00     0.001 C 
BRANCH   7  12
ATOM     12  C   UNL A   1      33.335  26.024  25.151  1.00  0.00     0.242 C 
ATOM     13  N   UNL A   1      32.270  26.721  25.657  1.00  0.00    -0.267 N 
ATOM     14  H   UNL A   1      32.226  27.682  25.448  1.00  0.00     0.191 HD
ATOM     15  O   UNL A   1      34.083  26.634  24.384  1.00  0.00    -0.273 OA
BRANCH  13  16
ATOM     16  N   UNL A   1      31.246  26.200  26.439  1.00  0.00    -0.265 N 
ATOM     17  C   UNL A   1      30.061  25.740  25.910  1.00  0.00     0.276 C 
ATOM     18  O   UNL A   1      29.232  25.173  26.623  1.00  0.00    -0.269 OA
ATOM     19  H   UNL A   1      31.374  26.157  27.414  1.00  0.00     0.191 HD
BRANCH  17  20
ATOM     20  C   UNL A   1      29.824  25.894  24.401  1.00  0.00     0.331 C 
BRANCH  20  21
ATOM     21  O   UNL A   1      28.549  26.382  24.015  1.00  0.00    -0.484 OA
BRANCH  21  22
ATOM     22  C   UNL A   1      28.488  27.628  23.450  1.00  0.00     0.120 A 
ATOM     23  C   UNL A   1      28.740  31.537  21.630  1.00  0.00     0.044 C 
ATOM     24  C   UNL A   1      28.649  30.178  22.257  1.00  0.00    -0.051 A 
ATOM     25  C   UNL A   1      29.780  29.360  22.336  1.00  0.00     0.007 A 
ATOM     26  C   UNL A   1      27.437  29.704  22.768  1.00  0.00     0.007 A 
ATOM     27  C   UNL A   1      29.698  28.097  22.932  1.00  0.00     0.047 A 
ATOM     28  C   UNL A   1      27.358  28.439  23.360  1.00  0.00     0.047 A 
ENDBRANCH  21  22
ENDBRANCH  20  21
ENDBRANCH  17  20
ENDBRANCH  13  16
ENDBRANCH   7  12
ENDBRANCH   3   6
ENDBRANCH   1   2
BRANCH   1  29
ATOM     29  C   UNL A   1      38.443  21.477  25.470  1.00  0.00     0.042 C 
BRANCH  29  30
ATOM     30  C   UNL A   1      38.879  22.797  26.088  1.00  0.00     0.118 C 
BRANCH  30  31
ATOM     31  N   UNL A   1      40.310  22.928  26.353  1.00  0.00    -0.352 N 
ATOM     32  C   UNL A   1      41.025  24.088  26.621  1.00  0.00     0.251 C 
ATOM     33  H   UNL A   1      40.830  22.093  26.338  1.00  0.00     0.163 HD
ATOM     34  O   UNL A   1      42.240  24.089  26.747  1.00  0.00    -0.269 OA
BRANCH  32  35
ATOM     35  C   UNL A   1      40.250  25.325  26.879  1.00  0.00     0.039 A 
ATOM     36  C   UNL A   1      40.676  26.489  26.231  1.00  0.00     0.014 A 
ATOM     37  C   UNL A   1      39.406  25.389  27.983  1.00  0.00     0.014 A 
ATOM     38  C   UNL A   1      40.478  27.718  26.851  1.00  0.00     0.010 A 
ATOM     39  C   UNL A   1      39.320  26.590  28.659  1.00  0.00     0.010 A 
ATOM     40  C   UNL A   1      39.913  27.743  28.127  1.00  0.00    -0.014 A 
BRANCH  40  41
ATOM     41  C   UNL A   1      40.031  28.887  29.028  1.00  0.00     0.031 A 
ATOM     42  C   UNL A   1      38.968  29.910  29.086  1.00  0.00     0.074 A 
ATOM     43  C   UNL A   1      41.091  29.002  29.862  1.00  0.00     0.049 A 
ATOM     44  N   UNL A   1      39.160  31.126  29.470  1.00  0.00    -0.248 NA
ATOM     45  C   UNL A   1      37.592  29.642  28.681  1.00  0.00     0.031 C 
ATOM     46  C   UNL A   1      41.254  29.944  30.968  1.00  0.00     0.029 A 
ATOM     47  N   UNL A   1      42.356  28.437  29.702  1.00  0.00    -0.354 N 
ATOM     48  C   UNL A   1      37.929  31.709  29.625  1.00  0.00     0.074 A 
ATOM     49  C   UNL A   1      36.984  30.760  29.083  1.00  0.00     0.031 C 
ATOM     50  C   UNL A   1      42.563  30.117  31.199  1.00  0.00     0.029 A 
ATOM     51  C   UNL A   1      43.287  29.387  30.176  1.00  0.00     0.049 A 
ATOM     52  H   UNL A   1      42.561  27.549  29.331  1.00  0.00     0.167 HD
ATOM     53  C   UNL A   1      37.809  32.887  30.295  1.00  0.00     0.034 A 
ATOM     54  C   UNL A   1      44.232  29.904  29.338  1.00  0.00     0.034 A 
ATOM     55  C   UNL A   1      39.094  33.413  30.739  1.00  0.00     0.049 A 
ATOM     56  C   UNL A   1      44.087  31.397  29.096  1.00  0.00     0.074 A 
ATOM     57  C   UNL A   1      39.780  33.439  31.943  1.00  0.00     0.029 A 
ATOM     58  N   UNL A   1      40.012  33.791  29.775  1.00  0.00    -0.354 N 
ATOM     59  N   UNL A   1      43.193  32.160  29.667  1.00  0.00    -0.248 NA
ATOM     60  C   UNL A   1      44.889  32.129  28.114  1.00  0.00     0.031 C 
ATOM     61  C   UNL A   1      41.133  33.813  31.675  1.00  0.00     0.029 A 
ATOM     62  C   UNL A   1      41.258  34.039  30.317  1.00  0.00     0.049 A 
ATOM     63  H   UNL A   1      39.802  33.873  28.817  1.00  0.00     0.167 HD
ATOM     64  C   UNL A   1      43.230  33.411  29.101  1.00  0.00     0.074 A 
ATOM     65  C   UNL A   1      44.316  33.343  28.140  1.00  0.00     0.031 C 
ATOM     66  C   UNL A   1      42.340  34.401  29.414  1.00  0.00     0.034 A 
BRANCH  53  67
ATOM     67  C   UNL A   1      36.472  33.416  30.730  1.00  0.00     0.023 A 
ATOM     68  C   UNL A   1      35.678  34.137  29.822  1.00  0.00     0.031 A 
ATOM     69  C   UNL A   1      35.953  33.272  32.032  1.00  0.00     0.131 A 
ATOM     70  C   UNL A   1      34.488  34.759  30.240  1.00  0.00     0.055 A 
ATOM     71  C   UNL A   1      34.810  33.950  32.466  1.00  0.00     0.041 A 
ATOM     72  F   UNL A   1      36.529  32.449  32.923  1.00  0.00    -0.206 F 
ATOM     73  C   UNL A   1      34.076  34.712  31.570  1.00  0.00     0.022 A 
BRANCH  70  74
ATOM     74  S   UNL A   1      33.473  35.621  29.010  1.00  0.00     0.124 S 
ATOM     75  O   UNL A   1      34.476  36.147  28.090  1.00  0.00    -0.237 OA
ATOM     76  O   UNL A   1      32.632  34.544  28.500  1.00  0.00    -0.237 OA
ATOM     77  O   UNL A   1      32.771  36.631  29.799  1.00  0.00    -0.744 OA
ENDBRANCH  70  74
ENDBRANCH  53  67
BRANCH  54  78
ATOM     78  C   UNL A   1      44.735  28.882  28.369  1.00  0.00     0.023 A 
ATOM     79  C   UNL A   1      45.586  27.881  28.896  1.00  0.00     0.031 A 
ATOM     80  C   UNL A   1      44.099  28.622  27.150  1.00  0.00     0.131 A 
ATOM     81  C   UNL A   1      45.615  26.604  28.322  1.00  0.00     0.055 A 
ATOM     82  C   UNL A   1      44.209  27.372  26.527  1.00  0.00     0.041 A 
ATOM     83  F   UNL A   1      43.251  29.512  26.614  1.00  0.00    -0.206 F 
ATOM     84  C   UNL A   1      44.923  26.340  27.140  1.00  0.00     0.022 A 
BRANCH  81  85
ATOM     85  S   UNL A   1      46.294  25.219  29.291  1.00  0.00     0.124 S 
ATOM     86  O   UNL A   1      45.669  25.419  30.593  1.00  0.00    -0.237 OA
ATOM     87  O   UNL A   1      45.853  24.043  28.545  1.00  0.00    -0.237 OA
ATOM     88  O   UNL A   1      47.738  25.442  29.236  1.00  0.00    -0.744 OA
ENDBRANCH  81  85
ENDBRANCH  54  78
BRANCH  66  89
ATOM     89  C   UNL A   1      42.405  35.793  28.831  1.00  0.00     0.023 A 
ATOM     90  C   UNL A   1      42.954  36.868  29.547  1.00  0.00     0.031 A 
ATOM     91  C   UNL A   1      41.852  36.109  27.569  1.00  0.00     0.131 A 
ATOM     92  C   UNL A   1      43.030  38.151  28.978  1.00  0.00     0.055 A 
ATOM     93  C   UNL A   1      41.851  37.403  27.042  1.00  0.00     0.041 A 
ATOM     94  F   UNL A   1      41.320  35.170  26.772  1.00  0.00    -0.206 F 
ATOM     95  C   UNL A   1      42.460  38.433  27.739  1.00  0.00     0.022 A 
BRANCH  92  96
ATOM     96  S   UNL A   1      43.972  39.427  29.854  1.00  0.00     0.124 S 
ATOM     97  O   UNL A   1      45.316  39.258  29.311  1.00  0.00    -0.237 OA
ATOM     98  O   UNL A   1      43.270  40.642  29.447  1.00  0.00    -0.237 OA
ATOM     99  O   UNL A   1      43.818  39.064  31.261  1.00  0.00    -0.744 OA
ENDBRANCH  92  96
ENDBRANCH  66  89
ENDBRANCH  40  41
ENDBRANCH  32  35
ENDBRANCH  30  31
ENDBRANCH  29  30
ENDBRANCH   1  29
TORSDOF 18
ENDMDL
