MODEL 1
REMARK VINA RESULT:     -12.1      0.000      0.000
REMARK SMILES CC(C)Cn1c([C@@H](O)[C@@H](O)C(=O)NCCCNC(=O)c2ccc(-c3c4nc(c(-c5cc(S(=O)(=O)[O-])ccc5F)c5ccc([nH]5)c(-c5cc(S(=O)(=O)[O-])ccc5F)c5nc(c(-c6cc(S(=O)(=O)[O-])ccc6F)c6ccc3[nH]6)C=C5)C=C4)cc2)nc2cc(Cl)ccc21
REMARK SMILES IDX 14 1 13 2 11 3 12 4 9 6 7 7 6 8 5 9 90 10 83 11 84 12 89 13
REMARK SMILES IDX 85 14 88 15 86 16 87 17 4 18 2 19 1 20 3 21 8 22 10 24 15 26
REMARK SMILES IDX 16 27 17 28 18 29 19 31 20 32 21 33 82 34 22 35 81 36 23 37
REMARK SMILES IDX 24 38 25 39 75 40 26 41 80 42 74 43 76 44 27 45 79 46 73 47
REMARK SMILES IDX 72 48 28 50 60 51 40 52 59 53 41 54 44 55 58 56 77 57 42 58
REMARK SMILES IDX 43 59 57 61 78 62 45 63 29 64 30 65 38 66 31 67 37 68 39 69
REMARK SMILES IDX 36 70 32 71 33 72 34 73 35 74 61 75 62 76 70 77 63 78 69 79
REMARK SMILES IDX 71 80 68 81 64 82 65 83 66 84 67 85 46 86 47 87 55 88 48 89
REMARK SMILES IDX 54 90 56 91 53 92 49 93 50 94 51 95 52 96
REMARK H PARENT 13 5 8 23 10 25 17 30 76 49 44 60
REMARK Flexibility Score: inf
ROOT
ATOM      1  C   UNL A   1      32.155  28.823  25.569  1.00  0.00     0.117 C 
ENDROOT
BRANCH   1   2
ATOM      2  N   UNL A   1      31.698  29.290  24.270  1.00  0.00    -0.354 N 
ATOM      3  C   UNL A   1      31.851  28.797  23.005  1.00  0.00     0.252 C 
ATOM      4  O   UNL A   1      31.167  29.349  22.133  1.00  0.00    -0.272 OA
ATOM      5  H   UNL A   1      31.176  30.123  24.310  1.00  0.00     0.163 HD
BRANCH   3   6
ATOM      6  C   UNL A   1      32.794  27.623  22.631  1.00  0.00     0.239 C 
BRANCH   6   7
ATOM      7  C   UNL A   1      32.033  26.297  22.371  1.00  0.00     0.219 C 
BRANCH   7   8
ATOM      8  C   UNL A   1      32.780  25.099  22.941  1.00  0.00     0.142 A 
ATOM      9  N   UNL A   1      32.294  24.056  23.725  1.00  0.00    -0.325 N 
ATOM     10  C   UNL A   1      33.371  23.216  24.009  1.00  0.00     0.068 A 
ATOM     11  N   UNL A   1      34.086  24.954  22.755  1.00  0.00    -0.230 NA
ATOM     12  C   UNL A   1      34.464  23.815  23.405  1.00  0.00     0.090 A 
ATOM     13  C   UNL A   1      33.482  22.022  24.742  1.00  0.00     0.030 A 
ATOM     14  C   UNL A   1      35.736  23.234  23.526  1.00  0.00     0.051 A 
ATOM     15  C   UNL A   1      34.752  21.444  24.847  1.00  0.00     0.023 A 
ATOM     16  C   UNL A   1      35.859  22.046  24.252  1.00  0.00     0.043 A 
ATOM     17  Cl  UNL A   1      37.410  21.309  24.416  1.00  0.00    -0.084 Cl
BRANCH   9  18
ATOM     18  C   UNL A   1      30.990  23.778  24.322  1.00  0.00     0.127 C 
BRANCH  18  19
ATOM     19  C   UNL A   1      30.664  24.233  25.743  1.00  0.00     0.003 C 
ATOM     20  C   UNL A   1      30.457  23.030  26.656  1.00  0.00     0.009 C 
ATOM     21  C   UNL A   1      31.754  25.136  26.320  1.00  0.00     0.009 C 
ENDBRANCH  18  19
ENDBRANCH   9  18
ENDBRANCH   7   8
BRANCH   7  22
ATOM     22  O   UNL A   1      30.753  26.331  23.026  1.00  0.00    -0.382 OA
ATOM     23  H   UNL A   1      30.053  26.159  22.376  1.00  0.00     0.211 HD
ENDBRANCH   7  22
ENDBRANCH   6   7
BRANCH   6  24
ATOM     24  O   UNL A   1      33.687  27.959  21.566  1.00  0.00    -0.380 OA
ATOM     25  H   UNL A   1      34.583  27.659  21.789  1.00  0.00     0.211 HD
ENDBRANCH   6  24
ENDBRANCH   3   6
ENDBRANCH   1   2
BRANCH   1  26
ATOM     26  C   UNL A   1      33.625  29.170  25.839  1.00  0.00     0.042 C 
BRANCH  26  27
ATOM     27  C   UNL A   1      33.877  29.642  27.270  1.00  0.00     0.118 C 
BRANCH  27  28
ATOM     28  N   UNL A   1      34.261  31.036  27.339  1.00  0.00    -0.352 N 
ATOM     29  C   UNL A   1      35.377  31.736  27.702  1.00  0.00     0.251 C 
ATOM     30  H   UNL A   1      33.534  31.632  27.050  1.00  0.00     0.163 HD
ATOM     31  O   UNL A   1      35.265  32.963  27.622  1.00  0.00    -0.269 OA
BRANCH  29  32
ATOM     32  C   UNL A   1      36.652  31.164  28.218  1.00  0.00     0.039 A 
ATOM     33  C   UNL A   1      37.546  31.778  29.099  1.00  0.00     0.014 A 
ATOM     34  C   UNL A   1      36.963  29.876  27.738  1.00  0.00     0.014 A 
ATOM     35  C   UNL A   1      38.761  31.165  29.414  1.00  0.00     0.010 A 
ATOM     36  C   UNL A   1      38.161  29.256  28.060  1.00  0.00     0.010 A 
ATOM     37  C   UNL A   1      39.084  29.928  28.854  1.00  0.00    -0.014 A 
BRANCH  37  38
ATOM     38  C   UNL A   1      40.370  29.309  29.168  1.00  0.00     0.031 A 
ATOM     39  C   UNL A   1      40.565  28.928  30.599  1.00  0.00     0.074 A 
ATOM     40  C   UNL A   1      41.228  28.943  28.194  1.00  0.00     0.049 A 
ATOM     41  N   UNL A   1      41.506  29.294  31.410  1.00  0.00    -0.248 NA
ATOM     42  C   UNL A   1      39.510  28.128  31.241  1.00  0.00     0.031 C 
ATOM     43  C   UNL A   1      41.005  28.985  26.744  1.00  0.00     0.029 A 
ATOM     44  N   UNL A   1      42.437  28.326  28.289  1.00  0.00    -0.354 N 
ATOM     45  C   UNL A   1      41.267  28.623  32.613  1.00  0.00     0.074 A 
ATOM     46  C   UNL A   1      39.948  28.057  32.498  1.00  0.00     0.031 C 
ATOM     47  C   UNL A   1      41.908  28.190  26.130  1.00  0.00     0.029 A 
ATOM     48  C   UNL A   1      42.848  27.696  27.121  1.00  0.00     0.049 A 
ATOM     49  H   UNL A   1      42.975  28.326  29.115  1.00  0.00     0.167 HD
ATOM     50  C   UNL A   1      42.246  28.422  33.544  1.00  0.00     0.034 A 
ATOM     51  C   UNL A   1      43.817  26.750  26.997  1.00  0.00     0.034 A 
ATOM     52  C   UNL A   1      43.378  29.271  33.299  1.00  0.00     0.049 A 
ATOM     53  C   UNL A   1      44.669  26.806  28.211  1.00  0.00     0.074 A 
ATOM     54  C   UNL A   1      43.575  30.637  33.287  1.00  0.00     0.029 A 
ATOM     55  N   UNL A   1      44.459  28.727  32.647  1.00  0.00    -0.354 N 
ATOM     56  N   UNL A   1      45.465  27.798  28.492  1.00  0.00    -0.248 NA
ATOM     57  C   UNL A   1      44.273  25.979  29.343  1.00  0.00     0.031 C 
ATOM     58  C   UNL A   1      44.480  30.864  32.214  1.00  0.00     0.029 A 
ATOM     59  C   UNL A   1      44.844  29.624  31.684  1.00  0.00     0.049 A 
ATOM     60  H   UNL A   1      44.877  27.857  32.836  1.00  0.00     0.167 HD
ATOM     61  C   UNL A   1      45.287  28.007  29.851  1.00  0.00     0.074 A 
ATOM     62  C   UNL A   1      44.617  26.800  30.339  1.00  0.00     0.031 C 
ATOM     63  C   UNL A   1      45.414  29.249  30.405  1.00  0.00     0.034 A 
BRANCH  50  64
ATOM     64  C   UNL A   1      42.307  27.243  34.491  1.00  0.00     0.023 A 
ATOM     65  C   UNL A   1      43.037  26.074  34.211  1.00  0.00     0.031 A 
ATOM     66  C   UNL A   1      41.818  27.356  35.810  1.00  0.00     0.131 A 
ATOM     67  C   UNL A   1      43.257  25.089  35.184  1.00  0.00     0.055 A 
ATOM     68  C   UNL A   1      42.093  26.403  36.802  1.00  0.00     0.041 A 
ATOM     69  F   UNL A   1      41.107  28.427  36.197  1.00  0.00    -0.206 F 
ATOM     70  C   UNL A   1      42.819  25.262  36.492  1.00  0.00     0.022 A 
BRANCH  67  71
ATOM     71  S   UNL A   1      44.141  23.563  34.760  1.00  0.00     0.124 S 
ATOM     72  O   UNL A   1      44.506  23.051  36.073  1.00  0.00    -0.237 OA
ATOM     73  O   UNL A   1      43.113  22.813  34.046  1.00  0.00    -0.237 OA
ATOM     74  O   UNL A   1      45.250  24.033  33.928  1.00  0.00    -0.744 OA
ENDBRANCH  67  71
ENDBRANCH  50  64
BRANCH  51  75
ATOM     75  C   UNL A   1      43.703  25.514  26.179  1.00  0.00     0.023 A 
ATOM     76  C   UNL A   1      42.755  24.536  26.532  1.00  0.00     0.031 A 
ATOM     77  C   UNL A   1      44.696  25.138  25.259  1.00  0.00     0.131 A 
ATOM     78  C   UNL A   1      42.840  23.233  26.028  1.00  0.00     0.055 A 
ATOM     79  C   UNL A   1      44.769  23.838  24.736  1.00  0.00     0.041 A 
ATOM     80  F   UNL A   1      45.658  26.004  24.903  1.00  0.00    -0.206 F 
ATOM     81  C   UNL A   1      43.845  22.874  25.132  1.00  0.00     0.022 A 
BRANCH  78  82
ATOM     82  S   UNL A   1      41.687  21.965  26.620  1.00  0.00     0.124 S 
ATOM     83  O   UNL A   1      42.123  21.767  28.000  1.00  0.00    -0.237 OA
ATOM     84  O   UNL A   1      40.402  22.634  26.453  1.00  0.00    -0.237 OA
ATOM     85  O   UNL A   1      41.937  20.836  25.728  1.00  0.00    -0.744 OA
ENDBRANCH  78  82
ENDBRANCH  51  75
BRANCH  63  86
ATOM     86  C   UNL A   1      45.931  30.392  29.554  1.00  0.00     0.023 A 
ATOM     87  C   UNL A   1      45.018  31.006  28.681  1.00  0.00     0.031 A 
ATOM     88  C   UNL A   1      47.295  30.703  29.383  1.00  0.00     0.131 A 
ATOM     89  C   UNL A   1      45.474  31.838  27.651  1.00  0.00     0.055 A 
ATOM     90  C   UNL A   1      47.739  31.597  28.404  1.00  0.00     0.041 A 
ATOM     91  F   UNL A   1      48.251  30.087  30.084  1.00  0.00    -0.206 F 
ATOM     92  C   UNL A   1      46.829  32.154  27.517  1.00  0.00     0.022 A 
BRANCH  89  93
ATOM     93  S   UNL A   1      44.343  32.374  26.344  1.00  0.00     0.124 S 
ATOM     94  O   UNL A   1      43.469  31.214  26.201  1.00  0.00    -0.237 OA
ATOM     95  O   UNL A   1      43.722  33.556  26.941  1.00  0.00    -0.237 OA
ATOM     96  O   UNL A   1      45.217  32.645  25.207  1.00  0.00    -0.744 OA
ENDBRANCH  89  93
ENDBRANCH  63  86
ENDBRANCH  37  38
ENDBRANCH  29  32
ENDBRANCH  27  28
ENDBRANCH  26  27
ENDBRANCH   1  26
TORSDOF 19
ENDMDL
MODEL 2
REMARK VINA RESULT:     -12.0      1.243      2.021
REMARK SMILES CC(C)Cn1c([C@@H](O)[C@@H](O)C(=O)NCCCNC(=O)c2ccc(-c3c4nc(c(-c5cc(S(=O)(=O)[O-])ccc5F)c5ccc([nH]5)c(-c5cc(S(=O)(=O)[O-])ccc5F)c5nc(c(-c6cc(S(=O)(=O)[O-])ccc6F)c6ccc3[nH]6)C=C5)C=C4)cc2)nc2cc(Cl)ccc21
REMARK SMILES IDX 14 1 13 2 11 3 12 4 9 6 7 7 6 8 5 9 90 10 83 11 84 12 89 13
REMARK SMILES IDX 85 14 88 15 86 16 87 17 4 18 2 19 1 20 3 21 8 22 10 24 15 26
REMARK SMILES IDX 16 27 17 28 18 29 19 31 20 32 21 33 82 34 22 35 81 36 23 37
REMARK SMILES IDX 24 38 25 39 75 40 26 41 80 42 74 43 76 44 27 45 79 46 73 47
REMARK SMILES IDX 72 48 28 50 60 51 40 52 59 53 41 54 44 55 58 56 77 57 42 58
REMARK SMILES IDX 43 59 57 61 78 62 45 63 29 64 30 65 38 66 31 67 37 68 39 69
REMARK SMILES IDX 36 70 32 71 33 72 34 73 35 74 61 75 62 76 70 77 63 78 69 79
REMARK SMILES IDX 71 80 68 81 64 82 65 83 66 84 67 85 46 86 47 87 55 88 48 89
REMARK SMILES IDX 54 90 56 91 53 92 49 93 50 94 51 95 52 96
REMARK H PARENT 13 5 8 23 10 25 17 30 76 49 44 60
REMARK Flexibility Score: inf
ROOT
ATOM      1  C   UNL A   1      33.329  29.145  25.266  1.00  0.00     0.117 C 
ENDROOT
BRANCH   1   2
ATOM      2  N   UNL A   1      32.363  29.114  24.180  1.00  0.00    -0.354 N 
ATOM      3  C   UNL A   1      32.332  28.441  22.991  1.00  0.00     0.252 C 
ATOM      4  O   UNL A   1      31.260  28.501  22.375  1.00  0.00    -0.272 OA
ATOM      5  H   UNL A   1      31.579  29.689  24.330  1.00  0.00     0.163 HD
BRANCH   3   6
ATOM      6  C   UNL A   1      33.523  27.636  22.409  1.00  0.00     0.239 C 
BRANCH   6   7
ATOM      7  C   UNL A   1      33.165  26.156  22.118  1.00  0.00     0.219 C 
BRANCH   7   8
ATOM      8  C   UNL A   1      32.728  25.423  23.379  1.00  0.00     0.142 A 
ATOM      9  N   UNL A   1      33.507  24.952  24.432  1.00  0.00    -0.325 N 
ATOM     10  C   UNL A   1      32.645  24.335  25.340  1.00  0.00     0.068 A 
ATOM     11  N   UNL A   1      31.455  25.109  23.582  1.00  0.00    -0.230 NA
ATOM     12  C   UNL A   1      31.387  24.439  24.770  1.00  0.00     0.090 A 
ATOM     13  C   UNL A   1      32.857  23.693  26.572  1.00  0.00     0.030 A 
ATOM     14  C   UNL A   1      30.275  23.882  25.420  1.00  0.00     0.051 A 
ATOM     15  C   UNL A   1      31.741  23.152  27.219  1.00  0.00     0.023 A 
ATOM     16  C   UNL A   1      30.474  23.242  26.647  1.00  0.00     0.043 A 
ATOM     17  Cl  UNL A   1      29.125  22.550  27.471  1.00  0.00    -0.084 Cl
BRANCH   9  18
ATOM     18  C   UNL A   1      34.947  24.913  24.671  1.00  0.00     0.127 C 
BRANCH  18  19
ATOM     19  C   UNL A   1      35.707  23.589  24.676  1.00  0.00     0.003 C 
ATOM     20  C   UNL A   1      35.809  23.025  23.263  1.00  0.00     0.009 C 
ATOM     21  C   UNL A   1      37.107  23.733  25.274  1.00  0.00     0.009 C 
ENDBRANCH  18  19
ENDBRANCH   9  18
ENDBRANCH   7   8
BRANCH   7  22
ATOM     22  O   UNL A   1      32.057  26.091  21.203  1.00  0.00    -0.382 OA
ATOM     23  H   UNL A   1      31.227  26.059  21.703  1.00  0.00     0.211 HD
ENDBRANCH   7  22
ENDBRANCH   6   7
BRANCH   6  24
ATOM     24  O   UNL A   1      34.124  28.285  21.286  1.00  0.00    -0.380 OA
ATOM     25  H   UNL A   1      33.431  28.594  20.682  1.00  0.00     0.211 HD
ENDBRANCH   6  24
ENDBRANCH   3   6
ENDBRANCH   1   2
BRANCH   1  26
ATOM     26  C   UNL A   1      32.885  30.043  26.428  1.00  0.00     0.042 C 
BRANCH  26  27
ATOM     27  C   UNL A   1      33.956  30.207  27.505  1.00  0.00     0.118 C 
BRANCH  27  28
ATOM     28  N   UNL A   1      34.445  31.566  27.603  1.00  0.00    -0.352 N 
ATOM     29  C   UNL A   1      35.619  32.170  27.957  1.00  0.00     0.251 C 
ATOM     30  H   UNL A   1      33.757  32.223  27.351  1.00  0.00     0.163 HD
ATOM     31  O   UNL A   1      35.597  33.404  27.914  1.00  0.00    -0.269 OA
BRANCH  29  32
ATOM     32  C   UNL A   1      36.859  31.489  28.422  1.00  0.00     0.039 A 
ATOM     33  C   UNL A   1      37.835  32.021  29.268  1.00  0.00     0.014 A 
ATOM     34  C   UNL A   1      37.041  30.182  27.929  1.00  0.00     0.014 A 
ATOM     35  C   UNL A   1      39.005  31.307  29.535  1.00  0.00     0.010 A 
ATOM     36  C   UNL A   1      38.193  29.462  28.203  1.00  0.00     0.010 A 
ATOM     37  C   UNL A   1      39.200  30.050  28.961  1.00  0.00    -0.014 A 
BRANCH  37  38
ATOM     38  C   UNL A   1      40.440  29.322  29.225  1.00  0.00     0.031 A 
ATOM     39  C   UNL A   1      40.680  28.960  30.653  1.00  0.00     0.074 A 
ATOM     40  C   UNL A   1      41.206  28.854  28.217  1.00  0.00     0.049 A 
ATOM     41  N   UNL A   1      41.695  29.258  31.401  1.00  0.00    -0.248 NA
ATOM     42  C   UNL A   1      39.594  28.278  31.375  1.00  0.00     0.031 C 
ATOM     43  C   UNL A   1      40.906  28.880  26.781  1.00  0.00     0.029 A 
ATOM     44  N   UNL A   1      42.357  28.130  28.266  1.00  0.00    -0.354 N 
ATOM     45  C   UNL A   1      41.463  28.642  32.636  1.00  0.00     0.074 A 
ATOM     46  C   UNL A   1      40.094  28.199  32.609  1.00  0.00     0.031 C 
ATOM     47  C   UNL A   1      41.698  27.990  26.143  1.00  0.00     0.029 A 
ATOM     48  C   UNL A   1      42.643  27.436  27.097  1.00  0.00     0.049 A 
ATOM     49  H   UNL A   1      42.938  28.101  29.061  1.00  0.00     0.167 HD
ATOM     50  C   UNL A   1      42.470  28.375  33.519  1.00  0.00     0.034 A 
ATOM     51  C   UNL A   1      43.513  26.401  26.950  1.00  0.00     0.034 A 
ATOM     52  C   UNL A   1      43.660  29.109  33.187  1.00  0.00     0.049 A 
ATOM     53  C   UNL A   1      44.434  26.409  28.114  1.00  0.00     0.074 A 
ATOM     54  C   UNL A   1      43.979  30.450  33.124  1.00  0.00     0.029 A 
ATOM     55  N   UNL A   1      44.648  28.451  32.495  1.00  0.00    -0.354 N 
ATOM     56  N   UNL A   1      45.331  27.330  28.322  1.00  0.00    -0.248 NA
ATOM     57  C   UNL A   1      44.028  25.651  29.290  1.00  0.00     0.031 C 
ATOM     58  C   UNL A   1      44.839  30.566  31.998  1.00  0.00     0.029 A 
ATOM     59  C   UNL A   1      45.059  29.285  31.486  1.00  0.00     0.049 A 
ATOM     60  H   UNL A   1      44.996  27.551  32.687  1.00  0.00     0.167 HD
ATOM     61  C   UNL A   1      45.249  27.588  29.682  1.00  0.00     0.074 A 
ATOM     62  C   UNL A   1      44.501  26.461  30.241  1.00  0.00     0.031 C 
ATOM     63  C   UNL A   1      45.520  28.827  30.191  1.00  0.00     0.034 A 
BRANCH  50  64
ATOM     64  C   UNL A   1      42.477  27.220  34.495  1.00  0.00     0.023 A 
ATOM     65  C   UNL A   1      43.224  26.046  34.287  1.00  0.00     0.031 A 
ATOM     66  C   UNL A   1      41.912  27.363  35.781  1.00  0.00     0.131 A 
ATOM     67  C   UNL A   1      43.387  25.086  35.295  1.00  0.00     0.055 A 
ATOM     68  C   UNL A   1      42.130  26.436  36.810  1.00  0.00     0.041 A 
ATOM     69  F   UNL A   1      41.179  28.442  36.100  1.00  0.00    -0.206 F 
ATOM     70  C   UNL A   1      42.873  25.289  36.570  1.00  0.00     0.022 A 
BRANCH  67  71
ATOM     71  S   UNL A   1      44.295  23.551  34.961  1.00  0.00     0.124 S 
ATOM     72  O   UNL A   1      44.554  23.054  36.304  1.00  0.00    -0.237 OA
ATOM     73  O   UNL A   1      43.323  22.796  34.177  1.00  0.00    -0.237 OA
ATOM     74  O   UNL A   1      45.469  24.008  34.212  1.00  0.00    -0.744 OA
ENDBRANCH  67  71
ENDBRANCH  50  64
BRANCH  51  75
ATOM     75  C   UNL A   1      43.241  25.162  26.176  1.00  0.00     0.023 A 
ATOM     76  C   UNL A   1      42.269  24.257  26.640  1.00  0.00     0.031 A 
ATOM     77  C   UNL A   1      44.116  24.703  25.177  1.00  0.00     0.131 A 
ATOM     78  C   UNL A   1      42.220  22.942  26.163  1.00  0.00     0.055 A 
ATOM     79  C   UNL A   1      44.054  23.391  24.683  1.00  0.00     0.041 A 
ATOM     80  F   UNL A   1      45.095  25.494  24.713  1.00  0.00    -0.206 F 
ATOM     81  C   UNL A   1      43.111  22.499  25.186  1.00  0.00     0.022 A 
BRANCH  78  82
ATOM     82  S   UNL A   1      41.048  21.765  26.890  1.00  0.00     0.124 S 
ATOM     83  O   UNL A   1      40.097  21.558  25.801  1.00  0.00    -0.237 OA
ATOM     84  O   UNL A   1      41.917  20.634  27.194  1.00  0.00    -0.237 OA
ATOM     85  O   UNL A   1      40.515  22.485  28.043  1.00  0.00    -0.744 OA
ENDBRANCH  78  82
ENDBRANCH  51  75
BRANCH  63  86
ATOM     86  C   UNL A   1      46.090  29.895  29.279  1.00  0.00     0.023 A 
ATOM     87  C   UNL A   1      45.175  30.674  28.551  1.00  0.00     0.031 A 
ATOM     88  C   UNL A   1      47.448  29.987  28.912  1.00  0.00     0.131 A 
ATOM     89  C   UNL A   1      45.609  31.450  27.470  1.00  0.00     0.055 A 
ATOM     90  C   UNL A   1      47.887  30.825  27.883  1.00  0.00     0.041 A 
ATOM     91  F   UNL A   1      48.380  29.204  29.463  1.00  0.00    -0.206 F 
ATOM     92  C   UNL A   1      46.963  31.547  27.142  1.00  0.00     0.022 A 
BRANCH  89  93
ATOM     93  S   UNL A   1      44.405  32.200  26.345  1.00  0.00     0.124 S 
ATOM     94  O   UNL A   1      43.499  31.087  26.081  1.00  0.00    -0.237 OA
ATOM     95  O   UNL A   1      43.852  33.279  27.162  1.00  0.00    -0.237 OA
ATOM     96  O   UNL A   1      45.208  32.638  25.208  1.00  0.00    -0.744 OA
ENDBRANCH  89  93
ENDBRANCH  63  86
ENDBRANCH  37  38
ENDBRANCH  29  32
ENDBRANCH  27  28
ENDBRANCH  26  27
ENDBRANCH   1  26
TORSDOF 19
ENDMDL
MODEL 3
REMARK VINA RESULT:     -11.9      1.988      2.684
REMARK SMILES CC(C)Cn1c([C@@H](O)[C@@H](O)C(=O)NCCCNC(=O)c2ccc(-c3c4nc(c(-c5cc(S(=O)(=O)[O-])ccc5F)c5ccc([nH]5)c(-c5cc(S(=O)(=O)[O-])ccc5F)c5nc(c(-c6cc(S(=O)(=O)[O-])ccc6F)c6ccc3[nH]6)C=C5)C=C4)cc2)nc2cc(Cl)ccc21
REMARK SMILES IDX 14 1 13 2 11 3 12 4 9 6 7 7 6 8 5 9 90 10 83 11 84 12 89 13
REMARK SMILES IDX 85 14 88 15 86 16 87 17 4 18 2 19 1 20 3 21 8 22 10 24 15 26
REMARK SMILES IDX 16 27 17 28 18 29 19 31 20 32 21 33 82 34 22 35 81 36 23 37
REMARK SMILES IDX 24 38 25 39 75 40 26 41 80 42 74 43 76 44 27 45 79 46 73 47
REMARK SMILES IDX 72 48 28 50 60 51 40 52 59 53 41 54 44 55 58 56 77 57 42 58
REMARK SMILES IDX 43 59 57 61 78 62 45 63 29 64 30 65 38 66 31 67 37 68 39 69
REMARK SMILES IDX 36 70 32 71 33 72 34 73 35 74 61 75 62 76 70 77 63 78 69 79
REMARK SMILES IDX 71 80 68 81 64 82 65 83 66 84 67 85 46 86 47 87 55 88 48 89
REMARK SMILES IDX 54 90 56 91 53 92 49 93 50 94 51 95 52 96
REMARK H PARENT 13 5 8 23 10 25 17 30 76 49 44 60
REMARK Flexibility Score: inf
ROOT
ATOM      1  C   UNL A   1      31.964  27.495  26.922  1.00  0.00     0.117 C 
ENDROOT
BRANCH   1   2
ATOM      2  N   UNL A   1      30.850  27.224  26.028  1.00  0.00    -0.354 N 
ATOM      3  C   UNL A   1      30.524  26.142  25.260  1.00  0.00     0.252 C 
ATOM      4  O   UNL A   1      29.393  26.169  24.756  1.00  0.00    -0.272 OA
ATOM      5  H   UNL A   1      30.204  27.963  25.965  1.00  0.00     0.163 HD
BRANCH   3   6
ATOM      6  C   UNL A   1      31.461  24.931  25.010  1.00  0.00     0.239 C 
BRANCH   6   7
ATOM      7  C   UNL A   1      31.187  23.747  25.973  1.00  0.00     0.219 C 
BRANCH   7   8
ATOM      8  C   UNL A   1      32.048  22.537  25.636  1.00  0.00     0.142 A 
ATOM      9  N   UNL A   1      33.428  22.391  25.732  1.00  0.00    -0.325 N 
ATOM     10  C   UNL A   1      33.740  21.105  25.289  1.00  0.00     0.068 A 
ATOM     11  N   UNL A   1      31.509  21.430  25.140  1.00  0.00    -0.230 NA
ATOM     12  C   UNL A   1      32.527  20.549  24.915  1.00  0.00     0.090 A 
ATOM     13  C   UNL A   1      34.952  20.405  25.166  1.00  0.00     0.030 A 
ATOM     14  C   UNL A   1      32.486  19.251  24.385  1.00  0.00     0.051 A 
ATOM     15  C   UNL A   1      34.900  19.107  24.648  1.00  0.00     0.023 A 
ATOM     16  C   UNL A   1      33.686  18.545  24.260  1.00  0.00     0.043 A 
ATOM     17  Cl  UNL A   1      33.665  16.946  23.612  1.00  0.00    -0.084 Cl
BRANCH   9  18
ATOM     18  C   UNL A   1      34.509  23.306  26.092  1.00  0.00     0.127 C 
BRANCH  18  19
ATOM     19  C   UNL A   1      35.273  24.079  25.020  1.00  0.00     0.003 C 
ATOM     20  C   UNL A   1      36.765  23.779  25.105  1.00  0.00     0.009 C 
ATOM     21  C   UNL A   1      34.764  23.764  23.613  1.00  0.00     0.009 C 
ENDBRANCH  18  19
ENDBRANCH   9  18
ENDBRANCH   7   8
BRANCH   7  22
ATOM     22  O   UNL A   1      31.521  24.124  27.320  1.00  0.00    -0.382 OA
ATOM     23  H   UNL A   1      31.297  25.058  27.460  1.00  0.00     0.211 HD
ENDBRANCH   7  22
ENDBRANCH   6   7
BRANCH   6  24
ATOM     24  O   UNL A   1      31.478  24.528  23.638  1.00  0.00    -0.380 OA
ATOM     25  H   UNL A   1      32.388  24.321  23.373  1.00  0.00     0.211 HD
ENDBRANCH   6  24
ENDBRANCH   3   6
ENDBRANCH   1   2
BRANCH   1  26
ATOM     26  C   UNL A   1      31.984  28.946  27.420  1.00  0.00     0.042 C 
BRANCH  26  27
ATOM     27  C   UNL A   1      33.167  29.749  26.883  1.00  0.00     0.118 C 
BRANCH  27  28
ATOM     28  N   UNL A   1      33.450  30.925  27.679  1.00  0.00    -0.352 N 
ATOM     29  C   UNL A   1      34.538  31.443  28.324  1.00  0.00     0.251 C 
ATOM     30  H   UNL A   1      32.657  31.499  27.781  1.00  0.00     0.163 HD
ATOM     31  O   UNL A   1      34.327  32.503  28.920  1.00  0.00    -0.269 OA
BRANCH  29  32
ATOM     32  C   UNL A   1      35.893  30.830  28.406  1.00  0.00     0.039 A 
ATOM     33  C   UNL A   1      36.254  29.547  27.987  1.00  0.00     0.014 A 
ATOM     34  C   UNL A   1      36.882  31.650  28.982  1.00  0.00     0.014 A 
ATOM     35  C   UNL A   1      37.542  29.063  28.226  1.00  0.00     0.010 A 
ATOM     36  C   UNL A   1      38.167  31.180  29.207  1.00  0.00     0.010 A 
ATOM     37  C   UNL A   1      38.479  29.865  28.879  1.00  0.00    -0.014 A 
BRANCH  37  38
ATOM     38  C   UNL A   1      39.815  29.338  29.149  1.00  0.00     0.031 A 
ATOM     39  C   UNL A   1      40.109  29.037  30.581  1.00  0.00     0.074 A 
ATOM     40  C   UNL A   1      40.641  28.977  28.145  1.00  0.00     0.049 A 
ATOM     41  N   UNL A   1      41.068  29.496  31.321  1.00  0.00    -0.248 NA
ATOM     42  C   UNL A   1      39.140  28.209  31.316  1.00  0.00     0.031 C 
ATOM     43  C   UNL A   1      40.339  28.936  26.709  1.00  0.00     0.029 A 
ATOM     44  N   UNL A   1      41.889  28.437  28.200  1.00  0.00    -0.354 N 
ATOM     45  C   UNL A   1      40.934  28.870  32.565  1.00  0.00     0.074 A 
ATOM     46  C   UNL A   1      39.648  28.224  32.549  1.00  0.00     0.031 C 
ATOM     47  C   UNL A   1      41.256  28.168  26.081  1.00  0.00     0.029 A 
ATOM     48  C   UNL A   1      42.275  27.777  27.040  1.00  0.00     0.049 A 
ATOM     49  H   UNL A   1      42.469  28.508  28.993  1.00  0.00     0.167 HD
ATOM     50  C   UNL A   1      41.972  28.772  33.448  1.00  0.00     0.034 A 
ATOM     51  C   UNL A   1      43.292  26.885  26.904  1.00  0.00     0.034 A 
ATOM     52  C   UNL A   1      43.035  29.673  33.102  1.00  0.00     0.049 A 
ATOM     53  C   UNL A   1      44.203  27.049  28.065  1.00  0.00     0.074 A 
ATOM     54  C   UNL A   1      43.147  31.046  33.019  1.00  0.00     0.029 A 
ATOM     55  N   UNL A   1      44.111  29.163  32.416  1.00  0.00    -0.354 N 
ATOM     56  N   UNL A   1      44.950  28.098  28.256  1.00  0.00    -0.248 NA
ATOM     57  C   UNL A   1      43.918  26.255  29.253  1.00  0.00     0.031 C 
ATOM     58  C   UNL A   1      43.978  31.274  31.888  1.00  0.00     0.029 A 
ATOM     59  C   UNL A   1      44.389  30.034  31.393  1.00  0.00     0.049 A 
ATOM     60  H   UNL A   1      44.592  28.329  32.619  1.00  0.00     0.167 HD
ATOM     61  C   UNL A   1      44.832  28.360  29.612  1.00  0.00     0.074 A 
ATOM     62  C   UNL A   1      44.264  27.141  30.190  1.00  0.00     0.031 C 
ATOM     63  C   UNL A   1      44.912  29.633  30.103  1.00  0.00     0.034 A 
BRANCH  50  64
ATOM     64  C   UNL A   1      42.155  27.646  34.441  1.00  0.00     0.023 A 
ATOM     65  C   UNL A   1      42.914  26.494  34.161  1.00  0.00     0.031 A 
ATOM     66  C   UNL A   1      41.761  27.803  35.787  1.00  0.00     0.131 A 
ATOM     67  C   UNL A   1      43.249  25.569  35.159  1.00  0.00     0.055 A 
ATOM     68  C   UNL A   1      42.151  26.914  36.798  1.00  0.00     0.041 A 
ATOM     69  F   UNL A   1      41.033  28.862  36.177  1.00  0.00    -0.206 F 
ATOM     70  C   UNL A   1      42.901  25.789  36.487  1.00  0.00     0.022 A 
BRANCH  67  71
ATOM     71  S   UNL A   1      44.166  24.061  34.741  1.00  0.00     0.124 S 
ATOM     72  O   UNL A   1      43.163  23.028  34.958  1.00  0.00    -0.237 OA
ATOM     73  O   UNL A   1      44.533  24.312  33.352  1.00  0.00    -0.237 OA
ATOM     74  O   UNL A   1      45.286  24.072  35.686  1.00  0.00    -0.744 OA
ENDBRANCH  67  71
ENDBRANCH  50  64
BRANCH  51  75
ATOM     75  C   UNL A   1      43.211  25.607  26.149  1.00  0.00     0.023 A 
ATOM     76  C   UNL A   1      42.307  24.613  26.568  1.00  0.00     0.031 A 
ATOM     77  C   UNL A   1      44.201  25.224  25.228  1.00  0.00     0.131 A 
ATOM     78  C   UNL A   1      42.432  23.291  26.126  1.00  0.00     0.055 A 
ATOM     79  C   UNL A   1      44.313  23.903  24.768  1.00  0.00     0.041 A 
ATOM     80  F   UNL A   1      45.122  26.106  24.812  1.00  0.00    -0.206 F 
ATOM     81  C   UNL A   1      43.435  22.925  25.229  1.00  0.00     0.022 A 
BRANCH  78  82
ATOM     82  S   UNL A   1      41.340  22.011  26.801  1.00  0.00     0.124 S 
ATOM     83  O   UNL A   1      42.024  20.780  26.411  1.00  0.00    -0.237 OA
ATOM     84  O   UNL A   1      41.367  22.324  28.226  1.00  0.00    -0.237 OA
ATOM     85  O   UNL A   1      40.072  22.253  26.121  1.00  0.00    -0.744 OA
ENDBRANCH  78  82
ENDBRANCH  51  75
BRANCH  63  86
ATOM     86  C   UNL A   1      45.313  30.762  29.174  1.00  0.00     0.023 A 
ATOM     87  C   UNL A   1      46.622  31.257  29.293  1.00  0.00     0.031 A 
ATOM     88  C   UNL A   1      44.408  31.515  28.400  1.00  0.00     0.131 A 
ATOM     89  C   UNL A   1      46.971  32.482  28.712  1.00  0.00     0.055 A 
ATOM     90  C   UNL A   1      44.782  32.697  27.754  1.00  0.00     0.041 A 
ATOM     91  F   UNL A   1      43.113  31.193  28.318  1.00  0.00    -0.206 F 
ATOM     92  C   UNL A   1      46.064  33.198  27.926  1.00  0.00     0.022 A 
BRANCH  89  93
ATOM     93  S   UNL A   1      48.548  33.269  29.122  1.00  0.00     0.124 S 
ATOM     94  O   UNL A   1      48.396  34.591  28.523  1.00  0.00    -0.237 OA
ATOM     95  O   UNL A   1      48.536  33.238  30.584  1.00  0.00    -0.237 OA
ATOM     96  O   UNL A   1      49.547  32.407  28.496  1.00  0.00    -0.744 OA
ENDBRANCH  89  93
ENDBRANCH  63  86
ENDBRANCH  37  38
ENDBRANCH  29  32
ENDBRANCH  27  28
ENDBRANCH  26  27
ENDBRANCH   1  26
TORSDOF 19
ENDMDL
