MODEL 1
REMARK VINA RESULT:     -11.3      0.000      0.000
REMARK SMILES O=C(C[N@@H+](C[C@@H]1COc2ccccc2O1)CC(F)(F)F)NCCCNC(=O)c1ccc(-c2c3nc(c(-c4cc(S(=O)(=O)[O-])ccc4F)c4ccc([nH]4)c(-c4cc(S(=O)(=O)[O-])ccc4F)c4nc(c(-c5cc(S(=O)(=O)[O-])ccc5F)c5ccc2[nH]5)C=C4)C=C3)cc1
REMARK SMILES IDX 23 1 22 2 21 3 1 4 2 5 3 7 4 8 5 10 6 11 7 12 15 13 8 14
REMARK SMILES IDX 14 15 9 16 13 17 10 18 12 19 11 20 16 21 17 22 18 23 19 24
REMARK SMILES IDX 20 25 24 26 25 27 26 28 27 30 28 31 29 32 90 33 30 34 89 35
REMARK SMILES IDX 31 36 32 37 33 38 83 39 34 40 88 41 82 42 84 43 35 44 87 45
REMARK SMILES IDX 81 46 80 47 36 49 68 50 48 51 67 52 49 53 52 54 66 55 85 56
REMARK SMILES IDX 50 57 51 58 65 60 86 61 53 62 37 63 38 64 46 65 39 66 45 67
REMARK SMILES IDX 47 68 44 69 40 70 41 71 42 72 43 73 69 74 70 75 78 76 71 77
REMARK SMILES IDX 77 78 79 79 76 80 72 81 73 82 74 83 75 84 54 85 55 86 63 87
REMARK SMILES IDX 56 88 62 89 64 90 61 91 57 92 58 93 59 94 60 95
REMARK H PARENT 21 6 4 9 25 29 84 48 52 59
REMARK Flexibility Score: inf
ROOT
ATOM      1  C   UNL A   1      31.801  28.080  25.806  1.00  0.00     0.042 C 
ENDROOT
BRANCH   1   2
ATOM      2  C   UNL A   1      32.355  26.822  26.463  1.00  0.00     0.118 C 
BRANCH   2   3
ATOM      3  N   UNL A   1      32.173  25.628  25.662  1.00  0.00    -0.351 N 
ATOM      4  O   UNL A   1      30.140  25.077  26.566  1.00  0.00    -0.269 OA
ATOM      5  C   UNL A   1      31.026  24.870  25.740  1.00  0.00     0.275 C 
ATOM      6  H   UNL A   1      32.887  25.351  25.045  1.00  0.00     0.163 HD
BRANCH   5   7
ATOM      7  C   UNL A   1      30.950  23.692  24.760  1.00  0.00     0.363 C 
BRANCH   7   8
ATOM      8  N   UNL A   1      32.175  22.857  24.727  1.00  0.00    -0.316 N 
ATOM      9  H   UNL A   1      32.909  23.418  25.159  1.00  0.00     0.348 HD
BRANCH   8  10
ATOM     10  C   UNL A   1      32.014  21.624  25.551  1.00  0.00     0.312 C 
BRANCH  10  11
ATOM     11  C   UNL A   1      33.044  21.377  26.684  1.00  0.00     0.265 C 
ATOM     12  C   UNL A   1      33.458  22.644  27.436  1.00  0.00     0.281 C 
ATOM     13  O   UNL A   1      34.190  20.693  26.153  1.00  0.00    -0.477 OA
ATOM     14  O   UNL A   1      34.215  23.546  26.629  1.00  0.00    -0.486 OA
ATOM     15  C   UNL A   1      35.196  21.514  25.733  1.00  0.00     0.162 A 
ATOM     16  C   UNL A   1      35.222  22.888  25.974  1.00  0.00     0.161 A 
ATOM     17  C   UNL A   1      36.235  20.908  25.031  1.00  0.00     0.050 A 
ATOM     18  C   UNL A   1      36.294  23.655  25.521  1.00  0.00     0.050 A 
ATOM     19  C   UNL A   1      37.306  21.674  24.572  1.00  0.00     0.004 A 
ATOM     20  C   UNL A   1      37.339  23.046  24.824  1.00  0.00     0.004 A 
ENDBRANCH  10  11
ENDBRANCH   8  10
BRANCH   8  21
ATOM     21  C   UNL A   1      32.708  22.588  23.355  1.00  0.00     0.379 C 
BRANCH  21  22
ATOM     22  C   UNL A   1      33.715  23.502  22.608  1.00  0.00     0.438 C 
ATOM     23  F   UNL A   1      33.264  23.855  21.386  1.00  0.00    -0.165 F 
ATOM     24  F   UNL A   1      33.899  24.650  23.308  1.00  0.00    -0.165 F 
ATOM     25  F   UNL A   1      34.927  22.943  22.435  1.00  0.00    -0.165 F 
ENDBRANCH  21  22
ENDBRANCH   8  21
ENDBRANCH   7   8
ENDBRANCH   5   7
ENDBRANCH   2   3
ENDBRANCH   1   2
BRANCH   1  26
ATOM     26  C   UNL A   1      32.852  29.141  25.496  1.00  0.00     0.118 C 
BRANCH  26  27
ATOM     27  N   UNL A   1      32.457  30.475  25.929  1.00  0.00    -0.352 N 
ATOM     28  C   UNL A   1      32.976  31.288  26.907  1.00  0.00     0.251 C 
ATOM     29  H   UNL A   1      31.692  30.857  25.440  1.00  0.00     0.163 HD
ATOM     30  O   UNL A   1      32.371  32.311  27.212  1.00  0.00    -0.269 OA
BRANCH  28  31
ATOM     31  C   UNL A   1      34.233  30.930  27.607  1.00  0.00     0.039 A 
ATOM     32  C   UNL A   1      35.154  31.943  27.892  1.00  0.00     0.014 A 
ATOM     33  C   UNL A   1      34.525  29.610  27.954  1.00  0.00     0.014 A 
ATOM     34  C   UNL A   1      36.330  31.640  28.584  1.00  0.00     0.010 A 
ATOM     35  C   UNL A   1      35.658  29.324  28.715  1.00  0.00     0.010 A 
ATOM     36  C   UNL A   1      36.575  30.334  29.037  1.00  0.00    -0.014 A 
BRANCH  36  37
ATOM     37  C   UNL A   1      37.786  30.010  29.841  1.00  0.00     0.031 A 
ATOM     38  C   UNL A   1      38.835  29.081  29.289  1.00  0.00     0.074 A 
ATOM     39  C   UNL A   1      37.917  30.508  31.087  1.00  0.00     0.049 A 
ATOM     40  N   UNL A   1      39.919  28.621  29.861  1.00  0.00    -0.248 NA
ATOM     41  C   UNL A   1      38.620  28.581  27.923  1.00  0.00     0.031 C 
ATOM     42  C   UNL A   1      36.955  31.394  31.747  1.00  0.00     0.029 A 
ATOM     43  N   UNL A   1      38.905  30.339  32.024  1.00  0.00    -0.354 N 
ATOM     44  C   UNL A   1      40.508  27.771  28.931  1.00  0.00     0.074 A 
ATOM     45  C   UNL A   1      39.625  27.729  27.785  1.00  0.00     0.031 C 
ATOM     46  C   UNL A   1      37.414  31.711  32.968  1.00  0.00     0.029 A 
ATOM     47  C   UNL A   1      38.674  31.012  33.203  1.00  0.00     0.049 A 
ATOM     48  H   UNL A   1      39.706  29.788  31.870  1.00  0.00     0.167 HD
ATOM     49  C   UNL A   1      41.688  27.106  29.015  1.00  0.00     0.034 A 
ATOM     50  C   UNL A   1      39.384  31.050  34.349  1.00  0.00     0.034 A 
ATOM     51  C   UNL A   1      42.562  27.164  30.163  1.00  0.00     0.049 A 
ATOM     52  C   UNL A   1      40.669  30.266  34.435  1.00  0.00     0.074 A 
ATOM     53  C   UNL A   1      43.801  26.569  30.332  1.00  0.00     0.029 A 
ATOM     54  N   UNL A   1      42.286  27.844  31.342  1.00  0.00    -0.354 N 
ATOM     55  N   UNL A   1      41.238  29.506  33.527  1.00  0.00    -0.248 NA
ATOM     56  C   UNL A   1      41.415  30.354  35.698  1.00  0.00     0.031 C 
ATOM     57  C   UNL A   1      44.236  26.824  31.637  1.00  0.00     0.029 A 
ATOM     58  C   UNL A   1      43.313  27.653  32.255  1.00  0.00     0.049 A 
ATOM     59  H   UNL A   1      41.479  28.384  31.506  1.00  0.00     0.167 HD
ATOM     60  C   UNL A   1      42.425  29.054  34.099  1.00  0.00     0.074 A 
ATOM     61  C   UNL A   1      42.497  29.640  35.422  1.00  0.00     0.031 C 
ATOM     62  C   UNL A   1      43.372  28.233  33.576  1.00  0.00     0.034 A 
BRANCH  49  63
ATOM     63  C   UNL A   1      42.085  26.238  27.842  1.00  0.00     0.023 A 
ATOM     64  C   UNL A   1      41.669  24.899  27.738  1.00  0.00     0.031 A 
ATOM     65  C   UNL A   1      42.912  26.748  26.825  1.00  0.00     0.131 A 
ATOM     66  C   UNL A   1      42.141  24.097  26.689  1.00  0.00     0.055 A 
ATOM     67  C   UNL A   1      43.306  25.969  25.735  1.00  0.00     0.041 A 
ATOM     68  F   UNL A   1      43.361  28.012  26.878  1.00  0.00    -0.206 F 
ATOM     69  C   UNL A   1      42.934  24.630  25.670  1.00  0.00     0.022 A 
BRANCH  66  70
ATOM     70  S   UNL A   1      41.834  22.311  26.760  1.00  0.00     0.124 S 
ATOM     71  O   UNL A   1      42.295  21.879  25.443  1.00  0.00    -0.237 OA
ATOM     72  O   UNL A   1      42.653  21.894  27.893  1.00  0.00    -0.237 OA
ATOM     73  O   UNL A   1      40.390  22.218  26.966  1.00  0.00    -0.744 OA
ENDBRANCH  66  70
ENDBRANCH  49  63
BRANCH  50  74
ATOM     74  C   UNL A   1      38.896  31.841  35.517  1.00  0.00     0.023 A 
ATOM     75  C   UNL A   1      38.325  31.207  36.632  1.00  0.00     0.031 A 
ATOM     76  C   UNL A   1      38.944  33.246  35.513  1.00  0.00     0.131 A 
ATOM     77  C   UNL A   1      37.778  31.977  37.672  1.00  0.00     0.055 A 
ATOM     78  C   UNL A   1      38.455  34.006  36.576  1.00  0.00     0.041 A 
ATOM     79  F   UNL A   1      39.479  33.905  34.471  1.00  0.00    -0.206 F 
ATOM     80  C   UNL A   1      37.854  33.373  37.659  1.00  0.00     0.022 A 
BRANCH  77  81
ATOM     81  S   UNL A   1      36.873  31.130  38.997  1.00  0.00     0.124 S 
ATOM     82  O   UNL A   1      37.796  31.265  40.117  1.00  0.00    -0.237 OA
ATOM     83  O   UNL A   1      35.646  31.915  39.076  1.00  0.00    -0.237 OA
ATOM     84  O   UNL A   1      36.709  29.772  38.482  1.00  0.00    -0.744 OA
ENDBRANCH  77  81
ENDBRANCH  50  74
BRANCH  62  85
ATOM     85  C   UNL A   1      44.594  27.964  34.422  1.00  0.00     0.023 A 
ATOM     86  C   UNL A   1      44.664  26.869  35.301  1.00  0.00     0.031 A 
ATOM     87  C   UNL A   1      45.706  28.824  34.349  1.00  0.00     0.131 A 
ATOM     88  C   UNL A   1      45.796  26.695  36.114  1.00  0.00     0.055 A 
ATOM     89  C   UNL A   1      46.856  28.607  35.109  1.00  0.00     0.041 A 
ATOM     90  F   UNL A   1      45.695  29.888  33.531  1.00  0.00    -0.206 F 
ATOM     91  C   UNL A   1      46.900  27.546  36.008  1.00  0.00     0.022 A 
BRANCH  88  92
ATOM     92  S   UNL A   1      45.767  25.402  37.384  1.00  0.00     0.124 S 
ATOM     93  O   UNL A   1      47.120  24.864  37.301  1.00  0.00    -0.237 OA
ATOM     94  O   UNL A   1      45.453  26.157  38.592  1.00  0.00    -0.237 OA
ATOM     95  O   UNL A   1      44.712  24.498  36.929  1.00  0.00    -0.744 OA
ENDBRANCH  88  92
ENDBRANCH  62  85
ENDBRANCH  36  37
ENDBRANCH  28  31
ENDBRANCH  26  27
ENDBRANCH   1  26
TORSDOF 18
ENDMDL
MODEL 2
REMARK VINA RESULT:     -11.2      1.918      7.711
REMARK SMILES O=C(C[N@@H+](C[C@@H]1COc2ccccc2O1)CC(F)(F)F)NCCCNC(=O)c1ccc(-c2c3nc(c(-c4cc(S(=O)(=O)[O-])ccc4F)c4ccc([nH]4)c(-c4cc(S(=O)(=O)[O-])ccc4F)c4nc(c(-c5cc(S(=O)(=O)[O-])ccc5F)c5ccc2[nH]5)C=C4)C=C3)cc1
REMARK SMILES IDX 23 1 22 2 21 3 1 4 2 5 3 7 4 8 5 10 6 11 7 12 15 13 8 14
REMARK SMILES IDX 14 15 9 16 13 17 10 18 12 19 11 20 16 21 17 22 18 23 19 24
REMARK SMILES IDX 20 25 24 26 25 27 26 28 27 30 28 31 29 32 90 33 30 34 89 35
REMARK SMILES IDX 31 36 32 37 33 38 83 39 34 40 88 41 82 42 84 43 35 44 87 45
REMARK SMILES IDX 81 46 80 47 36 49 68 50 48 51 67 52 49 53 52 54 66 55 85 56
REMARK SMILES IDX 50 57 51 58 65 60 86 61 53 62 37 63 38 64 46 65 39 66 45 67
REMARK SMILES IDX 47 68 44 69 40 70 41 71 42 72 43 73 69 74 70 75 78 76 71 77
REMARK SMILES IDX 77 78 79 79 76 80 72 81 73 82 74 83 75 84 54 85 55 86 63 87
REMARK SMILES IDX 56 88 62 89 64 90 61 91 57 92 58 93 59 94 60 95
REMARK H PARENT 21 6 4 9 25 29 84 48 52 59
REMARK Flexibility Score: inf
ROOT
ATOM      1  C   UNL A   1      33.487  27.479  26.507  1.00  0.00     0.042 C 
ENDROOT
BRANCH   1   2
ATOM      2  C   UNL A   1      32.054  27.075  26.185  1.00  0.00     0.118 C 
BRANCH   2   3
ATOM      3  N   UNL A   1      31.904  25.660  25.912  1.00  0.00    -0.351 N 
ATOM      4  O   UNL A   1      29.666  25.586  26.400  1.00  0.00    -0.269 OA
ATOM      5  C   UNL A   1      30.681  25.031  25.987  1.00  0.00     0.275 C 
ATOM      6  H   UNL A   1      32.698  25.132  25.665  1.00  0.00     0.163 HD
BRANCH   5   7
ATOM      7  C   UNL A   1      30.676  23.553  25.577  1.00  0.00     0.363 C 
BRANCH   7   8
ATOM      8  N   UNL A   1      31.917  23.114  24.893  1.00  0.00    -0.316 N 
ATOM      9  H   UNL A   1      32.670  23.679  25.287  1.00  0.00     0.348 HD
BRANCH   8  10
ATOM     10  C   UNL A   1      32.227  21.687  25.197  1.00  0.00     0.312 C 
BRANCH  10  11
ATOM     11  C   UNL A   1      33.137  21.392  26.417  1.00  0.00     0.265 C 
ATOM     12  C   UNL A   1      33.368  22.600  27.328  1.00  0.00     0.281 C 
ATOM     13  O   UNL A   1      34.385  20.839  25.967  1.00  0.00    -0.477 OA
ATOM     14  O   UNL A   1      34.141  23.626  26.706  1.00  0.00    -0.486 OA
ATOM     15  C   UNL A   1      35.367  21.762  25.749  1.00  0.00     0.162 A 
ATOM     16  C   UNL A   1      35.263  23.103  26.119  1.00  0.00     0.161 A 
ATOM     17  C   UNL A   1      36.522  21.297  25.124  1.00  0.00     0.050 A 
ATOM     18  C   UNL A   1      36.318  23.978  25.871  1.00  0.00     0.050 A 
ATOM     19  C   UNL A   1      37.578  22.172  24.870  1.00  0.00     0.004 A 
ATOM     20  C   UNL A   1      37.479  23.511  25.251  1.00  0.00     0.004 A 
ENDBRANCH  10  11
ENDBRANCH   8  10
BRANCH   8  21
ATOM     21  C   UNL A   1      31.970  23.435  23.433  1.00  0.00     0.379 C 
BRANCH  21  22
ATOM     22  C   UNL A   1      32.968  22.800  22.428  1.00  0.00     0.438 C 
ATOM     23  F   UNL A   1      34.198  22.655  22.964  1.00  0.00    -0.165 F 
ATOM     24  F   UNL A   1      32.540  21.560  22.079  1.00  0.00    -0.165 F 
ATOM     25  F   UNL A   1      33.113  23.506  21.292  1.00  0.00    -0.165 F 
ENDBRANCH  21  22
ENDBRANCH   8  21
ENDBRANCH   7   8
ENDBRANCH   5   7
ENDBRANCH   2   3
ENDBRANCH   1   2
BRANCH   1  26
ATOM     26  C   UNL A   1      34.009  28.652  25.684  1.00  0.00     0.118 C 
BRANCH  26  27
ATOM     27  N   UNL A   1      33.658  29.946  26.253  1.00  0.00    -0.352 N 
ATOM     28  C   UNL A   1      34.237  30.661  27.274  1.00  0.00     0.251 C 
ATOM     29  H   UNL A   1      32.876  30.380  25.839  1.00  0.00     0.163 HD
ATOM     30  O   UNL A   1      33.664  31.660  27.699  1.00  0.00    -0.269 OA
BRANCH  28  31
ATOM     31  C   UNL A   1      35.519  30.226  27.876  1.00  0.00     0.039 A 
ATOM     32  C   UNL A   1      35.502  29.649  29.149  1.00  0.00     0.014 A 
ATOM     33  C   UNL A   1      36.735  30.409  27.214  1.00  0.00     0.014 A 
ATOM     34  C   UNL A   1      36.692  29.196  29.725  1.00  0.00     0.010 A 
ATOM     35  C   UNL A   1      37.908  29.883  27.754  1.00  0.00     0.010 A 
ATOM     36  C   UNL A   1      37.902  29.272  29.017  1.00  0.00    -0.014 A 
BRANCH  36  37
ATOM     37  C   UNL A   1      39.165  28.726  29.584  1.00  0.00     0.031 A 
ATOM     38  C   UNL A   1      39.770  29.340  30.819  1.00  0.00     0.074 A 
ATOM     39  C   UNL A   1      39.797  27.712  28.959  1.00  0.00     0.049 A 
ATOM     40  N   UNL A   1      40.897  29.055  31.420  1.00  0.00    -0.248 NA
ATOM     41  C   UNL A   1      39.019  30.441  31.442  1.00  0.00     0.031 C 
ATOM     42  C   UNL A   1      39.330  27.052  27.738  1.00  0.00     0.029 A 
ATOM     43  N   UNL A   1      40.969  27.061  29.258  1.00  0.00    -0.354 N 
ATOM     44  C   UNL A   1      40.996  29.946  32.484  1.00  0.00     0.074 A 
ATOM     45  C   UNL A   1      39.847  30.823  32.403  1.00  0.00     0.031 C 
ATOM     46  C   UNL A   1      40.190  26.074  27.409  1.00  0.00     0.029 A 
ATOM     47  C   UNL A   1      41.297  26.070  28.360  1.00  0.00     0.049 A 
ATOM     48  H   UNL A   1      41.523  27.282  30.041  1.00  0.00     0.167 HD
ATOM     49  C   UNL A   1      41.944  30.011  33.453  1.00  0.00     0.034 A 
ATOM     50  C   UNL A   1      42.374  25.260  28.299  1.00  0.00     0.034 A 
ATOM     51  C   UNL A   1      43.081  29.124  33.524  1.00  0.00     0.049 A 
ATOM     52  C   UNL A   1      43.438  25.382  29.361  1.00  0.00     0.074 A 
ATOM     53  C   UNL A   1      44.073  29.072  34.489  1.00  0.00     0.029 A 
ATOM     54  N   UNL A   1      43.387  28.143  32.589  1.00  0.00    -0.354 N 
ATOM     55  N   UNL A   1      43.492  26.198  30.389  1.00  0.00    -0.248 NA
ATOM     56  C   UNL A   1      44.582  24.466  29.260  1.00  0.00     0.031 C 
ATOM     57  C   UNL A   1      45.017  28.117  34.097  1.00  0.00     0.029 A 
ATOM     58  C   UNL A   1      44.571  27.507  32.935  1.00  0.00     0.049 A 
ATOM     59  H   UNL A   1      42.843  27.930  31.797  1.00  0.00     0.167 HD
ATOM     60  C   UNL A   1      44.659  25.868  31.075  1.00  0.00     0.074 A 
ATOM     61  C   UNL A   1      45.267  24.770  30.353  1.00  0.00     0.031 C 
ATOM     62  C   UNL A   1      45.177  26.419  32.203  1.00  0.00     0.034 A 
BRANCH  49  63
ATOM     63  C   UNL A   1      41.803  31.097  34.496  1.00  0.00     0.023 A 
ATOM     64  C   UNL A   1      40.751  31.095  35.428  1.00  0.00     0.031 A 
ATOM     65  C   UNL A   1      42.721  32.162  34.545  1.00  0.00     0.131 A 
ATOM     66  C   UNL A   1      40.595  32.172  36.313  1.00  0.00     0.055 A 
ATOM     67  C   UNL A   1      42.611  33.186  35.488  1.00  0.00     0.041 A 
ATOM     68  F   UNL A   1      43.734  32.233  33.668  1.00  0.00    -0.206 F 
ATOM     69  C   UNL A   1      41.535  33.205  36.369  1.00  0.00     0.022 A 
BRANCH  66  70
ATOM     70  S   UNL A   1      39.064  32.284  37.279  1.00  0.00     0.124 S 
ATOM     71  O   UNL A   1      39.582  32.464  38.633  1.00  0.00    -0.237 OA
ATOM     72  O   UNL A   1      38.402  33.442  36.688  1.00  0.00    -0.237 OA
ATOM     73  O   UNL A   1      38.410  31.000  37.036  1.00  0.00    -0.744 OA
ENDBRANCH  66  70
ENDBRANCH  49  63
BRANCH  50  74
ATOM     74  C   UNL A   1      42.517  24.273  27.189  1.00  0.00     0.023 A 
ATOM     75  C   UNL A   1      41.942  22.996  27.277  1.00  0.00     0.031 A 
ATOM     76  C   UNL A   1      43.277  24.573  26.044  1.00  0.00     0.131 A 
ATOM     77  C   UNL A   1      42.178  22.049  26.267  1.00  0.00     0.055 A 
ATOM     78  C   UNL A   1      43.458  23.650  25.013  1.00  0.00     0.041 A 
ATOM     79  F   UNL A   1      43.851  25.780  25.906  1.00  0.00    -0.206 F 
ATOM     80  C   UNL A   1      42.919  22.373  25.128  1.00  0.00     0.022 A 
BRANCH  77  81
ATOM     81  S   UNL A   1      41.586  20.352  26.512  1.00  0.00     0.124 S 
ATOM     82  O   UNL A   1      42.220  19.654  25.400  1.00  0.00    -0.237 OA
ATOM     83  O   UNL A   1      42.099  20.041  27.842  1.00  0.00    -0.237 OA
ATOM     84  O   UNL A   1      40.133  20.482  26.422  1.00  0.00    -0.744 OA
ENDBRANCH  77  81
ENDBRANCH  50  74
BRANCH  62  85
ATOM     85  C   UNL A   1      46.442  25.805  32.752  1.00  0.00     0.023 A 
ATOM     86  C   UNL A   1      46.416  24.730  33.657  1.00  0.00     0.031 A 
ATOM     87  C   UNL A   1      47.697  26.312  32.366  1.00  0.00     0.131 A 
ATOM     88  C   UNL A   1      47.617  24.233  34.190  1.00  0.00     0.055 A 
ATOM     89  C   UNL A   1      48.890  25.769  32.847  1.00  0.00     0.041 A 
ATOM     90  F   UNL A   1      47.785  27.341  31.508  1.00  0.00    -0.206 F 
ATOM     91  C   UNL A   1      48.854  24.734  33.774  1.00  0.00     0.022 A 
BRANCH  88  92
ATOM     92  S   UNL A   1      47.538  22.993  35.510  1.00  0.00     0.124 S 
ATOM     93  O   UNL A   1      47.463  21.748  34.752  1.00  0.00    -0.237 OA
ATOM     94  O   UNL A   1      48.784  23.225  36.232  1.00  0.00    -0.237 OA
ATOM     95  O   UNL A   1      46.323  23.347  36.242  1.00  0.00    -0.744 OA
ENDBRANCH  88  92
ENDBRANCH  62  85
ENDBRANCH  36  37
ENDBRANCH  28  31
ENDBRANCH  26  27
ENDBRANCH   1  26
TORSDOF 18
ENDMDL
MODEL 3
REMARK VINA RESULT:     -11.1      5.077      7.693
REMARK SMILES O=C(C[N@@H+](C[C@@H]1COc2ccccc2O1)CC(F)(F)F)NCCCNC(=O)c1ccc(-c2c3nc(c(-c4cc(S(=O)(=O)[O-])ccc4F)c4ccc([nH]4)c(-c4cc(S(=O)(=O)[O-])ccc4F)c4nc(c(-c5cc(S(=O)(=O)[O-])ccc5F)c5ccc2[nH]5)C=C4)C=C3)cc1
REMARK SMILES IDX 23 1 22 2 21 3 1 4 2 5 3 7 4 8 5 10 6 11 7 12 15 13 8 14
REMARK SMILES IDX 14 15 9 16 13 17 10 18 12 19 11 20 16 21 17 22 18 23 19 24
REMARK SMILES IDX 20 25 24 26 25 27 26 28 27 30 28 31 29 32 90 33 30 34 89 35
REMARK SMILES IDX 31 36 32 37 33 38 83 39 34 40 88 41 82 42 84 43 35 44 87 45
REMARK SMILES IDX 81 46 80 47 36 49 68 50 48 51 67 52 49 53 52 54 66 55 85 56
REMARK SMILES IDX 50 57 51 58 65 60 86 61 53 62 37 63 38 64 46 65 39 66 45 67
REMARK SMILES IDX 47 68 44 69 40 70 41 71 42 72 43 73 69 74 70 75 78 76 71 77
REMARK SMILES IDX 77 78 79 79 76 80 72 81 73 82 74 83 75 84 54 85 55 86 63 87
REMARK SMILES IDX 56 88 62 89 64 90 61 91 57 92 58 93 59 94 60 95
REMARK H PARENT 21 6 4 9 25 29 84 48 52 59
REMARK Flexibility Score: inf
ROOT
ATOM      1  C   UNL A   1      36.491  23.646  24.719  1.00  0.00     0.042 C 
ENDROOT
BRANCH   1   2
ATOM      2  C   UNL A   1      35.823  22.613  23.820  1.00  0.00     0.118 C 
BRANCH   2   3
ATOM      3  N   UNL A   1      34.500  23.005  23.379  1.00  0.00    -0.351 N 
ATOM      4  O   UNL A   1      33.473  21.068  24.046  1.00  0.00    -0.269 OA
ATOM      5  C   UNL A   1      33.398  22.205  23.588  1.00  0.00     0.275 C 
ATOM      6  H   UNL A   1      34.383  23.868  22.919  1.00  0.00     0.163 HD
BRANCH   5   7
ATOM      7  C   UNL A   1      32.058  22.806  23.146  1.00  0.00     0.363 C 
BRANCH   7   8
ATOM      8  N   UNL A   1      31.727  24.092  23.806  1.00  0.00    -0.316 N 
ATOM      9  H   UNL A   1      32.621  24.526  24.038  1.00  0.00     0.348 HD
BRANCH   8  10
ATOM     10  C   UNL A   1      31.015  25.013  22.874  1.00  0.00     0.312 C 
BRANCH  10  11
ATOM     11  C   UNL A   1      31.726  26.335  22.485  1.00  0.00     0.265 C 
ATOM     12  C   UNL A   1      33.254  26.251  22.508  1.00  0.00     0.281 C 
ATOM     13  O   UNL A   1      31.255  27.401  23.326  1.00  0.00    -0.477 OA
ATOM     14  O   UNL A   1      33.781  26.083  23.824  1.00  0.00    -0.486 OA
ATOM     15  C   UNL A   1      31.997  27.603  24.453  1.00  0.00     0.162 A 
ATOM     16  C   UNL A   1      33.223  26.984  24.692  1.00  0.00     0.161 A 
ATOM     17  C   UNL A   1      31.465  28.486  25.391  1.00  0.00     0.050 A 
ATOM     18  C   UNL A   1      33.925  27.255  25.865  1.00  0.00     0.050 A 
ATOM     19  C   UNL A   1      32.162  28.754  26.569  1.00  0.00     0.004 A 
ATOM     20  C   UNL A   1      33.396  28.145  26.802  1.00  0.00     0.004 A 
ENDBRANCH  10  11
ENDBRANCH   8  10
BRANCH   8  21
ATOM     21  C   UNL A   1      31.054  23.955  25.135  1.00  0.00     0.379 C 
BRANCH  21  22
ATOM     22  C   UNL A   1      31.761  24.149  26.503  1.00  0.00     0.438 C 
ATOM     23  F   UNL A   1      31.469  25.344  27.056  1.00  0.00    -0.165 F 
ATOM     24  F   UNL A   1      31.342  23.196  27.375  1.00  0.00    -0.165 F 
ATOM     25  F   UNL A   1      33.102  24.062  26.435  1.00  0.00    -0.165 F 
ENDBRANCH  21  22
ENDBRANCH   8  21
ENDBRANCH   7   8
ENDBRANCH   5   7
ENDBRANCH   2   3
ENDBRANCH   1   2
BRANCH   1  26
ATOM     26  C   UNL A   1      36.850  23.130  26.109  1.00  0.00     0.118 C 
BRANCH  26  27
ATOM     27  N   UNL A   1      37.957  22.183  26.094  1.00  0.00    -0.352 N 
ATOM     28  C   UNL A   1      39.300  22.374  26.316  1.00  0.00     0.251 C 
ATOM     29  H   UNL A   1      37.702  21.254  25.892  1.00  0.00     0.163 HD
ATOM     30  O   UNL A   1      40.077  21.452  26.083  1.00  0.00    -0.269 OA
BRANCH  28  31
ATOM     31  C   UNL A   1      39.814  23.675  26.802  1.00  0.00     0.039 A 
ATOM     32  C   UNL A   1      39.960  24.724  25.889  1.00  0.00     0.014 A 
ATOM     33  C   UNL A   1      40.182  23.863  28.136  1.00  0.00     0.014 A 
ATOM     34  C   UNL A   1      40.406  25.973  26.327  1.00  0.00     0.010 A 
ATOM     35  C   UNL A   1      40.549  25.130  28.586  1.00  0.00     0.010 A 
ATOM     36  C   UNL A   1      40.668  26.200  27.687  1.00  0.00    -0.014 A 
BRANCH  36  37
ATOM     37  C   UNL A   1      41.073  27.545  28.183  1.00  0.00     0.031 A 
ATOM     38  C   UNL A   1      42.530  27.913  28.273  1.00  0.00     0.074 A 
ATOM     39  C   UNL A   1      40.132  28.416  28.601  1.00  0.00     0.049 A 
ATOM     40  N   UNL A   1      43.083  29.001  28.744  1.00  0.00    -0.248 NA
ATOM     41  C   UNL A   1      43.494  26.909  27.796  1.00  0.00     0.031 C 
ATOM     42  C   UNL A   1      38.689  28.167  28.593  1.00  0.00     0.029 A 
ATOM     43  N   UNL A   1      40.245  29.682  29.118  1.00  0.00    -0.354 N 
ATOM     44  C   UNL A   1      44.456  28.811  28.631  1.00  0.00     0.074 A 
ATOM     45  C   UNL A   1      44.650  27.475  28.109  1.00  0.00     0.031 C 
ATOM     46  C   UNL A   1      38.051  29.254  29.056  1.00  0.00     0.029 A 
ATOM     47  C   UNL A   1      39.037  30.258  29.444  1.00  0.00     0.049 A 
ATOM     48  H   UNL A   1      41.108  30.138  29.245  1.00  0.00     0.167 HD
ATOM     49  C   UNL A   1      45.461  29.677  28.913  1.00  0.00     0.034 A 
ATOM     50  C   UNL A   1      38.754  31.451  30.007  1.00  0.00     0.034 A 
ATOM     51  C   UNL A   1      45.251  31.010  29.427  1.00  0.00     0.049 A 
ATOM     52  C   UNL A   1      39.891  32.380  30.354  1.00  0.00     0.074 A 
ATOM     53  C   UNL A   1      46.194  31.986  29.701  1.00  0.00     0.029 A 
ATOM     54  N   UNL A   1      44.015  31.552  29.757  1.00  0.00    -0.354 N 
ATOM     55  N   UNL A   1      41.183  32.203  30.195  1.00  0.00    -0.248 NA
ATOM     56  C   UNL A   1      39.531  33.674  30.948  1.00  0.00     0.031 C 
ATOM     57  C   UNL A   1      45.539  33.083  30.269  1.00  0.00     0.029 A 
ATOM     58  C   UNL A   1      44.176  32.832  30.267  1.00  0.00     0.049 A 
ATOM     59  H   UNL A   1      43.151  31.094  29.647  1.00  0.00     0.167 HD
ATOM     60  C   UNL A   1      41.785  33.379  30.638  1.00  0.00     0.074 A 
ATOM     61  C   UNL A   1      40.714  34.261  31.054  1.00  0.00     0.031 C 
ATOM     62  C   UNL A   1      43.103  33.702  30.690  1.00  0.00     0.034 A 
BRANCH  49  63
ATOM     63  C   UNL A   1      46.878  29.197  28.697  1.00  0.00     0.023 A 
ATOM     64  C   UNL A   1      47.414  29.027  27.408  1.00  0.00     0.031 A 
ATOM     65  C   UNL A   1      47.700  28.883  29.795  1.00  0.00     0.131 A 
ATOM     66  C   UNL A   1      48.696  28.483  27.247  1.00  0.00     0.055 A 
ATOM     67  C   UNL A   1      49.009  28.426  29.628  1.00  0.00     0.041 A 
ATOM     68  F   UNL A   1      47.240  29.003  31.050  1.00  0.00    -0.206 F 
ATOM     69  C   UNL A   1      49.510  28.208  28.349  1.00  0.00     0.022 A 
BRANCH  66  70
ATOM     70  S   UNL A   1      49.225  27.992  25.583  1.00  0.00     0.124 S 
ATOM     71  O   UNL A   1      48.007  28.215  24.808  1.00  0.00    -0.237 OA
ATOM     72  O   UNL A   1      50.328  28.911  25.318  1.00  0.00    -0.237 OA
ATOM     73  O   UNL A   1      49.605  26.590  25.742  1.00  0.00    -0.744 OA
ENDBRANCH  66  70
ENDBRANCH  49  63
BRANCH  50  74
ATOM     74  C   UNL A   1      37.342  31.837  30.295  1.00  0.00     0.023 A 
ATOM     75  C   UNL A   1      36.517  32.368  29.291  1.00  0.00     0.031 A 
ATOM     76  C   UNL A   1      36.811  31.730  31.593  1.00  0.00     0.131 A 
ATOM     77  C   UNL A   1      35.227  32.820  29.610  1.00  0.00     0.055 A 
ATOM     78  C   UNL A   1      35.506  32.124  31.893  1.00  0.00     0.041 A 
ATOM     79  F   UNL A   1      37.556  31.229  32.593  1.00  0.00    -0.206 F 
ATOM     80  C   UNL A   1      34.710  32.687  30.902  1.00  0.00     0.022 A 
BRANCH  77  81
ATOM     81  S   UNL A   1      34.267  33.681  28.334  1.00  0.00     0.124 S 
ATOM     82  O   UNL A   1      33.411  32.611  27.836  1.00  0.00    -0.237 OA
ATOM     83  O   UNL A   1      33.605  34.727  29.106  1.00  0.00    -0.237 OA
ATOM     84  O   UNL A   1      35.289  34.151  27.400  1.00  0.00    -0.744 OA
ENDBRANCH  77  81
ENDBRANCH  50  74
BRANCH  62  85
ATOM     85  C   UNL A   1      43.454  35.090  31.170  1.00  0.00     0.023 A 
ATOM     86  C   UNL A   1      43.502  36.190  30.296  1.00  0.00     0.031 A 
ATOM     87  C   UNL A   1      43.752  35.312  32.527  1.00  0.00     0.131 A 
ATOM     88  C   UNL A   1      43.896  37.449  30.777  1.00  0.00     0.055 A 
ATOM     89  C   UNL A   1      44.077  36.580  33.012  1.00  0.00     0.041 A 
ATOM     90  F   UNL A   1      43.728  34.299  33.408  1.00  0.00    -0.206 F 
ATOM     91  C   UNL A   1      44.164  37.654  32.133  1.00  0.00     0.022 A 
BRANCH  88  92
ATOM     92  S   UNL A   1      44.151  38.795  29.588  1.00  0.00     0.124 S 
ATOM     93  O   UNL A   1      42.967  38.683  28.744  1.00  0.00    -0.237 OA
ATOM     94  O   UNL A   1      44.209  39.968  30.453  1.00  0.00    -0.237 OA
ATOM     95  O   UNL A   1      45.412  38.444  28.938  1.00  0.00    -0.744 OA
ENDBRANCH  88  92
ENDBRANCH  62  85
ENDBRANCH  36  37
ENDBRANCH  28  31
ENDBRANCH  26  27
ENDBRANCH   1  26
TORSDOF 18
ENDMDL
