MODEL 1
REMARK VINA RESULT:     -10.8      0.000      0.000
REMARK SMILES CCC[C@@](C)(C(=O)NCCCNC(=O)c1ccc(-c2c3nc(c(-c4cc(S(=O)(=O)[O-])ccc4F)c4ccc([nH]4)c(-c4cc(S(=O)(=O)[O-])ccc4F)c4nc(c(-c5cc(S(=O)(=O)[O-])ccc5F)c5ccc2[nH]5)C=C4)C=C3)cc1)[C@H]1CCOC1
REMARK SMILES IDX 10 1 9 2 8 3 6 4 7 5 4 7 5 8 3 9 2 10 1 11 78 12 79 13 82 14
REMARK SMILES IDX 80 15 81 16 11 17 12 18 13 19 14 21 15 22 16 23 77 24 17 25
REMARK SMILES IDX 76 26 18 27 19 28 20 29 70 30 21 31 75 32 69 33 71 34 22 35
REMARK SMILES IDX 74 36 68 37 67 38 23 40 55 41 35 42 54 43 36 44 39 45 53 46
REMARK SMILES IDX 72 47 37 48 38 49 52 51 73 52 40 53 24 54 25 55 33 56 26 57
REMARK SMILES IDX 32 58 34 59 31 60 27 61 28 62 29 63 30 64 56 65 57 66 65 67
REMARK SMILES IDX 58 68 64 69 66 70 63 71 59 72 60 73 61 74 62 75 41 76 42 77
REMARK SMILES IDX 50 78 43 79 49 80 51 81 48 82 44 83 45 84 46 85 47 86
REMARK H PARENT 8 6 12 20 71 39 39 50
REMARK Flexibility Score: inf
ROOT
ATOM      1  C   UNL A   1      36.135  21.171  25.575  1.00  0.00     0.042 C 
ENDROOT
BRANCH   1   2
ATOM      2  C   UNL A   1      35.716  22.533  26.127  1.00  0.00     0.117 C 
BRANCH   2   3
ATOM      3  N   UNL A   1      34.723  22.420  27.177  1.00  0.00    -0.356 N 
ATOM      4  C   UNL A   1      33.406  22.711  27.276  1.00  0.00     0.226 C 
ATOM      5  O   UNL A   1      32.905  22.365  28.355  1.00  0.00    -0.274 OA
ATOM      6  H   UNL A   1      35.092  22.045  28.010  1.00  0.00     0.163 HD
BRANCH   4   7
ATOM      7  C   UNL A   1      32.532  23.321  26.132  1.00  0.00     0.051 C 
ATOM      8  C   UNL A   1      31.100  23.377  26.709  1.00  0.00     0.022 C 
BRANCH   7   9
ATOM      9  C   UNL A   1      32.624  22.503  24.803  1.00  0.00     0.017 C 
BRANCH   9  10
ATOM     10  C   UNL A   1      31.881  21.156  24.678  1.00  0.00    -0.002 C 
ATOM     11  C   UNL A   1      32.759  19.918  24.791  1.00  0.00     0.004 C 
ENDBRANCH   9  10
ENDBRANCH   7   9
BRANCH   7  12
ATOM     12  C   UNL A   1      33.056  24.797  25.958  1.00  0.00     0.032 C 
ATOM     13  C   UNL A   1      33.638  25.179  24.598  1.00  0.00     0.035 C 
ATOM     14  C   UNL A   1      32.082  25.948  26.144  1.00  0.00     0.164 C 
ATOM     15  C   UNL A   1      33.753  26.688  24.712  1.00  0.00     0.160 C 
ATOM     16  O   UNL A   1      32.769  27.116  25.666  1.00  0.00    -0.381 OA
ENDBRANCH   7  12
ENDBRANCH   4   7
ENDBRANCH   2   3
ENDBRANCH   1   2
BRANCH   1  17
ATOM     17  C   UNL A   1      37.476  21.153  24.842  1.00  0.00     0.118 C 
BRANCH  17  18
ATOM     18  N   UNL A   1      38.388  20.132  25.339  1.00  0.00    -0.352 N 
ATOM     19  C   UNL A   1      39.570  20.253  26.033  1.00  0.00     0.251 C 
ATOM     20  H   UNL A   1      38.115  19.206  25.148  1.00  0.00     0.163 HD
ATOM     21  O   UNL A   1      40.278  19.265  26.191  1.00  0.00    -0.269 OA
BRANCH  19  22
ATOM     22  C   UNL A   1      40.001  21.571  26.552  1.00  0.00     0.039 A 
ATOM     23  C   UNL A   1      40.966  21.617  27.561  1.00  0.00     0.014 A 
ATOM     24  C   UNL A   1      39.460  22.757  26.049  1.00  0.00     0.014 A 
ATOM     25  C   UNL A   1      41.459  22.851  27.993  1.00  0.00     0.010 A 
ATOM     26  C   UNL A   1      40.010  23.981  26.421  1.00  0.00     0.010 A 
ATOM     27  C   UNL A   1      41.027  24.041  27.387  1.00  0.00    -0.014 A 
BRANCH  27  28
ATOM     28  C   UNL A   1      41.653  25.350  27.714  1.00  0.00     0.031 A 
ATOM     29  C   UNL A   1      40.872  26.411  28.437  1.00  0.00     0.074 A 
ATOM     30  C   UNL A   1      42.905  25.610  27.287  1.00  0.00     0.049 A 
ATOM     31  N   UNL A   1      41.218  27.638  28.734  1.00  0.00    -0.248 NA
ATOM     32  C   UNL A   1      39.510  26.050  28.852  1.00  0.00     0.031 C 
ATOM     33  C   UNL A   1      43.756  24.673  26.551  1.00  0.00     0.029 A 
ATOM     34  N   UNL A   1      43.677  26.738  27.404  1.00  0.00    -0.354 N 
ATOM     35  C   UNL A   1      40.114  28.200  29.367  1.00  0.00     0.074 A 
ATOM     36  C   UNL A   1      39.067  27.199  29.338  1.00  0.00     0.031 C 
ATOM     37  C   UNL A   1      44.945  25.250  26.318  1.00  0.00     0.029 A 
ATOM     38  C   UNL A   1      44.922  26.616  26.831  1.00  0.00     0.049 A 
ATOM     39  H   UNL A   1      43.371  27.557  27.856  1.00  0.00     0.167 HD
ATOM     40  C   UNL A   1      39.994  29.425  29.940  1.00  0.00     0.034 A 
ATOM     41  C   UNL A   1      45.928  27.506  26.718  1.00  0.00     0.034 A 
ATOM     42  C   UNL A   1      41.046  30.414  29.945  1.00  0.00     0.049 A 
ATOM     43  C   UNL A   1      45.744  28.890  27.283  1.00  0.00     0.074 A 
ATOM     44  C   UNL A   1      41.052  31.666  30.535  1.00  0.00     0.029 A 
ATOM     45  N   UNL A   1      42.275  30.273  29.309  1.00  0.00    -0.354 N 
ATOM     46  N   UNL A   1      44.714  29.392  27.924  1.00  0.00    -0.248 NA
ATOM     47  C   UNL A   1      46.860  29.828  27.107  1.00  0.00     0.031 C 
ATOM     48  C   UNL A   1      42.242  32.314  30.183  1.00  0.00     0.029 A 
ATOM     49  C   UNL A   1      43.023  31.434  29.450  1.00  0.00     0.049 A 
ATOM     50  H   UNL A   1      42.572  29.467  28.828  1.00  0.00     0.167 HD
ATOM     51  C   UNL A   1      45.070  30.696  28.253  1.00  0.00     0.074 A 
ATOM     52  C   UNL A   1      46.414  30.898  27.749  1.00  0.00     0.031 C 
ATOM     53  C   UNL A   1      44.353  31.638  28.919  1.00  0.00     0.034 A 
BRANCH  40  54
ATOM     54  C   UNL A   1      38.660  29.762  30.570  1.00  0.00     0.023 A 
ATOM     55  C   UNL A   1      37.660  30.445  29.854  1.00  0.00     0.031 A 
ATOM     56  C   UNL A   1      38.405  29.460  31.920  1.00  0.00     0.131 A 
ATOM     57  C   UNL A   1      36.512  30.905  30.516  1.00  0.00     0.055 A 
ATOM     58  C   UNL A   1      37.212  29.829  32.546  1.00  0.00     0.041 A 
ATOM     59  F   UNL A   1      39.324  28.825  32.664  1.00  0.00    -0.206 F 
ATOM     60  C   UNL A   1      36.267  30.578  31.851  1.00  0.00     0.022 A 
BRANCH  57  61
ATOM     61  S   UNL A   1      35.456  32.111  29.666  1.00  0.00     0.124 S 
ATOM     62  O   UNL A   1      36.410  33.174  29.358  1.00  0.00    -0.237 OA
ATOM     63  O   UNL A   1      34.960  31.347  28.527  1.00  0.00    -0.237 OA
ATOM     64  O   UNL A   1      34.453  32.458  30.672  1.00  0.00    -0.744 OA
ENDBRANCH  57  61
ENDBRANCH  40  54
BRANCH  41  65
ATOM     65  C   UNL A   1      47.198  27.117  26.043  1.00  0.00     0.023 A 
ATOM     66  C   UNL A   1      48.203  26.437  26.749  1.00  0.00     0.031 A 
ATOM     67  C   UNL A   1      47.433  27.425  24.691  1.00  0.00     0.131 A 
ATOM     68  C   UNL A   1      49.408  26.111  26.109  1.00  0.00     0.055 A 
ATOM     69  C   UNL A   1      48.614  27.054  24.046  1.00  0.00     0.041 A 
ATOM     70  F   UNL A   1      46.503  28.071  23.970  1.00  0.00    -0.206 F 
ATOM     71  C   UNL A   1      49.615  26.400  24.758  1.00  0.00     0.022 A 
BRANCH  68  72
ATOM     72  S   UNL A   1      50.733  25.354  27.089  1.00  0.00     0.124 S 
ATOM     73  O   UNL A   1      50.014  24.297  27.791  1.00  0.00    -0.237 OA
ATOM     74  O   UNL A   1      51.665  24.920  26.055  1.00  0.00    -0.237 OA
ATOM     75  O   UNL A   1      51.205  26.454  27.929  1.00  0.00    -0.744 OA
ENDBRANCH  68  72
ENDBRANCH  41  65
BRANCH  53  76
ATOM     76  C   UNL A   1      45.026  32.968  29.165  1.00  0.00     0.023 A 
ATOM     77  C   UNL A   1      44.835  34.065  28.307  1.00  0.00     0.031 A 
ATOM     78  C   UNL A   1      45.873  33.138  30.275  1.00  0.00     0.131 A 
ATOM     79  C   UNL A   1      45.522  35.267  28.543  1.00  0.00     0.055 A 
ATOM     80  C   UNL A   1      46.502  34.356  30.543  1.00  0.00     0.041 A 
ATOM     81  F   UNL A   1      46.098  32.123  31.126  1.00  0.00    -0.206 F 
ATOM     82  C   UNL A   1      46.336  35.425  29.668  1.00  0.00     0.022 A 
BRANCH  79  83
ATOM     83  S   UNL A   1      45.406  36.594  27.314  1.00  0.00     0.124 S 
ATOM     84  O   UNL A   1      44.053  36.409  26.796  1.00  0.00    -0.237 OA
ATOM     85  O   UNL A   1      45.621  37.789  28.121  1.00  0.00    -0.237 OA
ATOM     86  O   UNL A   1      46.478  36.283  26.370  1.00  0.00    -0.744 OA
ENDBRANCH  79  83
ENDBRANCH  53  76
ENDBRANCH  27  28
ENDBRANCH  19  22
ENDBRANCH  17  18
ENDBRANCH   1  17
TORSDOF 16
ENDMDL
MODEL 2
REMARK VINA RESULT:     -10.7      5.366     10.537
REMARK SMILES CCC[C@@](C)(C(=O)NCCCNC(=O)c1ccc(-c2c3nc(c(-c4cc(S(=O)(=O)[O-])ccc4F)c4ccc([nH]4)c(-c4cc(S(=O)(=O)[O-])ccc4F)c4nc(c(-c5cc(S(=O)(=O)[O-])ccc5F)c5ccc2[nH]5)C=C4)C=C3)cc1)[C@H]1CCOC1
REMARK SMILES IDX 10 1 9 2 8 3 6 4 7 5 4 7 5 8 3 9 2 10 1 11 78 12 79 13 82 14
REMARK SMILES IDX 80 15 81 16 11 17 12 18 13 19 14 21 15 22 16 23 77 24 17 25
REMARK SMILES IDX 76 26 18 27 19 28 20 29 70 30 21 31 75 32 69 33 71 34 22 35
REMARK SMILES IDX 74 36 68 37 67 38 23 40 55 41 35 42 54 43 36 44 39 45 53 46
REMARK SMILES IDX 72 47 37 48 38 49 52 51 73 52 40 53 24 54 25 55 33 56 26 57
REMARK SMILES IDX 32 58 34 59 31 60 27 61 28 62 29 63 30 64 56 65 57 66 65 67
REMARK SMILES IDX 58 68 64 69 66 70 63 71 59 72 60 73 61 74 62 75 41 76 42 77
REMARK SMILES IDX 50 78 43 79 49 80 51 81 48 82 44 83 45 84 46 85 47 86
REMARK H PARENT 8 6 12 20 71 39 39 50
REMARK Flexibility Score: inf
ROOT
ATOM      1  C   UNL A   1      32.439  29.774  25.181  1.00  0.00     0.042 C 
ENDROOT
BRANCH   1   2
ATOM      2  C   UNL A   1      33.582  28.772  25.023  1.00  0.00     0.117 C 
BRANCH   2   3
ATOM      3  N   UNL A   1      33.893  28.506  23.632  1.00  0.00    -0.356 N 
ATOM      4  C   UNL A   1      33.657  27.479  22.785  1.00  0.00     0.226 C 
ATOM      5  O   UNL A   1      34.028  27.703  21.625  1.00  0.00    -0.274 OA
ATOM      6  H   UNL A   1      34.390  29.242  23.207  1.00  0.00     0.163 HD
BRANCH   4   7
ATOM      7  C   UNL A   1      32.897  26.164  23.156  1.00  0.00     0.051 C 
ATOM      8  C   UNL A   1      32.605  25.474  21.804  1.00  0.00     0.022 C 
BRANCH   7   9
ATOM      9  C   UNL A   1      31.606  26.431  23.997  1.00  0.00     0.017 C 
BRANCH   9  10
ATOM     10  C   UNL A   1      30.264  26.690  23.282  1.00  0.00    -0.002 C 
ATOM     11  C   UNL A   1      30.040  28.123  22.823  1.00  0.00     0.004 C 
ENDBRANCH   9  10
ENDBRANCH   7   9
BRANCH   7  12
ATOM     12  C   UNL A   1      33.948  25.290  23.942  1.00  0.00     0.032 C 
ATOM     13  C   UNL A   1      33.700  25.068  25.433  1.00  0.00     0.035 C 
ATOM     14  C   UNL A   1      34.175  23.852  23.510  1.00  0.00     0.164 C 
ATOM     15  C   UNL A   1      34.708  23.984  25.766  1.00  0.00     0.160 C 
ATOM     16  O   UNL A   1      34.962  23.255  24.555  1.00  0.00    -0.381 OA
ENDBRANCH   7  12
ENDBRANCH   4   7
ENDBRANCH   2   3
ENDBRANCH   1   2
BRANCH   1  17
ATOM     17  C   UNL A   1      32.150  30.207  26.618  1.00  0.00     0.118 C 
BRANCH  17  18
ATOM     18  N   UNL A   1      32.133  31.653  26.790  1.00  0.00    -0.352 N 
ATOM     19  C   UNL A   1      33.010  32.483  27.448  1.00  0.00     0.251 C 
ATOM     20  H   UNL A   1      31.371  32.110  26.366  1.00  0.00     0.163 HD
ATOM     21  O   UNL A   1      32.705  33.656  27.631  1.00  0.00    -0.269 OA
BRANCH  19  22
ATOM     22  C   UNL A   1      34.294  31.956  27.965  1.00  0.00     0.039 A 
ATOM     23  C   UNL A   1      35.382  32.825  28.084  1.00  0.00     0.014 A 
ATOM     24  C   UNL A   1      34.428  30.616  28.333  1.00  0.00     0.014 A 
ATOM     25  C   UNL A   1      36.570  32.373  28.663  1.00  0.00     0.010 A 
ATOM     26  C   UNL A   1      35.583  30.188  28.983  1.00  0.00     0.010 A 
ATOM     27  C   UNL A   1      36.662  31.066  29.169  1.00  0.00    -0.014 A 
BRANCH  27  28
ATOM     28  C   UNL A   1      37.855  30.613  29.933  1.00  0.00     0.031 A 
ATOM     29  C   UNL A   1      38.832  29.649  29.323  1.00  0.00     0.074 A 
ATOM     30  C   UNL A   1      38.014  31.013  31.211  1.00  0.00     0.049 A 
ATOM     31  N   UNL A   1      39.880  29.078  29.861  1.00  0.00    -0.248 NA
ATOM     32  C   UNL A   1      38.575  29.251  27.932  1.00  0.00     0.031 C 
ATOM     33  C   UNL A   1      37.120  31.926  31.926  1.00  0.00     0.029 A 
ATOM     34  N   UNL A   1      38.977  30.701  32.136  1.00  0.00    -0.354 N 
ATOM     35  C   UNL A   1      40.406  28.247  28.876  1.00  0.00     0.074 A 
ATOM     36  C   UNL A   1      39.512  28.337  27.739  1.00  0.00     0.031 C 
ATOM     37  C   UNL A   1      37.598  32.130  33.163  1.00  0.00     0.029 A 
ATOM     38  C   UNL A   1      38.796  31.319  33.352  1.00  0.00     0.049 A 
ATOM     39  H   UNL A   1      39.729  30.093  31.949  1.00  0.00     0.167 HD
ATOM     40  C   UNL A   1      41.540  27.502  28.909  1.00  0.00     0.034 A 
ATOM     41  C   UNL A   1      39.504  31.233  34.496  1.00  0.00     0.034 A 
ATOM     42  C   UNL A   1      42.409  27.414  30.059  1.00  0.00     0.049 A 
ATOM     43  C   UNL A   1      40.710  30.332  34.540  1.00  0.00     0.074 A 
ATOM     44  C   UNL A   1      43.605  26.730  30.188  1.00  0.00     0.029 A 
ATOM     45  N   UNL A   1      42.165  28.014  31.290  1.00  0.00    -0.354 N 
ATOM     46  N   UNL A   1      41.226  29.592  33.586  1.00  0.00    -0.248 NA
ATOM     47  C   UNL A   1      41.428  30.254  35.818  1.00  0.00     0.031 C 
ATOM     48  C   UNL A   1      44.036  26.841  31.515  1.00  0.00     0.029 A 
ATOM     49  C   UNL A   1      43.159  27.672  32.195  1.00  0.00     0.049 A 
ATOM     50  H   UNL A   1      41.396  28.596  31.490  1.00  0.00     0.167 HD
ATOM     51  C   UNL A   1      42.347  28.983  34.142  1.00  0.00     0.074 A 
ATOM     52  C   UNL A   1      42.437  29.451  35.511  1.00  0.00     0.031 C 
ATOM     53  C   UNL A   1      43.226  28.121  33.569  1.00  0.00     0.034 A 
BRANCH  40  54
ATOM     54  C   UNL A   1      41.869  26.697  27.670  1.00  0.00     0.023 A 
ATOM     55  C   UNL A   1      41.676  25.304  27.625  1.00  0.00     0.031 A 
ATOM     56  C   UNL A   1      42.447  27.312  26.545  1.00  0.00     0.131 A 
ATOM     57  C   UNL A   1      42.160  24.563  26.538  1.00  0.00     0.055 A 
ATOM     58  C   UNL A   1      42.831  26.579  25.420  1.00  0.00     0.041 A 
ATOM     59  F   UNL A   1      42.675  28.635  26.530  1.00  0.00    -0.206 F 
ATOM     60  C   UNL A   1      42.712  25.193  25.421  1.00  0.00     0.022 A 
BRANCH  57  61
ATOM     61  S   UNL A   1      42.252  22.757  26.702  1.00  0.00     0.124 S 
ATOM     62  O   UNL A   1      42.275  22.335  25.303  1.00  0.00    -0.237 OA
ATOM     63  O   UNL A   1      43.491  22.572  27.447  1.00  0.00    -0.237 OA
ATOM     64  O   UNL A   1      41.029  22.417  27.426  1.00  0.00    -0.744 OA
ENDBRANCH  57  61
ENDBRANCH  40  54
BRANCH  41  65
ATOM     65  C   UNL A   1      39.093  32.021  35.691  1.00  0.00     0.023 A 
ATOM     66  C   UNL A   1      38.345  31.423  36.718  1.00  0.00     0.031 A 
ATOM     67  C   UNL A   1      39.430  33.380  35.824  1.00  0.00     0.131 A 
ATOM     68  C   UNL A   1      37.934  32.190  37.819  1.00  0.00     0.055 A 
ATOM     69  C   UNL A   1      39.061  34.125  36.945  1.00  0.00     0.041 A 
ATOM     70  F   UNL A   1      40.147  33.998  34.872  1.00  0.00    -0.206 F 
ATOM     71  C   UNL A   1      38.300  33.531  37.948  1.00  0.00     0.022 A 
BRANCH  68  72
ATOM     72  S   UNL A   1      36.857  31.418  39.058  1.00  0.00     0.124 S 
ATOM     73  O   UNL A   1      37.679  31.504  40.260  1.00  0.00    -0.237 OA
ATOM     74  O   UNL A   1      35.683  32.282  39.019  1.00  0.00    -0.237 OA
ATOM     75  O   UNL A   1      36.652  30.068  38.535  1.00  0.00    -0.744 OA
ENDBRANCH  68  72
ENDBRANCH  41  65
BRANCH  53  76
ATOM     76  C   UNL A   1      44.383  27.651  34.420  1.00  0.00     0.023 A 
ATOM     77  C   UNL A   1      44.314  26.468  35.176  1.00  0.00     0.031 A 
ATOM     78  C   UNL A   1      45.571  28.402  34.476  1.00  0.00     0.131 A 
ATOM     79  C   UNL A   1      45.392  26.095  35.994  1.00  0.00     0.055 A 
ATOM     80  C   UNL A   1      46.665  27.992  35.241  1.00  0.00     0.041 A 
ATOM     81  F   UNL A   1      45.692  29.544  33.781  1.00  0.00    -0.206 F 
ATOM     82  C   UNL A   1      46.574  26.839  36.014  1.00  0.00     0.022 A 
BRANCH  79  83
ATOM     83  S   UNL A   1      45.196  24.673  37.102  1.00  0.00     0.124 S 
ATOM     84  O   UNL A   1      44.237  25.181  38.079  1.00  0.00    -0.237 OA
ATOM     85  O   UNL A   1      44.700  23.639  36.201  1.00  0.00    -0.237 OA
ATOM     86  O   UNL A   1      46.546  24.450  37.617  1.00  0.00    -0.744 OA
ENDBRANCH  79  83
ENDBRANCH  53  76
ENDBRANCH  27  28
ENDBRANCH  19  22
ENDBRANCH  17  18
ENDBRANCH   1  17
TORSDOF 16
ENDMDL
MODEL 3
REMARK VINA RESULT:     -10.7      6.050     10.994
REMARK SMILES CCC[C@@](C)(C(=O)NCCCNC(=O)c1ccc(-c2c3nc(c(-c4cc(S(=O)(=O)[O-])ccc4F)c4ccc([nH]4)c(-c4cc(S(=O)(=O)[O-])ccc4F)c4nc(c(-c5cc(S(=O)(=O)[O-])ccc5F)c5ccc2[nH]5)C=C4)C=C3)cc1)[C@H]1CCOC1
REMARK SMILES IDX 10 1 9 2 8 3 6 4 7 5 4 7 5 8 3 9 2 10 1 11 78 12 79 13 82 14
REMARK SMILES IDX 80 15 81 16 11 17 12 18 13 19 14 21 15 22 16 23 77 24 17 25
REMARK SMILES IDX 76 26 18 27 19 28 20 29 70 30 21 31 75 32 69 33 71 34 22 35
REMARK SMILES IDX 74 36 68 37 67 38 23 40 55 41 35 42 54 43 36 44 39 45 53 46
REMARK SMILES IDX 72 47 37 48 38 49 52 51 73 52 40 53 24 54 25 55 33 56 26 57
REMARK SMILES IDX 32 58 34 59 31 60 27 61 28 62 29 63 30 64 56 65 57 66 65 67
REMARK SMILES IDX 58 68 64 69 66 70 63 71 59 72 60 73 61 74 62 75 41 76 42 77
REMARK SMILES IDX 50 78 43 79 49 80 51 81 48 82 44 83 45 84 46 85 47 86
REMARK H PARENT 8 6 12 20 71 39 39 50
REMARK Flexibility Score: inf
ROOT
ATOM      1  C   UNL A   1      31.855  31.177  26.649  1.00  0.00     0.042 C 
ENDROOT
BRANCH   1   2
ATOM      2  C   UNL A   1      32.216  29.766  26.187  1.00  0.00     0.117 C 
BRANCH   2   3
ATOM      3  N   UNL A   1      32.872  29.761  24.894  1.00  0.00    -0.356 N 
ATOM      4  C   UNL A   1      33.230  28.800  24.013  1.00  0.00     0.226 C 
ATOM      5  O   UNL A   1      33.702  29.249  22.960  1.00  0.00    -0.274 OA
ATOM      6  H   UNL A   1      33.111  30.666  24.587  1.00  0.00     0.163 HD
BRANCH   4   7
ATOM      7  C   UNL A   1      32.992  27.267  24.209  1.00  0.00     0.051 C 
ATOM      8  C   UNL A   1      33.742  26.909  25.512  1.00  0.00     0.022 C 
BRANCH   7   9
ATOM      9  C   UNL A   1      33.464  26.423  22.981  1.00  0.00     0.017 C 
BRANCH   9  10
ATOM     10  C   UNL A   1      33.911  24.960  23.182  1.00  0.00    -0.002 C 
ATOM     11  C   UNL A   1      33.080  23.920  22.446  1.00  0.00     0.004 C 
ENDBRANCH   9  10
ENDBRANCH   7   9
BRANCH   7  12
ATOM     12  C   UNL A   1      31.445  27.122  24.471  1.00  0.00     0.032 C 
ATOM     13  C   UNL A   1      30.561  26.777  23.274  1.00  0.00     0.035 C 
ATOM     14  C   UNL A   1      30.963  26.065  25.450  1.00  0.00     0.164 C 
ATOM     15  C   UNL A   1      29.239  26.440  23.940  1.00  0.00     0.160 C 
ATOM     16  O   UNL A   1      29.538  25.997  25.273  1.00  0.00    -0.381 OA
ENDBRANCH   7  12
ENDBRANCH   4   7
ENDBRANCH   2   3
ENDBRANCH   1   2
BRANCH   1  17
ATOM     17  C   UNL A   1      33.002  31.967  27.279  1.00  0.00     0.118 C 
BRANCH  17  18
ATOM     18  N   UNL A   1      32.682  33.370  27.496  1.00  0.00    -0.352 N 
ATOM     19  C   UNL A   1      33.180  34.268  28.411  1.00  0.00     0.251 C 
ATOM     20  H   UNL A   1      31.999  33.737  26.888  1.00  0.00     0.163 HD
ATOM     21  O   UNL A   1      32.633  35.357  28.545  1.00  0.00    -0.269 OA
BRANCH  19  22
ATOM     22  C   UNL A   1      34.343  33.909  29.256  1.00  0.00     0.039 A 
ATOM     23  C   UNL A   1      34.136  33.115  30.387  1.00  0.00     0.014 A 
ATOM     24  C   UNL A   1      35.630  34.348  28.937  1.00  0.00     0.014 A 
ATOM     25  C   UNL A   1      35.231  32.681  31.139  1.00  0.00     0.010 A 
ATOM     26  C   UNL A   1      36.725  33.849  29.638  1.00  0.00     0.010 A 
ATOM     27  C   UNL A   1      36.539  32.998  30.738  1.00  0.00    -0.014 A 
BRANCH  27  28
ATOM     28  C   UNL A   1      37.723  32.415  31.425  1.00  0.00     0.031 A 
ATOM     29  C   UNL A   1      38.466  31.260  30.817  1.00  0.00     0.074 A 
ATOM     30  C   UNL A   1      38.078  32.880  32.639  1.00  0.00     0.049 A 
ATOM     31  N   UNL A   1      39.465  30.568  31.305  1.00  0.00    -0.248 NA
ATOM     32  C   UNL A   1      38.003  30.805  29.500  1.00  0.00     0.031 C 
ATOM     33  C   UNL A   1      37.418  33.978  33.348  1.00  0.00     0.029 A 
ATOM     34  N   UNL A   1      39.075  32.486  33.495  1.00  0.00    -0.354 N 
ATOM     35  C   UNL A   1      39.747  29.590  30.356  1.00  0.00     0.074 A 
ATOM     36  C   UNL A   1      38.761  29.738  29.305  1.00  0.00     0.031 C 
ATOM     37  C   UNL A   1      38.052  34.196  34.510  1.00  0.00     0.029 A 
ATOM     38  C   UNL A   1      39.123  33.216  34.660  1.00  0.00     0.049 A 
ATOM     39  H   UNL A   1      39.698  31.751  33.295  1.00  0.00     0.167 HD
ATOM     40  C   UNL A   1      40.748  28.674  30.351  1.00  0.00     0.034 A 
ATOM     41  C   UNL A   1      39.929  33.103  35.735  1.00  0.00     0.034 A 
ATOM     42  C   UNL A   1      41.712  28.533  31.417  1.00  0.00     0.049 A 
ATOM     43  C   UNL A   1      40.978  32.022  35.749  1.00  0.00     0.074 A 
ATOM     44  C   UNL A   1      42.794  27.674  31.497  1.00  0.00     0.029 A 
ATOM     45  N   UNL A   1      41.697  29.256  32.605  1.00  0.00    -0.354 N 
ATOM     46  N   UNL A   1      41.267  31.138  34.824  1.00  0.00    -0.248 NA
ATOM     47  C   UNL A   1      41.808  31.926  36.956  1.00  0.00     0.031 C 
ATOM     48  C   UNL A   1      43.378  27.815  32.761  1.00  0.00     0.029 A 
ATOM     49  C   UNL A   1      42.718  28.826  33.441  1.00  0.00     0.049 A 
ATOM     50  H   UNL A   1      41.055  29.971  32.822  1.00  0.00     0.167 HD
ATOM     51  C   UNL A   1      42.333  30.397  35.326  1.00  0.00     0.074 A 
ATOM     52  C   UNL A   1      42.642  30.948  36.630  1.00  0.00     0.031 C 
ATOM     53  C   UNL A   1      43.001  29.362  34.755  1.00  0.00     0.034 A 
BRANCH  40  54
ATOM     54  C   UNL A   1      40.814  27.733  29.167  1.00  0.00     0.023 A 
ATOM     55  C   UNL A   1      41.766  27.903  28.145  1.00  0.00     0.031 A 
ATOM     56  C   UNL A   1      39.874  26.698  29.018  1.00  0.00     0.131 A 
ATOM     57  C   UNL A   1      41.685  27.134  26.975  1.00  0.00     0.055 A 
ATOM     58  C   UNL A   1      39.866  25.865  27.896  1.00  0.00     0.041 A 
ATOM     59  F   UNL A   1      38.928  26.492  29.948  1.00  0.00    -0.206 F 
ATOM     60  C   UNL A   1      40.758  26.097  26.854  1.00  0.00     0.022 A 
BRANCH  57  61
ATOM     61  S   UNL A   1      42.664  27.652  25.537  1.00  0.00     0.124 S 
ATOM     62  O   UNL A   1      43.954  27.956  26.153  1.00  0.00    -0.237 OA
ATOM     63  O   UNL A   1      42.624  26.468  24.687  1.00  0.00    -0.237 OA
ATOM     64  O   UNL A   1      41.937  28.814  25.028  1.00  0.00    -0.744 OA
ENDBRANCH  57  61
ENDBRANCH  40  54
BRANCH  41  65
ATOM     65  C   UNL A   1      39.776  34.036  36.886  1.00  0.00     0.023 A 
ATOM     66  C   UNL A   1      39.208  33.596  38.092  1.00  0.00     0.031 A 
ATOM     67  C   UNL A   1      40.182  35.380  36.798  1.00  0.00     0.131 A 
ATOM     68  C   UNL A   1      39.037  34.498  39.153  1.00  0.00     0.055 A 
ATOM     69  C   UNL A   1      40.055  36.260  37.874  1.00  0.00     0.041 A 
ATOM     70  F   UNL A   1      40.734  35.850  35.668  1.00  0.00    -0.206 F 
ATOM     71  C   UNL A   1      39.471  35.822  39.059  1.00  0.00     0.022 A 
BRANCH  68  72
ATOM     72  S   UNL A   1      38.179  33.927  40.646  1.00  0.00     0.124 S 
ATOM     73  O   UNL A   1      39.191  33.077  41.262  1.00  0.00    -0.237 OA
ATOM     74  O   UNL A   1      37.891  35.183  41.330  1.00  0.00    -0.237 OA
ATOM     75  O   UNL A   1      37.010  33.226  40.118  1.00  0.00    -0.744 OA
ENDBRANCH  68  72
ENDBRANCH  41  65
BRANCH  53  76
ATOM     76  C   UNL A   1      44.156  28.776  35.533  1.00  0.00     0.023 A 
ATOM     77  C   UNL A   1      43.980  27.700  36.421  1.00  0.00     0.031 A 
ATOM     78  C   UNL A   1      45.451  29.305  35.385  1.00  0.00     0.131 A 
ATOM     79  C   UNL A   1      45.070  27.220  37.164  1.00  0.00     0.055 A 
ATOM     80  C   UNL A   1      46.544  28.780  36.078  1.00  0.00     0.041 A 
ATOM     81  F   UNL A   1      45.678  30.337  34.557  1.00  0.00    -0.206 F 
ATOM     82  C   UNL A   1      46.355  27.740  36.982  1.00  0.00     0.022 A 
BRANCH  79  83
ATOM     83  S   UNL A   1      44.773  25.965  38.439  1.00  0.00     0.124 S 
ATOM     84  O   UNL A   1      43.737  26.599  39.249  1.00  0.00    -0.237 OA
ATOM     85  O   UNL A   1      44.350  24.812  37.652  1.00  0.00    -0.237 OA
ATOM     86  O   UNL A   1      46.072  25.825  39.093  1.00  0.00    -0.744 OA
ENDBRANCH  79  83
ENDBRANCH  53  76
ENDBRANCH  27  28
ENDBRANCH  19  22
ENDBRANCH  17  18
ENDBRANCH   1  17
TORSDOF 16
ENDMDL
