MODEL 1
REMARK VINA RESULT:     -12.8      0.000      0.000
REMARK SMILES O=C(NCCCNC(=O)c1cc(-c2ccccn2)nc2ccc(F)cc12)c1ccc(-c2c3nc(c(-c4cc(S(=O)(=O)[O-])ccc4F)c4ccc([nH]4)c(-c4cc(S(=O)(=O)[O-])ccc4F)c4nc(c(-c5cc(S(=O)(=O)[O-])ccc5F)c5ccc2[nH]5)C=C4)C=C3)cc1
REMARK SMILES IDX 4 1 3 2 1 3 2 4 27 6 28 7 89 8 29 9 88 10 30 11 31 12 32 13
REMARK SMILES IDX 82 14 33 15 87 16 81 17 83 18 34 19 86 20 80 21 79 22 35 24
REMARK SMILES IDX 67 25 47 26 66 27 48 28 51 29 65 30 84 31 49 32 50 33 64 35
REMARK SMILES IDX 85 36 52 37 36 38 37 39 45 40 38 41 44 42 46 43 43 44 39 45
REMARK SMILES IDX 40 46 41 47 42 48 68 49 69 50 77 51 70 52 76 53 78 54 75 55
REMARK SMILES IDX 71 56 72 57 73 58 74 59 53 60 54 61 62 62 55 63 61 64 63 65
REMARK SMILES IDX 60 66 56 67 57 68 58 69 59 70 5 71 6 72 7 73 8 74 9 76 10 77
REMARK SMILES IDX 11 78 26 79 12 80 20 81 25 82 19 83 21 84 23 85 22 86 24 87
REMARK SMILES IDX 13 88 14 89 18 90 15 91 17 92 16 93
REMARK H PARENT 3 5 83 23 51 34 7 75
REMARK Flexibility Score: inf
ROOT
ATOM      1  C   UNL A   1      33.264  29.566  26.223  1.00  0.00     0.118 C 
ENDROOT
BRANCH   1   2
ATOM      2  N   UNL A   1      33.037  30.958  26.583  1.00  0.00    -0.352 N 
ATOM      3  O   UNL A   1      33.230  32.874  27.732  1.00  0.00    -0.269 OA
ATOM      4  C   UNL A   1      33.715  31.779  27.451  1.00  0.00     0.251 C 
ATOM      5  H   UNL A   1      32.272  31.380  26.131  1.00  0.00     0.163 HD
BRANCH   4   6
ATOM      6  C   UNL A   1      35.006  31.369  28.049  1.00  0.00     0.039 A 
ATOM      7  C   UNL A   1      35.091  30.124  28.680  1.00  0.00     0.014 A 
ATOM      8  C   UNL A   1      36.111  32.223  28.054  1.00  0.00     0.014 A 
ATOM      9  C   UNL A   1      36.291  29.721  29.278  1.00  0.00     0.010 A 
ATOM     10  C   UNL A   1      37.327  31.790  28.576  1.00  0.00     0.010 A 
ATOM     11  C   UNL A   1      37.423  30.545  29.215  1.00  0.00    -0.014 A 
BRANCH  11  12
ATOM     12  C   UNL A   1      38.709  30.163  29.854  1.00  0.00     0.031 A 
ATOM     13  C   UNL A   1      39.609  29.168  29.173  1.00  0.00     0.074 A 
ATOM     14  C   UNL A   1      39.030  30.641  31.070  1.00  0.00     0.049 A 
ATOM     15  N   UNL A   1      40.701  28.602  29.617  1.00  0.00    -0.248 NA
ATOM     16  C   UNL A   1      39.212  28.728  27.824  1.00  0.00     0.031 C 
ATOM     17  C   UNL A   1      38.225  31.590  31.838  1.00  0.00     0.029 A 
ATOM     18  N   UNL A   1      40.106  30.380  31.885  1.00  0.00    -0.354 N 
ATOM     19  C   UNL A   1      41.103  27.721  28.620  1.00  0.00     0.074 A 
ATOM     20  C   UNL A   1      40.114  27.791  27.568  1.00  0.00     0.031 C 
ATOM     21  C   UNL A   1      38.839  31.843  33.003  1.00  0.00     0.029 A 
ATOM     22  C   UNL A   1      40.054  31.035  33.094  1.00  0.00     0.049 A 
ATOM     23  H   UNL A   1      40.843  29.782  31.628  1.00  0.00     0.167 HD
ATOM     24  C   UNL A   1      42.209  26.943  28.577  1.00  0.00     0.034 A 
ATOM     25  C   UNL A   1      40.878  30.980  34.162  1.00  0.00     0.034 A 
ATOM     26  C   UNL A   1      43.210  26.923  29.609  1.00  0.00     0.049 A 
ATOM     27  C   UNL A   1      42.104  30.103  34.095  1.00  0.00     0.074 A 
ATOM     28  C   UNL A   1      44.412  26.239  29.616  1.00  0.00     0.029 A 
ATOM     29  N   UNL A   1      43.134  27.613  30.810  1.00  0.00    -0.354 N 
ATOM     30  N   UNL A   1      42.516  29.339  33.110  1.00  0.00    -0.248 NA
ATOM     31  C   UNL A   1      42.979  30.077  35.275  1.00  0.00     0.031 C 
ATOM     32  C   UNL A   1      45.034  26.467  30.842  1.00  0.00     0.029 A 
ATOM     33  C   UNL A   1      44.254  27.346  31.578  1.00  0.00     0.049 A 
ATOM     34  H   UNL A   1      42.394  28.206  31.075  1.00  0.00     0.167 HD
ATOM     35  C   UNL A   1      43.705  28.758  33.543  1.00  0.00     0.074 A 
ATOM     36  C   UNL A   1      43.958  29.275  34.872  1.00  0.00     0.031 C 
ATOM     37  C   UNL A   1      44.509  27.876  32.897  1.00  0.00     0.034 A 
BRANCH  24  38
ATOM     38  C   UNL A   1      42.429  26.063  27.372  1.00  0.00     0.023 A 
ATOM     39  C   UNL A   1      42.020  24.716  27.402  1.00  0.00     0.031 A 
ATOM     40  C   UNL A   1      43.144  26.517  26.249  1.00  0.00     0.131 A 
ATOM     41  C   UNL A   1      42.352  23.865  26.341  1.00  0.00     0.055 A 
ATOM     42  C   UNL A   1      43.437  25.674  25.177  1.00  0.00     0.041 A 
ATOM     43  F   UNL A   1      43.559  27.792  26.175  1.00  0.00    -0.206 F 
ATOM     44  C   UNL A   1      43.051  24.338  25.225  1.00  0.00     0.022 A 
BRANCH  41  45
ATOM     45  S   UNL A   1      41.945  22.099  26.392  1.00  0.00     0.124 S 
ATOM     46  O   UNL A   1      42.403  21.724  27.728  1.00  0.00    -0.237 OA
ATOM     47  O   UNL A   1      40.496  22.115  26.211  1.00  0.00    -0.237 OA
ATOM     48  O   UNL A   1      42.712  21.529  25.290  1.00  0.00    -0.744 OA
ENDBRANCH  41  45
ENDBRANCH  24  38
BRANCH  25  49
ATOM     49  C   UNL A   1      40.578  31.830  35.349  1.00  0.00     0.023 A 
ATOM     50  C   UNL A   1      39.564  31.476  36.259  1.00  0.00     0.031 A 
ATOM     51  C   UNL A   1      41.209  33.074  35.515  1.00  0.00     0.131 A 
ATOM     52  C   UNL A   1      39.161  32.389  37.244  1.00  0.00     0.055 A 
ATOM     53  C   UNL A   1      40.853  33.951  36.543  1.00  0.00     0.041 A 
ATOM     54  F   UNL A   1      42.174  33.460  34.666  1.00  0.00    -0.206 F 
ATOM     55  C   UNL A   1      39.810  33.617  37.401  1.00  0.00     0.022 A 
BRANCH  52  56
ATOM     56  S   UNL A   1      37.693  32.071  38.263  1.00  0.00     0.124 S 
ATOM     57  O   UNL A   1      38.209  32.274  39.613  1.00  0.00    -0.237 OA
ATOM     58  O   UNL A   1      36.771  33.094  37.779  1.00  0.00    -0.237 OA
ATOM     59  O   UNL A   1      37.330  30.699  37.926  1.00  0.00    -0.744 OA
ENDBRANCH  52  56
ENDBRANCH  25  49
BRANCH  37  60
ATOM     60  C   UNL A   1      45.756  27.383  33.588  1.00  0.00     0.023 A 
ATOM     61  C   UNL A   1      45.689  26.270  34.449  1.00  0.00     0.031 A 
ATOM     62  C   UNL A   1      46.949  28.125  33.548  1.00  0.00     0.131 A 
ATOM     63  C   UNL A   1      46.775  25.968  35.281  1.00  0.00     0.055 A 
ATOM     64  C   UNL A   1      48.045  27.790  34.344  1.00  0.00     0.041 A 
ATOM     65  F   UNL A   1      47.056  29.200  32.751  1.00  0.00    -0.206 F 
ATOM     66  C   UNL A   1      47.954  26.718  35.230  1.00  0.00     0.022 A 
BRANCH  63  67
ATOM     67  S   UNL A   1      46.658  24.657  36.530  1.00  0.00     0.124 S 
ATOM     68  O   UNL A   1      45.220  24.610  36.787  1.00  0.00    -0.237 OA
ATOM     69  O   UNL A   1      47.202  23.504  35.817  1.00  0.00    -0.237 OA
ATOM     70  O   UNL A   1      47.470  25.151  37.637  1.00  0.00    -0.744 OA
ENDBRANCH  63  67
ENDBRANCH  37  60
ENDBRANCH  11  12
ENDBRANCH   4   6
ENDBRANCH   1   2
BRANCH   1  71
ATOM     71  C   UNL A   1      32.465  28.594  27.080  1.00  0.00     0.042 C 
BRANCH  71  72
ATOM     72  C   UNL A   1      32.697  27.124  26.765  1.00  0.00     0.118 C 
BRANCH  72  73
ATOM     73  N   UNL A   1      31.479  26.323  26.819  1.00  0.00    -0.352 N 
ATOM     74  C   UNL A   1      30.520  26.106  25.863  1.00  0.00     0.252 C 
ATOM     75  H   UNL A   1      31.321  25.865  27.676  1.00  0.00     0.163 HD
ATOM     76  O   UNL A   1      29.531  25.421  26.125  1.00  0.00    -0.269 OA
BRANCH  74  77
ATOM     77  C   UNL A   1      30.688  26.660  24.504  1.00  0.00     0.051 A 
ATOM     78  C   UNL A   1      30.144  27.919  24.263  1.00  0.00     0.045 A 
ATOM     79  C   UNL A   1      31.381  25.968  23.490  1.00  0.00     0.016 A 
ATOM     80  C   UNL A   1      30.181  28.423  22.976  1.00  0.00     0.090 A 
ATOM     81  C   UNL A   1      31.416  26.594  22.226  1.00  0.00     0.072 A 
ATOM     82  C   UNL A   1      32.022  24.715  23.656  1.00  0.00     0.050 A 
ATOM     83  N   UNL A   1      30.824  27.775  21.975  1.00  0.00    -0.246 NA
ATOM     84  C   UNL A   1      32.084  25.961  21.183  1.00  0.00     0.032 A 
ATOM     85  C   UNL A   1      32.691  24.120  22.594  1.00  0.00     0.123 A 
ATOM     86  C   UNL A   1      32.728  24.733  21.355  1.00  0.00     0.041 A 
ATOM     87  F   UNL A   1      33.312  22.948  22.772  1.00  0.00    -0.207 F 
BRANCH  80  88
ATOM     88  C   UNL A   1      29.437  29.652  22.644  1.00  0.00     0.089 A 
ATOM     89  C   UNL A   1      28.757  30.383  23.620  1.00  0.00     0.030 A 
ATOM     90  N   UNL A   1      29.324  29.944  21.323  1.00  0.00    -0.255 NA
ATOM     91  C   UNL A   1      27.932  31.433  23.229  1.00  0.00     0.004 A 
ATOM     92  C   UNL A   1      28.520  30.970  20.971  1.00  0.00     0.112 A 
ATOM     93  C   UNL A   1      27.805  31.731  21.879  1.00  0.00     0.020 A 
ENDBRANCH  80  88
ENDBRANCH  74  77
ENDBRANCH  72  73
ENDBRANCH  71  72
ENDBRANCH   1  71
TORSDOF 14
ENDMDL
MODEL 2
REMARK VINA RESULT:     -12.7      2.330      7.810
REMARK SMILES O=C(NCCCNC(=O)c1cc(-c2ccccn2)nc2ccc(F)cc12)c1ccc(-c2c3nc(c(-c4cc(S(=O)(=O)[O-])ccc4F)c4ccc([nH]4)c(-c4cc(S(=O)(=O)[O-])ccc4F)c4nc(c(-c5cc(S(=O)(=O)[O-])ccc5F)c5ccc2[nH]5)C=C4)C=C3)cc1
REMARK SMILES IDX 4 1 3 2 1 3 2 4 27 6 28 7 89 8 29 9 88 10 30 11 31 12 32 13
REMARK SMILES IDX 82 14 33 15 87 16 81 17 83 18 34 19 86 20 80 21 79 22 35 24
REMARK SMILES IDX 67 25 47 26 66 27 48 28 51 29 65 30 84 31 49 32 50 33 64 35
REMARK SMILES IDX 85 36 52 37 36 38 37 39 45 40 38 41 44 42 46 43 43 44 39 45
REMARK SMILES IDX 40 46 41 47 42 48 68 49 69 50 77 51 70 52 76 53 78 54 75 55
REMARK SMILES IDX 71 56 72 57 73 58 74 59 53 60 54 61 62 62 55 63 61 64 63 65
REMARK SMILES IDX 60 66 56 67 57 68 58 69 59 70 5 71 6 72 7 73 8 74 9 76 10 77
REMARK SMILES IDX 11 78 26 79 12 80 20 81 25 82 19 83 21 84 23 85 22 86 24 87
REMARK SMILES IDX 13 88 14 89 18 90 15 91 17 92 16 93
REMARK H PARENT 3 5 83 23 51 34 7 75
REMARK Flexibility Score: inf
ROOT
ATOM      1  C   UNL A   1      34.122  28.867  25.934  1.00  0.00     0.118 C 
ENDROOT
BRANCH   1   2
ATOM      2  N   UNL A   1      33.878  30.157  26.562  1.00  0.00    -0.352 N 
ATOM      3  O   UNL A   1      34.040  31.805  28.074  1.00  0.00    -0.269 OA
ATOM      4  C   UNL A   1      34.538  30.791  27.585  1.00  0.00     0.251 C 
ATOM      5  H   UNL A   1      33.115  30.656  26.193  1.00  0.00     0.163 HD
BRANCH   4   6
ATOM      6  C   UNL A   1      35.826  30.278  28.107  1.00  0.00     0.039 A 
ATOM      7  C   UNL A   1      36.978  30.437  27.331  1.00  0.00     0.014 A 
ATOM      8  C   UNL A   1      35.898  29.585  29.318  1.00  0.00     0.014 A 
ATOM      9  C   UNL A   1      38.204  29.938  27.786  1.00  0.00     0.010 A 
ATOM     10  C   UNL A   1      37.130  29.161  29.808  1.00  0.00     0.010 A 
ATOM     11  C   UNL A   1      38.292  29.311  29.037  1.00  0.00    -0.014 A 
BRANCH  11  12
ATOM     12  C   UNL A   1      39.570  28.751  29.547  1.00  0.00     0.031 A 
ATOM     13  C   UNL A   1      40.303  29.461  30.653  1.00  0.00     0.074 A 
ATOM     14  C   UNL A   1      40.110  27.662  28.970  1.00  0.00     0.049 A 
ATOM     15  N   UNL A   1      41.488  29.217  31.148  1.00  0.00    -0.248 NA
ATOM     16  C   UNL A   1      39.624  30.617  31.264  1.00  0.00     0.031 C 
ATOM     17  C   UNL A   1      39.505  26.905  27.875  1.00  0.00     0.029 A 
ATOM     18  N   UNL A   1      41.298  27.012  29.208  1.00  0.00    -0.354 N 
ATOM     19  C   UNL A   1      41.709  30.204  32.102  1.00  0.00     0.074 A 
ATOM     20  C   UNL A   1      40.557  31.077  32.085  1.00  0.00     0.031 C 
ATOM     21  C   UNL A   1      40.316  25.888  27.545  1.00  0.00     0.029 A 
ATOM     22  C   UNL A   1      41.525  25.949  28.365  1.00  0.00     0.049 A 
ATOM     23  H   UNL A   1      41.927  27.283  29.915  1.00  0.00     0.167 HD
ATOM     24  C   UNL A   1      42.766  30.352  32.933  1.00  0.00     0.034 A 
ATOM     25  C   UNL A   1      42.590  25.127  28.251  1.00  0.00     0.034 A 
ATOM     26  C   UNL A   1      43.882  29.445  32.974  1.00  0.00     0.049 A 
ATOM     27  C   UNL A   1      43.760  25.312  29.184  1.00  0.00     0.074 A 
ATOM     28  C   UNL A   1      44.957  29.457  33.843  1.00  0.00     0.029 A 
ATOM     29  N   UNL A   1      44.068  28.368  32.118  1.00  0.00    -0.354 N 
ATOM     30  N   UNL A   1      43.918  26.198  30.140  1.00  0.00    -0.248 NA
ATOM     31  C   UNL A   1      44.896  24.391  29.032  1.00  0.00     0.031 C 
ATOM     32  C   UNL A   1      45.822  28.427  33.477  1.00  0.00     0.029 A 
ATOM     33  C   UNL A   1      45.258  27.728  32.421  1.00  0.00     0.049 A 
ATOM     34  H   UNL A   1      43.446  28.100  31.404  1.00  0.00     0.167 HD
ATOM     35  C   UNL A   1      45.158  25.930  30.713  1.00  0.00     0.074 A 
ATOM     36  C   UNL A   1      45.700  24.785  30.012  1.00  0.00     0.031 C 
ATOM     37  C   UNL A   1      45.787  26.578  31.727  1.00  0.00     0.034 A 
BRANCH  24  38
ATOM     38  C   UNL A   1      42.775  31.515  33.894  1.00  0.00     0.023 A 
ATOM     39  C   UNL A   1      42.122  31.405  35.136  1.00  0.00     0.031 A 
ATOM     40  C   UNL A   1      43.320  32.761  33.536  1.00  0.00     0.131 A 
ATOM     41  C   UNL A   1      42.009  32.528  35.963  1.00  0.00     0.055 A 
ATOM     42  C   UNL A   1      43.239  33.867  34.382  1.00  0.00     0.041 A 
ATOM     43  F   UNL A   1      43.949  32.917  32.360  1.00  0.00    -0.206 F 
ATOM     44  C   UNL A   1      42.570  33.756  35.597  1.00  0.00     0.022 A 
BRANCH  41  45
ATOM     45  S   UNL A   1      41.078  32.459  37.518  1.00  0.00     0.124 S 
ATOM     46  O   UNL A   1      41.953  31.641  38.355  1.00  0.00    -0.237 OA
ATOM     47  O   UNL A   1      41.001  33.870  37.890  1.00  0.00    -0.237 OA
ATOM     48  O   UNL A   1      39.814  31.834  37.145  1.00  0.00    -0.744 OA
ENDBRANCH  41  45
ENDBRANCH  24  38
BRANCH  25  49
ATOM     49  C   UNL A   1      42.548  24.029  27.242  1.00  0.00     0.023 A 
ATOM     50  C   UNL A   1      41.949  22.791  27.540  1.00  0.00     0.031 A 
ATOM     51  C   UNL A   1      43.221  24.160  26.016  1.00  0.00     0.131 A 
ATOM     52  C   UNL A   1      42.104  21.712  26.659  1.00  0.00     0.055 A 
ATOM     53  C   UNL A   1      43.312  23.102  25.108  1.00  0.00     0.041 A 
ATOM     54  F   UNL A   1      43.816  25.318  25.693  1.00  0.00    -0.206 F 
ATOM     55  C   UNL A   1      42.769  21.865  25.438  1.00  0.00     0.022 A 
BRANCH  52  56
ATOM     56  S   UNL A   1      41.571  20.042  27.129  1.00  0.00     0.124 S 
ATOM     57  O   UNL A   1      40.555  20.320  28.139  1.00  0.00    -0.237 OA
ATOM     58  O   UNL A   1      41.073  19.522  25.858  1.00  0.00    -0.237 OA
ATOM     59  O   UNL A   1      42.794  19.414  27.619  1.00  0.00    -0.744 OA
ENDBRANCH  52  56
ENDBRANCH  25  49
BRANCH  37  60
ATOM     60  C   UNL A   1      47.145  26.093  32.172  1.00  0.00     0.023 A 
ATOM     61  C   UNL A   1      48.280  26.365  31.383  1.00  0.00     0.031 A 
ATOM     62  C   UNL A   1      47.281  25.209  33.255  1.00  0.00     0.131 A 
ATOM     63  C   UNL A   1      49.488  25.709  31.653  1.00  0.00     0.055 A 
ATOM     64  C   UNL A   1      48.500  24.595  33.549  1.00  0.00     0.041 A 
ATOM     65  F   UNL A   1      46.225  24.912  34.029  1.00  0.00    -0.206 F 
ATOM     66  C   UNL A   1      49.605  24.830  32.734  1.00  0.00     0.022 A 
BRANCH  63  67
ATOM     67  S   UNL A   1      50.918  25.893  30.552  1.00  0.00     0.124 S 
ATOM     68  O   UNL A   1      52.001  25.344  31.366  1.00  0.00    -0.237 OA
ATOM     69  O   UNL A   1      50.528  25.081  29.403  1.00  0.00    -0.237 OA
ATOM     70  O   UNL A   1      50.994  27.330  30.309  1.00  0.00    -0.744 OA
ENDBRANCH  63  67
ENDBRANCH  37  60
ENDBRANCH  11  12
ENDBRANCH   4   6
ENDBRANCH   1   2
BRANCH   1  71
ATOM     71  C   UNL A   1      33.431  27.717  26.654  1.00  0.00     0.042 C 
BRANCH  71  72
ATOM     72  C   UNL A   1      32.024  28.021  27.143  1.00  0.00     0.118 C 
BRANCH  72  73
ATOM     73  N   UNL A   1      31.134  26.866  27.095  1.00  0.00    -0.352 N 
ATOM     74  C   UNL A   1      30.471  26.304  26.034  1.00  0.00     0.252 C 
ATOM     75  H   UNL A   1      30.986  26.420  27.961  1.00  0.00     0.163 HD
ATOM     76  O   UNL A   1      29.721  25.344  26.214  1.00  0.00    -0.269 OA
BRANCH  74  77
ATOM     77  C   UNL A   1      30.683  26.822  24.668  1.00  0.00     0.051 A 
ATOM     78  C   UNL A   1      30.163  28.081  24.380  1.00  0.00     0.045 A 
ATOM     79  C   UNL A   1      31.395  26.097  23.690  1.00  0.00     0.016 A 
ATOM     80  C   UNL A   1      30.242  28.553  23.084  1.00  0.00     0.090 A 
ATOM     81  C   UNL A   1      31.472  26.690  22.412  1.00  0.00     0.072 A 
ATOM     82  C   UNL A   1      32.014  24.839  23.904  1.00  0.00     0.050 A 
ATOM     83  N   UNL A   1      30.903  27.872  22.116  1.00  0.00    -0.246 NA
ATOM     84  C   UNL A   1      32.160  26.024  21.404  1.00  0.00     0.032 A 
ATOM     85  C   UNL A   1      32.704  24.211  22.876  1.00  0.00     0.123 A 
ATOM     86  C   UNL A   1      32.782  24.792  21.624  1.00  0.00     0.041 A 
ATOM     87  F   UNL A   1      33.303  23.035  23.099  1.00  0.00    -0.207 F 
BRANCH  80  88
ATOM     88  C   UNL A   1      29.524  29.782  22.701  1.00  0.00     0.089 A 
ATOM     89  C   UNL A   1      29.128  30.726  23.651  1.00  0.00     0.030 A 
ATOM     90  N   UNL A   1      29.138  29.870  21.403  1.00  0.00    -0.255 NA
ATOM     91  C   UNL A   1      28.306  31.779  23.261  1.00  0.00     0.004 A 
ATOM     92  C   UNL A   1      28.344  30.903  21.050  1.00  0.00     0.112 A 
ATOM     93  C   UNL A   1      27.901  31.869  21.936  1.00  0.00     0.020 A 
ENDBRANCH  80  88
ENDBRANCH  74  77
ENDBRANCH  72  73
ENDBRANCH  71  72
ENDBRANCH   1  71
TORSDOF 14
ENDMDL
MODEL 3
REMARK VINA RESULT:     -12.7      3.014      4.411
REMARK SMILES O=C(NCCCNC(=O)c1cc(-c2ccccn2)nc2ccc(F)cc12)c1ccc(-c2c3nc(c(-c4cc(S(=O)(=O)[O-])ccc4F)c4ccc([nH]4)c(-c4cc(S(=O)(=O)[O-])ccc4F)c4nc(c(-c5cc(S(=O)(=O)[O-])ccc5F)c5ccc2[nH]5)C=C4)C=C3)cc1
REMARK SMILES IDX 4 1 3 2 1 3 2 4 27 6 28 7 89 8 29 9 88 10 30 11 31 12 32 13
REMARK SMILES IDX 82 14 33 15 87 16 81 17 83 18 34 19 86 20 80 21 79 22 35 24
REMARK SMILES IDX 67 25 47 26 66 27 48 28 51 29 65 30 84 31 49 32 50 33 64 35
REMARK SMILES IDX 85 36 52 37 36 38 37 39 45 40 38 41 44 42 46 43 43 44 39 45
REMARK SMILES IDX 40 46 41 47 42 48 68 49 69 50 77 51 70 52 76 53 78 54 75 55
REMARK SMILES IDX 71 56 72 57 73 58 74 59 53 60 54 61 62 62 55 63 61 64 63 65
REMARK SMILES IDX 60 66 56 67 57 68 58 69 59 70 5 71 6 72 7 73 8 74 9 76 10 77
REMARK SMILES IDX 11 78 26 79 12 80 20 81 25 82 19 83 21 84 23 85 22 86 24 87
REMARK SMILES IDX 13 88 14 89 18 90 15 91 17 92 16 93
REMARK H PARENT 3 5 83 23 51 34 7 75
REMARK Flexibility Score: inf
ROOT
ATOM      1  C   UNL A   1      32.859  32.485  27.045  1.00  0.00     0.118 C 
ENDROOT
BRANCH   1   2
ATOM      2  N   UNL A   1      32.610  33.819  27.571  1.00  0.00    -0.352 N 
ATOM      3  O   UNL A   1      32.680  35.544  29.000  1.00  0.00    -0.269 OA
ATOM      4  C   UNL A   1      33.179  34.483  28.629  1.00  0.00     0.251 C 
ATOM      5  H   UNL A   1      31.920  34.328  27.088  1.00  0.00     0.163 HD
BRANCH   4   6
ATOM      6  C   UNL A   1      34.371  33.946  29.325  1.00  0.00     0.039 A 
ATOM      7  C   UNL A   1      35.640  34.357  28.902  1.00  0.00     0.014 A 
ATOM      8  C   UNL A   1      34.256  32.995  30.341  1.00  0.00     0.014 A 
ATOM      9  C   UNL A   1      36.785  33.846  29.523  1.00  0.00     0.010 A 
ATOM     10  C   UNL A   1      35.390  32.549  31.013  1.00  0.00     0.010 A 
ATOM     11  C   UNL A   1      36.668  32.950  30.595  1.00  0.00    -0.014 A 
BRANCH  11  12
ATOM     12  C   UNL A   1      37.859  32.370  31.268  1.00  0.00     0.031 A 
ATOM     13  C   UNL A   1      38.578  31.210  30.634  1.00  0.00     0.074 A 
ATOM     14  C   UNL A   1      38.244  32.825  32.474  1.00  0.00     0.049 A 
ATOM     15  N   UNL A   1      39.548  30.478  31.114  1.00  0.00    -0.248 NA
ATOM     16  C   UNL A   1      38.126  30.802  29.292  1.00  0.00     0.031 C 
ATOM     17  C   UNL A   1      37.610  33.926  33.198  1.00  0.00     0.029 A 
ATOM     18  N   UNL A   1      39.248  32.408  33.316  1.00  0.00    -0.354 N 
ATOM     19  C   UNL A   1      39.800  29.506  30.152  1.00  0.00     0.074 A 
ATOM     20  C   UNL A   1      38.852  29.713  29.081  1.00  0.00     0.031 C 
ATOM     21  C   UNL A   1      38.245  34.107  34.365  1.00  0.00     0.029 A 
ATOM     22  C   UNL A   1      39.298  33.102  34.502  1.00  0.00     0.049 A 
ATOM     23  H   UNL A   1      39.872  31.681  33.090  1.00  0.00     0.167 HD
ATOM     24  C   UNL A   1      40.753  28.546  30.153  1.00  0.00     0.034 A 
ATOM     25  C   UNL A   1      40.087  32.939  35.586  1.00  0.00     0.034 A 
ATOM     26  C   UNL A   1      41.723  28.385  31.203  1.00  0.00     0.049 A 
ATOM     27  C   UNL A   1      41.140  31.859  35.568  1.00  0.00     0.074 A 
ATOM     28  C   UNL A   1      42.785  27.501  31.252  1.00  0.00     0.029 A 
ATOM     29  N   UNL A   1      41.755  29.118  32.380  1.00  0.00    -0.354 N 
ATOM     30  N   UNL A   1      41.424  31.002  34.614  1.00  0.00    -0.248 NA
ATOM     31  C   UNL A   1      41.983  31.720  36.763  1.00  0.00     0.031 C 
ATOM     32  C   UNL A   1      43.424  27.658  32.482  1.00  0.00     0.029 A 
ATOM     33  C   UNL A   1      42.802  28.684  33.176  1.00  0.00     0.049 A 
ATOM     34  H   UNL A   1      41.128  29.840  32.614  1.00  0.00     0.167 HD
ATOM     35  C   UNL A   1      42.486  30.237  35.086  1.00  0.00     0.074 A 
ATOM     36  C   UNL A   1      42.811  30.746  36.403  1.00  0.00     0.031 C 
ATOM     37  C   UNL A   1      43.130  29.206  34.482  1.00  0.00     0.034 A 
BRANCH  24  38
ATOM     38  C   UNL A   1      40.829  27.601  28.980  1.00  0.00     0.023 A 
ATOM     39  C   UNL A   1      41.761  27.832  27.950  1.00  0.00     0.031 A 
ATOM     40  C   UNL A   1      39.909  26.549  28.821  1.00  0.00     0.131 A 
ATOM     41  C   UNL A   1      41.733  27.039  26.797  1.00  0.00     0.055 A 
ATOM     42  C   UNL A   1      39.912  25.737  27.688  1.00  0.00     0.041 A 
ATOM     43  F   UNL A   1      38.998  26.291  29.774  1.00  0.00    -0.206 F 
ATOM     44  C   UNL A   1      40.820  25.988  26.663  1.00  0.00     0.022 A 
BRANCH  41  45
ATOM     45  S   UNL A   1      42.839  27.376  25.399  1.00  0.00     0.124 S 
ATOM     46  O   UNL A   1      42.797  26.109  24.673  1.00  0.00    -0.237 OA
ATOM     47  O   UNL A   1      42.168  28.494  24.742  1.00  0.00    -0.237 OA
ATOM     48  O   UNL A   1      44.117  27.688  26.029  1.00  0.00    -0.744 OA
ENDBRANCH  41  45
ENDBRANCH  24  38
BRANCH  25  49
ATOM     49  C   UNL A   1      39.927  33.869  36.741  1.00  0.00     0.023 A 
ATOM     50  C   UNL A   1      40.838  34.918  36.961  1.00  0.00     0.031 A 
ATOM     51  C   UNL A   1      38.938  33.638  37.711  1.00  0.00     0.131 A 
ATOM     52  C   UNL A   1      40.789  35.644  38.159  1.00  0.00     0.055 A 
ATOM     53  C   UNL A   1      38.848  34.411  38.871  1.00  0.00     0.041 A 
ATOM     54  F   UNL A   1      38.053  32.642  37.550  1.00  0.00    -0.206 F 
ATOM     55  C   UNL A   1      39.790  35.407  39.107  1.00  0.00     0.022 A 
BRANCH  52  56
ATOM     56  S   UNL A   1      42.100  36.824  38.587  1.00  0.00     0.124 S 
ATOM     57  O   UNL A   1      41.356  37.869  39.281  1.00  0.00    -0.237 OA
ATOM     58  O   UNL A   1      42.972  36.005  39.426  1.00  0.00    -0.237 OA
ATOM     59  O   UNL A   1      42.661  37.200  37.293  1.00  0.00    -0.744 OA
ENDBRANCH  52  56
ENDBRANCH  25  49
BRANCH  37  60
ATOM     60  C   UNL A   1      44.263  28.525  35.210  1.00  0.00     0.023 A 
ATOM     61  C   UNL A   1      43.988  27.497  36.132  1.00  0.00     0.031 A 
ATOM     62  C   UNL A   1      45.575  29.024  35.137  1.00  0.00     0.131 A 
ATOM     63  C   UNL A   1      44.999  27.042  36.989  1.00  0.00     0.055 A 
ATOM     64  C   UNL A   1      46.590  28.533  35.959  1.00  0.00     0.041 A 
ATOM     65  F   UNL A   1      45.882  30.010  34.280  1.00  0.00    -0.206 F 
ATOM     66  C   UNL A   1      46.299  27.551  36.904  1.00  0.00     0.022 A 
BRANCH  63  67
ATOM     67  S   UNL A   1      44.640  25.852  38.309  1.00  0.00     0.124 S 
ATOM     68  O   UNL A   1      43.952  26.687  39.292  1.00  0.00    -0.237 OA
ATOM     69  O   UNL A   1      43.798  24.875  37.623  1.00  0.00    -0.237 OA
ATOM     70  O   UNL A   1      45.955  25.370  38.719  1.00  0.00    -0.744 OA
ENDBRANCH  63  67
ENDBRANCH  37  60
ENDBRANCH  11  12
ENDBRANCH   4   6
ENDBRANCH   1   2
BRANCH   1  71
ATOM     71  C   UNL A   1      31.586  31.666  26.877  1.00  0.00     0.042 C 
BRANCH  71  72
ATOM     72  C   UNL A   1      31.807  30.217  26.474  1.00  0.00     0.118 C 
BRANCH  72  73
ATOM     73  N   UNL A   1      32.624  30.069  25.275  1.00  0.00    -0.352 N 
ATOM     74  C   UNL A   1      32.512  29.186  24.231  1.00  0.00     0.252 C 
ATOM     75  H   UNL A   1      33.374  30.704  25.202  1.00  0.00     0.163 HD
ATOM     76  O   UNL A   1      33.343  29.197  23.322  1.00  0.00    -0.269 OA
BRANCH  74  77
ATOM     77  C   UNL A   1      31.375  28.245  24.174  1.00  0.00     0.051 A 
ATOM     78  C   UNL A   1      31.612  26.940  24.596  1.00  0.00     0.045 A 
ATOM     79  C   UNL A   1      30.095  28.638  23.731  1.00  0.00     0.016 A 
ATOM     80  C   UNL A   1      30.607  26.002  24.453  1.00  0.00     0.090 A 
ATOM     81  C   UNL A   1      29.119  27.621  23.678  1.00  0.00     0.072 A 
ATOM     82  C   UNL A   1      29.741  29.955  23.342  1.00  0.00     0.050 A 
ATOM     83  N   UNL A   1      29.371  26.344  24.014  1.00  0.00    -0.246 NA
ATOM     84  C   UNL A   1      27.836  27.945  23.249  1.00  0.00     0.032 A 
ATOM     85  C   UNL A   1      28.446  30.242  22.933  1.00  0.00     0.123 A 
ATOM     86  C   UNL A   1      27.487  29.247  22.881  1.00  0.00     0.041 A 
ATOM     87  F   UNL A   1      28.119  31.494  22.591  1.00  0.00    -0.207 F 
BRANCH  80  88
ATOM     88  C   UNL A   1      30.889  24.576  24.696  1.00  0.00     0.089 A 
ATOM     89  C   UNL A   1      30.752  24.007  25.963  1.00  0.00     0.030 A 
ATOM     90  N   UNL A   1      31.432  23.889  23.658  1.00  0.00    -0.255 NA
ATOM     91  C   UNL A   1      31.194  22.704  26.174  1.00  0.00     0.004 A 
ATOM     92  C   UNL A   1      31.849  22.626  23.888  1.00  0.00     0.112 A 
ATOM     93  C   UNL A   1      31.758  21.999  25.118  1.00  0.00     0.020 A 
ENDBRANCH  80  88
ENDBRANCH  74  77
ENDBRANCH  72  73
ENDBRANCH  71  72
ENDBRANCH   1  71
TORSDOF 14
ENDMDL
