MODEL 1
REMARK VINA RESULT:     -13.7      0.000      0.000
REMARK SMILES Cc1ccccc1C(=O)Nc1cc(C(=O)NCCCNC(=O)c2ccc(-c3c4nc(c(-c5cc(S(=O)(=O)[O-])ccc5F)c5ccc([nH]5)c(-c5cc(S(=O)(=O)[O-])ccc5F)c5nc(c(-c6cc(S(=O)(=O)[O-])ccc6F)c6ccc3[nH]6)C=C5)C=C4)cc2)ccc1N1CC[NH+](CC(=O)Nc2ccc(F)cc2)CC1
REMARK SMILES IDX 17 1 16 2 14 3 15 4 13 6 11 7 12 8 88 9 87 10 86 11 10 12
REMARK SMILES IDX 8 13 9 14 7 16 1 17 2 18 3 19 4 20 6 21 5 22 89 23 90 24
REMARK SMILES IDX 105 25 91 26 104 27 92 28 93 30 94 31 95 32 96 33 97 35
REMARK SMILES IDX 98 36 103 37 99 38 102 39 100 40 101 41 18 42 19 43 20 44
REMARK SMILES IDX 21 45 22 47 23 48 24 49 85 50 25 51 84 52 26 53 27 54 28 55
REMARK SMILES IDX 78 56 29 57 83 58 77 59 79 60 30 61 82 62 76 63 75 64 31 66
REMARK SMILES IDX 63 67 43 68 62 69 44 70 47 71 61 72 80 73 45 74 46 75 60 77
REMARK SMILES IDX 81 78 48 79 32 80 33 81 41 82 34 83 40 84 42 85 39 86 35 87
REMARK SMILES IDX 36 88 37 89 38 90 64 91 65 92 73 93 66 94 72 95 74 96 71 97
REMARK SMILES IDX 67 98 68 99 69 100 70 101 49 102 50 103 58 104 51 105 57 106
REMARK SMILES IDX 59 107 56 108 52 109 53 110 54 111 55 112
REMARK H PARENT 16 5 10 15 92 29 96 34 20 46 79 65 47 76
REMARK Flexibility Score: inf
ROOT
ATOM      1  C   UNL A   1      38.685  23.854  26.521  1.00  0.00     0.118 C 
ENDROOT
BRANCH   1   2
ATOM      2  N   UNL A   1      38.218  22.505  26.162  1.00  0.00    -0.352 N 
ATOM      3  C   UNL A   1      37.154  22.028  25.424  1.00  0.00     0.251 C 
ATOM      4  O   UNL A   1      37.123  20.831  25.137  1.00  0.00    -0.269 OA
ATOM      5  H   UNL A   1      38.788  21.789  26.525  1.00  0.00     0.163 HD
BRANCH   3   6
ATOM      6  C   UNL A   1      36.039  22.886  24.941  1.00  0.00     0.042 A 
ATOM      7  C   UNL A   1      34.072  23.184  23.581  1.00  0.00     0.065 A 
ATOM      8  C   UNL A   1      35.199  22.478  23.931  1.00  0.00     0.042 A 
ATOM      9  C   UNL A   1      33.826  24.484  24.079  1.00  0.00     0.061 A 
ATOM     10  C   UNL A   1      34.695  24.927  25.086  1.00  0.00     0.029 A 
ATOM     11  C   UNL A   1      35.764  24.124  25.541  1.00  0.00     0.016 A 
BRANCH   7  12
ATOM     12  N   UNL A   1      33.202  22.548  22.692  1.00  0.00    -0.320 N 
ATOM     13  C   UNL A   1      32.553  21.326  22.780  1.00  0.00     0.255 C 
ATOM     14  O   UNL A   1      31.728  21.123  21.876  1.00  0.00    -0.269 OA
ATOM     15  H   UNL A   1      33.021  23.051  21.865  1.00  0.00     0.170 HD
BRANCH  13  16
ATOM     16  C   UNL A   1      32.662  20.273  23.864  1.00  0.00     0.043 A 
ATOM     17  C   UNL A   1      32.442  21.632  26.089  1.00  0.00     0.045 C 
ATOM     18  C   UNL A   1      32.602  20.387  25.275  1.00  0.00    -0.038 A 
ATOM     19  C   UNL A   1      32.700  19.216  26.070  1.00  0.00     0.004 A 
ATOM     20  C   UNL A   1      32.726  17.949  25.510  1.00  0.00     0.000 A 
ATOM     21  C   UNL A   1      32.703  18.961  23.331  1.00  0.00     0.014 A 
ATOM     22  C   UNL A   1      32.716  17.818  24.135  1.00  0.00     0.001 A 
ENDBRANCH  13  16
ENDBRANCH   7  12
BRANCH   9  23
ATOM     23  N   UNL A   1      32.738  25.228  23.654  1.00  0.00    -0.359 N 
ATOM     24  C   UNL A   1      32.778  26.288  22.624  1.00  0.00     0.178 C 
ATOM     25  C   UNL A   1      31.644  25.421  24.597  1.00  0.00     0.178 C 
ATOM     26  C   UNL A   1      31.335  26.629  22.084  1.00  0.00     0.284 C 
ATOM     27  C   UNL A   1      30.343  25.312  23.792  1.00  0.00     0.284 C 
ATOM     28  N   UNL A   1      30.165  26.507  22.984  1.00  0.00    -0.324 N 
ATOM     29  H   UNL A   1      29.382  26.459  22.332  1.00  0.00     0.348 HD
BRANCH  28  30
ATOM     30  C   UNL A   1      29.687  27.656  23.788  1.00  0.00     0.364 C 
BRANCH  30  31
ATOM     31  C   UNL A   1      30.163  29.077  23.470  1.00  0.00     0.279 C 
ATOM     32  O   UNL A   1      29.678  29.642  22.472  1.00  0.00    -0.268 OA
ATOM     33  N   UNL A   1      31.004  29.865  24.214  1.00  0.00    -0.321 N 
ATOM     34  H   UNL A   1      30.863  30.805  23.956  1.00  0.00     0.170 HD
BRANCH  33  35
ATOM     35  C   UNL A   1      32.006  29.818  25.222  1.00  0.00     0.041 A 
ATOM     36  C   UNL A   1      33.109  28.990  24.937  1.00  0.00     0.029 A 
ATOM     37  C   UNL A   1      31.983  30.371  26.499  1.00  0.00     0.029 A 
ATOM     38  C   UNL A   1      34.129  28.745  25.873  1.00  0.00     0.041 A 
ATOM     39  C   UNL A   1      32.970  30.092  27.467  1.00  0.00     0.041 A 
ATOM     40  C   UNL A   1      34.046  29.295  27.139  1.00  0.00     0.123 A 
ATOM     41  F   UNL A   1      35.008  29.058  28.040  1.00  0.00    -0.207 F 
ENDBRANCH  33  35
ENDBRANCH  30  31
ENDBRANCH  28  30
ENDBRANCH   9  23
ENDBRANCH   3   6
ENDBRANCH   1   2
BRANCH   1  42
ATOM     42  C   UNL A   1      39.840  23.858  27.533  1.00  0.00     0.042 C 
BRANCH  42  43
ATOM     43  C   UNL A   1      40.367  25.243  27.824  1.00  0.00     0.118 C 
BRANCH  43  44
ATOM     44  N   UNL A   1      41.738  25.501  27.389  1.00  0.00    -0.352 N 
ATOM     45  C   UNL A   1      42.281  26.685  26.897  1.00  0.00     0.251 C 
ATOM     46  H   UNL A   1      42.357  24.738  27.453  1.00  0.00     0.163 HD
ATOM     47  O   UNL A   1      43.442  26.770  26.534  1.00  0.00    -0.269 OA
BRANCH  45  48
ATOM     48  C   UNL A   1      41.459  27.923  27.002  1.00  0.00     0.039 A 
ATOM     49  C   UNL A   1      42.085  28.982  27.671  1.00  0.00     0.014 A 
ATOM     50  C   UNL A   1      40.077  27.817  26.982  1.00  0.00     0.014 A 
ATOM     51  C   UNL A   1      41.368  29.674  28.636  1.00  0.00     0.010 A 
ATOM     52  C   UNL A   1      39.406  28.371  28.047  1.00  0.00     0.010 A 
ATOM     53  C   UNL A   1      40.082  29.232  28.919  1.00  0.00    -0.014 A 
BRANCH  53  54
ATOM     54  C   UNL A   1      39.315  29.675  30.064  1.00  0.00     0.031 A 
ATOM     55  C   UNL A   1      38.621  30.959  29.910  1.00  0.00     0.074 A 
ATOM     56  C   UNL A   1      39.216  28.910  31.172  1.00  0.00     0.049 A 
ATOM     57  N   UNL A   1      38.305  31.752  30.868  1.00  0.00    -0.248 NA
ATOM     58  C   UNL A   1      38.327  31.505  28.588  1.00  0.00     0.031 C 
ATOM     59  C   UNL A   1      38.315  29.087  32.308  1.00  0.00     0.029 A 
ATOM     60  N   UNL A   1      40.099  27.913  31.584  1.00  0.00    -0.354 N 
ATOM     61  C   UNL A   1      37.515  32.745  30.330  1.00  0.00     0.074 A 
ATOM     62  C   UNL A   1      37.676  32.622  28.907  1.00  0.00     0.031 C 
ATOM     63  C   UNL A   1      38.817  28.429  33.369  1.00  0.00     0.029 A 
ATOM     64  C   UNL A   1      40.137  27.947  32.992  1.00  0.00     0.049 A 
ATOM     65  H   UNL A   1      40.601  27.299  31.000  1.00  0.00     0.167 HD
ATOM     66  C   UNL A   1      36.687  33.439  31.158  1.00  0.00     0.034 A 
ATOM     67  C   UNL A   1      41.295  28.279  33.637  1.00  0.00     0.034 A 
ATOM     68  C   UNL A   1      36.968  33.082  32.553  1.00  0.00     0.049 A 
ATOM     69  C   UNL A   1      41.196  29.587  34.377  1.00  0.00     0.074 A 
ATOM     70  C   UNL A   1      36.378  32.176  33.419  1.00  0.00     0.029 A 
ATOM     71  N   UNL A   1      38.217  33.382  33.093  1.00  0.00    -0.354 N 
ATOM     72  N   UNL A   1      40.294  30.502  34.145  1.00  0.00    -0.248 NA
ATOM     73  C   UNL A   1      42.108  29.944  35.454  1.00  0.00     0.031 C 
ATOM     74  C   UNL A   1      37.333  31.852  34.424  1.00  0.00     0.029 A 
ATOM     75  C   UNL A   1      38.479  32.602  34.205  1.00  0.00     0.049 A 
ATOM     76  H   UNL A   1      38.833  34.059  32.730  1.00  0.00     0.167 HD
ATOM     77  C   UNL A   1      40.497  31.564  34.988  1.00  0.00     0.074 A 
ATOM     78  C   UNL A   1      41.613  31.137  35.820  1.00  0.00     0.031 C 
ATOM     79  C   UNL A   1      39.750  32.710  34.918  1.00  0.00     0.034 A 
BRANCH  66  80
ATOM     80  C   UNL A   1      35.425  34.149  30.701  1.00  0.00     0.023 A 
ATOM     81  C   UNL A   1      34.921  35.194  31.502  1.00  0.00     0.031 A 
ATOM     82  C   UNL A   1      34.625  33.827  29.583  1.00  0.00     0.131 A 
ATOM     83  C   UNL A   1      33.672  35.791  31.242  1.00  0.00     0.055 A 
ATOM     84  C   UNL A   1      33.364  34.389  29.345  1.00  0.00     0.041 A 
ATOM     85  F   UNL A   1      35.029  32.989  28.624  1.00  0.00    -0.206 F 
ATOM     86  C   UNL A   1      32.874  35.373  30.183  1.00  0.00     0.022 A 
BRANCH  83  87
ATOM     87  S   UNL A   1      33.095  37.130  32.317  1.00  0.00     0.124 S 
ATOM     88  O   UNL A   1      32.992  38.248  31.385  1.00  0.00    -0.237 OA
ATOM     89  O   UNL A   1      31.840  36.594  32.830  1.00  0.00    -0.237 OA
ATOM     90  O   UNL A   1      34.163  37.250  33.310  1.00  0.00    -0.744 OA
ENDBRANCH  83  87
ENDBRANCH  66  80
BRANCH  67  91
ATOM     91  C   UNL A   1      42.510  27.787  32.921  1.00  0.00     0.023 A 
ATOM     92  C   UNL A   1      43.083  28.682  31.999  1.00  0.00     0.031 A 
ATOM     93  C   UNL A   1      43.333  26.810  33.496  1.00  0.00     0.131 A 
ATOM     94  C   UNL A   1      44.477  28.769  31.899  1.00  0.00     0.055 A 
ATOM     95  C   UNL A   1      44.721  26.856  33.329  1.00  0.00     0.041 A 
ATOM     96  F   UNL A   1      42.831  25.906  34.349  1.00  0.00    -0.206 F 
ATOM     97  C   UNL A   1      45.304  27.891  32.600  1.00  0.00     0.022 A 
BRANCH  94  98
ATOM     98  S   UNL A   1      45.197  30.207  31.074  1.00  0.00     0.124 S 
ATOM     99  O   UNL A   1      45.454  29.686  29.736  1.00  0.00    -0.237 OA
ATOM    100  O   UNL A   1      44.131  31.203  31.169  1.00  0.00    -0.237 OA
ATOM    101  O   UNL A   1      46.376  30.508  31.884  1.00  0.00    -0.744 OA
ENDBRANCH  94  98
ENDBRANCH  67  91
BRANCH  79 102
ATOM    102  C   UNL A   1      40.118  34.010  35.609  1.00  0.00     0.023 A 
ATOM    103  C   UNL A   1      39.903  34.228  36.974  1.00  0.00     0.031 A 
ATOM    104  C   UNL A   1      40.745  35.077  34.924  1.00  0.00     0.131 A 
ATOM    105  C   UNL A   1      40.124  35.478  37.566  1.00  0.00     0.055 A 
ATOM    106  C   UNL A   1      41.084  36.286  35.544  1.00  0.00     0.041 A 
ATOM    107  F   UNL A   1      41.069  34.998  33.625  1.00  0.00    -0.206 F 
ATOM    108  C   UNL A   1      40.739  36.509  36.867  1.00  0.00     0.022 A 
BRANCH 105 109
ATOM    109  S   UNL A   1      39.466  35.747  39.231  1.00  0.00     0.124 S 
ATOM    110  O   UNL A   1      38.430  34.715  39.308  1.00  0.00    -0.237 OA
ATOM    111  O   UNL A   1      40.642  35.513  40.073  1.00  0.00    -0.237 OA
ATOM    112  O   UNL A   1      38.983  37.114  39.198  1.00  0.00    -0.744 OA
ENDBRANCH 105 109
ENDBRANCH  79 102
ENDBRANCH  53  54
ENDBRANCH  45  48
ENDBRANCH  43  44
ENDBRANCH  42  43
ENDBRANCH   1  42
TORSDOF 19
ENDMDL
MODEL 2
REMARK VINA RESULT:     -13.4      2.712      3.427
REMARK SMILES Cc1ccccc1C(=O)Nc1cc(C(=O)NCCCNC(=O)c2ccc(-c3c4nc(c(-c5cc(S(=O)(=O)[O-])ccc5F)c5ccc([nH]5)c(-c5cc(S(=O)(=O)[O-])ccc5F)c5nc(c(-c6cc(S(=O)(=O)[O-])ccc6F)c6ccc3[nH]6)C=C5)C=C4)cc2)ccc1N1CC[NH+](CC(=O)Nc2ccc(F)cc2)CC1
REMARK SMILES IDX 17 1 16 2 14 3 15 4 13 6 11 7 12 8 88 9 87 10 86 11 10 12
REMARK SMILES IDX 8 13 9 14 7 16 1 17 2 18 3 19 4 20 6 21 5 22 89 23 90 24
REMARK SMILES IDX 105 25 91 26 104 27 92 28 93 30 94 31 95 32 96 33 97 35
REMARK SMILES IDX 98 36 103 37 99 38 102 39 100 40 101 41 18 42 19 43 20 44
REMARK SMILES IDX 21 45 22 47 23 48 24 49 85 50 25 51 84 52 26 53 27 54 28 55
REMARK SMILES IDX 78 56 29 57 83 58 77 59 79 60 30 61 82 62 76 63 75 64 31 66
REMARK SMILES IDX 63 67 43 68 62 69 44 70 47 71 61 72 80 73 45 74 46 75 60 77
REMARK SMILES IDX 81 78 48 79 32 80 33 81 41 82 34 83 40 84 42 85 39 86 35 87
REMARK SMILES IDX 36 88 37 89 38 90 64 91 65 92 73 93 66 94 72 95 74 96 71 97
REMARK SMILES IDX 67 98 68 99 69 100 70 101 49 102 50 103 58 104 51 105 57 106
REMARK SMILES IDX 59 107 56 108 52 109 53 110 54 111 55 112
REMARK H PARENT 16 5 10 15 92 29 96 34 20 46 79 65 47 76
REMARK Flexibility Score: inf
ROOT
ATOM      1  C   UNL A   1      38.808  23.804  26.402  1.00  0.00     0.118 C 
ENDROOT
BRANCH   1   2
ATOM      2  N   UNL A   1      38.378  22.466  25.966  1.00  0.00    -0.352 N 
ATOM      3  C   UNL A   1      37.320  22.002  25.212  1.00  0.00     0.251 C 
ATOM      4  O   UNL A   1      37.321  20.824  24.852  1.00  0.00    -0.269 OA
ATOM      5  H   UNL A   1      38.973  21.747  26.278  1.00  0.00     0.163 HD
BRANCH   3   6
ATOM      6  C   UNL A   1      36.173  22.853  24.794  1.00  0.00     0.042 A 
ATOM      7  C   UNL A   1      34.153  23.153  23.515  1.00  0.00     0.065 A 
ATOM      8  C   UNL A   1      35.303  22.458  23.804  1.00  0.00     0.042 A 
ATOM      9  C   UNL A   1      33.903  24.435  24.058  1.00  0.00     0.061 A 
ATOM     10  C   UNL A   1      34.802  24.865  25.046  1.00  0.00     0.029 A 
ATOM     11  C   UNL A   1      35.900  24.068  25.439  1.00  0.00     0.016 A 
BRANCH   7  12
ATOM     12  N   UNL A   1      33.261  22.526  22.641  1.00  0.00    -0.320 N 
ATOM     13  C   UNL A   1      32.586  21.320  22.749  1.00  0.00     0.255 C 
ATOM     14  O   UNL A   1      31.749  21.125  21.854  1.00  0.00    -0.269 OA
ATOM     15  H   UNL A   1      33.084  23.024  21.810  1.00  0.00     0.170 HD
BRANCH  13  16
ATOM     16  C   UNL A   1      32.682  20.277  23.844  1.00  0.00     0.043 A 
ATOM     17  C   UNL A   1      32.509  21.666  26.055  1.00  0.00     0.045 C 
ATOM     18  C   UNL A   1      32.635  20.408  25.254  1.00  0.00    -0.038 A 
ATOM     19  C   UNL A   1      32.714  19.244  26.061  1.00  0.00     0.004 A 
ATOM     20  C   UNL A   1      32.709  17.970  25.515  1.00  0.00     0.000 A 
ATOM     21  C   UNL A   1      32.691  18.958  23.325  1.00  0.00     0.014 A 
ATOM     22  C   UNL A   1      32.686  17.825  24.142  1.00  0.00     0.001 A 
ENDBRANCH  13  16
ENDBRANCH   7  12
BRANCH   9  23
ATOM     23  N   UNL A   1      32.788  25.170  23.695  1.00  0.00    -0.359 N 
ATOM     24  C   UNL A   1      32.790  26.318  22.764  1.00  0.00     0.178 C 
ATOM     25  C   UNL A   1      31.685  25.235  24.644  1.00  0.00     0.178 C 
ATOM     26  C   UNL A   1      31.336  26.650  22.246  1.00  0.00     0.284 C 
ATOM     27  C   UNL A   1      30.391  25.148  23.824  1.00  0.00     0.284 C 
ATOM     28  N   UNL A   1      30.169  26.403  23.125  1.00  0.00    -0.324 N 
ATOM     29  H   UNL A   1      29.390  26.382  22.466  1.00  0.00     0.348 HD
BRANCH  28  30
ATOM     30  C   UNL A   1      29.643  27.456  24.025  1.00  0.00     0.364 C 
BRANCH  30  31
ATOM     31  C   UNL A   1      30.494  28.685  24.361  1.00  0.00     0.279 C 
ATOM     32  O   UNL A   1      31.441  28.536  25.155  1.00  0.00    -0.268 OA
ATOM     33  N   UNL A   1      30.406  29.940  23.813  1.00  0.00    -0.321 N 
ATOM     34  H   UNL A   1      31.259  30.407  23.961  1.00  0.00     0.170 HD
BRANCH  33  35
ATOM     35  C   UNL A   1      29.528  30.811  23.110  1.00  0.00     0.041 A 
ATOM     36  C   UNL A   1      29.173  30.389  21.814  1.00  0.00     0.029 A 
ATOM     37  C   UNL A   1      29.081  32.077  23.474  1.00  0.00     0.029 A 
ATOM     38  C   UNL A   1      28.406  31.187  20.946  1.00  0.00     0.041 A 
ATOM     39  C   UNL A   1      28.358  32.911  22.597  1.00  0.00     0.041 A 
ATOM     40  C   UNL A   1      28.009  32.451  21.345  1.00  0.00     0.123 A 
ATOM     41  F   UNL A   1      27.288  33.221  20.521  1.00  0.00    -0.207 F 
ENDBRANCH  33  35
ENDBRANCH  30  31
ENDBRANCH  28  30
ENDBRANCH   9  23
ENDBRANCH   3   6
ENDBRANCH   1   2
BRANCH   1  42
ATOM     42  C   UNL A   1      39.890  23.779  27.491  1.00  0.00     0.042 C 
BRANCH  42  43
ATOM     43  C   UNL A   1      40.517  25.132  27.733  1.00  0.00     0.118 C 
BRANCH  43  44
ATOM     44  N   UNL A   1      41.614  25.489  26.836  1.00  0.00    -0.352 N 
ATOM     45  C   UNL A   1      41.808  26.678  26.138  1.00  0.00     0.251 C 
ATOM     46  H   UNL A   1      42.304  24.798  26.709  1.00  0.00     0.163 HD
ATOM     47  O   UNL A   1      42.754  26.848  25.388  1.00  0.00    -0.269 OA
BRANCH  45  48
ATOM     48  C   UNL A   1      40.930  27.833  26.474  1.00  0.00     0.039 A 
ATOM     49  C   UNL A   1      41.615  29.000  26.836  1.00  0.00     0.014 A 
ATOM     50  C   UNL A   1      39.649  27.590  26.948  1.00  0.00     0.014 A 
ATOM     51  C   UNL A   1      41.197  29.692  27.962  1.00  0.00     0.010 A 
ATOM     52  C   UNL A   1      39.326  28.159  28.157  1.00  0.00     0.010 A 
ATOM     53  C   UNL A   1      40.152  29.150  28.699  1.00  0.00    -0.014 A 
BRANCH  53  54
ATOM     54  C   UNL A   1      39.780  29.606  30.022  1.00  0.00     0.031 A 
ATOM     55  C   UNL A   1      38.917  30.793  30.069  1.00  0.00     0.074 A 
ATOM     56  C   UNL A   1      40.170  28.932  31.124  1.00  0.00     0.049 A 
ATOM     57  N   UNL A   1      38.855  31.627  31.042  1.00  0.00    -0.248 NA
ATOM     58  C   UNL A   1      38.115  31.191  28.916  1.00  0.00     0.031 C 
ATOM     59  C   UNL A   1      39.705  29.110  32.497  1.00  0.00     0.029 A 
ATOM     60  N   UNL A   1      41.261  28.071  31.238  1.00  0.00    -0.354 N 
ATOM     61  C   UNL A   1      37.807  32.482  30.777  1.00  0.00     0.074 A 
ATOM     62  C   UNL A   1      37.479  32.256  29.396  1.00  0.00     0.031 C 
ATOM     63  C   UNL A   1      40.624  28.600  33.337  1.00  0.00     0.029 A 
ATOM     64  C   UNL A   1      41.781  28.229  32.538  1.00  0.00     0.049 A 
ATOM     65  H   UNL A   1      41.604  27.467  30.541  1.00  0.00     0.167 HD
ATOM     66  C   UNL A   1      37.237  33.154  31.814  1.00  0.00     0.034 A 
ATOM     67  C   UNL A   1      43.039  28.734  32.715  1.00  0.00     0.034 A 
ATOM     68  C   UNL A   1      38.028  32.948  33.033  1.00  0.00     0.049 A 
ATOM     69  C   UNL A   1      43.036  30.082  33.386  1.00  0.00     0.074 A 
ATOM     70  C   UNL A   1      37.897  32.063  34.090  1.00  0.00     0.029 A 
ATOM     71  N   UNL A   1      39.337  33.422  33.082  1.00  0.00    -0.354 N 
ATOM     72  N   UNL A   1      42.001  30.875  33.450  1.00  0.00    -0.248 NA
ATOM     73  C   UNL A   1      44.212  30.623  34.053  1.00  0.00     0.031 C 
ATOM     74  C   UNL A   1      39.174  31.927  34.704  1.00  0.00     0.029 A 
ATOM     75  C   UNL A   1      40.066  32.771  34.061  1.00  0.00     0.049 A 
ATOM     76  H   UNL A   1      39.697  34.126  32.496  1.00  0.00     0.167 HD
ATOM     77  C   UNL A   1      42.346  32.020  34.120  1.00  0.00     0.074 A 
ATOM     78  C   UNL A   1      43.727  31.785  34.519  1.00  0.00     0.031 C 
ATOM     79  C   UNL A   1      41.481  33.072  34.271  1.00  0.00     0.034 A 
BRANCH  66  80
ATOM     80  C   UNL A   1      35.814  33.686  31.806  1.00  0.00     0.023 A 
ATOM     81  C   UNL A   1      35.268  34.106  30.575  1.00  0.00     0.031 A 
ATOM     82  C   UNL A   1      34.978  33.895  32.923  1.00  0.00     0.131 A 
ATOM     83  C   UNL A   1      34.024  34.762  30.503  1.00  0.00     0.055 A 
ATOM     84  C   UNL A   1      33.760  34.586  32.860  1.00  0.00     0.041 A 
ATOM     85  F   UNL A   1      35.255  33.405  34.134  1.00  0.00    -0.206 F 
ATOM     86  C   UNL A   1      33.278  35.033  31.645  1.00  0.00     0.022 A 
BRANCH  83  87
ATOM     87  S   UNL A   1      33.389  35.268  28.884  1.00  0.00     0.124 S 
ATOM     88  O   UNL A   1      32.392  36.270  29.245  1.00  0.00    -0.237 OA
ATOM     89  O   UNL A   1      34.592  35.759  28.221  1.00  0.00    -0.237 OA
ATOM     90  O   UNL A   1      32.846  34.028  28.331  1.00  0.00    -0.744 OA
ENDBRANCH  83  87
ENDBRANCH  66  80
BRANCH  67  91
ATOM     91  C   UNL A   1      43.982  28.313  31.636  1.00  0.00     0.023 A 
ATOM     92  C   UNL A   1      44.268  26.936  31.575  1.00  0.00     0.031 A 
ATOM     93  C   UNL A   1      44.115  29.071  30.466  1.00  0.00     0.131 A 
ATOM     94  C   UNL A   1      44.388  26.314  30.326  1.00  0.00     0.055 A 
ATOM     95  C   UNL A   1      44.313  28.447  29.229  1.00  0.00     0.041 A 
ATOM     96  F   UNL A   1      43.895  30.393  30.476  1.00  0.00    -0.206 F 
ATOM     97  C   UNL A   1      44.362  27.057  29.147  1.00  0.00     0.022 A 
BRANCH  94  98
ATOM     98  S   UNL A   1      44.296  24.510  30.249  1.00  0.00     0.124 S 
ATOM     99  O   UNL A   1      44.322  24.148  31.661  1.00  0.00    -0.237 OA
ATOM    100  O   UNL A   1      43.026  24.280  29.561  1.00  0.00    -0.237 OA
ATOM    101  O   UNL A   1      45.478  24.144  29.469  1.00  0.00    -0.744 OA
ENDBRANCH  94  98
ENDBRANCH  67  91
BRANCH  79 102
ATOM    102  C   UNL A   1      41.896  34.457  34.730  1.00  0.00     0.023 A 
ATOM    103  C   UNL A   1      42.362  35.438  33.847  1.00  0.00     0.031 A 
ATOM    104  C   UNL A   1      41.797  34.866  36.080  1.00  0.00     0.131 A 
ATOM    105  C   UNL A   1      42.865  36.663  34.304  1.00  0.00     0.055 A 
ATOM    106  C   UNL A   1      42.182  36.138  36.522  1.00  0.00     0.041 A 
ATOM    107  F   UNL A   1      41.315  34.058  37.035  1.00  0.00    -0.206 F 
ATOM    108  C   UNL A   1      42.758  37.035  35.638  1.00  0.00     0.022 A 
BRANCH 105 109
ATOM    109  S   UNL A   1      43.775  37.690  33.123  1.00  0.00     0.124 S 
ATOM    110  O   UNL A   1      43.642  36.909  31.891  1.00  0.00    -0.237 OA
ATOM    111  O   UNL A   1      43.017  38.944  33.150  1.00  0.00    -0.237 OA
ATOM    112  O   UNL A   1      45.113  37.756  33.677  1.00  0.00    -0.744 OA
ENDBRANCH 105 109
ENDBRANCH  79 102
ENDBRANCH  53  54
ENDBRANCH  45  48
ENDBRANCH  43  44
ENDBRANCH  42  43
ENDBRANCH   1  42
TORSDOF 19
ENDMDL
MODEL 3
REMARK VINA RESULT:     -13.3      2.807      3.580
REMARK SMILES Cc1ccccc1C(=O)Nc1cc(C(=O)NCCCNC(=O)c2ccc(-c3c4nc(c(-c5cc(S(=O)(=O)[O-])ccc5F)c5ccc([nH]5)c(-c5cc(S(=O)(=O)[O-])ccc5F)c5nc(c(-c6cc(S(=O)(=O)[O-])ccc6F)c6ccc3[nH]6)C=C5)C=C4)cc2)ccc1N1CC[NH+](CC(=O)Nc2ccc(F)cc2)CC1
REMARK SMILES IDX 17 1 16 2 14 3 15 4 13 6 11 7 12 8 88 9 87 10 86 11 10 12
REMARK SMILES IDX 8 13 9 14 7 16 1 17 2 18 3 19 4 20 6 21 5 22 89 23 90 24
REMARK SMILES IDX 105 25 91 26 104 27 92 28 93 30 94 31 95 32 96 33 97 35
REMARK SMILES IDX 98 36 103 37 99 38 102 39 100 40 101 41 18 42 19 43 20 44
REMARK SMILES IDX 21 45 22 47 23 48 24 49 85 50 25 51 84 52 26 53 27 54 28 55
REMARK SMILES IDX 78 56 29 57 83 58 77 59 79 60 30 61 82 62 76 63 75 64 31 66
REMARK SMILES IDX 63 67 43 68 62 69 44 70 47 71 61 72 80 73 45 74 46 75 60 77
REMARK SMILES IDX 81 78 48 79 32 80 33 81 41 82 34 83 40 84 42 85 39 86 35 87
REMARK SMILES IDX 36 88 37 89 38 90 64 91 65 92 73 93 66 94 72 95 74 96 71 97
REMARK SMILES IDX 67 98 68 99 69 100 70 101 49 102 50 103 58 104 51 105 57 106
REMARK SMILES IDX 59 107 56 108 52 109 53 110 54 111 55 112
REMARK H PARENT 16 5 10 15 92 29 96 34 20 46 79 65 47 76
REMARK Flexibility Score: inf
ROOT
ATOM      1  C   UNL A   1      38.773  23.058  26.405  1.00  0.00     0.118 C 
ENDROOT
BRANCH   1   2
ATOM      2  N   UNL A   1      38.112  21.780  26.096  1.00  0.00    -0.352 N 
ATOM      3  C   UNL A   1      36.973  21.439  25.396  1.00  0.00     0.251 C 
ATOM      4  O   UNL A   1      36.765  20.251  25.145  1.00  0.00    -0.269 OA
ATOM      5  H   UNL A   1      38.583  21.000  26.469  1.00  0.00     0.163 HD
BRANCH   3   6
ATOM      6  C   UNL A   1      35.978  22.434  24.911  1.00  0.00     0.042 A 
ATOM      7  C   UNL A   1      34.084  22.988  23.528  1.00  0.00     0.065 A 
ATOM      8  C   UNL A   1      35.111  22.145  23.883  1.00  0.00     0.042 A 
ATOM      9  C   UNL A   1      33.990  24.302  24.042  1.00  0.00     0.061 A 
ATOM     10  C   UNL A   1      34.891  24.621  25.069  1.00  0.00     0.029 A 
ATOM     11  C   UNL A   1      35.847  23.687  25.526  1.00  0.00     0.016 A 
BRANCH   7  12
ATOM     12  N   UNL A   1      33.157  22.475  22.618  1.00  0.00    -0.320 N 
ATOM     13  C   UNL A   1      32.421  21.300  22.641  1.00  0.00     0.255 C 
ATOM     14  O   UNL A   1      31.571  21.216  21.741  1.00  0.00    -0.269 OA
ATOM     15  H   UNL A   1      33.001  23.042  21.828  1.00  0.00     0.170 HD
BRANCH  13  16
ATOM     16  C   UNL A   1      32.468  20.174  23.654  1.00  0.00     0.043 A 
ATOM     17  C   UNL A   1      32.466  18.007  22.188  1.00  0.00     0.045 C 
ATOM     18  C   UNL A   1      32.503  18.769  23.475  1.00  0.00    -0.038 A 
ATOM     19  C   UNL A   1      32.581  17.927  24.614  1.00  0.00     0.004 A 
ATOM     20  C   UNL A   1      32.752  18.435  25.892  1.00  0.00     0.000 A 
ATOM     21  C   UNL A   1      32.631  20.654  24.977  1.00  0.00     0.014 A 
ATOM     22  C   UNL A   1      32.789  19.804  26.074  1.00  0.00     0.001 A 
ENDBRANCH  13  16
ENDBRANCH   7  12
BRANCH   9  23
ATOM     23  N   UNL A   1      33.008  25.178  23.615  1.00  0.00    -0.359 N 
ATOM     24  C   UNL A   1      33.247  26.419  22.848  1.00  0.00     0.178 C 
ATOM     25  C   UNL A   1      31.777  25.242  24.391  1.00  0.00     0.178 C 
ATOM     26  C   UNL A   1      31.924  26.947  22.167  1.00  0.00     0.284 C 
ATOM     27  C   UNL A   1      30.627  25.374  23.384  1.00  0.00     0.284 C 
ATOM     28  N   UNL A   1      30.617  26.716  22.825  1.00  0.00    -0.324 N 
ATOM     29  H   UNL A   1      29.953  26.846  22.061  1.00  0.00     0.348 HD
BRANCH  28  30
ATOM     30  C   UNL A   1      30.039  27.706  23.763  1.00  0.00     0.364 C 
BRANCH  30  31
ATOM     31  C   UNL A   1      30.528  29.158  23.757  1.00  0.00     0.279 C 
ATOM     32  O   UNL A   1      30.063  29.924  22.894  1.00  0.00    -0.268 OA
ATOM     33  N   UNL A   1      31.361  29.765  24.663  1.00  0.00    -0.321 N 
ATOM     34  H   UNL A   1      31.230  30.739  24.606  1.00  0.00     0.170 HD
BRANCH  33  35
ATOM     35  C   UNL A   1      32.346  29.498  25.654  1.00  0.00     0.041 A 
ATOM     36  C   UNL A   1      32.550  30.529  26.593  1.00  0.00     0.029 A 
ATOM     37  C   UNL A   1      33.220  28.419  25.746  1.00  0.00     0.029 A 
ATOM     38  C   UNL A   1      33.562  30.470  27.567  1.00  0.00     0.041 A 
ATOM     39  C   UNL A   1      34.273  28.370  26.681  1.00  0.00     0.041 A 
ATOM     40  C   UNL A   1      34.424  29.389  27.598  1.00  0.00     0.123 A 
ATOM     41  F   UNL A   1      35.397  29.331  28.516  1.00  0.00    -0.207 F 
ENDBRANCH  33  35
ENDBRANCH  30  31
ENDBRANCH  28  30
ENDBRANCH   9  23
ENDBRANCH   3   6
ENDBRANCH   1   2
BRANCH   1  42
ATOM     42  C   UNL A   1      40.195  22.898  26.962  1.00  0.00     0.042 C 
BRANCH  42  43
ATOM     43  C   UNL A   1      40.831  24.213  27.348  1.00  0.00     0.118 C 
BRANCH  43  44
ATOM     44  N   UNL A   1      41.832  24.727  26.415  1.00  0.00    -0.352 N 
ATOM     45  C   UNL A   1      41.840  25.945  25.741  1.00  0.00     0.251 C 
ATOM     46  H   UNL A   1      42.599  24.135  26.242  1.00  0.00     0.163 HD
ATOM     47  O   UNL A   1      42.723  26.252  24.958  1.00  0.00    -0.269 OA
BRANCH  45  48
ATOM     48  C   UNL A   1      40.836  26.969  26.144  1.00  0.00     0.039 A 
ATOM     49  C   UNL A   1      41.288  28.293  26.059  1.00  0.00     0.014 A 
ATOM     50  C   UNL A   1      39.840  26.619  27.042  1.00  0.00     0.014 A 
ATOM     51  C   UNL A   1      41.046  29.146  27.124  1.00  0.00     0.010 A 
ATOM     52  C   UNL A   1      39.739  27.391  28.175  1.00  0.00     0.010 A 
ATOM     53  C   UNL A   1      40.414  28.615  28.242  1.00  0.00    -0.014 A 
BRANCH  53  54
ATOM     54  C   UNL A   1      40.328  29.298  29.516  1.00  0.00     0.031 A 
ATOM     55  C   UNL A   1      39.365  30.405  29.583  1.00  0.00     0.074 A 
ATOM     56  C   UNL A   1      41.057  28.888  30.575  1.00  0.00     0.049 A 
ATOM     57  N   UNL A   1      39.444  31.409  30.377  1.00  0.00    -0.248 NA
ATOM     58  C   UNL A   1      38.261  30.505  28.633  1.00  0.00     0.031 C 
ATOM     59  C   UNL A   1      40.927  29.301  31.969  1.00  0.00     0.029 A 
ATOM     60  N   UNL A   1      42.239  28.148  30.543  1.00  0.00    -0.354 N 
ATOM     61  C   UNL A   1      38.267  32.116  30.255  1.00  0.00     0.074 A 
ATOM     62  C   UNL A   1      37.638  31.595  29.072  1.00  0.00     0.031 C 
ATOM     63  C   UNL A   1      42.080  29.038  32.611  1.00  0.00     0.029 A 
ATOM     64  C   UNL A   1      43.040  28.599  31.611  1.00  0.00     0.049 A 
ATOM     65  H   UNL A   1      42.470  27.443  29.896  1.00  0.00     0.167 HD
ATOM     66  C   UNL A   1      37.893  32.938  31.273  1.00  0.00     0.034 A 
ATOM     67  C   UNL A   1      44.231  29.220  31.357  1.00  0.00     0.034 A 
ATOM     68  C   UNL A   1      38.979  33.038  32.255  1.00  0.00     0.049 A 
ATOM     69  C   UNL A   1      44.230  30.671  31.759  1.00  0.00     0.074 A 
ATOM     70  C   UNL A   1      39.221  32.374  33.446  1.00  0.00     0.029 A 
ATOM     71  N   UNL A   1      40.192  33.605  31.871  1.00  0.00    -0.354 N 
ATOM     72  N   UNL A   1      43.154  31.384  31.957  1.00  0.00    -0.248 NA
ATOM     73  C   UNL A   1      45.459  31.418  31.986  1.00  0.00     0.031 C 
ATOM     74  C   UNL A   1      40.617  32.456  33.713  1.00  0.00     0.029 A 
ATOM     75  C   UNL A   1      41.214  33.217  32.719  1.00  0.00     0.049 A 
ATOM     76  H   UNL A   1      40.308  34.203  31.097  1.00  0.00     0.167 HD
ATOM     77  C   UNL A   1      43.512  32.661  32.301  1.00  0.00     0.074 A 
ATOM     78  C   UNL A   1      44.966  32.611  32.354  1.00  0.00     0.031 C 
ATOM     79  C   UNL A   1      42.589  33.656  32.491  1.00  0.00     0.034 A 
BRANCH  66  80
ATOM     80  C   UNL A   1      36.458  33.353  31.550  1.00  0.00     0.023 A 
ATOM     81  C   UNL A   1      35.740  33.995  30.520  1.00  0.00     0.031 A 
ATOM     82  C   UNL A   1      35.763  33.246  32.774  1.00  0.00     0.131 A 
ATOM     83  C   UNL A   1      34.469  34.558  30.743  1.00  0.00     0.055 A 
ATOM     84  C   UNL A   1      34.517  33.842  33.011  1.00  0.00     0.041 A 
ATOM     85  F   UNL A   1      36.215  32.521  33.800  1.00  0.00    -0.206 F 
ATOM     86  C   UNL A   1      33.864  34.512  31.994  1.00  0.00     0.022 A 
BRANCH  83  87
ATOM     87  S   UNL A   1      33.610  35.363  29.368  1.00  0.00     0.124 S 
ATOM     88  O   UNL A   1      32.546  34.410  29.069  1.00  0.00    -0.237 OA
ATOM     89  O   UNL A   1      33.197  36.631  29.961  1.00  0.00    -0.237 OA
ATOM     90  O   UNL A   1      34.645  35.475  28.340  1.00  0.00    -0.744 OA
ENDBRANCH  83  87
ENDBRANCH  66  80
BRANCH  67  91
ATOM     91  C   UNL A   1      44.923  28.661  30.157  1.00  0.00     0.023 A 
ATOM     92  C   UNL A   1      44.906  29.472  29.006  1.00  0.00     0.031 A 
ATOM     93  C   UNL A   1      45.961  27.731  30.297  1.00  0.00     0.131 A 
ATOM     94  C   UNL A   1      46.046  29.540  28.196  1.00  0.00     0.055 A 
ATOM     95  C   UNL A   1      47.063  27.754  29.436  1.00  0.00     0.041 A 
ATOM     96  F   UNL A   1      46.004  26.906  31.353  1.00  0.00    -0.206 F 
ATOM     97  C   UNL A   1      47.149  28.720  28.435  1.00  0.00     0.022 A 
BRANCH  94  98
ATOM     98  S   UNL A   1      46.184  30.899  27.012  1.00  0.00     0.124 S 
ATOM     99  O   UNL A   1      45.686  32.027  27.792  1.00  0.00    -0.237 OA
ATOM    100  O   UNL A   1      47.613  30.922  26.709  1.00  0.00    -0.237 OA
ATOM    101  O   UNL A   1      45.339  30.465  25.899  1.00  0.00    -0.744 OA
ENDBRANCH  94  98
ENDBRANCH  67  91
BRANCH  79 102
ATOM    102  C   UNL A   1      42.933  35.132  32.575  1.00  0.00     0.023 A 
ATOM    103  C   UNL A   1      43.370  35.870  31.470  1.00  0.00     0.031 A 
ATOM    104  C   UNL A   1      42.791  35.872  33.771  1.00  0.00     0.131 A 
ATOM    105  C   UNL A   1      43.810  37.194  31.594  1.00  0.00     0.055 A 
ATOM    106  C   UNL A   1      43.109  37.232  33.868  1.00  0.00     0.041 A 
ATOM    107  F   UNL A   1      42.327  35.319  34.901  1.00  0.00    -0.206 F 
ATOM    108  C   UNL A   1      43.660  37.895  32.784  1.00  0.00     0.022 A 
BRANCH 105 109
ATOM    109  S   UNL A   1      44.694  37.921  30.192  1.00  0.00     0.124 S 
ATOM    110  O   UNL A   1      43.639  37.982  29.178  1.00  0.00    -0.237 OA
ATOM    111  O   UNL A   1      45.118  39.218  30.727  1.00  0.00    -0.237 OA
ATOM    112  O   UNL A   1      45.761  36.976  29.925  1.00  0.00    -0.744 OA
ENDBRANCH 105 109
ENDBRANCH  79 102
ENDBRANCH  53  54
ENDBRANCH  45  48
ENDBRANCH  43  44
ENDBRANCH  42  43
ENDBRANCH   1  42
TORSDOF 19
ENDMDL
