MODEL 1
REMARK VINA RESULT:     -12.0      0.000      0.000
REMARK SMILES Cc1cc(NC(=O)CC2(CC(=O)NCCCNC(=O)c3ccc(-c4c5nc(c(-c6cc(S(=O)(=O)[O-])ccc6F)c6ccc([nH]6)c(-c6cc(S(=O)(=O)[O-])ccc6F)c6nc(c(-c7cc(S(=O)(=O)[O-])ccc7F)c7ccc4[nH]7)C=C6)C=C5)cc3)CCCC2)ccn1
REMARK SMILES IDX 14 1 13 2 11 3 12 4 10 6 9 7 83 8 86 9 84 10 85 11 8 12 6 13
REMARK SMILES IDX 5 14 7 16 4 17 1 18 2 19 3 20 89 21 88 22 87 23 15 24 16 25
REMARK SMILES IDX 17 26 18 27 19 29 20 30 21 31 82 32 22 33 81 34 23 35 24 36
REMARK SMILES IDX 25 37 75 38 26 39 80 40 74 41 76 42 27 43 79 44 73 45 72 46
REMARK SMILES IDX 28 48 60 49 40 50 59 51 41 52 44 53 58 54 77 55 42 56 43 57
REMARK SMILES IDX 57 59 78 60 45 61 29 62 30 63 38 64 31 65 37 66 39 67 36 68
REMARK SMILES IDX 32 69 33 70 34 71 35 72 61 73 62 74 70 75 63 76 69 77 71 78
REMARK SMILES IDX 68 79 64 80 65 81 66 82 67 83 46 84 47 85 55 86 48 87 54 88
REMARK SMILES IDX 56 89 53 90 49 91 50 92 51 93 52 94
REMARK H PARENT 13 5 5 15 17 28 76 47 44 58
REMARK Flexibility Score: inf
ROOT
ATOM      1  C   UNL A   1      31.498  30.430  26.066  1.00  0.00     0.117 C 
ENDROOT
BRANCH   1   2
ATOM      2  N   UNL A   1      31.078  30.247  24.690  1.00  0.00    -0.356 N 
ATOM      3  C   UNL A   1      30.879  29.116  23.968  1.00  0.00     0.220 C 
ATOM      4  O   UNL A   1      30.522  29.243  22.796  1.00  0.00    -0.275 OA
ATOM      5  H   UNL A   1      30.910  31.083  24.198  1.00  0.00     0.163 HD
BRANCH   3   6
ATOM      6  C   UNL A   1      31.031  27.738  24.595  1.00  0.00     0.107 C 
BRANCH   6   7
ATOM      7  C   UNL A   1      32.210  26.819  24.136  1.00  0.00    -0.012 C 
ATOM      8  C   UNL A   1      32.665  26.024  25.387  1.00  0.00     0.008 C 
ATOM      9  C   UNL A   1      33.517  27.587  23.856  1.00  0.00     0.008 C 
ATOM     10  C   UNL A   1      33.517  26.993  26.208  1.00  0.00     0.001 C 
ATOM     11  C   UNL A   1      34.129  27.955  25.200  1.00  0.00     0.001 C 
BRANCH   7  12
ATOM     12  C   UNL A   1      31.835  25.976  22.880  1.00  0.00     0.108 C 
BRANCH  12  13
ATOM     13  C   UNL A   1      32.955  25.491  21.980  1.00  0.00     0.224 C 
ATOM     14  N   UNL A   1      33.570  24.283  22.137  1.00  0.00    -0.326 N 
ATOM     15  H   UNL A   1      34.303  24.127  21.499  1.00  0.00     0.169 HD
ATOM     16  O   UNL A   1      33.309  26.174  21.012  1.00  0.00    -0.275 OA
BRANCH  14  17
ATOM     17  C   UNL A   1      33.364  23.219  23.031  1.00  0.00     0.044 A 
ATOM     18  C   UNL A   1      35.538  21.452  25.570  1.00  0.00     0.067 C 
ATOM     19  C   UNL A   1      34.368  21.825  24.712  1.00  0.00     0.039 A 
ATOM     20  C   UNL A   1      34.394  22.986  23.946  1.00  0.00     0.049 A 
ATOM     21  N   UNL A   1      33.356  20.933  24.641  1.00  0.00    -0.261 NA
ATOM     22  C   UNL A   1      32.330  21.225  23.817  1.00  0.00     0.113 A 
ATOM     23  C   UNL A   1      32.284  22.351  23.010  1.00  0.00     0.046 A 
ENDBRANCH  14  17
ENDBRANCH  12  13
ENDBRANCH   7  12
ENDBRANCH   6   7
ENDBRANCH   3   6
ENDBRANCH   1   2
BRANCH   1  24
ATOM     24  C   UNL A   1      31.440  31.900  26.465  1.00  0.00     0.042 C 
BRANCH  24  25
ATOM     25  C   UNL A   1      32.651  32.362  27.257  1.00  0.00     0.118 C 
BRANCH  25  26
ATOM     26  N   UNL A   1      32.569  33.768  27.605  1.00  0.00    -0.352 N 
ATOM     27  C   UNL A   1      33.223  34.479  28.583  1.00  0.00     0.251 C 
ATOM     28  H   UNL A   1      31.947  34.296  27.055  1.00  0.00     0.163 HD
ATOM     29  O   UNL A   1      32.814  35.599  28.871  1.00  0.00    -0.269 OA
BRANCH  27  30
ATOM     30  C   UNL A   1      34.386  33.903  29.303  1.00  0.00     0.039 A 
ATOM     31  C   UNL A   1      34.153  33.014  30.356  1.00  0.00     0.014 A 
ATOM     32  C   UNL A   1      35.699  34.264  28.988  1.00  0.00     0.014 A 
ATOM     33  C   UNL A   1      35.231  32.453  31.050  1.00  0.00     0.010 A 
ATOM     34  C   UNL A   1      36.771  33.625  29.606  1.00  0.00     0.010 A 
ATOM     35  C   UNL A   1      36.551  32.730  30.662  1.00  0.00    -0.014 A 
BRANCH  35  36
ATOM     36  C   UNL A   1      37.712  32.133  31.375  1.00  0.00     0.031 A 
ATOM     37  C   UNL A   1      38.499  31.020  30.731  1.00  0.00     0.074 A 
ATOM     38  C   UNL A   1      38.028  32.553  32.617  1.00  0.00     0.049 A 
ATOM     39  N   UNL A   1      39.491  30.317  31.214  1.00  0.00    -0.248 NA
ATOM     40  C   UNL A   1      38.092  30.623  29.374  1.00  0.00     0.031 C 
ATOM     41  C   UNL A   1      37.318  33.594  33.364  1.00  0.00     0.029 A 
ATOM     42  N   UNL A   1      39.022  32.152  33.474  1.00  0.00    -0.354 N 
ATOM     43  C   UNL A   1      39.811  29.384  30.232  1.00  0.00     0.074 A 
ATOM     44  C   UNL A   1      38.861  29.569  29.155  1.00  0.00     0.031 C 
ATOM     45  C   UNL A   1      37.918  33.770  34.552  1.00  0.00     0.029 A 
ATOM     46  C   UNL A   1      39.022  32.825  34.675  1.00  0.00     0.049 A 
ATOM     47  H   UNL A   1      39.675  31.450  33.251  1.00  0.00     0.167 HD
ATOM     48  C   UNL A   1      40.820  28.479  30.214  1.00  0.00     0.034 A 
ATOM     49  C   UNL A   1      39.815  32.688  35.756  1.00  0.00     0.034 A 
ATOM     50  C   UNL A   1      41.774  28.323  31.284  1.00  0.00     0.049 A 
ATOM     51  C   UNL A   1      40.921  31.664  35.722  1.00  0.00     0.074 A 
ATOM     52  C   UNL A   1      42.870  27.481  31.350  1.00  0.00     0.029 A 
ATOM     53  N   UNL A   1      41.744  29.026  32.484  1.00  0.00    -0.354 N 
ATOM     54  N   UNL A   1      41.240  30.824  34.763  1.00  0.00    -0.248 NA
ATOM     55  C   UNL A   1      41.782  31.577  36.908  1.00  0.00     0.031 C 
ATOM     56  C   UNL A   1      43.461  27.624  32.609  1.00  0.00     0.029 A 
ATOM     57  C   UNL A   1      42.782  28.613  33.305  1.00  0.00     0.049 A 
ATOM     58  H   UNL A   1      41.081  29.716  32.716  1.00  0.00     0.167 HD
ATOM     59  C   UNL A   1      42.357  30.130  35.223  1.00  0.00     0.074 A 
ATOM     60  C   UNL A   1      42.664  30.663  36.535  1.00  0.00     0.031 C 
ATOM     61  C   UNL A   1      43.067  29.146  34.615  1.00  0.00     0.034 A 
BRANCH  48  62
ATOM     62  C   UNL A   1      40.923  27.575  29.006  1.00  0.00     0.023 A 
ATOM     63  C   UNL A   1      41.920  27.754  28.031  1.00  0.00     0.031 A 
ATOM     64  C   UNL A   1      39.992  26.539  28.809  1.00  0.00     0.131 A 
ATOM     65  C   UNL A   1      41.914  26.969  26.867  1.00  0.00     0.055 A 
ATOM     66  C   UNL A   1      40.045  25.704  27.691  1.00  0.00     0.041 A 
ATOM     67  F   UNL A   1      39.005  26.329  29.694  1.00  0.00    -0.206 F 
ATOM     68  C   UNL A   1      40.999  25.927  26.703  1.00  0.00     0.022 A 
BRANCH  65  69
ATOM     69  S   UNL A   1      43.022  27.430  25.508  1.00  0.00     0.124 S 
ATOM     70  O   UNL A   1      43.288  26.132  24.892  1.00  0.00    -0.237 OA
ATOM     71  O   UNL A   1      42.203  28.351  24.730  1.00  0.00    -0.237 OA
ATOM     72  O   UNL A   1      44.167  28.033  26.189  1.00  0.00    -0.744 OA
ENDBRANCH  65  69
ENDBRANCH  48  62
BRANCH  49  73
ATOM     73  C   UNL A   1      39.595  33.530  36.967  1.00  0.00     0.023 A 
ATOM     74  C   UNL A   1      39.067  32.979  38.146  1.00  0.00     0.031 A 
ATOM     75  C   UNL A   1      39.875  34.909  36.952  1.00  0.00     0.131 A 
ATOM     76  C   UNL A   1      38.790  33.808  39.244  1.00  0.00     0.055 A 
ATOM     77  C   UNL A   1      39.646  35.720  38.066  1.00  0.00     0.041 A 
ATOM     78  F   UNL A   1      40.387  35.486  35.854  1.00  0.00    -0.206 F 
ATOM     79  C   UNL A   1      39.088  35.172  39.216  1.00  0.00     0.022 A 
BRANCH  76  80
ATOM     80  S   UNL A   1      37.952  33.090  40.684  1.00  0.00     0.124 S 
ATOM     81  O   UNL A   1      38.515  33.874  41.777  1.00  0.00    -0.237 OA
ATOM     82  O   UNL A   1      36.549  33.339  40.371  1.00  0.00    -0.237 OA
ATOM     83  O   UNL A   1      38.357  31.686  40.647  1.00  0.00    -0.744 OA
ENDBRANCH  76  80
ENDBRANCH  49  73
BRANCH  61  84
ATOM     84  C   UNL A   1      44.270  28.615  35.355  1.00  0.00     0.023 A 
ATOM     85  C   UNL A   1      44.153  27.623  36.344  1.00  0.00     0.031 A 
ATOM     86  C   UNL A   1      45.552  29.119  35.072  1.00  0.00     0.131 A 
ATOM     87  C   UNL A   1      45.290  27.207  37.054  1.00  0.00     0.055 A 
ATOM     88  C   UNL A   1      46.688  28.657  35.738  1.00  0.00     0.041 A 
ATOM     89  F   UNL A   1      45.722  30.069  34.138  1.00  0.00    -0.206 F 
ATOM     90  C   UNL A   1      46.558  27.705  36.746  1.00  0.00     0.022 A 
BRANCH  87  91
ATOM     91  S   UNL A   1      45.076  26.072  38.453  1.00  0.00     0.124 S 
ATOM     92  O   UNL A   1      45.025  24.775  37.785  1.00  0.00    -0.237 OA
ATOM     93  O   UNL A   1      46.269  26.331  39.251  1.00  0.00    -0.237 OA
ATOM     94  O   UNL A   1      43.819  26.508  39.058  1.00  0.00    -0.744 OA
ENDBRANCH  87  91
ENDBRANCH  61  84
ENDBRANCH  35  36
ENDBRANCH  27  30
ENDBRANCH  25  26
ENDBRANCH  24  25
ENDBRANCH   1  24
TORSDOF 17
ENDMDL
MODEL 2
REMARK VINA RESULT:     -12.0      5.590      8.644
REMARK SMILES Cc1cc(NC(=O)CC2(CC(=O)NCCCNC(=O)c3ccc(-c4c5nc(c(-c6cc(S(=O)(=O)[O-])ccc6F)c6ccc([nH]6)c(-c6cc(S(=O)(=O)[O-])ccc6F)c6nc(c(-c7cc(S(=O)(=O)[O-])ccc7F)c7ccc4[nH]7)C=C6)C=C5)cc3)CCCC2)ccn1
REMARK SMILES IDX 14 1 13 2 11 3 12 4 10 6 9 7 83 8 86 9 84 10 85 11 8 12 6 13
REMARK SMILES IDX 5 14 7 16 4 17 1 18 2 19 3 20 89 21 88 22 87 23 15 24 16 25
REMARK SMILES IDX 17 26 18 27 19 29 20 30 21 31 82 32 22 33 81 34 23 35 24 36
REMARK SMILES IDX 25 37 75 38 26 39 80 40 74 41 76 42 27 43 79 44 73 45 72 46
REMARK SMILES IDX 28 48 60 49 40 50 59 51 41 52 44 53 58 54 77 55 42 56 43 57
REMARK SMILES IDX 57 59 78 60 45 61 29 62 30 63 38 64 31 65 37 66 39 67 36 68
REMARK SMILES IDX 32 69 33 70 34 71 35 72 61 73 62 74 70 75 63 76 69 77 71 78
REMARK SMILES IDX 68 79 64 80 65 81 66 82 67 83 46 84 47 85 55 86 48 87 54 88
REMARK SMILES IDX 56 89 53 90 49 91 50 92 51 93 52 94
REMARK H PARENT 13 5 5 15 17 28 76 47 44 58
REMARK Flexibility Score: inf
ROOT
ATOM      1  C   UNL A   1      35.812  22.712  23.756  1.00  0.00     0.117 C 
ENDROOT
BRANCH   1   2
ATOM      2  N   UNL A   1      34.813  23.698  23.391  1.00  0.00    -0.356 N 
ATOM      3  C   UNL A   1      33.807  24.250  24.116  1.00  0.00     0.220 C 
ATOM      4  O   UNL A   1      33.085  25.074  23.553  1.00  0.00    -0.275 OA
ATOM      5  H   UNL A   1      34.874  24.020  22.463  1.00  0.00     0.163 HD
BRANCH   3   6
ATOM      6  C   UNL A   1      33.612  23.912  25.587  1.00  0.00     0.107 C 
BRANCH   6   7
ATOM      7  C   UNL A   1      32.568  22.818  25.983  1.00  0.00    -0.012 C 
ATOM      8  C   UNL A   1      32.778  22.532  27.493  1.00  0.00     0.008 C 
ATOM      9  C   UNL A   1      32.900  21.419  25.429  1.00  0.00     0.008 C 
ATOM     10  C   UNL A   1      34.008  21.628  27.577  1.00  0.00     0.001 C 
ATOM     11  C   UNL A   1      34.036  20.852  26.269  1.00  0.00     0.001 C 
BRANCH   7  12
ATOM     12  C   UNL A   1      31.123  23.209  25.548  1.00  0.00     0.108 C 
BRANCH  12  13
ATOM     13  C   UNL A   1      30.243  23.934  26.548  1.00  0.00     0.224 C 
ATOM     14  N   UNL A   1      29.957  25.266  26.465  1.00  0.00    -0.326 N 
ATOM     15  H   UNL A   1      29.403  25.597  27.208  1.00  0.00     0.169 HD
ATOM     16  O   UNL A   1      29.695  23.303  27.460  1.00  0.00    -0.275 OA
BRANCH  14  17
ATOM     17  C   UNL A   1      30.297  26.256  25.529  1.00  0.00     0.044 A 
ATOM     18  C   UNL A   1      32.413  29.386  25.655  1.00  0.00     0.067 C 
ATOM     19  C   UNL A   1      31.507  28.300  25.163  1.00  0.00     0.039 A 
ATOM     20  C   UNL A   1      31.274  27.168  25.936  1.00  0.00     0.049 A 
ATOM     21  N   UNL A   1      30.857  28.530  24.001  1.00  0.00    -0.261 NA
ATOM     22  C   UNL A   1      29.985  27.590  23.583  1.00  0.00     0.113 A 
ATOM     23  C   UNL A   1      29.685  26.442  24.299  1.00  0.00     0.046 A 
ENDBRANCH  14  17
ENDBRANCH  12  13
ENDBRANCH   7  12
ENDBRANCH   6   7
ENDBRANCH   3   6
ENDBRANCH   1   2
BRANCH   1  24
ATOM     24  C   UNL A   1      36.975  23.361  24.497  1.00  0.00     0.042 C 
BRANCH  24  25
ATOM     25  C   UNL A   1      37.149  22.853  25.917  1.00  0.00     0.118 C 
BRANCH  25  26
ATOM     26  N   UNL A   1      38.295  21.972  26.043  1.00  0.00    -0.352 N 
ATOM     27  C   UNL A   1      39.611  22.262  26.310  1.00  0.00     0.251 C 
ATOM     28  H   UNL A   1      38.099  21.015  25.918  1.00  0.00     0.163 HD
ATOM     29  O   UNL A   1      40.458  21.395  26.116  1.00  0.00    -0.269 OA
BRANCH  27  30
ATOM     30  C   UNL A   1      40.018  23.604  26.798  1.00  0.00     0.039 A 
ATOM     31  C   UNL A   1      40.050  24.668  25.892  1.00  0.00     0.014 A 
ATOM     32  C   UNL A   1      40.414  23.817  28.120  1.00  0.00     0.014 A 
ATOM     33  C   UNL A   1      40.426  25.944  26.325  1.00  0.00     0.010 A 
ATOM     34  C   UNL A   1      40.684  25.106  28.574  1.00  0.00     0.010 A 
ATOM     35  C   UNL A   1      40.718  26.182  27.676  1.00  0.00    -0.014 A 
BRANCH  35  36
ATOM     36  C   UNL A   1      41.105  27.534  28.162  1.00  0.00     0.031 A 
ATOM     37  C   UNL A   1      42.559  27.927  28.211  1.00  0.00     0.074 A 
ATOM     38  C   UNL A   1      40.159  28.387  28.604  1.00  0.00     0.049 A 
ATOM     39  N   UNL A   1      43.109  29.022  28.671  1.00  0.00    -0.248 NA
ATOM     40  C   UNL A   1      43.528  26.940  27.708  1.00  0.00     0.031 C 
ATOM     41  C   UNL A   1      38.722  28.109  28.644  1.00  0.00     0.029 A 
ATOM     42  N   UNL A   1      40.263  29.659  29.109  1.00  0.00    -0.354 N 
ATOM     43  C   UNL A   1      44.482  28.847  28.531  1.00  0.00     0.074 A 
ATOM     44  C   UNL A   1      44.683  27.512  28.008  1.00  0.00     0.031 C 
ATOM     45  C   UNL A   1      38.078  29.188  29.118  1.00  0.00     0.029 A 
ATOM     46  C   UNL A   1      39.055  30.216  29.461  1.00  0.00     0.049 A 
ATOM     47  H   UNL A   1      41.122  30.130  29.211  1.00  0.00     0.167 HD
ATOM     48  C   UNL A   1      45.483  29.726  28.786  1.00  0.00     0.034 A 
ATOM     49  C   UNL A   1      38.767  31.414  30.007  1.00  0.00     0.034 A 
ATOM     50  C   UNL A   1      45.266  31.062  29.284  1.00  0.00     0.049 A 
ATOM     51  C   UNL A   1      39.896  32.370  30.297  1.00  0.00     0.074 A 
ATOM     52  C   UNL A   1      46.198  32.057  29.522  1.00  0.00     0.029 A 
ATOM     53  N   UNL A   1      44.027  31.591  29.625  1.00  0.00    -0.354 N 
ATOM     54  N   UNL A   1      41.186  32.206  30.112  1.00  0.00    -0.248 NA
ATOM     55  C   UNL A   1      39.530  33.677  30.858  1.00  0.00     0.031 C 
ATOM     56  C   UNL A   1      45.534  33.160  30.069  1.00  0.00     0.029 A 
ATOM     57  C   UNL A   1      44.175  32.886  30.100  1.00  0.00     0.049 A 
ATOM     58  H   UNL A   1      43.169  31.116  29.540  1.00  0.00     0.167 HD
ATOM     59  C   UNL A   1      41.781  33.401  30.508  1.00  0.00     0.074 A 
ATOM     60  C   UNL A   1      40.707  34.280  30.924  1.00  0.00     0.031 C 
ATOM     61  C   UNL A   1      43.095  33.744  30.522  1.00  0.00     0.034 A 
BRANCH  48  62
ATOM     62  C   UNL A   1      46.900  29.255  28.549  1.00  0.00     0.023 A 
ATOM     63  C   UNL A   1      47.397  29.023  27.255  1.00  0.00     0.031 A 
ATOM     64  C   UNL A   1      47.759  29.004  29.635  1.00  0.00     0.131 A 
ATOM     65  C   UNL A   1      48.678  28.477  27.080  1.00  0.00     0.055 A 
ATOM     66  C   UNL A   1      49.065  28.544  29.451  1.00  0.00     0.041 A 
ATOM     67  F   UNL A   1      47.338  29.188  30.897  1.00  0.00    -0.206 F 
ATOM     68  C   UNL A   1      49.526  28.261  28.168  1.00  0.00     0.022 A 
BRANCH  65  69
ATOM     69  S   UNL A   1      49.160  27.913  25.425  1.00  0.00     0.124 S 
ATOM     70  O   UNL A   1      49.377  26.486  25.651  1.00  0.00    -0.237 OA
ATOM     71  O   UNL A   1      47.996  28.263  24.621  1.00  0.00    -0.237 OA
ATOM     72  O   UNL A   1      50.370  28.682  25.140  1.00  0.00    -0.744 OA
ENDBRANCH  65  69
ENDBRANCH  48  62
BRANCH  49  73
ATOM     73  C   UNL A   1      37.357  31.782  30.326  1.00  0.00     0.023 A 
ATOM     74  C   UNL A   1      36.479  32.219  29.322  1.00  0.00     0.031 A 
ATOM     75  C   UNL A   1      36.878  31.737  31.647  1.00  0.00     0.131 A 
ATOM     76  C   UNL A   1      35.183  32.640  29.659  1.00  0.00     0.055 A 
ATOM     77  C   UNL A   1      35.571  32.107  31.971  1.00  0.00     0.041 A 
ATOM     78  F   UNL A   1      37.674  31.320  32.645  1.00  0.00    -0.206 F 
ATOM     79  C   UNL A   1      34.719  32.575  30.975  1.00  0.00     0.022 A 
BRANCH  76  80
ATOM     80  S   UNL A   1      34.137  33.357  28.362  1.00  0.00     0.124 S 
ATOM     81  O   UNL A   1      35.112  34.103  27.574  1.00  0.00    -0.237 OA
ATOM     82  O   UNL A   1      33.578  32.166  27.733  1.00  0.00    -0.237 OA
ATOM     83  O   UNL A   1      33.181  34.173  29.109  1.00  0.00    -0.744 OA
ENDBRANCH  76  80
ENDBRANCH  49  73
BRANCH  61  84
ATOM     84  C   UNL A   1      43.430  35.146  30.967  1.00  0.00     0.023 A 
ATOM     85  C   UNL A   1      43.480  36.219  30.060  1.00  0.00     0.031 A 
ATOM     86  C   UNL A   1      43.717  35.409  32.318  1.00  0.00     0.131 A 
ATOM     87  C   UNL A   1      43.862  37.494  30.505  1.00  0.00     0.055 A 
ATOM     88  C   UNL A   1      44.037  36.691  32.766  1.00  0.00     0.041 A 
ATOM     89  F   UNL A   1      43.686  34.422  33.228  1.00  0.00    -0.206 F 
ATOM     90  C   UNL A   1      44.124  37.740  31.855  1.00  0.00     0.022 A 
BRANCH  87  91
ATOM     91  S   UNL A   1      44.104  38.808  29.279  1.00  0.00     0.124 S 
ATOM     92  O   UNL A   1      43.029  39.736  29.613  1.00  0.00    -0.237 OA
ATOM     93  O   UNL A   1      45.457  39.267  29.575  1.00  0.00    -0.237 OA
ATOM     94  O   UNL A   1      43.952  38.116  28.000  1.00  0.00    -0.744 OA
ENDBRANCH  87  91
ENDBRANCH  61  84
ENDBRANCH  35  36
ENDBRANCH  27  30
ENDBRANCH  25  26
ENDBRANCH  24  25
ENDBRANCH   1  24
TORSDOF 17
ENDMDL
MODEL 3
REMARK VINA RESULT:     -12.0      3.315      8.536
REMARK SMILES Cc1cc(NC(=O)CC2(CC(=O)NCCCNC(=O)c3ccc(-c4c5nc(c(-c6cc(S(=O)(=O)[O-])ccc6F)c6ccc([nH]6)c(-c6cc(S(=O)(=O)[O-])ccc6F)c6nc(c(-c7cc(S(=O)(=O)[O-])ccc7F)c7ccc4[nH]7)C=C6)C=C5)cc3)CCCC2)ccn1
REMARK SMILES IDX 14 1 13 2 11 3 12 4 10 6 9 7 83 8 86 9 84 10 85 11 8 12 6 13
REMARK SMILES IDX 5 14 7 16 4 17 1 18 2 19 3 20 89 21 88 22 87 23 15 24 16 25
REMARK SMILES IDX 17 26 18 27 19 29 20 30 21 31 82 32 22 33 81 34 23 35 24 36
REMARK SMILES IDX 25 37 75 38 26 39 80 40 74 41 76 42 27 43 79 44 73 45 72 46
REMARK SMILES IDX 28 48 60 49 40 50 59 51 41 52 44 53 58 54 77 55 42 56 43 57
REMARK SMILES IDX 57 59 78 60 45 61 29 62 30 63 38 64 31 65 37 66 39 67 36 68
REMARK SMILES IDX 32 69 33 70 34 71 35 72 61 73 62 74 70 75 63 76 69 77 71 78
REMARK SMILES IDX 68 79 64 80 65 81 66 82 67 83 46 84 47 85 55 86 48 87 54 88
REMARK SMILES IDX 56 89 53 90 49 91 50 92 51 93 52 94
REMARK H PARENT 13 5 5 15 17 28 76 47 44 58
REMARK Flexibility Score: inf
ROOT
ATOM      1  C   UNL A   1      31.695  28.185  26.767  1.00  0.00     0.117 C 
ENDROOT
BRANCH   1   2
ATOM      2  N   UNL A   1      31.348  28.183  25.359  1.00  0.00    -0.356 N 
ATOM      3  C   UNL A   1      31.003  27.162  24.534  1.00  0.00     0.220 C 
ATOM      4  O   UNL A   1      30.759  27.439  23.358  1.00  0.00    -0.275 OA
ATOM      5  H   UNL A   1      31.366  29.069  24.930  1.00  0.00     0.163 HD
BRANCH   3   6
ATOM      6  C   UNL A   1      30.863  25.738  25.050  1.00  0.00     0.107 C 
BRANCH   6   7
ATOM      7  C   UNL A   1      32.111  24.796  25.029  1.00  0.00    -0.012 C 
ATOM      8  C   UNL A   1      31.639  23.448  24.426  1.00  0.00     0.008 C 
ATOM      9  C   UNL A   1      32.529  24.296  26.426  1.00  0.00     0.008 C 
ATOM     10  C   UNL A   1      30.900  22.724  25.552  1.00  0.00     0.001 C 
ATOM     11  C   UNL A   1      31.536  23.220  26.843  1.00  0.00     0.001 C 
BRANCH   7  12
ATOM     12  C   UNL A   1      33.337  25.470  24.342  1.00  0.00     0.108 C 
BRANCH  12  13
ATOM     13  C   UNL A   1      33.868  24.857  23.060  1.00  0.00     0.224 C 
ATOM     14  N   UNL A   1      34.728  23.797  23.039  1.00  0.00    -0.326 N 
ATOM     15  H   UNL A   1      35.011  23.537  22.133  1.00  0.00     0.169 HD
ATOM     16  O   UNL A   1      33.476  25.277  21.966  1.00  0.00    -0.275 OA
BRANCH  14  17
ATOM     17  C   UNL A   1      35.289  23.005  24.055  1.00  0.00     0.044 A 
ATOM     18  C   UNL A   1      38.465  23.196  26.095  1.00  0.00     0.067 C 
ATOM     19  C   UNL A   1      37.156  22.724  25.541  1.00  0.00     0.039 A 
ATOM     20  C   UNL A   1      36.416  23.535  24.687  1.00  0.00     0.049 A 
ATOM     21  N   UNL A   1      36.797  21.454  25.825  1.00  0.00    -0.261 NA
ATOM     22  C   UNL A   1      35.655  20.995  25.274  1.00  0.00     0.113 A 
ATOM     23  C   UNL A   1      34.869  21.731  24.402  1.00  0.00     0.046 A 
ENDBRANCH  14  17
ENDBRANCH  12  13
ENDBRANCH   7  12
ENDBRANCH   6   7
ENDBRANCH   3   6
ENDBRANCH   1   2
BRANCH   1  24
ATOM     24  C   UNL A   1      33.204  28.087  26.958  1.00  0.00     0.042 C 
BRANCH  24  25
ATOM     25  C   UNL A   1      33.980  29.170  26.228  1.00  0.00     0.118 C 
BRANCH  25  26
ATOM     26  N   UNL A   1      33.826  30.468  26.858  1.00  0.00    -0.352 N 
ATOM     27  C   UNL A   1      34.532  31.044  27.886  1.00  0.00     0.251 C 
ATOM     28  H   UNL A   1      33.100  31.023  26.491  1.00  0.00     0.163 HD
ATOM     29  O   UNL A   1      34.070  32.041  28.434  1.00  0.00    -0.269 OA
BRANCH  27  30
ATOM     30  C   UNL A   1      35.817  30.466  28.353  1.00  0.00     0.039 A 
ATOM     31  C   UNL A   1      36.966  30.671  27.584  1.00  0.00     0.014 A 
ATOM     32  C   UNL A   1      35.896  29.685  29.509  1.00  0.00     0.014 A 
ATOM     33  C   UNL A   1      38.191  30.140  28.001  1.00  0.00     0.010 A 
ATOM     34  C   UNL A   1      37.132  29.250  29.980  1.00  0.00     0.010 A 
ATOM     35  C   UNL A   1      38.292  29.450  29.219  1.00  0.00    -0.014 A 
BRANCH  35  36
ATOM     36  C   UNL A   1      39.588  28.892  29.691  1.00  0.00     0.031 A 
ATOM     37  C   UNL A   1      40.339  29.573  30.806  1.00  0.00     0.074 A 
ATOM     38  C   UNL A   1      40.113  27.807  29.086  1.00  0.00     0.049 A 
ATOM     39  N   UNL A   1      41.515  29.293  31.308  1.00  0.00    -0.248 NA
ATOM     40  C   UNL A   1      39.696  30.749  31.413  1.00  0.00     0.031 C 
ATOM     41  C   UNL A   1      39.502  27.082  27.970  1.00  0.00     0.029 A 
ATOM     42  N   UNL A   1      41.282  27.126  29.321  1.00  0.00    -0.354 N 
ATOM     43  C   UNL A   1      41.759  30.267  32.272  1.00  0.00     0.074 A 
ATOM     44  C   UNL A   1      40.639  31.183  32.234  1.00  0.00     0.031 C 
ATOM     45  C   UNL A   1      40.285  26.043  27.638  1.00  0.00     0.029 A 
ATOM     46  C   UNL A   1      41.476  26.053  28.481  1.00  0.00     0.049 A 
ATOM     47  H   UNL A   1      41.922  27.382  30.024  1.00  0.00     0.167 HD
ATOM     48  C   UNL A   1      42.804  30.371  33.131  1.00  0.00     0.034 A 
ATOM     49  C   UNL A   1      42.501  25.183  28.394  1.00  0.00     0.034 A 
ATOM     50  C   UNL A   1      43.901  29.436  33.173  1.00  0.00     0.049 A 
ATOM     51  C   UNL A   1      43.661  25.327  29.347  1.00  0.00     0.074 A 
ATOM     52  C   UNL A   1      44.980  29.409  34.038  1.00  0.00     0.029 A 
ATOM     53  N   UNL A   1      44.060  28.358  32.309  1.00  0.00    -0.354 N 
ATOM     54  N   UNL A   1      43.851  26.226  30.287  1.00  0.00    -0.248 NA
ATOM     55  C   UNL A   1      44.737  24.334  29.238  1.00  0.00     0.031 C 
ATOM     56  C   UNL A   1      45.825  28.361  33.656  1.00  0.00     0.029 A 
ATOM     57  C   UNL A   1      45.235  27.683  32.601  1.00  0.00     0.049 A 
ATOM     58  H   UNL A   1      43.430  28.112  31.594  1.00  0.00     0.167 HD
ATOM     59  C   UNL A   1      45.056  25.886  30.897  1.00  0.00     0.074 A 
ATOM     60  C   UNL A   1      45.535  24.692  30.231  1.00  0.00     0.031 C 
ATOM     61  C   UNL A   1      45.705  26.501  31.919  1.00  0.00     0.034 A 
BRANCH  48  62
ATOM     62  C   UNL A   1      42.813  31.553  34.074  1.00  0.00     0.023 A 
ATOM     63  C   UNL A   1      42.260  31.474  35.364  1.00  0.00     0.031 A 
ATOM     64  C   UNL A   1      43.356  32.786  33.667  1.00  0.00     0.131 A 
ATOM     65  C   UNL A   1      42.185  32.623  36.168  1.00  0.00     0.055 A 
ATOM     66  C   UNL A   1      43.356  33.903  34.506  1.00  0.00     0.041 A 
ATOM     67  F   UNL A   1      43.881  32.930  32.440  1.00  0.00    -0.206 F 
ATOM     68  C   UNL A   1      42.753  33.830  35.758  1.00  0.00     0.022 A 
BRANCH  65  69
ATOM     69  S   UNL A   1      41.200  32.550  37.689  1.00  0.00     0.124 S 
ATOM     70  O   UNL A   1      41.201  33.950  38.107  1.00  0.00    -0.237 OA
ATOM     71  O   UNL A   1      39.925  32.025  37.216  1.00  0.00    -0.237 OA
ATOM     72  O   UNL A   1      41.966  31.650  38.550  1.00  0.00    -0.744 OA
ENDBRANCH  65  69
ENDBRANCH  48  62
BRANCH  49  73
ATOM     73  C   UNL A   1      42.492  24.103  27.365  1.00  0.00     0.023 A 
ATOM     74  C   UNL A   1      41.877  22.867  27.620  1.00  0.00     0.031 A 
ATOM     75  C   UNL A   1      43.132  24.277  26.125  1.00  0.00     0.131 A 
ATOM     76  C   UNL A   1      41.953  21.837  26.670  1.00  0.00     0.055 A 
ATOM     77  C   UNL A   1      43.160  23.267  25.162  1.00  0.00     0.041 A 
ATOM     78  F   UNL A   1      43.730  25.441  25.827  1.00  0.00    -0.206 F 
ATOM     79  C   UNL A   1      42.580  22.033  25.437  1.00  0.00     0.022 A 
BRANCH  76  80
ATOM     80  S   UNL A   1      41.295  20.203  27.104  1.00  0.00     0.124 S 
ATOM     81  O   UNL A   1      40.312  19.989  26.048  1.00  0.00    -0.237 OA
ATOM     82  O   UNL A   1      42.492  19.371  27.048  1.00  0.00    -0.237 OA
ATOM     83  O   UNL A   1      40.741  20.406  28.442  1.00  0.00    -0.744 OA
ENDBRANCH  76  80
ENDBRANCH  49  73
BRANCH  61  84
ATOM     84  C   UNL A   1      46.984  25.861  32.399  1.00  0.00     0.023 A 
ATOM     85  C   UNL A   1      47.003  24.960  33.478  1.00  0.00     0.031 A 
ATOM     86  C   UNL A   1      48.206  26.169  31.773  1.00  0.00     0.131 A 
ATOM     87  C   UNL A   1      48.224  24.442  33.934  1.00  0.00     0.055 A 
ATOM     88  C   UNL A   1      49.410  25.603  32.192  1.00  0.00     0.041 A 
ATOM     89  F   UNL A   1      48.247  27.025  30.739  1.00  0.00    -0.206 F 
ATOM     90  C   UNL A   1      49.425  24.744  33.288  1.00  0.00     0.022 A 
BRANCH  87  91
ATOM     91  S   UNL A   1      48.233  23.439  35.445  1.00  0.00     0.124 S 
ATOM     92  O   UNL A   1      49.629  23.535  35.864  1.00  0.00    -0.237 OA
ATOM     93  O   UNL A   1      47.267  24.134  36.288  1.00  0.00    -0.237 OA
ATOM     94  O   UNL A   1      47.814  22.117  34.983  1.00  0.00    -0.744 OA
ENDBRANCH  87  91
ENDBRANCH  61  84
ENDBRANCH  35  36
ENDBRANCH  27  30
ENDBRANCH  25  26
ENDBRANCH  24  25
ENDBRANCH   1  24
TORSDOF 17
ENDMDL
