MODEL 1
REMARK VINA RESULT:     -12.5      0.000      0.000
REMARK SMILES CC[C@H]1CCCC[C@H]1n1cc(C(=O)NCCCNC(=O)c2ccc(-c3c4nc(c(-c5cc(S(=O)(=O)[O-])ccc5F)c5ccc([nH]5)c(-c5cc(S(=O)(=O)[O-])ccc5F)c5nc(c(-c6cc(S(=O)(=O)[O-])ccc6F)c6ccc3[nH]6)C=C5)C=C4)cc2)c(=O)[nH]c1=O
REMARK SMILES IDX 16 1 15 2 14 3 12 4 13 5 11 7 9 8 10 9 87 10 86 11 88 12
REMARK SMILES IDX 84 13 85 15 8 16 3 17 4 18 5 19 7 20 6 21 2 22 1 23 17 24
REMARK SMILES IDX 18 25 19 26 20 28 21 29 22 30 83 31 23 32 82 33 24 34 25 35
REMARK SMILES IDX 26 36 76 37 27 38 81 39 75 40 77 41 28 42 80 43 74 44 73 45
REMARK SMILES IDX 29 47 61 48 41 49 60 50 42 51 45 52 59 53 78 54 43 55 44 56
REMARK SMILES IDX 58 58 79 59 46 60 30 61 31 62 39 63 32 64 38 65 40 66 37 67
REMARK SMILES IDX 33 68 34 69 35 70 36 71 62 72 63 73 71 74 64 75 70 76 72 77
REMARK SMILES IDX 69 78 65 79 66 80 67 81 68 82 47 83 48 84 56 85 49 86 55 87
REMARK SMILES IDX 57 88 54 89 50 90 51 91 52 92 53 93
REMARK H PARENT 14 6 86 14 18 27 77 46 45 57
REMARK Flexibility Score: inf
ROOT
ATOM      1  C   UNL A   1      32.065  30.052  25.363  1.00  0.00     0.042 C 
ENDROOT
BRANCH   1   2
ATOM      2  C   UNL A   1      33.240  29.088  25.203  1.00  0.00     0.118 C 
BRANCH   2   3
ATOM      3  N   UNL A   1      33.675  29.051  23.817  1.00  0.00    -0.352 N 
ATOM      4  C   UNL A   1      33.682  28.092  22.850  1.00  0.00     0.258 C 
ATOM      5  O   UNL A   1      34.303  28.369  21.823  1.00  0.00    -0.269 OA
ATOM      6  H   UNL A   1      34.047  29.908  23.509  1.00  0.00     0.163 HD
BRANCH   4   7
ATOM      7  C   UNL A   1      32.948  26.798  22.962  1.00  0.00     0.121 A 
ATOM      8  N   UNL A   1      32.655  24.530  23.741  1.00  0.00    -0.296 N 
ATOM      9  C   UNL A   1      33.420  25.679  23.530  1.00  0.00     0.110 A 
ATOM     10  C   UNL A   1      31.451  24.362  23.060  1.00  0.00     0.328 A 
ATOM     11  N   UNL A   1      31.042  25.443  22.329  1.00  0.00    -0.273 N 
ATOM     12  O   UNL A   1      30.718  23.379  23.110  1.00  0.00    -0.248 OA
ATOM     13  C   UNL A   1      31.568  26.701  22.411  1.00  0.00     0.266 A 
ATOM     14  H   UNL A   1      30.307  25.302  21.689  1.00  0.00     0.175 HD
ATOM     15  O   UNL A   1      30.885  27.671  22.100  1.00  0.00    -0.268 OA
BRANCH   8  16
ATOM     16  C   UNL A   1      33.147  23.569  24.779  1.00  0.00     0.095 C 
ATOM     17  C   UNL A   1      34.383  22.734  24.295  1.00  0.00     0.012 C 
ATOM     18  C   UNL A   1      34.663  21.607  25.316  1.00  0.00     0.006 C 
ATOM     19  C   UNL A   1      34.892  22.136  26.731  1.00  0.00     0.000 C 
ATOM     20  C   UNL A   1      33.405  24.125  26.192  1.00  0.00     0.026 C 
ATOM     21  C   UNL A   1      33.740  23.018  27.194  1.00  0.00     0.002 C 
BRANCH  17  22
ATOM     22  C   UNL A   1      35.712  23.477  23.999  1.00  0.00     0.002 C 
ATOM     23  C   UNL A   1      36.755  22.773  23.152  1.00  0.00     0.004 C 
ENDBRANCH  17  22
ENDBRANCH   8  16
ENDBRANCH   4   7
ENDBRANCH   2   3
ENDBRANCH   1   2
BRANCH   1  24
ATOM     24  C   UNL A   1      31.925  30.576  26.791  1.00  0.00     0.118 C 
BRANCH  24  25
ATOM     25  N   UNL A   1      31.932  32.032  26.840  1.00  0.00    -0.352 N 
ATOM     26  C   UNL A   1      32.841  32.884  27.428  1.00  0.00     0.251 C 
ATOM     27  H   UNL A   1      31.177  32.472  26.387  1.00  0.00     0.163 HD
ATOM     28  O   UNL A   1      32.568  34.069  27.547  1.00  0.00    -0.269 OA
BRANCH  26  29
ATOM     29  C   UNL A   1      34.124  32.350  27.939  1.00  0.00     0.039 A 
ATOM     30  C   UNL A   1      34.232  31.017  28.339  1.00  0.00     0.014 A 
ATOM     31  C   UNL A   1      35.231  33.200  28.023  1.00  0.00     0.014 A 
ATOM     32  C   UNL A   1      35.389  30.580  28.975  1.00  0.00     0.010 A 
ATOM     33  C   UNL A   1      36.423  32.732  28.586  1.00  0.00     0.010 A 
ATOM     34  C   UNL A   1      36.496  31.432  29.110  1.00  0.00    -0.014 A 
BRANCH  34  35
ATOM     35  C   UNL A   1      37.719  30.939  29.798  1.00  0.00     0.031 A 
ATOM     36  C   UNL A   1      38.040  31.370  31.202  1.00  0.00     0.074 A 
ATOM     37  C   UNL A   1      38.515  30.054  29.165  1.00  0.00     0.049 A 
ATOM     38  N   UNL A   1      39.045  31.015  31.962  1.00  0.00    -0.248 NA
ATOM     39  C   UNL A   1      37.119  32.326  31.838  1.00  0.00     0.031 C 
ATOM     40  C   UNL A   1      38.296  29.566  27.803  1.00  0.00     0.029 A 
ATOM     41  N   UNL A   1      39.644  29.394  29.578  1.00  0.00    -0.354 N 
ATOM     42  C   UNL A   1      38.882  31.706  33.158  1.00  0.00     0.074 A 
ATOM     43  C   UNL A   1      37.707  32.535  33.008  1.00  0.00     0.031 C 
ATOM     44  C   UNL A   1      39.229  28.650  27.511  1.00  0.00     0.029 A 
ATOM     45  C   UNL A   1      40.157  28.536  28.633  1.00  0.00     0.049 A 
ATOM     46  H   UNL A   1      40.049  29.522  30.467  1.00  0.00     0.167 HD
ATOM     47  C   UNL A   1      39.633  31.635  34.284  1.00  0.00     0.034 A 
ATOM     48  C   UNL A   1      41.258  27.755  28.654  1.00  0.00     0.034 A 
ATOM     49  C   UNL A   1      40.797  30.795  34.419  1.00  0.00     0.049 A 
ATOM     50  C   UNL A   1      42.096  27.720  29.904  1.00  0.00     0.074 A 
ATOM     51  C   UNL A   1      41.620  30.647  35.521  1.00  0.00     0.029 A 
ATOM     52  N   UNL A   1      41.303  29.962  33.429  1.00  0.00    -0.354 N 
ATOM     53  N   UNL A   1      41.908  28.351  31.038  1.00  0.00    -0.248 NA
ATOM     54  C   UNL A   1      43.293  26.868  29.884  1.00  0.00     0.031 C 
ATOM     55  C   UNL A   1      42.653  29.773  35.180  1.00  0.00     0.029 A 
ATOM     56  C   UNL A   1      42.439  29.316  33.890  1.00  0.00     0.049 A 
ATOM     57  H   UNL A   1      40.912  29.848  32.533  1.00  0.00     0.167 HD
ATOM     58  C   UNL A   1      42.953  27.965  31.872  1.00  0.00     0.074 A 
ATOM     59  C   UNL A   1      43.754  27.020  31.120  1.00  0.00     0.031 C 
ATOM     60  C   UNL A   1      43.227  28.367  33.138  1.00  0.00     0.034 A 
BRANCH  47  61
ATOM     61  C   UNL A   1      39.229  32.468  35.477  1.00  0.00     0.023 A 
ATOM     62  C   UNL A   1      39.715  33.781  35.621  1.00  0.00     0.031 A 
ATOM     63  C   UNL A   1      38.469  31.923  36.527  1.00  0.00     0.131 A 
ATOM     64  C   UNL A   1      39.465  34.492  36.801  1.00  0.00     0.055 A 
ATOM     65  C   UNL A   1      38.187  32.650  37.684  1.00  0.00     0.041 A 
ATOM     66  F   UNL A   1      37.981  30.675  36.438  1.00  0.00    -0.206 F 
ATOM     67  C   UNL A   1      38.698  33.936  37.831  1.00  0.00     0.022 A 
BRANCH  64  68
ATOM     68  S   UNL A   1      40.175  36.138  37.078  1.00  0.00     0.124 S 
ATOM     69  O   UNL A   1      39.903  36.797  35.802  1.00  0.00    -0.237 OA
ATOM     70  O   UNL A   1      39.390  36.622  38.209  1.00  0.00    -0.237 OA
ATOM     71  O   UNL A   1      41.582  35.872  37.352  1.00  0.00    -0.744 OA
ENDBRANCH  64  68
ENDBRANCH  47  61
BRANCH  48  72
ATOM     72  C   UNL A   1      41.575  26.930  27.452  1.00  0.00     0.023 A 
ATOM     73  C   UNL A   1      41.266  25.556  27.423  1.00  0.00     0.031 A 
ATOM     74  C   UNL A   1      42.313  27.461  26.383  1.00  0.00     0.131 A 
ATOM     75  C   UNL A   1      41.771  24.748  26.399  1.00  0.00     0.055 A 
ATOM     76  C   UNL A   1      42.746  26.665  25.320  1.00  0.00     0.041 A 
ATOM     77  F   UNL A   1      42.644  28.762  26.369  1.00  0.00    -0.206 F 
ATOM     78  C   UNL A   1      42.494  25.297  25.336  1.00  0.00     0.022 A 
BRANCH  75  79
ATOM     79  S   UNL A   1      41.646  22.939  26.498  1.00  0.00     0.124 S 
ATOM     80  O   UNL A   1      42.250  22.664  27.797  1.00  0.00    -0.237 OA
ATOM     81  O   UNL A   1      40.201  22.737  26.417  1.00  0.00    -0.237 OA
ATOM     82  O   UNL A   1      42.402  22.478  25.339  1.00  0.00    -0.744 OA
ENDBRANCH  75  79
ENDBRANCH  48  72
BRANCH  60  83
ATOM     83  C   UNL A   1      44.449  27.805  33.826  1.00  0.00     0.023 A 
ATOM     84  C   UNL A   1      44.336  26.656  34.634  1.00  0.00     0.031 A 
ATOM     85  C   UNL A   1      45.675  28.494  33.816  1.00  0.00     0.131 A 
ATOM     86  C   UNL A   1      45.414  26.260  35.436  1.00  0.00     0.055 A 
ATOM     87  C   UNL A   1      46.761  28.066  34.579  1.00  0.00     0.041 A 
ATOM     88  F   UNL A   1      45.827  29.600  33.071  1.00  0.00    -0.206 F 
ATOM     89  C   UNL A   1      46.628  26.954  35.406  1.00  0.00     0.022 A 
BRANCH  86  90
ATOM     90  S   UNL A   1      45.249  24.893  36.617  1.00  0.00     0.124 S 
ATOM     91  O   UNL A   1      44.166  25.367  37.476  1.00  0.00    -0.237 OA
ATOM     92  O   UNL A   1      44.907  23.774  35.744  1.00  0.00    -0.237 OA
ATOM     93  O   UNL A   1      46.558  24.816  37.254  1.00  0.00    -0.744 OA
ENDBRANCH  86  90
ENDBRANCH  60  83
ENDBRANCH  34  35
ENDBRANCH  26  29
ENDBRANCH  24  25
ENDBRANCH   1  24
TORSDOF 15
ENDMDL
MODEL 2
REMARK VINA RESULT:     -12.5      4.995     10.273
REMARK SMILES CC[C@H]1CCCC[C@H]1n1cc(C(=O)NCCCNC(=O)c2ccc(-c3c4nc(c(-c5cc(S(=O)(=O)[O-])ccc5F)c5ccc([nH]5)c(-c5cc(S(=O)(=O)[O-])ccc5F)c5nc(c(-c6cc(S(=O)(=O)[O-])ccc6F)c6ccc3[nH]6)C=C5)C=C4)cc2)c(=O)[nH]c1=O
REMARK SMILES IDX 16 1 15 2 14 3 12 4 13 5 11 7 9 8 10 9 87 10 86 11 88 12
REMARK SMILES IDX 84 13 85 15 8 16 3 17 4 18 5 19 7 20 6 21 2 22 1 23 17 24
REMARK SMILES IDX 18 25 19 26 20 28 21 29 22 30 83 31 23 32 82 33 24 34 25 35
REMARK SMILES IDX 26 36 76 37 27 38 81 39 75 40 77 41 28 42 80 43 74 44 73 45
REMARK SMILES IDX 29 47 61 48 41 49 60 50 42 51 45 52 59 53 78 54 43 55 44 56
REMARK SMILES IDX 58 58 79 59 46 60 30 61 31 62 39 63 32 64 38 65 40 66 37 67
REMARK SMILES IDX 33 68 34 69 35 70 36 71 62 72 63 73 71 74 64 75 70 76 72 77
REMARK SMILES IDX 69 78 65 79 66 80 67 81 68 82 47 83 48 84 56 85 49 86 55 87
REMARK SMILES IDX 57 88 54 89 50 90 51 91 52 92 53 93
REMARK H PARENT 14 6 86 14 18 27 77 46 45 57
REMARK Flexibility Score: inf
ROOT
ATOM      1  C   UNL A   1      36.201  21.141  25.418  1.00  0.00     0.042 C 
ENDROOT
BRANCH   1   2
ATOM      2  C   UNL A   1      35.645  22.454  25.967  1.00  0.00     0.118 C 
BRANCH   2   3
ATOM      3  N   UNL A   1      34.701  22.191  27.040  1.00  0.00    -0.352 N 
ATOM      4  C   UNL A   1      33.414  22.563  27.283  1.00  0.00     0.258 C 
ATOM      5  O   UNL A   1      32.979  22.292  28.404  1.00  0.00    -0.269 OA
ATOM      6  H   UNL A   1      35.074  21.617  27.746  1.00  0.00     0.163 HD
BRANCH   4   7
ATOM      7  C   UNL A   1      32.531  23.205  26.267  1.00  0.00     0.121 A 
ATOM      8  N   UNL A   1      31.765  25.059  24.920  1.00  0.00    -0.296 N 
ATOM      9  C   UNL A   1      32.502  24.513  25.973  1.00  0.00     0.110 A 
ATOM     10  C   UNL A   1      30.744  24.317  24.328  1.00  0.00     0.328 A 
ATOM     11  N   UNL A   1      30.650  23.020  24.751  1.00  0.00    -0.273 N 
ATOM     12  O   UNL A   1      29.988  24.699  23.440  1.00  0.00    -0.248 OA
ATOM     13  C   UNL A   1      31.589  22.355  25.487  1.00  0.00     0.266 A 
ATOM     14  H   UNL A   1      29.836  22.524  24.505  1.00  0.00     0.175 HD
ATOM     15  O   UNL A   1      31.659  21.133  25.429  1.00  0.00    -0.268 OA
BRANCH   8  16
ATOM     16  C   UNL A   1      32.187  26.407  24.423  1.00  0.00     0.095 C 
ATOM     17  C   UNL A   1      31.576  27.582  25.264  1.00  0.00     0.012 C 
ATOM     18  C   UNL A   1      31.854  28.920  24.539  1.00  0.00     0.006 C 
ATOM     19  C   UNL A   1      33.342  29.156  24.288  1.00  0.00     0.000 C 
ATOM     20  C   UNL A   1      33.694  26.641  24.207  1.00  0.00     0.026 C 
ATOM     21  C   UNL A   1      33.978  27.991  23.543  1.00  0.00     0.002 C 
BRANCH  17  22
ATOM     22  C   UNL A   1      31.991  27.727  26.751  1.00  0.00     0.002 C 
ATOM     23  C   UNL A   1      31.664  29.025  27.464  1.00  0.00     0.004 C 
ENDBRANCH  17  22
ENDBRANCH   8  16
ENDBRANCH   4   7
ENDBRANCH   2   3
ENDBRANCH   1   2
BRANCH   1  24
ATOM     24  C   UNL A   1      37.636  21.277  24.909  1.00  0.00     0.118 C 
BRANCH  24  25
ATOM     25  N   UNL A   1      38.508  20.247  25.456  1.00  0.00    -0.352 N 
ATOM     26  C   UNL A   1      39.686  20.379  26.158  1.00  0.00     0.251 C 
ATOM     27  H   UNL A   1      38.213  19.320  25.301  1.00  0.00     0.163 HD
ATOM     28  O   UNL A   1      40.386  19.396  26.352  1.00  0.00    -0.269 OA
BRANCH  26  29
ATOM     29  C   UNL A   1      40.106  21.713  26.643  1.00  0.00     0.039 A 
ATOM     30  C   UNL A   1      39.534  22.874  26.120  1.00  0.00     0.014 A 
ATOM     31  C   UNL A   1      41.092  21.801  27.631  1.00  0.00     0.014 A 
ATOM     32  C   UNL A   1      40.060  24.116  26.459  1.00  0.00     0.010 A 
ATOM     33  C   UNL A   1      41.560  23.056  28.033  1.00  0.00     0.010 A 
ATOM     34  C   UNL A   1      41.082  24.222  27.415  1.00  0.00    -0.014 A 
BRANCH  34  35
ATOM     35  C   UNL A   1      41.628  25.562  27.755  1.00  0.00     0.031 A 
ATOM     36  C   UNL A   1      42.995  25.980  27.285  1.00  0.00     0.074 A 
ATOM     37  C   UNL A   1      40.862  26.425  28.450  1.00  0.00     0.049 A 
ATOM     38  N   UNL A   1      43.613  27.119  27.463  1.00  0.00    -0.248 NA
ATOM     39  C   UNL A   1      43.771  24.992  26.518  1.00  0.00     0.031 C 
ATOM     40  C   UNL A   1      39.520  26.126  28.954  1.00  0.00     0.029 A 
ATOM     41  N   UNL A   1      41.079  27.724  28.835  1.00  0.00    -0.354 N 
ATOM     42  C   UNL A   1      44.849  26.985  26.840  1.00  0.00     0.074 A 
ATOM     43  C   UNL A   1      44.912  25.638  26.316  1.00  0.00     0.031 C 
ATOM     44  C   UNL A   1      39.017  27.222  29.536  1.00  0.00     0.029 A 
ATOM     45  C   UNL A   1      40.022  28.281  29.516  1.00  0.00     0.049 A 
ATOM     46  H   UNL A   1      41.913  28.212  28.642  1.00  0.00     0.167 HD
ATOM     47  C   UNL A   1      45.830  27.909  26.699  1.00  0.00     0.034 A 
ATOM     48  C   UNL A   1      39.876  29.500  30.077  1.00  0.00     0.034 A 
ATOM     49  C   UNL A   1      45.747  29.251  27.221  1.00  0.00     0.049 A 
ATOM     50  C   UNL A   1      40.994  30.499  29.938  1.00  0.00     0.074 A 
ATOM     51  C   UNL A   1      46.683  30.264  27.123  1.00  0.00     0.029 A 
ATOM     52  N   UNL A   1      44.672  29.769  27.931  1.00  0.00    -0.354 N 
ATOM     53  N   UNL A   1      42.140  30.368  29.313  1.00  0.00    -0.248 NA
ATOM     54  C   UNL A   1      40.804  31.810  30.572  1.00  0.00     0.031 C 
ATOM     55  C   UNL A   1      46.203  31.372  27.822  1.00  0.00     0.029 A 
ATOM     56  C   UNL A   1      44.933  31.080  28.295  1.00  0.00     0.049 A 
ATOM     57  H   UNL A   1      43.845  29.278  28.143  1.00  0.00     0.167 HD
ATOM     58  C   UNL A   1      42.804  31.581  29.468  1.00  0.00     0.074 A 
ATOM     59  C   UNL A   1      41.915  32.445  30.219  1.00  0.00     0.031 C 
ATOM     60  C   UNL A   1      44.039  31.939  29.036  1.00  0.00     0.034 A 
BRANCH  47  61
ATOM     61  C   UNL A   1      47.080  27.528  25.943  1.00  0.00     0.023 A 
ATOM     62  C   UNL A   1      47.205  27.842  24.576  1.00  0.00     0.031 A 
ATOM     63  C   UNL A   1      48.088  26.750  26.539  1.00  0.00     0.131 A 
ATOM     64  C   UNL A   1      48.293  27.351  23.845  1.00  0.00     0.055 A 
ATOM     65  C   UNL A   1      49.192  26.297  25.816  1.00  0.00     0.041 A 
ATOM     66  F   UNL A   1      48.017  26.424  27.841  1.00  0.00    -0.206 F 
ATOM     67  C   UNL A   1      49.291  26.587  24.458  1.00  0.00     0.022 A 
BRANCH  64  68
ATOM     68  S   UNL A   1      48.427  27.629  22.057  1.00  0.00     0.124 S 
ATOM     69  O   UNL A   1      49.582  28.522  21.981  1.00  0.00    -0.237 OA
ATOM     70  O   UNL A   1      48.653  26.277  21.555  1.00  0.00    -0.237 OA
ATOM     71  O   UNL A   1      47.150  28.232  21.699  1.00  0.00    -0.744 OA
ENDBRANCH  64  68
ENDBRANCH  47  61
BRANCH  48  72
ATOM     72  C   UNL A   1      38.598  29.820  30.777  1.00  0.00     0.023 A 
ATOM     73  C   UNL A   1      37.597  30.573  30.134  1.00  0.00     0.031 A 
ATOM     74  C   UNL A   1      38.416  29.506  32.133  1.00  0.00     0.131 A 
ATOM     75  C   UNL A   1      36.510  31.063  30.868  1.00  0.00     0.055 A 
ATOM     76  C   UNL A   1      37.289  29.928  32.842  1.00  0.00     0.041 A 
ATOM     77  F   UNL A   1      39.347  28.801  32.794  1.00  0.00    -0.206 F 
ATOM     78  C   UNL A   1      36.341  30.730  32.215  1.00  0.00     0.022 A 
BRANCH  75  79
ATOM     79  S   UNL A   1      35.375  32.279  30.143  1.00  0.00     0.124 S 
ATOM     80  O   UNL A   1      36.263  33.408  29.883  1.00  0.00    -0.237 OA
ATOM     81  O   UNL A   1      34.894  31.568  28.961  1.00  0.00    -0.237 OA
ATOM     82  O   UNL A   1      34.379  32.487  31.189  1.00  0.00    -0.744 OA
ENDBRANCH  75  79
ENDBRANCH  48  72
BRANCH  60  83
ATOM     83  C   UNL A   1      44.541  33.328  29.355  1.00  0.00     0.023 A 
ATOM     84  C   UNL A   1      44.139  34.421  28.562  1.00  0.00     0.031 A 
ATOM     85  C   UNL A   1      45.535  33.540  30.326  1.00  0.00     0.131 A 
ATOM     86  C   UNL A   1      44.764  35.664  28.722  1.00  0.00     0.055 A 
ATOM     87  C   UNL A   1      46.119  34.793  30.514  1.00  0.00     0.041 A 
ATOM     88  F   UNL A   1      45.960  32.527  31.098  1.00  0.00    -0.206 F 
ATOM     89  C   UNL A   1      45.745  35.858  29.699  1.00  0.00     0.022 A 
BRANCH  86  90
ATOM     90  S   UNL A   1      44.397  37.046  27.605  1.00  0.00     0.124 S 
ATOM     91  O   UNL A   1      43.738  37.992  28.503  1.00  0.00    -0.237 OA
ATOM     92  O   UNL A   1      45.730  37.439  27.155  1.00  0.00    -0.237 OA
ATOM     93  O   UNL A   1      43.538  36.457  26.585  1.00  0.00    -0.744 OA
ENDBRANCH  86  90
ENDBRANCH  60  83
ENDBRANCH  34  35
ENDBRANCH  26  29
ENDBRANCH  24  25
ENDBRANCH   1  24
TORSDOF 15
ENDMDL
MODEL 3
REMARK VINA RESULT:     -12.5      2.060      2.690
REMARK SMILES CC[C@H]1CCCC[C@H]1n1cc(C(=O)NCCCNC(=O)c2ccc(-c3c4nc(c(-c5cc(S(=O)(=O)[O-])ccc5F)c5ccc([nH]5)c(-c5cc(S(=O)(=O)[O-])ccc5F)c5nc(c(-c6cc(S(=O)(=O)[O-])ccc6F)c6ccc3[nH]6)C=C5)C=C4)cc2)c(=O)[nH]c1=O
REMARK SMILES IDX 16 1 15 2 14 3 12 4 13 5 11 7 9 8 10 9 87 10 86 11 88 12
REMARK SMILES IDX 84 13 85 15 8 16 3 17 4 18 5 19 7 20 6 21 2 22 1 23 17 24
REMARK SMILES IDX 18 25 19 26 20 28 21 29 22 30 83 31 23 32 82 33 24 34 25 35
REMARK SMILES IDX 26 36 76 37 27 38 81 39 75 40 77 41 28 42 80 43 74 44 73 45
REMARK SMILES IDX 29 47 61 48 41 49 60 50 42 51 45 52 59 53 78 54 43 55 44 56
REMARK SMILES IDX 58 58 79 59 46 60 30 61 31 62 39 63 32 64 38 65 40 66 37 67
REMARK SMILES IDX 33 68 34 69 35 70 36 71 62 72 63 73 71 74 64 75 70 76 72 77
REMARK SMILES IDX 69 78 65 79 66 80 67 81 68 82 47 83 48 84 56 85 49 86 55 87
REMARK SMILES IDX 57 88 54 89 50 90 51 91 52 92 53 93
REMARK H PARENT 14 6 86 14 18 27 77 46 45 57
REMARK Flexibility Score: inf
ROOT
ATOM      1  C   UNL A   1      31.417  32.160  26.532  1.00  0.00     0.042 C 
ENDROOT
BRANCH   1   2
ATOM      2  C   UNL A   1      31.656  30.747  26.001  1.00  0.00     0.118 C 
BRANCH   2   3
ATOM      3  N   UNL A   1      32.962  30.266  26.418  1.00  0.00    -0.352 N 
ATOM      4  C   UNL A   1      33.474  29.037  26.702  1.00  0.00     0.258 C 
ATOM      5  O   UNL A   1      34.598  29.027  27.207  1.00  0.00    -0.269 OA
ATOM      6  H   UNL A   1      33.622  30.989  26.517  1.00  0.00     0.163 HD
BRANCH   4   7
ATOM      7  C   UNL A   1      32.778  27.756  26.385  1.00  0.00     0.121 A 
ATOM      8  N   UNL A   1      32.621  25.563  25.384  1.00  0.00    -0.296 N 
ATOM      9  C   UNL A   1      33.229  26.810  25.549  1.00  0.00     0.110 A 
ATOM     10  C   UNL A   1      31.313  25.364  25.823  1.00  0.00     0.328 A 
ATOM     11  N   UNL A   1      30.775  26.402  26.532  1.00  0.00    -0.273 N 
ATOM     12  O   UNL A   1      30.648  24.342  25.686  1.00  0.00    -0.248 OA
ATOM     13  C   UNL A   1      31.471  27.464  27.035  1.00  0.00     0.266 A 
ATOM     14  H   UNL A   1      29.804  26.382  26.694  1.00  0.00     0.175 HD
ATOM     15  O   UNL A   1      31.039  28.074  28.008  1.00  0.00    -0.268 OA
BRANCH   8  16
ATOM     16  C   UNL A   1      33.465  24.468  24.810  1.00  0.00     0.095 C 
ATOM     17  C   UNL A   1      33.237  24.269  23.272  1.00  0.00     0.012 C 
ATOM     18  C   UNL A   1      33.948  22.972  22.818  1.00  0.00     0.006 C 
ATOM     19  C   UNL A   1      35.440  22.973  23.145  1.00  0.00     0.000 C 
ATOM     20  C   UNL A   1      34.973  24.501  25.121  1.00  0.00     0.026 C 
ATOM     21  C   UNL A   1      35.692  23.245  24.622  1.00  0.00     0.002 C 
BRANCH  17  22
ATOM     22  C   UNL A   1      33.635  25.416  22.306  1.00  0.00     0.002 C 
ATOM     23  C   UNL A   1      32.572  26.422  21.908  1.00  0.00     0.004 C 
ENDBRANCH  17  22
ENDBRANCH   8  16
ENDBRANCH   4   7
ENDBRANCH   2   3
ENDBRANCH   1   2
BRANCH   1  24
ATOM     24  C   UNL A   1      32.651  32.748  27.217  1.00  0.00     0.118 C 
BRANCH  24  25
ATOM     25  N   UNL A   1      32.425  34.114  27.668  1.00  0.00    -0.352 N 
ATOM     26  C   UNL A   1      33.026  34.806  28.697  1.00  0.00     0.251 C 
ATOM     27  H   UNL A   1      31.743  34.616  27.166  1.00  0.00     0.163 HD
ATOM     28  O   UNL A   1      32.556  35.874  29.060  1.00  0.00    -0.269 OA
BRANCH  26  29
ATOM     29  C   UNL A   1      34.214  34.236  29.371  1.00  0.00     0.039 A 
ATOM     30  C   UNL A   1      35.502  34.566  28.945  1.00  0.00     0.014 A 
ATOM     31  C   UNL A   1      34.034  33.353  30.440  1.00  0.00     0.014 A 
ATOM     32  C   UNL A   1      36.597  33.891  29.472  1.00  0.00     0.010 A 
ATOM     33  C   UNL A   1      35.145  32.739  31.027  1.00  0.00     0.010 A 
ATOM     34  C   UNL A   1      36.432  32.966  30.516  1.00  0.00    -0.014 A 
BRANCH  34  35
ATOM     35  C   UNL A   1      37.621  32.256  31.058  1.00  0.00     0.031 A 
ATOM     36  C   UNL A   1      38.115  32.533  32.452  1.00  0.00     0.074 A 
ATOM     37  C   UNL A   1      38.225  31.319  30.302  1.00  0.00     0.049 A 
ATOM     38  N   UNL A   1      39.115  31.985  33.093  1.00  0.00    -0.248 NA
ATOM     39  C   UNL A   1      37.398  33.558  33.227  1.00  0.00     0.031 C 
ATOM     40  C   UNL A   1      37.828  30.969  28.937  1.00  0.00     0.029 A 
ATOM     41  N   UNL A   1      39.276  30.478  30.569  1.00  0.00    -0.354 N 
ATOM     42  C   UNL A   1      39.153  32.600  34.340  1.00  0.00     0.074 A 
ATOM     43  C   UNL A   1      38.103  33.595  34.349  1.00  0.00     0.031 C 
ATOM     44  C   UNL A   1      38.590  29.956  28.506  1.00  0.00     0.029 A 
ATOM     45  C   UNL A   1      39.580  29.630  29.529  1.00  0.00     0.049 A 
ATOM     46  H   UNL A   1      39.766  30.482  31.423  1.00  0.00     0.167 HD
ATOM     47  C   UNL A   1      39.973  32.341  35.386  1.00  0.00     0.034 A 
ATOM     48  C   UNL A   1      40.553  28.703  29.401  1.00  0.00     0.034 A 
ATOM     49  C   UNL A   1      41.010  31.339  35.362  1.00  0.00     0.049 A 
ATOM     50  C   UNL A   1      41.476  28.458  30.565  1.00  0.00     0.074 A 
ATOM     51  C   UNL A   1      41.888  30.995  36.373  1.00  0.00     0.029 A 
ATOM     52  N   UNL A   1      41.307  30.520  34.280  1.00  0.00    -0.354 N 
ATOM     53  N   UNL A   1      41.474  29.023  31.749  1.00  0.00    -0.248 NA
ATOM     54  C   UNL A   1      42.530  27.451  30.384  1.00  0.00     0.031 C 
ATOM     55  C   UNL A   1      42.753  30.013  35.887  1.00  0.00     0.029 A 
ATOM     56  C   UNL A   1      42.370  29.688  34.595  1.00  0.00     0.049 A 
ATOM     57  H   UNL A   1      40.832  30.528  33.418  1.00  0.00     0.167 HD
ATOM     58  C   UNL A   1      42.516  28.433  32.458  1.00  0.00     0.074 A 
ATOM     59  C   UNL A   1      43.107  27.444  31.579  1.00  0.00     0.031 C 
ATOM     60  C   UNL A   1      42.947  28.697  33.717  1.00  0.00     0.034 A 
BRANCH  47  61
ATOM     61  C   UNL A   1      39.793  33.131  36.660  1.00  0.00     0.023 A 
ATOM     62  C   UNL A   1      38.985  32.629  37.697  1.00  0.00     0.031 A 
ATOM     63  C   UNL A   1      40.317  34.430  36.797  1.00  0.00     0.131 A 
ATOM     64  C   UNL A   1      38.696  33.432  38.807  1.00  0.00     0.055 A 
ATOM     65  C   UNL A   1      40.060  35.211  37.924  1.00  0.00     0.041 A 
ATOM     66  F   UNL A   1      41.095  34.955  35.836  1.00  0.00    -0.206 F 
ATOM     67  C   UNL A   1      39.235  34.717  38.930  1.00  0.00     0.022 A 
BRANCH  64  68
ATOM     68  S   UNL A   1      37.562  32.870  40.106  1.00  0.00     0.124 S 
ATOM     69  O   UNL A   1      36.324  32.669  39.354  1.00  0.00    -0.237 OA
ATOM     70  O   UNL A   1      38.212  31.648  40.571  1.00  0.00    -0.237 OA
ATOM     71  O   UNL A   1      37.539  33.976  41.055  1.00  0.00    -0.744 OA
ENDBRANCH  64  68
ENDBRANCH  47  61
BRANCH  48  72
ATOM     72  C   UNL A   1      40.648  27.934  28.126  1.00  0.00     0.023 A 
ATOM     73  C   UNL A   1      40.111  26.635  28.031  1.00  0.00     0.031 A 
ATOM     74  C   UNL A   1      41.393  28.420  27.041  1.00  0.00     0.131 A 
ATOM     75  C   UNL A   1      40.405  25.838  26.919  1.00  0.00     0.055 A 
ATOM     76  C   UNL A   1      41.615  27.650  25.897  1.00  0.00     0.041 A 
ATOM     77  F   UNL A   1      41.936  29.646  27.088  1.00  0.00    -0.206 F 
ATOM     78  C   UNL A   1      41.140  26.343  25.842  1.00  0.00     0.022 A 
BRANCH  75  79
ATOM     79  S   UNL A   1      39.985  24.072  26.908  1.00  0.00     0.124 S 
ATOM     80  O   UNL A   1      39.802  23.794  28.328  1.00  0.00    -0.237 OA
ATOM     81  O   UNL A   1      38.768  24.061  26.099  1.00  0.00    -0.237 OA
ATOM     82  O   UNL A   1      41.147  23.446  26.286  1.00  0.00    -0.744 OA
ENDBRANCH  75  79
ENDBRANCH  48  72
BRANCH  60  83
ATOM     83  C   UNL A   1      44.126  27.920  34.254  1.00  0.00     0.023 A 
ATOM     84  C   UNL A   1      43.918  26.694  34.917  1.00  0.00     0.031 A 
ATOM     85  C   UNL A   1      45.421  28.466  34.258  1.00  0.00     0.131 A 
ATOM     86  C   UNL A   1      44.978  26.081  35.597  1.00  0.00     0.055 A 
ATOM     87  C   UNL A   1      46.485  27.826  34.895  1.00  0.00     0.041 A 
ATOM     88  F   UNL A   1      45.667  29.638  33.650  1.00  0.00    -0.206 F 
ATOM     89  C   UNL A   1      46.261  26.636  35.582  1.00  0.00     0.022 A 
BRANCH  86  90
ATOM     90  S   UNL A   1      44.709  24.596  36.605  1.00  0.00     0.124 S 
ATOM     91  O   UNL A   1      43.745  23.853  35.796  1.00  0.00    -0.237 OA
ATOM     92  O   UNL A   1      46.049  24.019  36.664  1.00  0.00    -0.237 OA
ATOM     93  O   UNL A   1      44.191  25.115  37.866  1.00  0.00    -0.744 OA
ENDBRANCH  86  90
ENDBRANCH  60  83
ENDBRANCH  34  35
ENDBRANCH  26  29
ENDBRANCH  24  25
ENDBRANCH   1  24
TORSDOF 15
ENDMDL
