MODEL 1
REMARK VINA RESULT:     -13.0      0.000      0.000
REMARK SMILES C[C@H](NC(=O)c1c(C(=O)NCCCNC(=O)c2ccc(-c3c4nc(c(-c5cc(S(=O)(=O)[O-])ccc5F)c5ccc([nH]5)c(-c5cc(S(=O)(=O)[O-])ccc5F)c5nc(c(-c6cc(S(=O)(=O)[O-])ccc6F)c6ccc3[nH]6)C=C5)C=C4)cc2)cnn1C)[C@]12C[C@H]3C[C@H](C[C@H](C3)C1)C2
REMARK SMILES IDX 12 1 11 2 10 3 8 4 9 5 7 7 6 8 82 9 80 10 81 11 83 12 4 13
REMARK SMILES IDX 3 14 5 16 2 17 1 18 84 19 85 20 92 21 93 22 86 23 90 24
REMARK SMILES IDX 88 25 87 26 91 27 89 28 13 29 14 30 15 31 16 33 17 34 18 35
REMARK SMILES IDX 79 36 19 37 78 38 20 39 21 40 22 41 72 42 23 43 77 44 71 45
REMARK SMILES IDX 73 46 24 47 76 48 70 49 69 50 25 52 57 53 37 54 56 55 38 56
REMARK SMILES IDX 41 57 55 58 74 59 39 60 40 61 54 63 75 64 42 65 26 66 27 67
REMARK SMILES IDX 35 68 28 69 34 70 36 71 33 72 29 73 30 74 31 75 32 76 58 77
REMARK SMILES IDX 59 78 67 79 60 80 66 81 68 82 65 83 61 84 62 85 63 86 64 87
REMARK SMILES IDX 43 88 44 89 52 90 45 91 51 92 53 93 50 94 46 95 47 96 48 97
REMARK SMILES IDX 49 98
REMARK H PARENT 10 6 3 15 14 32 73 51 41 62
REMARK Flexibility Score: inf
ROOT
ATOM      1  C   UNL A   1      31.624  31.874  26.691  1.00  0.00     0.042 C 
ENDROOT
BRANCH   1   2
ATOM      2  C   UNL A   1      31.791  30.368  26.498  1.00  0.00     0.118 C 
BRANCH   2   3
ATOM      3  N   UNL A   1      32.695  30.114  25.394  1.00  0.00    -0.352 N 
ATOM      4  C   UNL A   1      32.670  29.265  24.324  1.00  0.00     0.255 C 
ATOM      5  O   UNL A   1      33.658  29.318  23.586  1.00  0.00    -0.269 OA
ATOM      6  H   UNL A   1      33.502  30.677  25.422  1.00  0.00     0.163 HD
BRANCH   4   7
ATOM      7  C   UNL A   1      31.540  28.429  23.951  1.00  0.00     0.090 A 
ATOM      8  C   UNL A   1      30.899  27.312  24.487  1.00  0.00     0.138 A 
ATOM      9  N   UNL A   1      29.768  27.143  23.715  1.00  0.00    -0.262 N 
ATOM     10  C   UNL A   1      30.814  28.677  22.751  1.00  0.00     0.149 A 
ATOM     11  N   UNL A   1      29.750  27.895  22.602  1.00  0.00    -0.180 NA
ATOM     12  C   UNL A   1      28.646  26.260  23.948  1.00  0.00     0.174 C 
BRANCH   8  13
ATOM     13  C   UNL A   1      31.135  26.513  25.651  1.00  0.00     0.270 C 
ATOM     14  N   UNL A   1      32.115  25.564  25.665  1.00  0.00    -0.348 N 
ATOM     15  H   UNL A   1      32.334  25.235  26.567  1.00  0.00     0.164 HD
ATOM     16  O   UNL A   1      30.430  26.612  26.659  1.00  0.00    -0.267 OA
BRANCH  14  17
ATOM     17  C   UNL A   1      32.912  24.933  24.598  1.00  0.00     0.085 C 
ATOM     18  C   UNL A   1      34.068  25.887  24.266  1.00  0.00     0.031 C 
BRANCH  17  19
ATOM     19  C   UNL A   1      33.406  23.485  25.016  1.00  0.00    -0.009 C 
ATOM     20  C   UNL A   1      32.237  22.526  25.397  1.00  0.00     0.012 C 
ATOM     21  C   UNL A   1      34.315  23.593  26.269  1.00  0.00     0.012 C 
ATOM     22  C   UNL A   1      34.221  22.788  23.884  1.00  0.00     0.012 C 
ATOM     23  C   UNL A   1      32.755  21.146  25.842  1.00  0.00    -0.010 C 
ATOM     24  C   UNL A   1      34.847  22.222  26.712  1.00  0.00    -0.010 C 
ATOM     25  C   UNL A   1      34.746  21.414  24.332  1.00  0.00    -0.010 C 
ATOM     26  C   UNL A   1      33.560  20.512  24.696  1.00  0.00     0.007 C 
ATOM     27  C   UNL A   1      33.665  21.313  27.066  1.00  0.00     0.007 C 
ATOM     28  C   UNL A   1      35.649  21.596  25.561  1.00  0.00     0.007 C 
ENDBRANCH  17  19
ENDBRANCH  14  17
ENDBRANCH   8  13
ENDBRANCH   4   7
ENDBRANCH   2   3
ENDBRANCH   1   2
BRANCH   1  29
ATOM     29  C   UNL A   1      32.897  32.555  27.193  1.00  0.00     0.118 C 
BRANCH  29  30
ATOM     30  N   UNL A   1      32.632  33.920  27.622  1.00  0.00    -0.352 N 
ATOM     31  C   UNL A   1      33.160  34.616  28.681  1.00  0.00     0.251 C 
ATOM     32  H   UNL A   1      31.980  34.415  27.074  1.00  0.00     0.163 HD
ATOM     33  O   UNL A   1      32.623  35.663  29.037  1.00  0.00    -0.269 OA
BRANCH  31  34
ATOM     34  C   UNL A   1      34.356  34.115  29.400  1.00  0.00     0.039 A 
ATOM     35  C   UNL A   1      35.627  34.445  28.917  1.00  0.00     0.014 A 
ATOM     36  C   UNL A   1      34.232  33.275  30.511  1.00  0.00     0.014 A 
ATOM     37  C   UNL A   1      36.771  33.967  29.566  1.00  0.00     0.010 A 
ATOM     38  C   UNL A   1      35.372  32.844  31.188  1.00  0.00     0.010 A 
ATOM     39  C   UNL A   1      36.654  33.175  30.717  1.00  0.00    -0.014 A 
BRANCH  39  40
ATOM     40  C   UNL A   1      37.843  32.628  31.422  1.00  0.00     0.031 A 
ATOM     41  C   UNL A   1      38.621  31.501  30.796  1.00  0.00     0.074 A 
ATOM     42  C   UNL A   1      38.171  33.070  32.651  1.00  0.00     0.049 A 
ATOM     43  N   UNL A   1      39.547  30.737  31.315  1.00  0.00    -0.248 NA
ATOM     44  C   UNL A   1      38.273  31.169  29.407  1.00  0.00     0.031 C 
ATOM     45  C   UNL A   1      37.489  34.144  33.376  1.00  0.00     0.029 A 
ATOM     46  N   UNL A   1      39.150  32.653  33.518  1.00  0.00    -0.354 N 
ATOM     47  C   UNL A   1      39.852  29.794  30.339  1.00  0.00     0.074 A 
ATOM     48  C   UNL A   1      38.992  30.075  29.207  1.00  0.00     0.031 C 
ATOM     49  C   UNL A   1      38.074  34.303  34.575  1.00  0.00     0.029 A 
ATOM     50  C   UNL A   1      39.139  33.316  34.722  1.00  0.00     0.049 A 
ATOM     51  H   UNL A   1      39.797  31.945  33.298  1.00  0.00     0.167 HD
ATOM     52  C   UNL A   1      40.765  28.791  30.382  1.00  0.00     0.034 A 
ATOM     53  C   UNL A   1      39.888  33.134  35.828  1.00  0.00     0.034 A 
ATOM     54  C   UNL A   1      41.650  28.558  31.497  1.00  0.00     0.049 A 
ATOM     55  C   UNL A   1      40.930  32.048  35.838  1.00  0.00     0.074 A 
ATOM     56  C   UNL A   1      42.651  27.610  31.628  1.00  0.00     0.029 A 
ATOM     57  N   UNL A   1      41.648  29.294  32.676  1.00  0.00    -0.354 N 
ATOM     58  N   UNL A   1      41.204  31.160  34.912  1.00  0.00    -0.248 NA
ATOM     59  C   UNL A   1      41.766  31.943  37.042  1.00  0.00     0.031 C 
ATOM     60  C   UNL A   1      43.228  27.750  32.896  1.00  0.00     0.029 A 
ATOM     61  C   UNL A   1      42.622  28.818  33.538  1.00  0.00     0.049 A 
ATOM     62  H   UNL A   1      41.042  30.046  32.870  1.00  0.00     0.167 HD
ATOM     63  C   UNL A   1      42.263  30.407  35.410  1.00  0.00     0.074 A 
ATOM     64  C   UNL A   1      42.577  30.946  36.719  1.00  0.00     0.031 C 
ATOM     65  C   UNL A   1      42.920  29.370  34.836  1.00  0.00     0.034 A 
BRANCH  52  66
ATOM     66  C   UNL A   1      40.811  27.850  29.202  1.00  0.00     0.023 A 
ATOM     67  C   UNL A   1      41.754  27.999  28.171  1.00  0.00     0.031 A 
ATOM     68  C   UNL A   1      39.851  26.829  29.075  1.00  0.00     0.131 A 
ATOM     69  C   UNL A   1      41.659  27.207  27.017  1.00  0.00     0.055 A 
ATOM     70  C   UNL A   1      39.816  25.987  27.961  1.00  0.00     0.041 A 
ATOM     71  F   UNL A   1      38.913  26.651  30.018  1.00  0.00    -0.206 F 
ATOM     72  C   UNL A   1      40.711  26.187  26.914  1.00  0.00     0.022 A 
BRANCH  69  73
ATOM     73  S   UNL A   1      42.683  27.644  25.585  1.00  0.00     0.124 S 
ATOM     74  O   UNL A   1      41.981  28.816  25.069  1.00  0.00    -0.237 OA
ATOM     75  O   UNL A   1      43.985  27.893  26.192  1.00  0.00    -0.237 OA
ATOM     76  O   UNL A   1      42.608  26.458  24.734  1.00  0.00    -0.744 OA
ENDBRANCH  69  73
ENDBRANCH  52  66
BRANCH  53  77
ATOM     77  C   UNL A   1      39.672  33.989  37.025  1.00  0.00     0.023 A 
ATOM     78  C   UNL A   1      39.002  33.490  38.152  1.00  0.00     0.031 A 
ATOM     79  C   UNL A   1      40.122  35.320  37.054  1.00  0.00     0.131 A 
ATOM     80  C   UNL A   1      38.768  34.327  39.252  1.00  0.00     0.055 A 
ATOM     81  C   UNL A   1      39.917  36.140  38.164  1.00  0.00     0.041 A 
ATOM     82  F   UNL A   1      40.781  35.836  36.004  1.00  0.00    -0.206 F 
ATOM     83  C   UNL A   1      39.230  35.646  39.270  1.00  0.00     0.022 A 
BRANCH  80  84
ATOM     84  S   UNL A   1      37.814  33.677  40.652  1.00  0.00     0.124 S 
ATOM     85  O   UNL A   1      36.711  33.004  39.974  1.00  0.00    -0.237 OA
ATOM     86  O   UNL A   1      38.789  32.811  41.307  1.00  0.00    -0.237 OA
ATOM     87  O   UNL A   1      37.449  34.878  41.401  1.00  0.00    -0.744 OA
ENDBRANCH  80  84
ENDBRANCH  53  77
BRANCH  65  88
ATOM     88  C   UNL A   1      44.083  28.798  35.600  1.00  0.00     0.023 A 
ATOM     89  C   UNL A   1      43.921  27.740  36.511  1.00  0.00     0.031 A 
ATOM     90  C   UNL A   1      45.371  29.331  35.415  1.00  0.00     0.131 A 
ATOM     91  C   UNL A   1      45.029  27.272  37.235  1.00  0.00     0.055 A 
ATOM     92  C   UNL A   1      46.474  28.836  36.110  1.00  0.00     0.041 A 
ATOM     93  F   UNL A   1      45.573  30.342  34.556  1.00  0.00    -0.206 F 
ATOM     94  C   UNL A   1      46.305  27.805  37.032  1.00  0.00     0.022 A 
BRANCH  91  95
ATOM     95  S   UNL A   1      44.771  25.985  38.488  1.00  0.00     0.124 S 
ATOM     96  O   UNL A   1      43.902  26.662  39.445  1.00  0.00    -0.237 OA
ATOM     97  O   UNL A   1      44.155  24.912  37.714  1.00  0.00    -0.237 OA
ATOM     98  O   UNL A   1      46.121  25.702  38.971  1.00  0.00    -0.744 OA
ENDBRANCH  91  95
ENDBRANCH  65  88
ENDBRANCH  39  40
ENDBRANCH  31  34
ENDBRANCH  29  30
ENDBRANCH   1  29
TORSDOF 16
ENDMDL
MODEL 2
REMARK VINA RESULT:     -12.9      1.620      2.211
REMARK SMILES C[C@H](NC(=O)c1c(C(=O)NCCCNC(=O)c2ccc(-c3c4nc(c(-c5cc(S(=O)(=O)[O-])ccc5F)c5ccc([nH]5)c(-c5cc(S(=O)(=O)[O-])ccc5F)c5nc(c(-c6cc(S(=O)(=O)[O-])ccc6F)c6ccc3[nH]6)C=C5)C=C4)cc2)cnn1C)[C@]12C[C@H]3C[C@H](C[C@H](C3)C1)C2
REMARK SMILES IDX 12 1 11 2 10 3 8 4 9 5 7 7 6 8 82 9 80 10 81 11 83 12 4 13
REMARK SMILES IDX 3 14 5 16 2 17 1 18 84 19 85 20 92 21 93 22 86 23 90 24
REMARK SMILES IDX 88 25 87 26 91 27 89 28 13 29 14 30 15 31 16 33 17 34 18 35
REMARK SMILES IDX 79 36 19 37 78 38 20 39 21 40 22 41 72 42 23 43 77 44 71 45
REMARK SMILES IDX 73 46 24 47 76 48 70 49 69 50 25 52 57 53 37 54 56 55 38 56
REMARK SMILES IDX 41 57 55 58 74 59 39 60 40 61 54 63 75 64 42 65 26 66 27 67
REMARK SMILES IDX 35 68 28 69 34 70 36 71 33 72 29 73 30 74 31 75 32 76 58 77
REMARK SMILES IDX 59 78 67 79 60 80 66 81 68 82 65 83 61 84 62 85 63 86 64 87
REMARK SMILES IDX 43 88 44 89 52 90 45 91 51 92 53 93 50 94 46 95 47 96 48 97
REMARK SMILES IDX 49 98
REMARK H PARENT 10 6 3 15 14 32 73 51 41 62
REMARK Flexibility Score: inf
ROOT
ATOM      1  C   UNL A   1      31.514  31.987  26.876  1.00  0.00     0.042 C 
ENDROOT
BRANCH   1   2
ATOM      2  C   UNL A   1      31.679  30.727  26.029  1.00  0.00     0.118 C 
BRANCH   2   3
ATOM      3  N   UNL A   1      31.576  29.554  26.873  1.00  0.00    -0.352 N 
ATOM      4  C   UNL A   1      31.687  28.211  26.648  1.00  0.00     0.255 C 
ATOM      5  O   UNL A   1      31.508  27.495  27.637  1.00  0.00    -0.269 OA
ATOM      6  H   UNL A   1      31.384  29.773  27.814  1.00  0.00     0.163 HD
BRANCH   4   7
ATOM      7  C   UNL A   1      32.108  27.610  25.392  1.00  0.00     0.090 A 
ATOM      8  C   UNL A   1      31.550  26.730  24.465  1.00  0.00     0.138 A 
ATOM      9  N   UNL A   1      32.426  26.730  23.399  1.00  0.00    -0.262 N 
ATOM     10  C   UNL A   1      33.399  27.876  24.854  1.00  0.00     0.149 A 
ATOM     11  N   UNL A   1      33.596  27.337  23.655  1.00  0.00    -0.180 NA
ATOM     12  C   UNL A   1      32.242  26.149  22.087  1.00  0.00     0.174 C 
BRANCH   8  13
ATOM     13  C   UNL A   1      30.300  26.035  24.405  1.00  0.00     0.270 C 
ATOM     14  N   UNL A   1      30.072  24.931  25.174  1.00  0.00    -0.348 N 
ATOM     15  H   UNL A   1      29.124  24.669  25.219  1.00  0.00     0.164 HD
ATOM     16  O   UNL A   1      29.409  26.370  23.620  1.00  0.00    -0.267 OA
BRANCH  14  17
ATOM     17  C   UNL A   1      30.963  24.052  25.952  1.00  0.00     0.085 C 
ATOM     18  C   UNL A   1      30.081  23.242  26.912  1.00  0.00     0.031 C 
BRANCH  17  19
ATOM     19  C   UNL A   1      31.851  23.138  25.009  1.00  0.00    -0.009 C 
ATOM     20  C   UNL A   1      31.935  21.658  25.495  1.00  0.00     0.012 C 
ATOM     21  C   UNL A   1      33.306  23.679  24.987  1.00  0.00     0.012 C 
ATOM     22  C   UNL A   1      31.322  23.110  23.543  1.00  0.00     0.012 C 
ATOM     23  C   UNL A   1      32.842  20.811  24.582  1.00  0.00    -0.010 C 
ATOM     24  C   UNL A   1      34.214  22.847  24.069  1.00  0.00    -0.010 C 
ATOM     25  C   UNL A   1      32.232  22.271  22.630  1.00  0.00    -0.010 C 
ATOM     26  C   UNL A   1      32.282  20.829  23.151  1.00  0.00     0.007 C 
ATOM     27  C   UNL A   1      34.258  21.402  24.579  1.00  0.00     0.007 C 
ATOM     28  C   UNL A   1      33.647  22.871  22.642  1.00  0.00     0.007 C 
ENDBRANCH  17  19
ENDBRANCH  14  17
ENDBRANCH   8  13
ENDBRANCH   4   7
ENDBRANCH   2   3
ENDBRANCH   1   2
BRANCH   1  29
ATOM     29  C   UNL A   1      32.848  32.637  27.244  1.00  0.00     0.118 C 
BRANCH  29  30
ATOM     30  N   UNL A   1      32.656  33.988  27.747  1.00  0.00    -0.352 N 
ATOM     31  C   UNL A   1      33.246  34.607  28.821  1.00  0.00     0.251 C 
ATOM     32  H   UNL A   1      32.012  34.538  27.245  1.00  0.00     0.163 HD
ATOM     33  O   UNL A   1      32.766  35.657  29.246  1.00  0.00    -0.269 OA
BRANCH  31  34
ATOM     34  C   UNL A   1      34.439  34.020  29.477  1.00  0.00     0.039 A 
ATOM     35  C   UNL A   1      34.259  33.096  30.512  1.00  0.00     0.014 A 
ATOM     36  C   UNL A   1      35.730  34.420  29.120  1.00  0.00     0.014 A 
ATOM     37  C   UNL A   1      35.369  32.544  31.163  1.00  0.00     0.010 A 
ATOM     38  C   UNL A   1      36.835  33.830  29.732  1.00  0.00     0.010 A 
ATOM     39  C   UNL A   1      36.668  32.895  30.767  1.00  0.00    -0.014 A 
BRANCH  39  40
ATOM     40  C   UNL A   1      37.873  32.349  31.447  1.00  0.00     0.031 A 
ATOM     41  C   UNL A   1      38.659  31.248  30.789  1.00  0.00     0.074 A 
ATOM     42  C   UNL A   1      38.207  32.769  32.682  1.00  0.00     0.049 A 
ATOM     43  N   UNL A   1      39.601  30.485  31.281  1.00  0.00    -0.248 NA
ATOM     44  C   UNL A   1      38.301  30.941  29.396  1.00  0.00     0.031 C 
ATOM     45  C   UNL A   1      37.518  33.817  33.438  1.00  0.00     0.029 A 
ATOM     46  N   UNL A   1      39.201  32.346  33.530  1.00  0.00    -0.354 N 
ATOM     47  C   UNL A   1      39.908  29.568  30.280  1.00  0.00     0.074 A 
ATOM     48  C   UNL A   1      39.032  29.863  29.164  1.00  0.00     0.031 C 
ATOM     49  C   UNL A   1      38.114  33.957  34.634  1.00  0.00     0.029 A 
ATOM     50  C   UNL A   1      39.194  32.982  34.748  1.00  0.00     0.049 A 
ATOM     51  H   UNL A   1      39.855  31.652  33.288  1.00  0.00     0.167 HD
ATOM     52  C   UNL A   1      40.835  28.577  30.291  1.00  0.00     0.034 A 
ATOM     53  C   UNL A   1      39.957  32.786  35.842  1.00  0.00     0.034 A 
ATOM     54  C   UNL A   1      41.735  28.332  31.392  1.00  0.00     0.049 A 
ATOM     55  C   UNL A   1      41.014  31.714  35.817  1.00  0.00     0.074 A 
ATOM     56  C   UNL A   1      42.750  27.395  31.491  1.00  0.00     0.029 A 
ATOM     57  N   UNL A   1      41.736  29.042  32.587  1.00  0.00    -0.354 N 
ATOM     58  N   UNL A   1      41.290  30.850  34.868  1.00  0.00    -0.248 NA
ATOM     59  C   UNL A   1      41.864  31.594  37.010  1.00  0.00     0.031 C 
ATOM     60  C   UNL A   1      43.339  27.515  32.756  1.00  0.00     0.029 A 
ATOM     61  C   UNL A   1      42.725  28.559  33.428  1.00  0.00     0.049 A 
ATOM     62  H   UNL A   1      41.122  29.781  32.804  1.00  0.00     0.167 HD
ATOM     63  C   UNL A   1      42.364  30.102  35.339  1.00  0.00     0.074 A 
ATOM     64  C   UNL A   1      42.685  30.615  36.656  1.00  0.00     0.031 C 
ATOM     65  C   UNL A   1      43.030  29.087  34.735  1.00  0.00     0.034 A 
BRANCH  52  66
ATOM     66  C   UNL A   1      40.881  27.664  29.090  1.00  0.00     0.023 A 
ATOM     67  C   UNL A   1      41.827  27.833  28.066  1.00  0.00     0.031 A 
ATOM     68  C   UNL A   1      39.918  26.649  28.938  1.00  0.00     0.131 A 
ATOM     69  C   UNL A   1      41.733  27.068  26.893  1.00  0.00     0.055 A 
ATOM     70  C   UNL A   1      39.884  25.832  27.805  1.00  0.00     0.041 A 
ATOM     71  F   UNL A   1      38.977  26.452  29.874  1.00  0.00    -0.206 F 
ATOM     72  C   UNL A   1      40.782  26.054  26.765  1.00  0.00     0.022 A 
BRANCH  69  73
ATOM     73  S   UNL A   1      42.762  27.535  25.474  1.00  0.00     0.124 S 
ATOM     74  O   UNL A   1      44.001  27.941  26.132  1.00  0.00    -0.237 OA
ATOM     75  O   UNL A   1      42.821  26.299  24.705  1.00  0.00    -0.237 OA
ATOM     76  O   UNL A   1      42.011  28.624  24.850  1.00  0.00    -0.744 OA
ENDBRANCH  69  73
ENDBRANCH  52  66
BRANCH  53  77
ATOM     77  C   UNL A   1      39.743  33.611  37.061  1.00  0.00     0.023 A 
ATOM     78  C   UNL A   1      40.561  34.717  37.331  1.00  0.00     0.031 A 
ATOM     79  C   UNL A   1      38.726  33.295  37.978  1.00  0.00     0.131 A 
ATOM     80  C   UNL A   1      40.373  35.454  38.509  1.00  0.00     0.055 A 
ATOM     81  C   UNL A   1      38.520  34.051  39.133  1.00  0.00     0.041 A 
ATOM     82  F   UNL A   1      37.909  32.253  37.754  1.00  0.00    -0.206 F 
ATOM     83  C   UNL A   1      39.351  35.134  39.407  1.00  0.00     0.022 A 
BRANCH  80  84
ATOM     84  S   UNL A   1      41.511  36.820  38.872  1.00  0.00     0.124 S 
ATOM     85  O   UNL A   1      42.191  36.989  37.593  1.00  0.00    -0.237 OA
ATOM     86  O   UNL A   1      40.592  37.885  39.257  1.00  0.00    -0.237 OA
ATOM     87  O   UNL A   1      42.338  36.293  39.956  1.00  0.00    -0.744 OA
ENDBRANCH  80  84
ENDBRANCH  53  77
BRANCH  65  88
ATOM     88  C   UNL A   1      44.208  28.514  35.474  1.00  0.00     0.023 A 
ATOM     89  C   UNL A   1      44.055  27.513  36.448  1.00  0.00     0.031 A 
ATOM     90  C   UNL A   1      45.503  28.989  35.199  1.00  0.00     0.131 A 
ATOM     91  C   UNL A   1      45.180  27.044  37.144  1.00  0.00     0.055 A 
ATOM     92  C   UNL A   1      46.621  28.491  35.868  1.00  0.00     0.041 A 
ATOM     93  F   UNL A   1      45.697  29.945  34.277  1.00  0.00    -0.206 F 
ATOM     94  C   UNL A   1      46.462  27.519  36.852  1.00  0.00     0.022 A 
BRANCH  91  95
ATOM     95  S   UNL A   1      44.940  25.836  38.478  1.00  0.00     0.124 S 
ATOM     96  O   UNL A   1      44.307  24.727  37.772  1.00  0.00    -0.237 OA
ATOM     97  O   UNL A   1      46.305  25.603  38.939  1.00  0.00    -0.237 OA
ATOM     98  O   UNL A   1      44.079  26.539  39.426  1.00  0.00    -0.744 OA
ENDBRANCH  91  95
ENDBRANCH  65  88
ENDBRANCH  39  40
ENDBRANCH  31  34
ENDBRANCH  29  30
ENDBRANCH   1  29
TORSDOF 16
ENDMDL
MODEL 3
REMARK VINA RESULT:     -12.8      5.809     11.784
REMARK SMILES C[C@H](NC(=O)c1c(C(=O)NCCCNC(=O)c2ccc(-c3c4nc(c(-c5cc(S(=O)(=O)[O-])ccc5F)c5ccc([nH]5)c(-c5cc(S(=O)(=O)[O-])ccc5F)c5nc(c(-c6cc(S(=O)(=O)[O-])ccc6F)c6ccc3[nH]6)C=C5)C=C4)cc2)cnn1C)[C@]12C[C@H]3C[C@H](C[C@H](C3)C1)C2
REMARK SMILES IDX 12 1 11 2 10 3 8 4 9 5 7 7 6 8 82 9 80 10 81 11 83 12 4 13
REMARK SMILES IDX 3 14 5 16 2 17 1 18 84 19 85 20 92 21 93 22 86 23 90 24
REMARK SMILES IDX 88 25 87 26 91 27 89 28 13 29 14 30 15 31 16 33 17 34 18 35
REMARK SMILES IDX 79 36 19 37 78 38 20 39 21 40 22 41 72 42 23 43 77 44 71 45
REMARK SMILES IDX 73 46 24 47 76 48 70 49 69 50 25 52 57 53 37 54 56 55 38 56
REMARK SMILES IDX 41 57 55 58 74 59 39 60 40 61 54 63 75 64 42 65 26 66 27 67
REMARK SMILES IDX 35 68 28 69 34 70 36 71 33 72 29 73 30 74 31 75 32 76 58 77
REMARK SMILES IDX 59 78 67 79 60 80 66 81 68 82 65 83 61 84 62 85 63 86 64 87
REMARK SMILES IDX 43 88 44 89 52 90 45 91 51 92 53 93 50 94 46 95 47 96 48 97
REMARK SMILES IDX 49 98
REMARK H PARENT 10 6 3 15 14 32 73 51 41 62
REMARK Flexibility Score: inf
ROOT
ATOM      1  C   UNL A   1      38.179  20.037  24.912  1.00  0.00     0.042 C 
ENDROOT
BRANCH   1   2
ATOM      2  C   UNL A   1      37.174  21.172  24.729  1.00  0.00     0.118 C 
BRANCH   2   3
ATOM      3  N   UNL A   1      36.406  21.346  25.945  1.00  0.00    -0.352 N 
ATOM      4  C   UNL A   1      35.076  21.510  26.211  1.00  0.00     0.255 C 
ATOM      5  O   UNL A   1      34.791  21.654  27.403  1.00  0.00    -0.269 OA
ATOM      6  H   UNL A   1      36.965  21.347  26.755  1.00  0.00     0.163 HD
BRANCH   4   7
ATOM      7  C   UNL A   1      34.011  21.402  25.226  1.00  0.00     0.090 A 
ATOM      8  C   UNL A   1      33.637  22.094  24.074  1.00  0.00     0.138 A 
ATOM      9  N   UNL A   1      32.628  21.338  23.514  1.00  0.00    -0.262 N 
ATOM     10  C   UNL A   1      33.008  20.398  25.344  1.00  0.00     0.149 A 
ATOM     11  N   UNL A   1      32.167  20.364  24.315  1.00  0.00    -0.180 NA
ATOM     12  C   UNL A   1      32.016  21.483  22.211  1.00  0.00     0.174 C 
BRANCH   8  13
ATOM     13  C   UNL A   1      34.172  23.240  23.404  1.00  0.00     0.270 C 
ATOM     14  N   UNL A   1      33.864  24.503  23.817  1.00  0.00    -0.348 N 
ATOM     15  H   UNL A   1      34.449  25.197  23.435  1.00  0.00     0.164 HD
ATOM     16  O   UNL A   1      34.882  23.131  22.400  1.00  0.00    -0.267 OA
BRANCH  14  17
ATOM     17  C   UNL A   1      32.829  25.036  24.720  1.00  0.00     0.085 C 
ATOM     18  C   UNL A   1      33.342  24.858  26.156  1.00  0.00     0.031 C 
BRANCH  17  19
ATOM     19  C   UNL A   1      32.469  26.541  24.375  1.00  0.00    -0.009 C 
ATOM     20  C   UNL A   1      31.195  27.050  25.114  1.00  0.00     0.012 C 
ATOM     21  C   UNL A   1      32.179  26.666  22.855  1.00  0.00     0.012 C 
ATOM     22  C   UNL A   1      33.628  27.522  24.729  1.00  0.00     0.012 C 
ATOM     23  C   UNL A   1      30.849  28.499  24.720  1.00  0.00    -0.010 C 
ATOM     24  C   UNL A   1      31.845  28.110  22.451  1.00  0.00    -0.010 C 
ATOM     25  C   UNL A   1      33.286  28.967  24.328  1.00  0.00    -0.010 C 
ATOM     26  C   UNL A   1      32.027  29.418  25.079  1.00  0.00     0.007 C 
ATOM     27  C   UNL A   1      30.594  28.570  23.209  1.00  0.00     0.007 C 
ATOM     28  C   UNL A   1      33.028  29.021  22.814  1.00  0.00     0.007 C 
ENDBRANCH  17  19
ENDBRANCH  14  17
ENDBRANCH   8  13
ENDBRANCH   4   7
ENDBRANCH   2   3
ENDBRANCH   1   2
BRANCH   1  29
ATOM     29  C   UNL A   1      39.204  20.320  26.011  1.00  0.00     0.118 C 
BRANCH  29  30
ATOM     30  N   UNL A   1      40.247  19.307  26.033  1.00  0.00    -0.352 N 
ATOM     31  C   UNL A   1      41.610  19.465  26.072  1.00  0.00     0.251 C 
ATOM     32  H   UNL A   1      39.931  18.374  26.019  1.00  0.00     0.163 HD
ATOM     33  O   UNL A   1      42.333  18.501  25.822  1.00  0.00    -0.269 OA
BRANCH  31  34
ATOM     34  C   UNL A   1      42.216  20.778  26.398  1.00  0.00     0.039 A 
ATOM     35  C   UNL A   1      42.527  21.071  27.730  1.00  0.00     0.014 A 
ATOM     36  C   UNL A   1      42.423  21.744  25.408  1.00  0.00     0.014 A 
ATOM     37  C   UNL A   1      43.078  22.313  28.066  1.00  0.00     0.010 A 
ATOM     38  C   UNL A   1      43.023  22.959  25.736  1.00  0.00     0.010 A 
ATOM     39  C   UNL A   1      43.346  23.262  27.069  1.00  0.00    -0.014 A 
BRANCH  39  40
ATOM     40  C   UNL A   1      43.910  24.601  27.387  1.00  0.00     0.031 A 
ATOM     41  C   UNL A   1      43.012  25.667  27.954  1.00  0.00     0.074 A 
ATOM     42  C   UNL A   1      45.190  24.890  27.086  1.00  0.00     0.049 A 
ATOM     43  N   UNL A   1      43.229  26.948  28.106  1.00  0.00    -0.248 NA
ATOM     44  C   UNL A   1      41.670  25.229  28.367  1.00  0.00     0.031 C 
ATOM     45  C   UNL A   1      46.162  23.953  26.518  1.00  0.00     0.029 A 
ATOM     46  N   UNL A   1      45.889  26.067  27.196  1.00  0.00    -0.354 N 
ATOM     47  C   UNL A   1      42.033  27.482  28.575  1.00  0.00     0.074 A 
ATOM     48  C   UNL A   1      41.092  26.384  28.660  1.00  0.00     0.031 C 
ATOM     49  C   UNL A   1      47.330  24.591  26.334  1.00  0.00     0.029 A 
ATOM     50  C   UNL A   1      47.179  25.988  26.727  1.00  0.00     0.049 A 
ATOM     51  H   UNL A   1      45.502  26.889  27.574  1.00  0.00     0.167 HD
ATOM     52  C   UNL A   1      41.749  28.767  28.907  1.00  0.00     0.034 A 
ATOM     53  C   UNL A   1      48.125  26.940  26.606  1.00  0.00     0.034 A 
ATOM     54  C   UNL A   1      42.714  29.839  28.867  1.00  0.00     0.049 A 
ATOM     55  C   UNL A   1      47.806  28.350  27.027  1.00  0.00     0.074 A 
ATOM     56  C   UNL A   1      42.554  31.164  29.234  1.00  0.00     0.029 A 
ATOM     57  N   UNL A   1      44.030  29.703  28.443  1.00  0.00    -0.354 N 
ATOM     58  N   UNL A   1      46.671  28.844  27.463  1.00  0.00    -0.248 NA
ATOM     59  C   UNL A   1      48.898  29.330  26.942  1.00  0.00     0.031 C 
ATOM     60  C   UNL A   1      43.761  31.836  28.999  1.00  0.00     0.029 A 
ATOM     61  C   UNL A   1      44.688  30.919  28.533  1.00  0.00     0.049 A 
ATOM     62  H   UNL A   1      44.436  28.864  28.126  1.00  0.00     0.167 HD
ATOM     63  C   UNL A   1      46.920  30.186  27.730  1.00  0.00     0.074 A 
ATOM     64  C   UNL A   1      48.312  30.425  27.406  1.00  0.00     0.031 C 
ATOM     65  C   UNL A   1      46.076  31.134  28.207  1.00  0.00     0.034 A 
BRANCH  52  66
ATOM     66  C   UNL A   1      40.324  29.078  29.297  1.00  0.00     0.023 A 
ATOM     67  C   UNL A   1      39.901  29.061  30.636  1.00  0.00     0.031 A 
ATOM     68  C   UNL A   1      39.359  29.331  28.304  1.00  0.00     0.131 A 
ATOM     69  C   UNL A   1      38.537  29.194  30.941  1.00  0.00     0.055 A 
ATOM     70  C   UNL A   1      38.017  29.550  28.621  1.00  0.00     0.041 A 
ATOM     71  F   UNL A   1      39.700  29.342  27.006  1.00  0.00    -0.206 F 
ATOM     72  C   UNL A   1      37.596  29.462  29.945  1.00  0.00     0.022 A 
BRANCH  69  73
ATOM     73  S   UNL A   1      37.995  28.844  32.636  1.00  0.00     0.124 S 
ATOM     74  O   UNL A   1      36.652  29.419  32.639  1.00  0.00    -0.237 OA
ATOM     75  O   UNL A   1      38.068  27.390  32.697  1.00  0.00    -0.237 OA
ATOM     76  O   UNL A   1      38.970  29.555  33.462  1.00  0.00    -0.744 OA
ENDBRANCH  69  73
ENDBRANCH  52  66
BRANCH  53  77
ATOM     77  C   UNL A   1      49.462  26.599  26.050  1.00  0.00     0.023 A 
ATOM     78  C   UNL A   1      49.845  27.048  24.778  1.00  0.00     0.031 A 
ATOM     79  C   UNL A   1      50.367  25.808  26.777  1.00  0.00     0.131 A 
ATOM     80  C   UNL A   1      51.091  26.677  24.253  1.00  0.00     0.055 A 
ATOM     81  C   UNL A   1      51.619  25.468  26.265  1.00  0.00     0.041 A 
ATOM     82  F   UNL A   1      50.048  25.367  28.005  1.00  0.00    -0.206 F 
ATOM     83  C   UNL A   1      51.985  25.897  24.992  1.00  0.00     0.022 A 
BRANCH  80  84
ATOM     84  S   UNL A   1      51.514  27.196  22.566  1.00  0.00     0.124 S 
ATOM     85  O   UNL A   1      50.318  26.810  21.827  1.00  0.00    -0.237 OA
ATOM     86  O   UNL A   1      51.729  28.629  22.736  1.00  0.00    -0.237 OA
ATOM     87  O   UNL A   1      52.715  26.420  22.263  1.00  0.00    -0.744 OA
ENDBRANCH  80  84
ENDBRANCH  53  77
BRANCH  65  88
ATOM     88  C   UNL A   1      46.662  32.496  28.463  1.00  0.00     0.023 A 
ATOM     89  C   UNL A   1      46.828  33.435  27.431  1.00  0.00     0.031 A 
ATOM     90  C   UNL A   1      47.066  32.850  29.762  1.00  0.00     0.131 A 
ATOM     91  C   UNL A   1      47.422  34.675  27.710  1.00  0.00     0.055 A 
ATOM     92  C   UNL A   1      47.622  34.099  30.040  1.00  0.00     0.041 A 
ATOM     93  F   UNL A   1      46.928  31.984  30.778  1.00  0.00    -0.206 F 
ATOM     94  C   UNL A   1      47.809  35.017  29.009  1.00  0.00     0.022 A 
BRANCH  91  95
ATOM     95  S   UNL A   1      47.730  35.824  26.339  1.00  0.00     0.124 S 
ATOM     96  O   UNL A   1      48.998  36.430  26.730  1.00  0.00    -0.237 OA
ATOM     97  O   UNL A   1      47.779  34.931  25.186  1.00  0.00    -0.237 OA
ATOM     98  O   UNL A   1      46.577  36.721  26.378  1.00  0.00    -0.744 OA
ENDBRANCH  91  95
ENDBRANCH  65  88
ENDBRANCH  39  40
ENDBRANCH  31  34
ENDBRANCH  29  30
ENDBRANCH   1  29
TORSDOF 16
ENDMDL
