MODEL 1
REMARK VINA RESULT:     -12.0      0.000      0.000
REMARK SMILES CC1(C)[C@H](C(=O)NCCCNC(=O)c2ccc(-c3c4nc(c(-c5cc(S(=O)(=O)[O-])ccc5F)c5ccc([nH]5)c(-c5cc(S(=O)(=O)[O-])ccc5F)c5nc(c(-c6cc(S(=O)(=O)[O-])ccc6F)c6ccc3[nH]6)C=C5)C=C4)cc2)[C@@H]1C(=O)Nc1ccon1
REMARK SMILES IDX 9 1 8 2 7 3 5 4 6 5 4 7 1 8 2 9 3 10 77 11 78 12 79 13 80 14
REMARK SMILES IDX 81 16 82 17 85 18 83 19 84 20 10 21 11 22 12 23 13 25 14 26
REMARK SMILES IDX 15 27 76 28 16 29 75 30 17 31 18 32 19 33 69 34 20 35 74 36
REMARK SMILES IDX 68 37 70 38 21 39 73 40 67 41 66 42 22 44 54 45 34 46 53 47
REMARK SMILES IDX 35 48 38 49 52 50 71 51 36 52 37 53 51 55 72 56 39 57 23 58
REMARK SMILES IDX 24 59 32 60 25 61 31 62 33 63 30 64 26 65 27 66 28 67 29 68
REMARK SMILES IDX 55 69 56 70 64 71 57 72 63 73 65 74 62 75 58 76 59 77 60 78
REMARK SMILES IDX 61 79 40 80 41 81 49 82 42 83 48 84 50 85 47 86 43 87 44 88
REMARK SMILES IDX 45 89 46 90
REMARK H PARENT 7 6 80 15 11 24 70 43 38 54
REMARK Flexibility Score: inf
ROOT
ATOM      1  C   UNL A   1      31.684  31.777  26.620  1.00  0.00     0.042 C 
ENDROOT
BRANCH   1   2
ATOM      2  C   UNL A   1      32.129  30.553  25.838  1.00  0.00     0.117 C 
BRANCH   2   3
ATOM      3  N   UNL A   1      31.107  30.100  24.918  1.00  0.00    -0.356 N 
ATOM      4  C   UNL A   1      30.911  28.993  24.153  1.00  0.00     0.224 C 
ATOM      5  O   UNL A   1      29.891  28.997  23.461  1.00  0.00    -0.275 OA
ATOM      6  H   UNL A   1      30.375  30.753  24.823  1.00  0.00     0.163 HD
BRANCH   4   7
ATOM      7  C   UNL A   1      31.732  27.757  24.097  1.00  0.00     0.098 C 
ATOM      8  C   UNL A   1      33.794  26.624  25.102  1.00  0.00     0.013 C 
ATOM      9  C   UNL A   1      32.324  26.963  25.241  1.00  0.00    -0.011 C 
ATOM     10  C   UNL A   1      31.958  27.304  26.665  1.00  0.00     0.013 C 
ATOM     11  C   UNL A   1      31.345  26.316  24.227  1.00  0.00     0.098 C 
BRANCH  11  12
ATOM     12  C   UNL A   1      30.025  25.761  24.596  1.00  0.00     0.230 C 
ATOM     13  O   UNL A   1      29.010  26.352  24.235  1.00  0.00    -0.274 OA
ATOM     14  N   UNL A   1      29.911  24.619  25.342  1.00  0.00    -0.308 N 
ATOM     15  H   UNL A   1      28.987  24.310  25.477  1.00  0.00     0.171 HD
BRANCH  14  16
ATOM     16  C   UNL A   1      30.869  23.832  25.934  1.00  0.00     0.175 A 
ATOM     17  C   UNL A   1      31.730  22.862  25.379  1.00  0.00     0.092 A 
ATOM     18  N   UNL A   1      31.077  23.946  27.252  1.00  0.00    -0.062 NA
ATOM     19  C   UNL A   1      32.362  22.305  26.460  1.00  0.00     0.233 A 
ATOM     20  O   UNL A   1      31.978  22.952  27.584  1.00  0.00    -0.363 OA
ENDBRANCH  14  16
ENDBRANCH  11  12
ENDBRANCH   4   7
ENDBRANCH   2   3
ENDBRANCH   1   2
BRANCH   1  21
ATOM     21  C   UNL A   1      32.824  32.422  27.389  1.00  0.00     0.118 C 
BRANCH  21  22
ATOM     22  N   UNL A   1      32.593  33.842  27.628  1.00  0.00    -0.352 N 
ATOM     23  C   UNL A   1      33.124  34.660  28.598  1.00  0.00     0.251 C 
ATOM     24  H   UNL A   1      31.968  34.277  27.005  1.00  0.00     0.163 HD
ATOM     25  O   UNL A   1      32.635  35.769  28.796  1.00  0.00    -0.269 OA
BRANCH  23  26
ATOM     26  C   UNL A   1      34.263  34.184  29.411  1.00  0.00     0.039 A 
ATOM     27  C   UNL A   1      34.024  33.383  30.530  1.00  0.00     0.014 A 
ATOM     28  C   UNL A   1      35.571  34.517  29.052  1.00  0.00     0.014 A 
ATOM     29  C   UNL A   1      35.105  32.853  31.241  1.00  0.00     0.010 A 
ATOM     30  C   UNL A   1      36.639  33.903  29.692  1.00  0.00     0.010 A 
ATOM     31  C   UNL A   1      36.420  33.073  30.801  1.00  0.00    -0.014 A 
BRANCH  31  32
ATOM     32  C   UNL A   1      37.593  32.485  31.501  1.00  0.00     0.031 A 
ATOM     33  C   UNL A   1      38.334  31.338  30.865  1.00  0.00     0.074 A 
ATOM     34  C   UNL A   1      37.938  32.922  32.729  1.00  0.00     0.049 A 
ATOM     35  N   UNL A   1      39.282  30.587  31.359  1.00  0.00    -0.248 NA
ATOM     36  C   UNL A   1      37.921  30.963  29.502  1.00  0.00     0.031 C 
ATOM     37  C   UNL A   1      37.276  34.005  33.461  1.00  0.00     0.029 A 
ATOM     38  N   UNL A   1      38.927  32.504  33.584  1.00  0.00    -0.354 N 
ATOM     39  C   UNL A   1      39.566  29.642  30.378  1.00  0.00     0.074 A 
ATOM     40  C   UNL A   1      38.638  29.870  29.294  1.00  0.00     0.031 C 
ATOM     41  C   UNL A   1      37.894  34.182  34.640  1.00  0.00     0.029 A 
ATOM     42  C   UNL A   1      38.960  33.194  34.775  1.00  0.00     0.049 A 
ATOM     43  H   UNL A   1      39.555  31.778  33.366  1.00  0.00     0.167 HD
ATOM     44  C   UNL A   1      40.531  28.690  30.370  1.00  0.00     0.034 A 
ATOM     45  C   UNL A   1      39.749  33.035  35.857  1.00  0.00     0.034 A 
ATOM     46  C   UNL A   1      41.467  28.493  31.449  1.00  0.00     0.049 A 
ATOM     47  C   UNL A   1      40.800  31.951  35.833  1.00  0.00     0.074 A 
ATOM     48  C   UNL A   1      42.507  27.586  31.533  1.00  0.00     0.029 A 
ATOM     49  N   UNL A   1      41.477  29.222  32.631  1.00  0.00    -0.354 N 
ATOM     50  N   UNL A   1      41.071  31.082  34.885  1.00  0.00    -0.248 NA
ATOM     51  C   UNL A   1      41.656  31.831  37.021  1.00  0.00     0.031 C 
ATOM     52  C   UNL A   1      43.110  27.726  32.788  1.00  0.00     0.029 A 
ATOM     53  C   UNL A   1      42.495  28.772  33.456  1.00  0.00     0.049 A 
ATOM     54  H   UNL A   1      40.853  29.952  32.851  1.00  0.00     0.167 HD
ATOM     55  C   UNL A   1      42.159  30.345  35.348  1.00  0.00     0.074 A 
ATOM     56  C   UNL A   1      42.497  30.877  36.652  1.00  0.00     0.031 C 
ATOM     57  C   UNL A   1      42.823  29.324  34.748  1.00  0.00     0.034 A 
BRANCH  44  58
ATOM     58  C   UNL A   1      40.612  27.791  29.160  1.00  0.00     0.023 A 
ATOM     59  C   UNL A   1      41.542  28.024  28.132  1.00  0.00     0.031 A 
ATOM     60  C   UNL A   1      39.735  26.701  29.018  1.00  0.00     0.131 A 
ATOM     61  C   UNL A   1      41.527  27.225  26.978  1.00  0.00     0.055 A 
ATOM     62  C   UNL A   1      39.781  25.859  27.905  1.00  0.00     0.041 A 
ATOM     63  F   UNL A   1      38.810  26.441  29.956  1.00  0.00    -0.206 F 
ATOM     64  C   UNL A   1      40.673  26.128  26.870  1.00  0.00     0.022 A 
BRANCH  61  65
ATOM     65  S   UNL A   1      42.551  27.725  25.568  1.00  0.00     0.124 S 
ATOM     66  O   UNL A   1      41.910  28.975  25.168  1.00  0.00    -0.237 OA
ATOM     67  O   UNL A   1      43.876  27.850  26.166  1.00  0.00    -0.237 OA
ATOM     68  O   UNL A   1      42.394  26.622  24.623  1.00  0.00    -0.744 OA
ENDBRANCH  61  65
ENDBRANCH  44  58
BRANCH  45  69
ATOM     69  C   UNL A   1      39.587  33.906  37.058  1.00  0.00     0.023 A 
ATOM     70  C   UNL A   1      38.988  33.410  38.228  1.00  0.00     0.031 A 
ATOM     71  C   UNL A   1      39.963  35.260  37.036  1.00  0.00     0.131 A 
ATOM     72  C   UNL A   1      38.720  34.277  39.300  1.00  0.00     0.055 A 
ATOM     73  C   UNL A   1      39.752  36.104  38.129  1.00  0.00     0.041 A 
ATOM     74  F   UNL A   1      40.543  35.787  35.946  1.00  0.00    -0.206 F 
ATOM     75  C   UNL A   1      39.110  35.617  39.264  1.00  0.00     0.022 A 
BRANCH  72  76
ATOM     76  S   UNL A   1      37.745  33.651  40.695  1.00  0.00     0.124 S 
ATOM     77  O   UNL A   1      37.480  34.873  41.445  1.00  0.00    -0.237 OA
ATOM     78  O   UNL A   1      36.598  33.053  40.018  1.00  0.00    -0.237 OA
ATOM     79  O   UNL A   1      38.648  32.703  41.344  1.00  0.00    -0.744 OA
ENDBRANCH  72  76
ENDBRANCH  45  69
BRANCH  57  80
ATOM     80  C   UNL A   1      44.023  28.767  35.472  1.00  0.00     0.023 A 
ATOM     81  C   UNL A   1      43.917  27.694  36.371  1.00  0.00     0.031 A 
ATOM     82  C   UNL A   1      45.296  29.324  35.248  1.00  0.00     0.131 A 
ATOM     83  C   UNL A   1      45.056  27.244  37.057  1.00  0.00     0.055 A 
ATOM     84  C   UNL A   1      46.433  28.833  35.888  1.00  0.00     0.041 A 
ATOM     85  F   UNL A   1      45.452  30.351  34.399  1.00  0.00    -0.206 F 
ATOM     86  C   UNL A   1      46.316  27.795  36.808  1.00  0.00     0.022 A 
BRANCH  83  87
ATOM     87  S   UNL A   1      44.856  25.978  38.339  1.00  0.00     0.124 S 
ATOM     88  O   UNL A   1      44.133  26.707  39.376  1.00  0.00    -0.237 OA
ATOM     89  O   UNL A   1      44.099  24.943  37.643  1.00  0.00    -0.237 OA
ATOM     90  O   UNL A   1      46.231  25.615  38.680  1.00  0.00    -0.744 OA
ENDBRANCH  83  87
ENDBRANCH  57  80
ENDBRANCH  31  32
ENDBRANCH  23  26
ENDBRANCH  21  22
ENDBRANCH   1  21
TORSDOF 15
ENDMDL
MODEL 2
REMARK VINA RESULT:     -11.8      2.490      3.622
REMARK SMILES CC1(C)[C@H](C(=O)NCCCNC(=O)c2ccc(-c3c4nc(c(-c5cc(S(=O)(=O)[O-])ccc5F)c5ccc([nH]5)c(-c5cc(S(=O)(=O)[O-])ccc5F)c5nc(c(-c6cc(S(=O)(=O)[O-])ccc6F)c6ccc3[nH]6)C=C5)C=C4)cc2)[C@@H]1C(=O)Nc1ccon1
REMARK SMILES IDX 9 1 8 2 7 3 5 4 6 5 4 7 1 8 2 9 3 10 77 11 78 12 79 13 80 14
REMARK SMILES IDX 81 16 82 17 85 18 83 19 84 20 10 21 11 22 12 23 13 25 14 26
REMARK SMILES IDX 15 27 76 28 16 29 75 30 17 31 18 32 19 33 69 34 20 35 74 36
REMARK SMILES IDX 68 37 70 38 21 39 73 40 67 41 66 42 22 44 54 45 34 46 53 47
REMARK SMILES IDX 35 48 38 49 52 50 71 51 36 52 37 53 51 55 72 56 39 57 23 58
REMARK SMILES IDX 24 59 32 60 25 61 31 62 33 63 30 64 26 65 27 66 28 67 29 68
REMARK SMILES IDX 55 69 56 70 64 71 57 72 63 73 65 74 62 75 58 76 59 77 60 78
REMARK SMILES IDX 61 79 40 80 41 81 49 82 42 83 48 84 50 85 47 86 43 87 44 88
REMARK SMILES IDX 45 89 46 90
REMARK H PARENT 7 6 80 15 11 24 70 43 38 54
REMARK Flexibility Score: inf
ROOT
ATOM      1  C   UNL A   1      31.993  27.976  26.604  1.00  0.00     0.042 C 
ENDROOT
BRANCH   1   2
ATOM      2  C   UNL A   1      31.483  26.851  25.720  1.00  0.00     0.117 C 
BRANCH   2   3
ATOM      3  N   UNL A   1      31.091  25.692  26.494  1.00  0.00    -0.356 N 
ATOM      4  C   UNL A   1      31.213  24.345  26.354  1.00  0.00     0.224 C 
ATOM      5  O   UNL A   1      30.707  23.668  27.252  1.00  0.00    -0.275 OA
ATOM      6  H   UNL A   1      30.623  25.940  27.325  1.00  0.00     0.163 HD
BRANCH   4   7
ATOM      7  C   UNL A   1      31.935  23.592  25.297  1.00  0.00     0.098 C 
ATOM      8  C   UNL A   1      33.637  23.846  23.405  1.00  0.00     0.013 C 
ATOM      9  C   UNL A   1      33.389  23.690  24.892  1.00  0.00    -0.011 C 
ATOM     10  C   UNL A   1      34.346  24.520  25.712  1.00  0.00     0.013 C 
ATOM     11  C   UNL A   1      32.772  22.352  25.375  1.00  0.00     0.098 C 
BRANCH  11  12
ATOM     12  C   UNL A   1      33.215  21.631  26.587  1.00  0.00     0.230 C 
ATOM     13  O   UNL A   1      33.433  22.270  27.612  1.00  0.00    -0.274 OA
ATOM     14  N   UNL A   1      33.401  20.275  26.585  1.00  0.00    -0.308 N 
ATOM     15  H   UNL A   1      33.638  19.894  27.461  1.00  0.00     0.171 HD
BRANCH  14  16
ATOM     16  C   UNL A   1      33.312  19.355  25.568  1.00  0.00     0.175 A 
ATOM     17  C   UNL A   1      34.274  18.934  24.626  1.00  0.00     0.092 A 
ATOM     18  N   UNL A   1      32.153  18.713  25.375  1.00  0.00    -0.062 NA
ATOM     19  C   UNL A   1      33.584  18.111  23.775  1.00  0.00     0.233 A 
ATOM     20  O   UNL A   1      32.314  17.971  24.220  1.00  0.00    -0.363 OA
ENDBRANCH  14  16
ENDBRANCH  11  12
ENDBRANCH   4   7
ENDBRANCH   2   3
ENDBRANCH   1   2
BRANCH   1  21
ATOM     21  C   UNL A   1      32.868  28.960  25.847  1.00  0.00     0.118 C 
BRANCH  21  22
ATOM     22  N   UNL A   1      32.492  30.345  26.107  1.00  0.00    -0.352 N 
ATOM     23  C   UNL A   1      33.049  31.248  26.983  1.00  0.00     0.251 C 
ATOM     24  H   UNL A   1      31.732  30.681  25.582  1.00  0.00     0.163 HD
ATOM     25  O   UNL A   1      32.455  32.290  27.243  1.00  0.00    -0.269 OA
BRANCH  23  26
ATOM     26  C   UNL A   1      34.346  30.941  27.621  1.00  0.00     0.039 A 
ATOM     27  C   UNL A   1      35.302  31.950  27.759  1.00  0.00     0.014 A 
ATOM     28  C   UNL A   1      34.609  29.656  28.100  1.00  0.00     0.014 A 
ATOM     29  C   UNL A   1      36.489  31.686  28.448  1.00  0.00     0.010 A 
ATOM     30  C   UNL A   1      35.737  29.426  28.877  1.00  0.00     0.010 A 
ATOM     31  C   UNL A   1      36.696  30.434  29.051  1.00  0.00    -0.014 A 
BRANCH  31  32
ATOM     32  C   UNL A   1      37.922  30.131  29.835  1.00  0.00     0.031 A 
ATOM     33  C   UNL A   1      38.939  29.172  29.272  1.00  0.00     0.074 A 
ATOM     34  C   UNL A   1      38.082  30.646  31.070  1.00  0.00     0.049 A 
ATOM     35  N   UNL A   1      39.997  28.656  29.842  1.00  0.00    -0.248 NA
ATOM     36  C   UNL A   1      38.709  28.700  27.897  1.00  0.00     0.031 C 
ATOM     37  C   UNL A   1      37.150  31.561  31.735  1.00  0.00     0.029 A 
ATOM     38  N   UNL A   1      39.082  30.468  31.994  1.00  0.00    -0.354 N 
ATOM     39  C   UNL A   1      40.546  27.788  28.902  1.00  0.00     0.074 A 
ATOM     40  C   UNL A   1      39.662  27.793  27.758  1.00  0.00     0.031 C 
ATOM     41  C   UNL A   1      37.637  31.883  32.944  1.00  0.00     0.029 A 
ATOM     42  C   UNL A   1      38.885  31.160  33.168  1.00  0.00     0.049 A 
ATOM     43  H   UNL A   1      39.869  29.899  31.831  1.00  0.00     0.167 HD
ATOM     44  C   UNL A   1      41.697  27.076  28.975  1.00  0.00     0.034 A 
ATOM     45  C   UNL A   1      39.618  31.192  34.298  1.00  0.00     0.034 A 
ATOM     46  C   UNL A   1      42.581  27.105  30.113  1.00  0.00     0.049 A 
ATOM     47  C   UNL A   1      40.882  30.370  34.364  1.00  0.00     0.074 A 
ATOM     48  C   UNL A   1      43.790  26.453  30.283  1.00  0.00     0.029 A 
ATOM     49  N   UNL A   1      42.354  27.829  31.276  1.00  0.00    -0.354 N 
ATOM     50  N   UNL A   1      41.401  29.574  33.456  1.00  0.00    -0.248 NA
ATOM     51  C   UNL A   1      41.666  30.456  35.604  1.00  0.00     0.031 C 
ATOM     52  C   UNL A   1      44.265  26.737  31.567  1.00  0.00     0.029 A 
ATOM     53  C   UNL A   1      43.391  27.626  32.172  1.00  0.00     0.049 A 
ATOM     54  H   UNL A   1      41.570  28.403  31.440  1.00  0.00     0.167 HD
ATOM     55  C   UNL A   1      42.593  29.103  34.001  1.00  0.00     0.074 A 
ATOM     56  C   UNL A   1      42.720  29.710  35.310  1.00  0.00     0.031 C 
ATOM     57  C   UNL A   1      43.504  28.250  33.468  1.00  0.00     0.034 A 
BRANCH  44  58
ATOM     58  C   UNL A   1      42.053  26.206  27.795  1.00  0.00     0.023 A 
ATOM     59  C   UNL A   1      41.636  24.866  27.717  1.00  0.00     0.031 A 
ATOM     60  C   UNL A   1      42.837  26.712  26.743  1.00  0.00     0.131 A 
ATOM     61  C   UNL A   1      42.063  24.059  26.652  1.00  0.00     0.055 A 
ATOM     62  C   UNL A   1      43.189  25.927  25.643  1.00  0.00     0.041 A 
ATOM     63  F   UNL A   1      43.284  27.978  26.771  1.00  0.00    -0.206 F 
ATOM     64  C   UNL A   1      42.813  24.587  25.600  1.00  0.00     0.022 A 
BRANCH  61  65
ATOM     65  S   UNL A   1      41.733  22.277  26.731  1.00  0.00     0.124 S 
ATOM     66  O   UNL A   1      40.306  22.257  27.040  1.00  0.00    -0.237 OA
ATOM     67  O   UNL A   1      42.103  21.826  25.393  1.00  0.00    -0.237 OA
ATOM     68  O   UNL A   1      42.605  21.816  27.809  1.00  0.00    -0.744 OA
ENDBRANCH  61  65
ENDBRANCH  44  58
BRANCH  45  69
ATOM     69  C   UNL A   1      39.190  32.017  35.466  1.00  0.00     0.023 A 
ATOM     70  C   UNL A   1      38.554  31.423  36.569  1.00  0.00     0.031 A 
ATOM     71  C   UNL A   1      39.344  33.414  35.471  1.00  0.00     0.131 A 
ATOM     72  C   UNL A   1      38.037  32.228  37.597  1.00  0.00     0.055 A 
ATOM     73  C   UNL A   1      38.883  34.205  36.526  1.00  0.00     0.041 A 
ATOM     74  F   UNL A   1      39.947  34.035  34.445  1.00  0.00    -0.206 F 
ATOM     75  C   UNL A   1      38.208  33.613  37.590  1.00  0.00     0.022 A 
BRANCH  72  76
ATOM     76  S   UNL A   1      37.028  31.443  38.885  1.00  0.00     0.124 S 
ATOM     77  O   UNL A   1      37.888  31.572  40.056  1.00  0.00    -0.237 OA
ATOM     78  O   UNL A   1      35.828  32.274  38.876  1.00  0.00    -0.237 OA
ATOM     79  O   UNL A   1      36.846  30.081  38.391  1.00  0.00    -0.744 OA
ENDBRANCH  72  76
ENDBRANCH  45  69
BRANCH  57  80
ATOM     80  C   UNL A   1      44.749  27.982  34.276  1.00  0.00     0.023 A 
ATOM     81  C   UNL A   1      44.817  26.941  35.214  1.00  0.00     0.031 A 
ATOM     82  C   UNL A   1      45.888  28.788  34.094  1.00  0.00     0.131 A 
ATOM     83  C   UNL A   1      45.981  26.763  35.977  1.00  0.00     0.055 A 
ATOM     84  C   UNL A   1      47.063  28.570  34.813  1.00  0.00     0.041 A 
ATOM     85  F   UNL A   1      45.876  29.798  33.209  1.00  0.00    -0.206 F 
ATOM     86  C   UNL A   1      47.110  27.560  35.769  1.00  0.00     0.022 A 
BRANCH  83  87
ATOM     87  S   UNL A   1      45.975  25.525  37.301  1.00  0.00     0.124 S 
ATOM     88  O   UNL A   1      44.664  25.735  37.908  1.00  0.00    -0.237 OA
ATOM     89  O   UNL A   1      46.143  24.277  36.565  1.00  0.00    -0.237 OA
ATOM     90  O   UNL A   1      47.113  25.909  38.135  1.00  0.00    -0.744 OA
ENDBRANCH  83  87
ENDBRANCH  57  80
ENDBRANCH  31  32
ENDBRANCH  23  26
ENDBRANCH  21  22
ENDBRANCH   1  21
TORSDOF 15
ENDMDL
MODEL 3
REMARK VINA RESULT:     -11.8      1.870      2.274
REMARK SMILES CC1(C)[C@H](C(=O)NCCCNC(=O)c2ccc(-c3c4nc(c(-c5cc(S(=O)(=O)[O-])ccc5F)c5ccc([nH]5)c(-c5cc(S(=O)(=O)[O-])ccc5F)c5nc(c(-c6cc(S(=O)(=O)[O-])ccc6F)c6ccc3[nH]6)C=C5)C=C4)cc2)[C@@H]1C(=O)Nc1ccon1
REMARK SMILES IDX 9 1 8 2 7 3 5 4 6 5 4 7 1 8 2 9 3 10 77 11 78 12 79 13 80 14
REMARK SMILES IDX 81 16 82 17 85 18 83 19 84 20 10 21 11 22 12 23 13 25 14 26
REMARK SMILES IDX 15 27 76 28 16 29 75 30 17 31 18 32 19 33 69 34 20 35 74 36
REMARK SMILES IDX 68 37 70 38 21 39 73 40 67 41 66 42 22 44 54 45 34 46 53 47
REMARK SMILES IDX 35 48 38 49 52 50 71 51 36 52 37 53 51 55 72 56 39 57 23 58
REMARK SMILES IDX 24 59 32 60 25 61 31 62 33 63 30 64 26 65 27 66 28 67 29 68
REMARK SMILES IDX 55 69 56 70 64 71 57 72 63 73 65 74 62 75 58 76 59 77 60 78
REMARK SMILES IDX 61 79 40 80 41 81 49 82 42 83 48 84 50 85 47 86 43 87 44 88
REMARK SMILES IDX 45 89 46 90
REMARK H PARENT 7 6 80 15 11 24 70 43 38 54
REMARK Flexibility Score: inf
ROOT
ATOM      1  C   UNL A   1      31.409  32.021  26.496  1.00  0.00     0.042 C 
ENDROOT
BRANCH   1   2
ATOM      2  C   UNL A   1      31.558  30.638  25.885  1.00  0.00     0.117 C 
BRANCH   2   3
ATOM      3  N   UNL A   1      31.519  29.597  26.890  1.00  0.00    -0.356 N 
ATOM      4  C   UNL A   1      32.003  28.331  26.996  1.00  0.00     0.224 C 
ATOM      5  O   UNL A   1      31.724  27.739  28.041  1.00  0.00    -0.275 OA
ATOM      6  H   UNL A   1      31.020  29.874  27.694  1.00  0.00     0.163 HD
BRANCH   4   7
ATOM      7  C   UNL A   1      32.878  27.599  26.046  1.00  0.00     0.098 C 
ATOM      8  C   UNL A   1      34.312  25.496  25.790  1.00  0.00     0.013 C 
ATOM      9  C   UNL A   1      32.929  26.115  25.759  1.00  0.00    -0.011 C 
ATOM     10  C   UNL A   1      31.889  25.196  26.351  1.00  0.00     0.013 C 
ATOM     11  C   UNL A   1      32.635  27.146  24.639  1.00  0.00     0.098 C 
BRANCH  11  12
ATOM     12  C   UNL A   1      31.370  27.196  23.876  1.00  0.00     0.230 C 
ATOM     13  O   UNL A   1      30.506  28.003  24.210  1.00  0.00    -0.274 OA
ATOM     14  N   UNL A   1      31.136  26.355  22.822  1.00  0.00    -0.308 N 
ATOM     15  H   UNL A   1      30.287  26.516  22.351  1.00  0.00     0.171 HD
BRANCH  14  16
ATOM     16  C   UNL A   1      31.886  25.323  22.310  1.00  0.00     0.175 A 
ATOM     17  C   UNL A   1      32.100  24.016  22.795  1.00  0.00     0.092 A 
ATOM     18  N   UNL A   1      32.553  25.515  21.165  1.00  0.00    -0.062 NA
ATOM     19  C   UNL A   1      33.042  23.488  21.953  1.00  0.00     0.233 A 
ATOM     20  O   UNL A   1      33.316  24.378  20.972  1.00  0.00    -0.363 OA
ENDBRANCH  14  16
ENDBRANCH  11  12
ENDBRANCH   4   7
ENDBRANCH   2   3
ENDBRANCH   1   2
BRANCH   1  21
ATOM     21  C   UNL A   1      32.674  32.488  27.195  1.00  0.00     0.118 C 
BRANCH  21  22
ATOM     22  N   UNL A   1      32.570  33.868  27.657  1.00  0.00    -0.352 N 
ATOM     23  C   UNL A   1      33.266  34.505  28.657  1.00  0.00     0.251 C 
ATOM     24  H   UNL A   1      31.907  34.421  27.186  1.00  0.00     0.163 HD
ATOM     25  O   UNL A   1      32.882  35.596  29.068  1.00  0.00    -0.269 OA
BRANCH  23  26
ATOM     26  C   UNL A   1      34.458  33.858  29.244  1.00  0.00     0.039 A 
ATOM     27  C   UNL A   1      35.728  34.367  28.963  1.00  0.00     0.014 A 
ATOM     28  C   UNL A   1      34.316  32.755  30.089  1.00  0.00     0.014 A 
ATOM     29  C   UNL A   1      36.847  33.816  29.595  1.00  0.00     0.010 A 
ATOM     30  C   UNL A   1      35.413  32.283  30.797  1.00  0.00     0.010 A 
ATOM     31  C   UNL A   1      36.693  32.799  30.551  1.00  0.00    -0.014 A 
BRANCH  31  32
ATOM     32  C   UNL A   1      37.853  32.222  31.280  1.00  0.00     0.031 A 
ATOM     33  C   UNL A   1      38.622  31.084  30.661  1.00  0.00     0.074 A 
ATOM     34  C   UNL A   1      38.162  32.660  32.517  1.00  0.00     0.049 A 
ATOM     35  N   UNL A   1      39.565  30.341  31.179  1.00  0.00    -0.248 NA
ATOM     36  C   UNL A   1      38.249  30.707  29.287  1.00  0.00     0.031 C 
ATOM     37  C   UNL A   1      37.470  33.734  33.233  1.00  0.00     0.029 A 
ATOM     38  N   UNL A   1      39.133  32.250  33.397  1.00  0.00    -0.354 N 
ATOM     39  C   UNL A   1      39.883  29.400  30.204  1.00  0.00     0.074 A 
ATOM     40  C   UNL A   1      38.981  29.621  29.096  1.00  0.00     0.031 C 
ATOM     41  C   UNL A   1      38.056  33.916  34.428  1.00  0.00     0.029 A 
ATOM     42  C   UNL A   1      39.128  32.938  34.590  1.00  0.00     0.049 A 
ATOM     43  H   UNL A   1      39.773  31.531  33.194  1.00  0.00     0.167 HD
ATOM     44  C   UNL A   1      40.858  28.458  30.219  1.00  0.00     0.034 A 
ATOM     45  C   UNL A   1      39.890  32.785  35.691  1.00  0.00     0.034 A 
ATOM     46  C   UNL A   1      41.767  28.269  31.322  1.00  0.00     0.049 A 
ATOM     47  C   UNL A   1      40.951  31.711  35.693  1.00  0.00     0.074 A 
ATOM     48  C   UNL A   1      42.814  27.372  31.432  1.00  0.00     0.029 A 
ATOM     49  N   UNL A   1      41.739  28.996  32.505  1.00  0.00    -0.354 N 
ATOM     50  N   UNL A   1      41.256  30.848  34.751  1.00  0.00    -0.248 NA
ATOM     51  C   UNL A   1      41.778  31.598  36.902  1.00  0.00     0.031 C 
ATOM     52  C   UNL A   1      43.383  27.516  32.702  1.00  0.00     0.029 A 
ATOM     53  C   UNL A   1      42.739  28.554  33.356  1.00  0.00     0.049 A 
ATOM     54  H   UNL A   1      41.103  29.719  32.710  1.00  0.00     0.167 HD
ATOM     55  C   UNL A   1      42.339  30.120  35.241  1.00  0.00     0.074 A 
ATOM     56  C   UNL A   1      42.638  30.653  36.554  1.00  0.00     0.031 C 
ATOM     57  C   UNL A   1      43.028  29.107  34.657  1.00  0.00     0.034 A 
BRANCH  44  58
ATOM     58  C   UNL A   1      40.979  27.563  29.011  1.00  0.00     0.023 A 
ATOM     59  C   UNL A   1      41.989  27.754  28.052  1.00  0.00     0.031 A 
ATOM     60  C   UNL A   1      40.062  26.518  28.799  1.00  0.00     0.131 A 
ATOM     61  C   UNL A   1      42.017  26.963  26.894  1.00  0.00     0.055 A 
ATOM     62  C   UNL A   1      40.145  25.680  27.685  1.00  0.00     0.041 A 
ATOM     63  F   UNL A   1      39.061  26.300  29.668  1.00  0.00    -0.206 F 
ATOM     64  C   UNL A   1      41.119  25.910  26.717  1.00  0.00     0.022 A 
BRANCH  61  65
ATOM     65  S   UNL A   1      43.160  27.419  25.562  1.00  0.00     0.124 S 
ATOM     66  O   UNL A   1      42.283  28.168  24.666  1.00  0.00    -0.237 OA
ATOM     67  O   UNL A   1      44.172  28.199  26.266  1.00  0.00    -0.237 OA
ATOM     68  O   UNL A   1      43.614  26.129  25.045  1.00  0.00    -0.744 OA
ENDBRANCH  61  65
ENDBRANCH  44  58
BRANCH  45  69
ATOM     69  C   UNL A   1      39.688  33.652  36.889  1.00  0.00     0.023 A 
ATOM     70  C   UNL A   1      40.540  34.740  37.140  1.00  0.00     0.031 A 
ATOM     71  C   UNL A   1      38.689  33.368  37.837  1.00  0.00     0.131 A 
ATOM     72  C   UNL A   1      40.422  35.461  38.339  1.00  0.00     0.055 A 
ATOM     73  C   UNL A   1      38.535  34.127  38.999  1.00  0.00     0.041 A 
ATOM     74  F   UNL A   1      37.844  32.342  37.648  1.00  0.00    -0.206 F 
ATOM     75  C   UNL A   1      39.417  35.171  39.264  1.00  0.00     0.022 A 
BRANCH  72  76
ATOM     76  S   UNL A   1      41.681  36.708  38.726  1.00  0.00     0.124 S 
ATOM     77  O   UNL A   1      42.562  35.972  39.625  1.00  0.00    -0.237 OA
ATOM     78  O   UNL A   1      42.220  37.013  37.404  1.00  0.00    -0.237 OA
ATOM     79  O   UNL A   1      40.913  37.785  39.348  1.00  0.00    -0.744 OA
ENDBRANCH  72  76
ENDBRANCH  45  69
BRANCH  57  80
ATOM     80  C   UNL A   1      44.215  28.560  35.411  1.00  0.00     0.023 A 
ATOM     81  C   UNL A   1      44.085  27.531  36.357  1.00  0.00     0.031 A 
ATOM     82  C   UNL A   1      45.499  29.083  35.169  1.00  0.00     0.131 A 
ATOM     83  C   UNL A   1      45.212  27.091  37.067  1.00  0.00     0.055 A 
ATOM     84  C   UNL A   1      46.624  28.601  35.836  1.00  0.00     0.041 A 
ATOM     85  F   UNL A   1      45.678  30.068  34.275  1.00  0.00    -0.206 F 
ATOM     86  C   UNL A   1      46.483  27.607  36.800  1.00  0.00     0.022 A 
BRANCH  83  87
ATOM     87  S   UNL A   1      44.983  25.887  38.404  1.00  0.00     0.124 S 
ATOM     88  O   UNL A   1      44.389  26.708  39.454  1.00  0.00    -0.237 OA
ATOM     89  O   UNL A   1      44.100  24.901  37.790  1.00  0.00    -0.237 OA
ATOM     90  O   UNL A   1      46.340  25.416  38.677  1.00  0.00    -0.744 OA
ENDBRANCH  83  87
ENDBRANCH  57  80
ENDBRANCH  31  32
ENDBRANCH  23  26
ENDBRANCH  21  22
ENDBRANCH   1  21
TORSDOF 15
ENDMDL
