MODEL 1
REMARK VINA RESULT:     -11.7      0.000      0.000
REMARK SMILES C[C@H](C(=O)NCCCNC(=O)c1ccc(-c2c3nc(c(-c4cc(S(=O)(=O)[O-])ccc4F)c4ccc([nH]4)c(-c4cc(S(=O)(=O)[O-])ccc4F)c4nc(c(-c5cc(S(=O)(=O)[O-])ccc5F)c5ccc2[nH]5)C=C4)C=C3)cc1)[C@H](C)[N@@H+]1CC[C@H]([NH+]2CCCCC2)C1
REMARK SMILES IDX 7 1 6 2 5 3 3 4 4 5 2 7 1 8 75 9 76 10 77 11 78 12 87 13
REMARK SMILES IDX 79 15 80 16 81 17 82 18 86 19 83 21 85 22 84 23 8 24 9 25
REMARK SMILES IDX 10 26 11 28 12 29 13 30 74 31 14 32 73 33 15 34 16 35 17 36
REMARK SMILES IDX 67 37 18 38 72 39 66 40 68 41 19 42 71 43 65 44 64 45 20 47
REMARK SMILES IDX 52 48 32 49 51 50 33 51 36 52 50 53 69 54 34 55 35 56 49 58
REMARK SMILES IDX 70 59 37 60 21 61 22 62 30 63 23 64 29 65 31 66 28 67 24 68
REMARK SMILES IDX 25 69 26 70 27 71 53 72 54 73 62 74 55 75 61 76 63 77 60 78
REMARK SMILES IDX 56 79 57 80 58 81 59 82 38 83 39 84 47 85 40 86 46 87 48 88
REMARK SMILES IDX 45 89 41 90 42 91 43 92 44 93
REMARK H PARENT 5 6 77 14 81 20 9 27 68 46 36 57
REMARK Flexibility Score: inf
ROOT
ATOM      1  C   UNL A   1      31.510  32.162  26.756  1.00  0.00     0.042 C 
ENDROOT
BRANCH   1   2
ATOM      2  C   UNL A   1      31.682  30.798  26.099  1.00  0.00     0.117 C 
BRANCH   2   3
ATOM      3  N   UNL A   1      31.419  29.713  27.020  1.00  0.00    -0.356 N 
ATOM      4  C   UNL A   1      31.944  28.461  27.101  1.00  0.00     0.228 C 
ATOM      5  O   UNL A   1      31.618  27.788  28.082  1.00  0.00    -0.275 OA
ATOM      6  H   UNL A   1      30.745  29.917  27.708  1.00  0.00     0.163 HD
BRANCH   4   7
ATOM      7  C   UNL A   1      32.923  27.951  26.047  1.00  0.00     0.133 C 
ATOM      8  C   UNL A   1      34.347  28.220  26.571  1.00  0.00     0.024 C 
BRANCH   7   9
ATOM      9  C   UNL A   1      32.777  26.448  25.653  1.00  0.00     0.193 C 
ATOM     10  C   UNL A   1      34.038  25.602  25.919  1.00  0.00     0.076 C 
BRANCH   9  11
ATOM     11  N   UNL A   1      32.109  26.200  24.363  1.00  0.00    -0.327 N 
ATOM     12  C   UNL A   1      32.871  26.660  23.199  1.00  0.00     0.269 C 
ATOM     13  C   UNL A   1      30.713  26.676  24.221  1.00  0.00     0.328 C 
ATOM     14  H   UNL A   1      32.071  25.181  24.383  1.00  0.00     0.348 HD
ATOM     15  C   UNL A   1      32.026  27.708  22.506  1.00  0.00     0.132 C 
ATOM     16  C   UNL A   1      30.597  27.251  22.788  1.00  0.00     0.245 C 
BRANCH  16  17
ATOM     17  N   UNL A   1      29.526  28.233  22.495  1.00  0.00    -0.328 N 
ATOM     18  C   UNL A   1      28.321  28.092  23.326  1.00  0.00     0.262 C 
ATOM     19  C   UNL A   1      30.057  29.609  22.553  1.00  0.00     0.262 C 
ATOM     20  H   UNL A   1      29.216  28.027  21.545  1.00  0.00     0.348 HD
ATOM     21  C   UNL A   1      27.239  29.118  22.967  1.00  0.00     0.062 C 
ATOM     22  C   UNL A   1      29.018  30.665  22.174  1.00  0.00     0.062 C 
ATOM     23  C   UNL A   1      27.775  30.540  23.043  1.00  0.00     0.012 C 
ENDBRANCH  16  17
ENDBRANCH   9  11
ENDBRANCH   7   9
ENDBRANCH   4   7
ENDBRANCH   2   3
ENDBRANCH   1   2
BRANCH   1  24
ATOM     24  C   UNL A   1      32.808  32.771  27.271  1.00  0.00     0.118 C 
BRANCH  24  25
ATOM     25  N   UNL A   1      32.643  34.157  27.678  1.00  0.00    -0.352 N 
ATOM     26  C   UNL A   1      33.199  34.843  28.725  1.00  0.00     0.251 C 
ATOM     27  H   UNL A   1      32.037  34.687  27.111  1.00  0.00     0.163 HD
ATOM     28  O   UNL A   1      32.734  35.947  29.024  1.00  0.00    -0.269 OA
BRANCH  26  29
ATOM     29  C   UNL A   1      34.326  34.279  29.502  1.00  0.00     0.039 A 
ATOM     30  C   UNL A   1      35.629  34.480  29.039  1.00  0.00     0.014 A 
ATOM     31  C   UNL A   1      34.109  33.503  30.644  1.00  0.00     0.014 A 
ATOM     32  C   UNL A   1      36.709  33.927  29.732  1.00  0.00     0.010 A 
ATOM     33  C   UNL A   1      35.189  33.032  31.386  1.00  0.00     0.010 A 
ATOM     34  C   UNL A   1      36.501  33.210  30.920  1.00  0.00    -0.014 A 
BRANCH  34  35
ATOM     35  C   UNL A   1      37.633  32.574  31.644  1.00  0.00     0.031 A 
ATOM     36  C   UNL A   1      38.368  31.421  31.012  1.00  0.00     0.074 A 
ATOM     37  C   UNL A   1      37.974  33.005  32.873  1.00  0.00     0.049 A 
ATOM     38  N   UNL A   1      39.341  30.690  31.495  1.00  0.00    -0.248 NA
ATOM     39  C   UNL A   1      37.923  31.014  29.671  1.00  0.00     0.031 C 
ATOM     40  C   UNL A   1      37.307  34.083  33.607  1.00  0.00     0.029 A 
ATOM     41  N   UNL A   1      38.963  32.586  33.727  1.00  0.00    -0.354 N 
ATOM     42  C   UNL A   1      39.611  29.730  30.524  1.00  0.00     0.074 A 
ATOM     43  C   UNL A   1      38.646  29.925  29.464  1.00  0.00     0.031 C 
ATOM     44  C   UNL A   1      37.921  34.254  34.790  1.00  0.00     0.029 A 
ATOM     45  C   UNL A   1      38.999  33.278  34.915  1.00  0.00     0.049 A 
ATOM     46  H   UNL A   1      39.588  31.857  33.508  1.00  0.00     0.167 HD
ATOM     47  C   UNL A   1      40.594  28.794  30.502  1.00  0.00     0.034 A 
ATOM     48  C   UNL A   1      39.808  33.139  35.983  1.00  0.00     0.034 A 
ATOM     49  C   UNL A   1      41.556  28.623  31.564  1.00  0.00     0.049 A 
ATOM     50  C   UNL A   1      40.901  32.102  35.936  1.00  0.00     0.074 A 
ATOM     51  C   UNL A   1      42.608  27.727  31.643  1.00  0.00     0.029 A 
ATOM     52  N   UNL A   1      41.584  29.370  32.735  1.00  0.00    -0.354 N 
ATOM     53  N   UNL A   1      41.168  31.224  34.995  1.00  0.00    -0.248 NA
ATOM     54  C   UNL A   1      41.817  32.055  37.082  1.00  0.00     0.031 C 
ATOM     55  C   UNL A   1      43.236  27.895  32.883  1.00  0.00     0.029 A 
ATOM     56  C   UNL A   1      42.627  28.947  33.547  1.00  0.00     0.049 A 
ATOM     57  H   UNL A   1      40.956  30.094  32.958  1.00  0.00     0.167 HD
ATOM     58  C   UNL A   1      42.306  30.545  35.423  1.00  0.00     0.074 A 
ATOM     59  C   UNL A   1      42.680  31.127  36.696  1.00  0.00     0.031 C 
ATOM     60  C   UNL A   1      42.984  29.536  34.817  1.00  0.00     0.034 A 
BRANCH  47  61
ATOM     61  C   UNL A   1      40.648  27.880  29.298  1.00  0.00     0.023 A 
ATOM     62  C   UNL A   1      41.580  28.083  28.262  1.00  0.00     0.031 A 
ATOM     63  C   UNL A   1      39.726  26.829  29.150  1.00  0.00     0.131 A 
ATOM     64  C   UNL A   1      41.505  27.316  27.090  1.00  0.00     0.055 A 
ATOM     65  C   UNL A   1      39.718  26.008  28.020  1.00  0.00     0.041 A 
ATOM     66  F   UNL A   1      38.799  26.595  30.093  1.00  0.00    -0.206 F 
ATOM     67  C   UNL A   1      40.598  26.262  26.972  1.00  0.00     0.022 A 
BRANCH  64  68
ATOM     68  S   UNL A   1      42.495  27.830  25.657  1.00  0.00     0.124 S 
ATOM     69  O   UNL A   1      43.799  28.065  26.271  1.00  0.00    -0.237 OA
ATOM     70  O   UNL A   1      42.402  26.670  24.778  1.00  0.00    -0.237 OA
ATOM     71  O   UNL A   1      41.812  29.031  25.182  1.00  0.00    -0.744 OA
ENDBRANCH  64  68
ENDBRANCH  47  61
BRANCH  48  72
ATOM     72  C   UNL A   1      39.624  34.005  37.182  1.00  0.00     0.023 A 
ATOM     73  C   UNL A   1      38.997  33.520  38.340  1.00  0.00     0.031 A 
ATOM     74  C   UNL A   1      40.053  35.344  37.176  1.00  0.00     0.131 A 
ATOM     75  C   UNL A   1      38.773  34.380  39.428  1.00  0.00     0.055 A 
ATOM     76  C   UNL A   1      39.873  36.182  38.278  1.00  0.00     0.041 A 
ATOM     77  F   UNL A   1      40.670  35.855  36.099  1.00  0.00    -0.206 F 
ATOM     78  C   UNL A   1      39.217  35.703  39.409  1.00  0.00     0.022 A 
BRANCH  75  79
ATOM     79  S   UNL A   1      37.823  33.762  40.843  1.00  0.00     0.124 S 
ATOM     80  O   UNL A   1      38.809  32.932  41.525  1.00  0.00    -0.237 OA
ATOM     81  O   UNL A   1      37.448  35.000  41.520  1.00  0.00    -0.237 OA
ATOM     82  O   UNL A   1      36.718  33.037  40.221  1.00  0.00    -0.744 OA
ENDBRANCH  75  79
ENDBRANCH  48  72
BRANCH  60  83
ATOM     83  C   UNL A   1      44.236  29.044  35.503  1.00  0.00     0.023 A 
ATOM     84  C   UNL A   1      44.196  28.067  36.513  1.00  0.00     0.031 A 
ATOM     85  C   UNL A   1      45.488  29.583  35.153  1.00  0.00     0.131 A 
ATOM     86  C   UNL A   1      45.375  27.709  37.185  1.00  0.00     0.055 A 
ATOM     87  C   UNL A   1      46.665  29.175  35.781  1.00  0.00     0.041 A 
ATOM     88  F   UNL A   1      45.585  30.520  34.196  1.00  0.00    -0.206 F 
ATOM     89  C   UNL A   1      46.611  28.245  36.814  1.00  0.00     0.022 A 
BRANCH  86  90
ATOM     90  S   UNL A   1      45.256  26.616  38.629  1.00  0.00     0.124 S 
ATOM     91  O   UNL A   1      45.896  25.399  38.142  1.00  0.00    -0.237 OA
ATOM     92  O   UNL A   1      45.993  27.362  39.644  1.00  0.00    -0.237 OA
ATOM     93  O   UNL A   1      43.817  26.511  38.860  1.00  0.00    -0.744 OA
ENDBRANCH  86  90
ENDBRANCH  60  83
ENDBRANCH  34  35
ENDBRANCH  26  29
ENDBRANCH  24  25
ENDBRANCH   1  24
TORSDOF 16
ENDMDL
MODEL 2
REMARK VINA RESULT:     -11.7      5.226      8.276
REMARK SMILES C[C@H](C(=O)NCCCNC(=O)c1ccc(-c2c3nc(c(-c4cc(S(=O)(=O)[O-])ccc4F)c4ccc([nH]4)c(-c4cc(S(=O)(=O)[O-])ccc4F)c4nc(c(-c5cc(S(=O)(=O)[O-])ccc5F)c5ccc2[nH]5)C=C4)C=C3)cc1)[C@H](C)[N@@H+]1CC[C@H]([NH+]2CCCCC2)C1
REMARK SMILES IDX 7 1 6 2 5 3 3 4 4 5 2 7 1 8 75 9 76 10 77 11 78 12 87 13
REMARK SMILES IDX 79 15 80 16 81 17 82 18 86 19 83 21 85 22 84 23 8 24 9 25
REMARK SMILES IDX 10 26 11 28 12 29 13 30 74 31 14 32 73 33 15 34 16 35 17 36
REMARK SMILES IDX 67 37 18 38 72 39 66 40 68 41 19 42 71 43 65 44 64 45 20 47
REMARK SMILES IDX 52 48 32 49 51 50 33 51 36 52 50 53 69 54 34 55 35 56 49 58
REMARK SMILES IDX 70 59 37 60 21 61 22 62 30 63 23 64 29 65 31 66 28 67 24 68
REMARK SMILES IDX 25 69 26 70 27 71 53 72 54 73 62 74 55 75 61 76 63 77 60 78
REMARK SMILES IDX 56 79 57 80 58 81 59 82 38 83 39 84 47 85 40 86 46 87 48 88
REMARK SMILES IDX 45 89 41 90 42 91 43 92 44 93
REMARK H PARENT 5 6 77 14 81 20 9 27 68 46 36 57
REMARK Flexibility Score: inf
ROOT
ATOM      1  C   UNL A   1      35.374  22.829  26.364  1.00  0.00     0.042 C 
ENDROOT
BRANCH   1   2
ATOM      2  C   UNL A   1      34.950  21.400  26.052  1.00  0.00     0.117 C 
BRANCH   2   3
ATOM      3  N   UNL A   1      33.512  21.240  26.085  1.00  0.00    -0.356 N 
ATOM      4  C   UNL A   1      32.577  21.354  25.104  1.00  0.00     0.228 C 
ATOM      5  O   UNL A   1      31.423  21.032  25.401  1.00  0.00    -0.275 OA
ATOM      6  H   UNL A   1      33.148  21.007  26.970  1.00  0.00     0.163 HD
BRANCH   4   7
ATOM      7  C   UNL A   1      32.963  21.812  23.701  1.00  0.00     0.133 C 
ATOM      8  C   UNL A   1      32.217  20.911  22.698  1.00  0.00     0.024 C 
BRANCH   7   9
ATOM      9  C   UNL A   1      32.684  23.313  23.374  1.00  0.00     0.193 C 
ATOM     10  C   UNL A   1      33.956  24.166  23.198  1.00  0.00     0.076 C 
BRANCH   9  11
ATOM     11  N   UNL A   1      31.608  23.937  24.165  1.00  0.00    -0.327 N 
ATOM     12  C   UNL A   1      30.494  24.444  23.359  1.00  0.00     0.269 C 
ATOM     13  C   UNL A   1      31.999  24.990  25.130  1.00  0.00     0.328 C 
ATOM     14  H   UNL A   1      31.309  23.131  24.714  1.00  0.00     0.348 HD
ATOM     15  C   UNL A   1      30.422  25.938  23.599  1.00  0.00     0.132 C 
ATOM     16  C   UNL A   1      30.910  26.086  25.038  1.00  0.00     0.245 C 
BRANCH  16  17
ATOM     17  N   UNL A   1      31.241  27.462  25.478  1.00  0.00    -0.328 N 
ATOM     18  C   UNL A   1      31.577  27.585  26.904  1.00  0.00     0.262 C 
ATOM     19  C   UNL A   1      32.302  28.036  24.628  1.00  0.00     0.262 C 
ATOM     20  H   UNL A   1      30.382  28.002  25.364  1.00  0.00     0.348 HD
ATOM     21  C   UNL A   1      31.890  29.031  27.309  1.00  0.00     0.062 C 
ATOM     22  C   UNL A   1      32.626  29.489  24.978  1.00  0.00     0.062 C 
ATOM     23  C   UNL A   1      32.997  29.623  26.447  1.00  0.00     0.012 C 
ENDBRANCH  16  17
ENDBRANCH   9  11
ENDBRANCH   7   9
ENDBRANCH   4   7
ENDBRANCH   2   3
ENDBRANCH   1   2
BRANCH   1  24
ATOM     24  C   UNL A   1      36.672  23.253  25.687  1.00  0.00     0.118 C 
BRANCH  24  25
ATOM     25  N   UNL A   1      37.775  22.358  25.998  1.00  0.00    -0.352 N 
ATOM     26  C   UNL A   1      39.045  22.637  26.428  1.00  0.00     0.251 C 
ATOM     27  H   UNL A   1      37.577  21.401  25.882  1.00  0.00     0.163 HD
ATOM     28  O   UNL A   1      39.890  21.738  26.400  1.00  0.00    -0.269 OA
BRANCH  26  29
ATOM     29  C   UNL A   1      39.416  23.987  26.908  1.00  0.00     0.039 A 
ATOM     30  C   UNL A   1      39.995  24.886  26.009  1.00  0.00     0.014 A 
ATOM     31  C   UNL A   1      39.256  24.355  28.248  1.00  0.00     0.014 A 
ATOM     32  C   UNL A   1      40.389  26.154  26.444  1.00  0.00     0.010 A 
ATOM     33  C   UNL A   1      39.562  25.649  28.660  1.00  0.00     0.010 A 
ATOM     34  C   UNL A   1      40.162  26.553  27.771  1.00  0.00    -0.014 A 
BRANCH  34  35
ATOM     35  C   UNL A   1      40.618  27.879  28.264  1.00  0.00     0.031 A 
ATOM     36  C   UNL A   1      42.090  28.203  28.281  1.00  0.00     0.074 A 
ATOM     37  C   UNL A   1      39.722  28.771  28.726  1.00  0.00     0.049 A 
ATOM     38  N   UNL A   1      42.701  29.272  28.724  1.00  0.00    -0.248 NA
ATOM     39  C   UNL A   1      42.996  27.167  27.765  1.00  0.00     0.031 C 
ATOM     40  C   UNL A   1      38.275  28.555  28.800  1.00  0.00     0.029 A 
ATOM     41  N   UNL A   1      39.893  30.038  29.224  1.00  0.00    -0.354 N 
ATOM     42  C   UNL A   1      44.060  29.030  28.553  1.00  0.00     0.074 A 
ATOM     43  C   UNL A   1      44.183  27.682  28.042  1.00  0.00     0.031 C 
ATOM     44  C   UNL A   1      37.691  29.659  29.294  1.00  0.00     0.029 A 
ATOM     45  C   UNL A   1      38.720  30.647  29.603  1.00  0.00     0.049 A 
ATOM     46  H   UNL A   1      40.775  30.469  29.304  1.00  0.00     0.167 HD
ATOM     47  C   UNL A   1      45.108  29.865  28.770  1.00  0.00     0.034 A 
ATOM     48  C   UNL A   1      38.500  31.863  30.141  1.00  0.00     0.034 A 
ATOM     49  C   UNL A   1      44.965  31.212  29.267  1.00  0.00     0.049 A 
ATOM     50  C   UNL A   1      39.675  32.781  30.364  1.00  0.00     0.074 A 
ATOM     51  C   UNL A   1      45.949  32.157  29.505  1.00  0.00     0.029 A 
ATOM     52  N   UNL A   1      43.755  31.808  29.604  1.00  0.00    -0.354 N 
ATOM     53  N   UNL A   1      40.954  32.551  30.163  1.00  0.00    -0.248 NA
ATOM     54  C   UNL A   1      39.375  34.129  30.859  1.00  0.00     0.031 C 
ATOM     55  C   UNL A   1      45.340  33.300  30.035  1.00  0.00     0.029 A 
ATOM     56  C   UNL A   1      43.969  33.101  30.057  1.00  0.00     0.049 A 
ATOM     57  H   UNL A   1      42.874  31.375  29.531  1.00  0.00     0.167 HD
ATOM     58  C   UNL A   1      41.605  33.741  30.476  1.00  0.00     0.074 A 
ATOM     59  C   UNL A   1      40.577  34.687  30.862  1.00  0.00     0.031 C 
ATOM     60  C   UNL A   1      42.933  34.030  30.442  1.00  0.00     0.034 A 
BRANCH  47  61
ATOM     61  C   UNL A   1      46.492  29.323  28.485  1.00  0.00     0.023 A 
ATOM     62  C   UNL A   1      46.926  29.066  27.170  1.00  0.00     0.031 A 
ATOM     63  C   UNL A   1      47.369  29.003  29.536  1.00  0.00     0.131 A 
ATOM     64  C   UNL A   1      48.151  28.421  26.948  1.00  0.00     0.055 A 
ATOM     65  C   UNL A   1      48.629  28.448  29.302  1.00  0.00     0.041 A 
ATOM     66  F   UNL A   1      47.008  29.206  30.813  1.00  0.00    -0.206 F 
ATOM     67  C   UNL A   1      49.019  28.134  28.003  1.00  0.00     0.022 A 
BRANCH  64  68
ATOM     68  S   UNL A   1      48.515  27.810  25.279  1.00  0.00     0.124 S 
ATOM     69  O   UNL A   1      49.858  28.339  25.059  1.00  0.00    -0.237 OA
ATOM     70  O   UNL A   1      48.417  26.364  25.444  1.00  0.00    -0.237 OA
ATOM     71  O   UNL A   1      47.471  28.417  24.456  1.00  0.00    -0.744 OA
ENDBRANCH  64  68
ENDBRANCH  47  61
BRANCH  48  72
ATOM     72  C   UNL A   1      37.117  32.288  30.498  1.00  0.00     0.023 A 
ATOM     73  C   UNL A   1      36.239  32.796  29.528  1.00  0.00     0.031 A 
ATOM     74  C   UNL A   1      36.661  32.213  31.826  1.00  0.00     0.131 A 
ATOM     75  C   UNL A   1      34.967  33.255  29.907  1.00  0.00     0.055 A 
ATOM     76  C   UNL A   1      35.378  32.625  32.190  1.00  0.00     0.041 A 
ATOM     77  F   UNL A   1      37.456  31.724  32.791  1.00  0.00    -0.206 F 
ATOM     78  C   UNL A   1      34.527  33.161  31.229  1.00  0.00     0.022 A 
BRANCH  75  79
ATOM     79  S   UNL A   1      33.920  34.048  28.656  1.00  0.00     0.124 S 
ATOM     80  O   UNL A   1      33.608  32.929  27.776  1.00  0.00    -0.237 OA
ATOM     81  O   UNL A   1      32.816  34.557  29.464  1.00  0.00    -0.237 OA
ATOM     82  O   UNL A   1      34.792  35.071  28.083  1.00  0.00    -0.744 OA
ENDBRANCH  75  79
ENDBRANCH  48  72
BRANCH  60  83
ATOM     83  C   UNL A   1      43.333  35.447  30.776  1.00  0.00     0.023 A 
ATOM     84  C   UNL A   1      43.401  35.909  32.102  1.00  0.00     0.031 A 
ATOM     85  C   UNL A   1      43.629  36.356  29.743  1.00  0.00     0.131 A 
ATOM     86  C   UNL A   1      43.688  37.259  32.358  1.00  0.00     0.055 A 
ATOM     87  C   UNL A   1      43.978  37.681  30.008  1.00  0.00     0.041 A 
ATOM     88  F   UNL A   1      43.579  35.970  28.458  1.00  0.00    -0.206 F 
ATOM     89  C   UNL A   1      43.993  38.143  31.320  1.00  0.00     0.022 A 
BRANCH  86  90
ATOM     90  S   UNL A   1      43.547  37.870  34.060  1.00  0.00     0.124 S 
ATOM     91  O   UNL A   1      42.895  39.161  33.866  1.00  0.00    -0.237 OA
ATOM     92  O   UNL A   1      42.737  36.836  34.695  1.00  0.00    -0.237 OA
ATOM     93  O   UNL A   1      44.934  37.938  34.515  1.00  0.00    -0.744 OA
ENDBRANCH  86  90
ENDBRANCH  60  83
ENDBRANCH  34  35
ENDBRANCH  26  29
ENDBRANCH  24  25
ENDBRANCH   1  24
TORSDOF 16
ENDMDL
MODEL 3
REMARK VINA RESULT:     -11.7      3.323      8.806
REMARK SMILES C[C@H](C(=O)NCCCNC(=O)c1ccc(-c2c3nc(c(-c4cc(S(=O)(=O)[O-])ccc4F)c4ccc([nH]4)c(-c4cc(S(=O)(=O)[O-])ccc4F)c4nc(c(-c5cc(S(=O)(=O)[O-])ccc5F)c5ccc2[nH]5)C=C4)C=C3)cc1)[C@H](C)[N@@H+]1CC[C@H]([NH+]2CCCCC2)C1
REMARK SMILES IDX 7 1 6 2 5 3 3 4 4 5 2 7 1 8 75 9 76 10 77 11 78 12 87 13
REMARK SMILES IDX 79 15 80 16 81 17 82 18 86 19 83 21 85 22 84 23 8 24 9 25
REMARK SMILES IDX 10 26 11 28 12 29 13 30 74 31 14 32 73 33 15 34 16 35 17 36
REMARK SMILES IDX 67 37 18 38 72 39 66 40 68 41 19 42 71 43 65 44 64 45 20 47
REMARK SMILES IDX 52 48 32 49 51 50 33 51 36 52 50 53 69 54 34 55 35 56 49 58
REMARK SMILES IDX 70 59 37 60 21 61 22 62 30 63 23 64 29 65 31 66 28 67 24 68
REMARK SMILES IDX 25 69 26 70 27 71 53 72 54 73 62 74 55 75 61 76 63 77 60 78
REMARK SMILES IDX 56 79 57 80 58 81 59 82 38 83 39 84 47 85 40 86 46 87 48 88
REMARK SMILES IDX 45 89 41 90 42 91 43 92 44 93
REMARK H PARENT 5 6 77 14 81 20 9 27 68 46 36 57
REMARK Flexibility Score: inf
ROOT
ATOM      1  C   UNL A   1      32.685  27.814  26.467  1.00  0.00     0.042 C 
ENDROOT
BRANCH   1   2
ATOM      2  C   UNL A   1      32.870  26.348  26.098  1.00  0.00     0.117 C 
BRANCH   2   3
ATOM      3  N   UNL A   1      31.800  25.519  26.610  1.00  0.00    -0.356 N 
ATOM      4  C   UNL A   1      31.643  24.168  26.623  1.00  0.00     0.228 C 
ATOM      5  O   UNL A   1      30.674  23.731  27.250  1.00  0.00    -0.275 OA
ATOM      6  H   UNL A   1      31.058  26.019  27.020  1.00  0.00     0.163 HD
BRANCH   4   7
ATOM      7  C   UNL A   1      32.652  23.254  25.934  1.00  0.00     0.133 C 
ATOM      8  C   UNL A   1      33.304  22.381  27.023  1.00  0.00     0.024 C 
BRANCH   7   9
ATOM      9  C   UNL A   1      32.084  22.348  24.797  1.00  0.00     0.193 C 
ATOM     10  C   UNL A   1      32.644  20.912  24.797  1.00  0.00     0.076 C 
BRANCH   9  11
ATOM     11  N   UNL A   1      31.987  22.990  23.474  1.00  0.00    -0.327 N 
ATOM     12  C   UNL A   1      33.269  23.463  22.945  1.00  0.00     0.269 C 
ATOM     13  C   UNL A   1      30.992  24.078  23.319  1.00  0.00     0.328 C 
ATOM     14  H   UNL A   1      31.646  22.200  22.925  1.00  0.00     0.348 HD
ATOM     15  C   UNL A   1      33.149  24.963  22.775  1.00  0.00     0.132 C 
ATOM     16  C   UNL A   1      31.671  25.162  22.448  1.00  0.00     0.245 C 
BRANCH  16  17
ATOM     17  N   UNL A   1      31.167  26.554  22.518  1.00  0.00    -0.328 N 
ATOM     18  C   UNL A   1      30.073  26.763  23.478  1.00  0.00     0.262 C 
ATOM     19  C   UNL A   1      32.279  27.495  22.763  1.00  0.00     0.262 C 
ATOM     20  H   UNL A   1      30.755  26.744  21.604  1.00  0.00     0.348 HD
ATOM     21  C   UNL A   1      29.577  28.215  23.493  1.00  0.00     0.062 C 
ATOM     22  C   UNL A   1      31.834  28.958  22.758  1.00  0.00     0.062 C 
ATOM     23  C   UNL A   1      30.716  29.188  23.764  1.00  0.00     0.012 C 
ENDBRANCH  16  17
ENDBRANCH   9  11
ENDBRANCH   7   9
ENDBRANCH   4   7
ENDBRANCH   2   3
ENDBRANCH   1   2
BRANCH   1  24
ATOM     24  C   UNL A   1      33.806  28.724  25.980  1.00  0.00     0.118 C 
BRANCH  24  25
ATOM     25  N   UNL A   1      33.627  30.101  26.412  1.00  0.00    -0.352 N 
ATOM     26  C   UNL A   1      34.282  30.816  27.379  1.00  0.00     0.251 C 
ATOM     27  H   UNL A   1      32.924  30.597  25.934  1.00  0.00     0.163 HD
ATOM     28  O   UNL A   1      33.806  31.895  27.742  1.00  0.00    -0.269 OA
BRANCH  26  29
ATOM     29  C   UNL A   1      35.530  30.312  27.995  1.00  0.00     0.039 A 
ATOM     30  C   UNL A   1      36.694  30.270  27.222  1.00  0.00     0.014 A 
ATOM     31  C   UNL A   1      35.552  29.822  29.305  1.00  0.00     0.014 A 
ATOM     32  C   UNL A   1      37.877  29.764  27.767  1.00  0.00     0.010 A 
ATOM     33  C   UNL A   1      36.751  29.406  29.877  1.00  0.00     0.010 A 
ATOM     34  C   UNL A   1      37.920  29.341  29.104  1.00  0.00    -0.014 A 
BRANCH  34  35
ATOM     35  C   UNL A   1      39.157  28.755  29.686  1.00  0.00     0.031 A 
ATOM     36  C   UNL A   1      39.708  29.307  30.975  1.00  0.00     0.074 A 
ATOM     37  C   UNL A   1      39.798  27.761  29.044  1.00  0.00     0.049 A 
ATOM     38  N   UNL A   1      40.801  28.983  31.619  1.00  0.00    -0.248 NA
ATOM     39  C   UNL A   1      38.946  30.396  31.602  1.00  0.00     0.031 C 
ATOM     40  C   UNL A   1      39.386  27.174  27.767  1.00  0.00     0.029 A 
ATOM     41  N   UNL A   1      40.937  27.070  29.373  1.00  0.00    -0.354 N 
ATOM     42  C   UNL A   1      40.862  29.836  32.715  1.00  0.00     0.074 A 
ATOM     43  C   UNL A   1      39.741  30.743  32.602  1.00  0.00     0.031 C 
ATOM     44  C   UNL A   1      40.246  26.198  27.434  1.00  0.00     0.029 A 
ATOM     45  C   UNL A   1      41.289  26.112  28.451  1.00  0.00     0.049 A 
ATOM     46  H   UNL A   1      41.454  27.245  30.193  1.00  0.00     0.167 HD
ATOM     47  C   UNL A   1      41.752  29.844  33.741  1.00  0.00     0.034 A 
ATOM     48  C   UNL A   1      42.336  25.263  28.428  1.00  0.00     0.034 A 
ATOM     49  C   UNL A   1      42.857  28.922  33.844  1.00  0.00     0.049 A 
ATOM     50  C   UNL A   1      43.307  25.278  29.581  1.00  0.00     0.074 A 
ATOM     51  C   UNL A   1      43.808  28.818  34.845  1.00  0.00     0.029 A 
ATOM     52  N   UNL A   1      43.159  27.939  32.909  1.00  0.00    -0.354 N 
ATOM     53  N   UNL A   1      43.333  26.068  30.631  1.00  0.00    -0.248 NA
ATOM     54  C   UNL A   1      44.373  24.270  29.559  1.00  0.00     0.031 C 
ATOM     55  C   UNL A   1      44.713  27.812  34.488  1.00  0.00     0.029 A 
ATOM     56  C   UNL A   1      44.287  27.234  33.303  1.00  0.00     0.049 A 
ATOM     57  H   UNL A   1      42.648  27.768  32.085  1.00  0.00     0.167 HD
ATOM     58  C   UNL A   1      44.398  25.626  31.411  1.00  0.00     0.074 A 
ATOM     59  C   UNL A   1      44.976  24.494  30.718  1.00  0.00     0.031 C 
ATOM     60  C   UNL A   1      44.854  26.109  32.597  1.00  0.00     0.034 A 
BRANCH  47  61
ATOM     61  C   UNL A   1      41.563  30.898  34.810  1.00  0.00     0.023 A 
ATOM     62  C   UNL A   1      40.422  30.914  35.634  1.00  0.00     0.031 A 
ATOM     63  C   UNL A   1      42.502  31.932  34.973  1.00  0.00     0.131 A 
ATOM     64  C   UNL A   1      40.201  31.989  36.507  1.00  0.00     0.055 A 
ATOM     65  C   UNL A   1      42.322  32.949  35.913  1.00  0.00     0.041 A 
ATOM     66  F   UNL A   1      43.601  31.985  34.206  1.00  0.00    -0.206 F 
ATOM     67  C   UNL A   1      41.156  32.994  36.673  1.00  0.00     0.022 A 
BRANCH  64  68
ATOM     68  S   UNL A   1      38.573  32.142  37.295  1.00  0.00     0.124 S 
ATOM     69  O   UNL A   1      38.068  33.370  36.686  1.00  0.00    -0.237 OA
ATOM     70  O   UNL A   1      37.909  30.909  36.890  1.00  0.00    -0.237 OA
ATOM     71  O   UNL A   1      38.889  32.245  38.717  1.00  0.00    -0.744 OA
ENDBRANCH  64  68
ENDBRANCH  47  61
BRANCH  48  72
ATOM     72  C   UNL A   1      42.518  24.326  27.285  1.00  0.00     0.023 A 
ATOM     73  C   UNL A   1      41.946  23.044  27.298  1.00  0.00     0.031 A 
ATOM     74  C   UNL A   1      43.290  24.692  26.169  1.00  0.00     0.131 A 
ATOM     75  C   UNL A   1      42.195  22.156  26.238  1.00  0.00     0.055 A 
ATOM     76  C   UNL A   1      43.493  23.824  25.095  1.00  0.00     0.041 A 
ATOM     77  F   UNL A   1      43.849  25.911  26.100  1.00  0.00    -0.206 F 
ATOM     78  C   UNL A   1      42.954  22.542  25.132  1.00  0.00     0.022 A 
BRANCH  75  79
ATOM     79  S   UNL A   1      41.570  20.458  26.362  1.00  0.00     0.124 S 
ATOM     80  O   UNL A   1      42.401  19.762  25.386  1.00  0.00    -0.237 OA
ATOM     81  O   UNL A   1      41.827  20.143  27.765  1.00  0.00    -0.237 OA
ATOM     82  O   UNL A   1      40.160  20.587  26.004  1.00  0.00    -0.744 OA
ENDBRANCH  75  79
ENDBRANCH  48  72
BRANCH  60  83
ATOM     83  C   UNL A   1      46.000  25.367  33.242  1.00  0.00     0.023 A 
ATOM     84  C   UNL A   1      45.790  24.291  34.123  1.00  0.00     0.031 A 
ATOM     85  C   UNL A   1      47.326  25.763  32.987  1.00  0.00     0.131 A 
ATOM     86  C   UNL A   1      46.883  23.693  34.769  1.00  0.00     0.055 A 
ATOM     87  C   UNL A   1      48.412  25.121  33.582  1.00  0.00     0.041 A 
ATOM     88  F   UNL A   1      47.586  26.785  32.155  1.00  0.00    -0.206 F 
ATOM     89  C   UNL A   1      48.193  24.091  34.491  1.00  0.00     0.022 A 
BRANCH  86  90
ATOM     90  S   UNL A   1      46.562  22.463  36.063  1.00  0.00     0.124 S 
ATOM     91  O   UNL A   1      46.979  21.224  35.415  1.00  0.00    -0.237 OA
ATOM     92  O   UNL A   1      47.412  22.931  37.153  1.00  0.00    -0.237 OA
ATOM     93  O   UNL A   1      45.125  22.585  36.301  1.00  0.00    -0.744 OA
ENDBRANCH  86  90
ENDBRANCH  60  83
ENDBRANCH  34  35
ENDBRANCH  26  29
ENDBRANCH  24  25
ENDBRANCH   1  24
TORSDOF 16
ENDMDL
