MODEL 1
REMARK VINA RESULT:      -9.3      0.000      0.000
REMARK SMILES O=C(COc1ccc(/C=C/C(=O)c2ccc(F)cc2F)cc1[N+](=O)[O-])NCCCNC(=O)c1ccc(-c2c3nc(c(-c4cc(S(=O)(=O)[O-])ccc4F)c4ccc([nH]4)c(-c4cc(S(=O)(=O)[O-])ccc4F)c4nc(c(-c5cc(S(=O)(=O)[O-])ccc5F)c5ccc2[nH]5)C=C4)C=C3)cc1
REMARK SMILES IDX 27 1 26 2 1 3 2 4 3 6 4 7 5 8 6 9 22 10 7 11 21 12 8 13
REMARK SMILES IDX 23 14 24 15 25 16 9 17 10 18 11 19 12 20 13 21 14 22 19 23
REMARK SMILES IDX 15 24 18 25 20 26 16 27 17 28 28 29 29 30 30 31 31 32 32 34
REMARK SMILES IDX 33 35 34 36 95 37 35 38 94 39 36 40 37 41 38 42 88 43 39 44
REMARK SMILES IDX 93 45 87 46 89 47 40 48 92 49 86 50 85 51 41 53 73 54 53 55
REMARK SMILES IDX 72 56 54 57 57 58 71 59 90 60 55 61 56 62 70 64 91 65 58 66
REMARK SMILES IDX 42 67 43 68 51 69 44 70 50 71 52 72 49 73 45 74 46 75 47 76
REMARK SMILES IDX 48 77 74 78 75 79 83 80 76 81 82 82 84 83 81 84 77 85 78 86
REMARK SMILES IDX 79 87 80 88 59 89 60 90 68 91 61 92 67 93 69 94 66 95 62 96
REMARK SMILES IDX 63 97 64 98 65 99
REMARK H PARENT 26 5 30 33 89 52 57 63
REMARK Flexibility Score: inf
ROOT
ATOM      1  C   UNL A   1      42.482  19.697  26.286  1.00  0.00     0.117 C 
ENDROOT
BRANCH   1   2
ATOM      2  N   UNL A   1      43.861  20.108  26.099  1.00  0.00    -0.353 N 
ATOM      3  O   UNL A   1      43.462  21.845  24.638  1.00  0.00    -0.271 OA
ATOM      4  C   UNL A   1      44.222  21.224  25.374  1.00  0.00     0.257 C 
ATOM      5  H   UNL A   1      44.572  19.564  26.509  1.00  0.00     0.163 HD
BRANCH   4   6
ATOM      6  C   UNL A   1      45.682  21.645  25.572  1.00  0.00     0.329 C 
BRANCH   6   7
ATOM      7  O   UNL A   1      45.850  23.069  25.598  1.00  0.00    -0.477 OA
BRANCH   7   8
ATOM      8  C   UNL A   1      45.728  23.588  26.859  1.00  0.00     0.197 A 
ATOM      9  C   UNL A   1      44.571  23.301  27.589  1.00  0.00     0.054 A 
ATOM     10  C   UNL A   1      46.658  24.467  27.413  1.00  0.00     0.311 A 
ATOM     11  C   UNL A   1      44.382  23.851  28.868  1.00  0.00     0.012 A 
ATOM     12  C   UNL A   1      46.501  24.989  28.701  1.00  0.00     0.098 A 
ATOM     13  C   UNL A   1      45.350  24.690  29.434  1.00  0.00    -0.018 A 
BRANCH  10  14
ATOM     14  N   UNL A   1      47.793  24.945  26.656  1.00  0.00     0.066 N 
ATOM     15  O   UNL A   1      48.896  24.453  26.930  1.00  0.00    -0.258 OA
ATOM     16  O   UNL A   1      47.588  25.841  25.825  1.00  0.00    -0.258 OA
ENDBRANCH  10  14
BRANCH  13  17
ATOM     17  C   UNL A   1      45.245  25.290  30.767  1.00  0.00     0.012 C 
ATOM     18  C   UNL A   1      44.132  25.284  31.514  1.00  0.00     0.053 C 
BRANCH  18  19
ATOM     19  C   UNL A   1      44.037  26.017  32.805  1.00  0.00     0.188 C 
ATOM     20  O   UNL A   1      43.884  25.394  33.852  1.00  0.00    -0.289 OA
BRANCH  19  21
ATOM     21  C   UNL A   1      44.143  27.493  32.838  1.00  0.00     0.058 A 
ATOM     22  C   UNL A   1      43.139  28.253  32.223  1.00  0.00     0.018 A 
ATOM     23  C   UNL A   1      45.230  28.144  33.433  1.00  0.00     0.137 A 
ATOM     24  C   UNL A   1      43.209  29.648  32.245  1.00  0.00     0.040 A 
ATOM     25  C   UNL A   1      45.304  29.534  33.457  1.00  0.00     0.079 A 
ATOM     26  F   UNL A   1      46.234  27.447  33.985  1.00  0.00    -0.206 F 
ATOM     27  C   UNL A   1      44.288  30.273  32.866  1.00  0.00     0.126 A 
ATOM     28  F   UNL A   1      44.348  31.610  32.888  1.00  0.00    -0.207 F 
ENDBRANCH  19  21
ENDBRANCH  18  19
ENDBRANCH  13  17
ENDBRANCH   7   8
ENDBRANCH   6   7
ENDBRANCH   4   6
ENDBRANCH   1   2
BRANCH   1  29
ATOM     29  C   UNL A   1      41.853  20.202  27.573  1.00  0.00     0.042 C 
BRANCH  29  30
ATOM     30  C   UNL A   1      41.135  21.543  27.474  1.00  0.00     0.118 C 
BRANCH  30  31
ATOM     31  N   UNL A   1      39.892  21.513  26.716  1.00  0.00    -0.352 N 
ATOM     32  C   UNL A   1      39.042  22.539  26.364  1.00  0.00     0.251 C 
ATOM     33  H   UNL A   1      39.615  20.621  26.406  1.00  0.00     0.163 HD
ATOM     34  O   UNL A   1      38.005  22.276  25.759  1.00  0.00    -0.269 OA
BRANCH  32  35
ATOM     35  C   UNL A   1      39.334  23.944  26.746  1.00  0.00     0.039 A 
ATOM     36  C   UNL A   1      38.939  24.388  28.012  1.00  0.00     0.014 A 
ATOM     37  C   UNL A   1      39.990  24.825  25.884  1.00  0.00     0.014 A 
ATOM     38  C   UNL A   1      39.279  25.675  28.442  1.00  0.00     0.010 A 
ATOM     39  C   UNL A   1      40.405  26.076  26.345  1.00  0.00     0.010 A 
ATOM     40  C   UNL A   1      40.059  26.514  27.632  1.00  0.00    -0.014 A 
BRANCH  40  41
ATOM     41  C   UNL A   1      40.525  27.842  28.121  1.00  0.00     0.031 A 
ATOM     42  C   UNL A   1      41.996  28.160  28.184  1.00  0.00     0.074 A 
ATOM     43  C   UNL A   1      39.626  28.741  28.570  1.00  0.00     0.049 A 
ATOM     44  N   UNL A   1      42.595  29.235  28.631  1.00  0.00    -0.248 NA
ATOM     45  C   UNL A   1      42.916  27.114  27.714  1.00  0.00     0.031 C 
ATOM     46  C   UNL A   1      38.176  28.535  28.621  1.00  0.00     0.029 A 
ATOM     47  N   UNL A   1      39.795  30.008  29.073  1.00  0.00    -0.354 N 
ATOM     48  C   UNL A   1      43.959  28.990  28.514  1.00  0.00     0.074 A 
ATOM     49  C   UNL A   1      44.095  27.638  28.012  1.00  0.00     0.031 C 
ATOM     50  C   UNL A   1      37.590  29.645  29.098  1.00  0.00     0.029 A 
ATOM     51  C   UNL A   1      38.618  30.627  29.423  1.00  0.00     0.049 A 
ATOM     52  H   UNL A   1      40.677  30.432  29.176  1.00  0.00     0.167 HD
ATOM     53  C   UNL A   1      45.000  29.820  28.774  1.00  0.00     0.034 A 
ATOM     54  C   UNL A   1      38.389  31.847  29.948  1.00  0.00     0.034 A 
ATOM     55  C   UNL A   1      44.850  31.173  29.253  1.00  0.00     0.049 A 
ATOM     56  C   UNL A   1      39.558  32.759  30.213  1.00  0.00     0.074 A 
ATOM     57  C   UNL A   1      45.833  32.120  29.492  1.00  0.00     0.029 A 
ATOM     58  N   UNL A   1      43.639  31.776  29.571  1.00  0.00    -0.354 N 
ATOM     59  N   UNL A   1      40.840  32.532  30.042  1.00  0.00    -0.248 NA
ATOM     60  C   UNL A   1      39.248  34.100  30.728  1.00  0.00     0.031 C 
ATOM     61  C   UNL A   1      45.222  33.270  30.006  1.00  0.00     0.029 A 
ATOM     62  C   UNL A   1      43.853  33.069  30.024  1.00  0.00     0.049 A 
ATOM     63  H   UNL A   1      42.757  31.346  29.488  1.00  0.00     0.167 HD
ATOM     64  C   UNL A   1      41.485  33.712  30.401  1.00  0.00     0.074 A 
ATOM     65  C   UNL A   1      40.451  34.652  30.780  1.00  0.00     0.031 C 
ATOM     66  C   UNL A   1      42.814  33.994  30.413  1.00  0.00     0.034 A 
BRANCH  53  67
ATOM     67  C   UNL A   1      46.392  29.273  28.561  1.00  0.00     0.023 A 
ATOM     68  C   UNL A   1      47.038  28.497  29.542  1.00  0.00     0.031 A 
ATOM     69  C   UNL A   1      47.098  29.555  27.378  1.00  0.00     0.131 A 
ATOM     70  C   UNL A   1      48.372  28.105  29.359  1.00  0.00     0.055 A 
ATOM     71  C   UNL A   1      48.398  29.089  27.166  1.00  0.00     0.041 A 
ATOM     72  F   UNL A   1      46.543  30.304  26.413  1.00  0.00    -0.206 F 
ATOM     73  C   UNL A   1      49.049  28.373  28.168  1.00  0.00     0.022 A 
BRANCH  70  74
ATOM     74  S   UNL A   1      49.257  27.370  30.761  1.00  0.00     0.124 S 
ATOM     75  O   UNL A   1      49.378  25.978  30.335  1.00  0.00    -0.237 OA
ATOM     76  O   UNL A   1      50.496  28.140  30.792  1.00  0.00    -0.237 OA
ATOM     77  O   UNL A   1      48.356  27.593  31.890  1.00  0.00    -0.744 OA
ENDBRANCH  70  74
ENDBRANCH  53  67
BRANCH  54  78
ATOM     78  C   UNL A   1      36.999  32.289  30.257  1.00  0.00     0.023 A 
ATOM     79  C   UNL A   1      36.233  32.980  29.304  1.00  0.00     0.031 A 
ATOM     80  C   UNL A   1      36.431  32.064  31.523  1.00  0.00     0.131 A 
ATOM     81  C   UNL A   1      34.960  33.463  29.646  1.00  0.00     0.055 A 
ATOM     82  C   UNL A   1      35.146  32.503  31.842  1.00  0.00     0.041 A 
ATOM     83  F   UNL A   1      37.119  31.401  32.466  1.00  0.00    -0.206 F 
ATOM     84  C   UNL A   1      34.407  33.219  30.905  1.00  0.00     0.022 A 
BRANCH  81  85
ATOM     85  S   UNL A   1      34.067  34.484  28.443  1.00  0.00     0.124 S 
ATOM     86  O   UNL A   1      34.089  35.792  29.088  1.00  0.00    -0.237 OA
ATOM     87  O   UNL A   1      34.897  34.344  27.251  1.00  0.00    -0.237 OA
ATOM     88  O   UNL A   1      32.754  33.848  28.365  1.00  0.00    -0.744 OA
ENDBRANCH  81  85
ENDBRANCH  54  78
BRANCH  66  89
ATOM     89  C   UNL A   1      43.208  35.395  30.811  1.00  0.00     0.023 A 
ATOM     90  C   UNL A   1      43.389  36.412  29.856  1.00  0.00     0.031 A 
ATOM     91  C   UNL A   1      43.435  35.708  32.162  1.00  0.00     0.131 A 
ATOM     92  C   UNL A   1      43.847  37.676  30.260  1.00  0.00     0.055 A 
ATOM     93  C   UNL A   1      43.833  36.983  32.564  1.00  0.00     0.041 A 
ATOM     94  F   UNL A   1      43.277  34.775  33.115  1.00  0.00    -0.206 F 
ATOM     95  C   UNL A   1      44.056  37.972  31.610  1.00  0.00     0.022 A 
BRANCH  92  96
ATOM     96  S   UNL A   1      44.264  38.899  28.988  1.00  0.00     0.124 S 
ATOM     97  O   UNL A   1      45.715  38.982  29.108  1.00  0.00    -0.237 OA
ATOM     98  O   UNL A   1      43.761  38.267  27.772  1.00  0.00    -0.237 OA
ATOM     99  O   UNL A   1      43.537  40.095  29.409  1.00  0.00    -0.744 OA
ENDBRANCH  92  96
ENDBRANCH  66  89
ENDBRANCH  40  41
ENDBRANCH  32  35
ENDBRANCH  30  31
ENDBRANCH  29  30
ENDBRANCH   1  29
TORSDOF 19
ENDMDL
MODEL 2
REMARK VINA RESULT:      -9.1      3.601      7.533
REMARK SMILES O=C(COc1ccc(/C=C/C(=O)c2ccc(F)cc2F)cc1[N+](=O)[O-])NCCCNC(=O)c1ccc(-c2c3nc(c(-c4cc(S(=O)(=O)[O-])ccc4F)c4ccc([nH]4)c(-c4cc(S(=O)(=O)[O-])ccc4F)c4nc(c(-c5cc(S(=O)(=O)[O-])ccc5F)c5ccc2[nH]5)C=C4)C=C3)cc1
REMARK SMILES IDX 27 1 26 2 1 3 2 4 3 6 4 7 5 8 6 9 22 10 7 11 21 12 8 13
REMARK SMILES IDX 23 14 24 15 25 16 9 17 10 18 11 19 12 20 13 21 14 22 19 23
REMARK SMILES IDX 15 24 18 25 20 26 16 27 17 28 28 29 29 30 30 31 31 32 32 34
REMARK SMILES IDX 33 35 34 36 95 37 35 38 94 39 36 40 37 41 38 42 88 43 39 44
REMARK SMILES IDX 93 45 87 46 89 47 40 48 92 49 86 50 85 51 41 53 73 54 53 55
REMARK SMILES IDX 72 56 54 57 57 58 71 59 90 60 55 61 56 62 70 64 91 65 58 66
REMARK SMILES IDX 42 67 43 68 51 69 44 70 50 71 52 72 49 73 45 74 46 75 47 76
REMARK SMILES IDX 48 77 74 78 75 79 83 80 76 81 82 82 84 83 81 84 77 85 78 86
REMARK SMILES IDX 79 87 80 88 59 89 60 90 68 91 61 92 67 93 69 94 66 95 62 96
REMARK SMILES IDX 63 97 64 98 65 99
REMARK H PARENT 26 5 30 33 89 52 57 63
REMARK Flexibility Score: inf
ROOT
ATOM      1  C   UNL A   1      44.946  18.826  25.305  1.00  0.00     0.117 C 
ENDROOT
BRANCH   1   2
ATOM      2  N   UNL A   1      43.685  19.367  25.779  1.00  0.00    -0.353 N 
ATOM      3  O   UNL A   1      42.907  17.458  26.808  1.00  0.00    -0.271 OA
ATOM      4  C   UNL A   1      42.821  18.662  26.590  1.00  0.00     0.257 C 
ATOM      5  H   UNL A   1      43.435  20.280  25.508  1.00  0.00     0.163 HD
BRANCH   4   6
ATOM      6  C   UNL A   1      41.723  19.524  27.222  1.00  0.00     0.329 C 
BRANCH   6   7
ATOM      7  O   UNL A   1      41.068  20.374  26.269  1.00  0.00    -0.477 OA
BRANCH   7   8
ATOM      8  C   UNL A   1      40.925  21.657  26.723  1.00  0.00     0.197 A 
ATOM      9  C   UNL A   1      41.943  22.203  27.510  1.00  0.00     0.054 A 
ATOM     10  C   UNL A   1      39.769  22.411  26.521  1.00  0.00     0.311 A 
ATOM     11  C   UNL A   1      41.817  23.499  28.037  1.00  0.00     0.012 A 
ATOM     12  C   UNL A   1      39.648  23.716  27.007  1.00  0.00     0.098 A 
ATOM     13  C   UNL A   1      40.673  24.266  27.781  1.00  0.00    -0.018 A 
BRANCH  10  14
ATOM     14  N   UNL A   1      38.608  21.855  25.865  1.00  0.00     0.066 N 
ATOM     15  O   UNL A   1      38.663  20.659  25.547  1.00  0.00    -0.258 OA
ATOM     16  O   UNL A   1      37.665  22.622  25.625  1.00  0.00    -0.258 OA
ENDBRANCH  10  14
BRANCH  13  17
ATOM     17  C   UNL A   1      40.467  25.631  28.274  1.00  0.00     0.012 C 
ATOM     18  C   UNL A   1      39.781  26.577  27.617  1.00  0.00     0.053 C 
BRANCH  18  19
ATOM     19  C   UNL A   1      39.709  27.983  28.097  1.00  0.00     0.188 C 
ATOM     20  O   UNL A   1      39.666  28.904  27.287  1.00  0.00    -0.289 OA
BRANCH  19  21
ATOM     21  C   UNL A   1      39.670  28.278  29.547  1.00  0.00     0.058 A 
ATOM     22  C   UNL A   1      38.471  28.068  30.243  1.00  0.00     0.018 A 
ATOM     23  C   UNL A   1      40.779  28.791  30.228  1.00  0.00     0.137 A 
ATOM     24  C   UNL A   1      38.408  28.332  31.614  1.00  0.00     0.040 A 
ATOM     25  C   UNL A   1      40.720  29.055  31.593  1.00  0.00     0.079 A 
ATOM     26  F   UNL A   1      41.925  29.053  29.582  1.00  0.00    -0.206 F 
ATOM     27  C   UNL A   1      39.534  28.817  32.275  1.00  0.00     0.126 A 
ATOM     28  F   UNL A   1      39.468  29.064  33.589  1.00  0.00    -0.207 F 
ENDBRANCH  19  21
ENDBRANCH  18  19
ENDBRANCH  13  17
ENDBRANCH   7   8
ENDBRANCH   6   7
ENDBRANCH   4   6
ENDBRANCH   1   2
BRANCH   1  29
ATOM     29  C   UNL A   1      46.103  19.809  25.364  1.00  0.00     0.042 C 
BRANCH  29  30
ATOM     30  C   UNL A   1      45.716  21.283  25.378  1.00  0.00     0.118 C 
BRANCH  30  31
ATOM     31  N   UNL A   1      46.400  22.101  24.386  1.00  0.00    -0.352 N 
ATOM     32  C   UNL A   1      46.652  23.455  24.374  1.00  0.00     0.251 C 
ATOM     33  H   UNL A   1      46.734  21.610  23.602  1.00  0.00     0.163 HD
ATOM     34  O   UNL A   1      47.205  23.952  23.395  1.00  0.00    -0.269 OA
BRANCH  32  35
ATOM     35  C   UNL A   1      46.222  24.327  25.497  1.00  0.00     0.039 A 
ATOM     36  C   UNL A   1      47.180  24.734  26.431  1.00  0.00     0.014 A 
ATOM     37  C   UNL A   1      44.899  24.751  25.641  1.00  0.00     0.014 A 
ATOM     38  C   UNL A   1      46.832  25.630  27.448  1.00  0.00     0.010 A 
ATOM     39  C   UNL A   1      44.573  25.711  26.600  1.00  0.00     0.010 A 
ATOM     40  C   UNL A   1      45.537  26.166  27.512  1.00  0.00    -0.014 A 
BRANCH  40  41
ATOM     41  C   UNL A   1      45.182  27.207  28.518  1.00  0.00     0.031 A 
ATOM     42  C   UNL A   1      45.310  28.670  28.182  1.00  0.00     0.074 A 
ATOM     43  C   UNL A   1      44.806  26.836  29.758  1.00  0.00     0.049 A 
ATOM     44  N   UNL A   1      45.104  29.717  28.940  1.00  0.00    -0.248 NA
ATOM     45  C   UNL A   1      45.764  28.996  26.822  1.00  0.00     0.031 C 
ATOM     46  C   UNL A   1      44.701  25.453  30.233  1.00  0.00     0.029 A 
ATOM     47  N   UNL A   1      44.445  27.585  30.851  1.00  0.00    -0.354 N 
ATOM     48  C   UNL A   1      45.419  30.823  28.158  1.00  0.00     0.074 A 
ATOM     49  C   UNL A   1      45.890  30.312  26.888  1.00  0.00     0.031 C 
ATOM     50  C   UNL A   1      44.275  25.455  31.506  1.00  0.00     0.029 A 
ATOM     51  C   UNL A   1      44.113  26.833  31.955  1.00  0.00     0.049 A 
ATOM     52  H   UNL A   1      44.428  28.569  30.846  1.00  0.00     0.167 HD
ATOM     53  C   UNL A   1      45.302  32.142  28.460  1.00  0.00     0.034 A 
ATOM     54  C   UNL A   1      43.723  27.209  33.189  1.00  0.00     0.034 A 
ATOM     55  C   UNL A   1      44.810  32.638  29.722  1.00  0.00     0.049 A 
ATOM     56  C   UNL A   1      43.584  28.677  33.496  1.00  0.00     0.074 A 
ATOM     57  C   UNL A   1      44.595  33.950  30.110  1.00  0.00     0.029 A 
ATOM     58  N   UNL A   1      44.457  31.845  30.807  1.00  0.00    -0.354 N 
ATOM     59  N   UNL A   1      43.831  29.710  32.724  1.00  0.00    -0.248 NA
ATOM     60  C   UNL A   1      43.097  29.029  34.836  1.00  0.00     0.031 C 
ATOM     61  C   UNL A   1      44.168  33.952  31.443  1.00  0.00     0.029 A 
ATOM     62  C   UNL A   1      44.050  32.640  31.868  1.00  0.00     0.049 A 
ATOM     63  H   UNL A   1      44.493  30.861  30.820  1.00  0.00     0.167 HD
ATOM     64  C   UNL A   1      43.502  30.833  33.478  1.00  0.00     0.074 A 
ATOM     65  C   UNL A   1      43.021  30.349  34.756  1.00  0.00     0.031 C 
ATOM     66  C   UNL A   1      43.585  32.147  33.143  1.00  0.00     0.034 A 
BRANCH  53  67
ATOM     67  C   UNL A   1      45.735  33.133  27.405  1.00  0.00     0.023 A 
ATOM     68  C   UNL A   1      47.092  33.437  27.191  1.00  0.00     0.031 A 
ATOM     69  C   UNL A   1      44.781  33.810  26.624  1.00  0.00     0.131 A 
ATOM     70  C   UNL A   1      47.451  34.447  26.286  1.00  0.00     0.055 A 
ATOM     71  C   UNL A   1      45.150  34.754  25.664  1.00  0.00     0.041 A 
ATOM     72  F   UNL A   1      43.470  33.576  26.794  1.00  0.00    -0.206 F 
ATOM     73  C   UNL A   1      46.491  35.090  25.502  1.00  0.00     0.022 A 
BRANCH  70  74
ATOM     74  S   UNL A   1      49.174  35.012  26.258  1.00  0.00     0.124 S 
ATOM     75  O   UNL A   1      49.670  34.382  25.037  1.00  0.00    -0.237 OA
ATOM     76  O   UNL A   1      49.031  36.463  26.217  1.00  0.00    -0.237 OA
ATOM     77  O   UNL A   1      49.731  34.474  27.498  1.00  0.00    -0.744 OA
ENDBRANCH  70  74
ENDBRANCH  53  67
BRANCH  54  78
ATOM     78  C   UNL A   1      43.428  26.186  34.233  1.00  0.00     0.023 A 
ATOM     79  C   UNL A   1      44.461  25.440  34.824  1.00  0.00     0.031 A 
ATOM     80  C   UNL A   1      42.107  25.911  34.626  1.00  0.00     0.131 A 
ATOM     81  C   UNL A   1      44.153  24.423  35.741  1.00  0.00     0.055 A 
ATOM     82  C   UNL A   1      41.809  24.932  35.574  1.00  0.00     0.041 A 
ATOM     83  F   UNL A   1      41.085  26.602  34.097  1.00  0.00    -0.206 F 
ATOM     84  C   UNL A   1      42.835  24.172  36.128  1.00  0.00     0.022 A 
BRANCH  81  85
ATOM     85  S   UNL A   1      45.498  23.378  36.362  1.00  0.00     0.124 S 
ATOM     86  O   UNL A   1      45.457  23.660  37.793  1.00  0.00    -0.237 OA
ATOM     87  O   UNL A   1      45.057  22.046  35.959  1.00  0.00    -0.237 OA
ATOM     88  O   UNL A   1      46.674  23.882  35.658  1.00  0.00    -0.744 OA
ENDBRANCH  81  85
ENDBRANCH  54  78
BRANCH  66  89
ATOM     89  C   UNL A   1      43.103  33.142  34.169  1.00  0.00     0.023 A 
ATOM     90  C   UNL A   1      41.745  33.495  34.276  1.00  0.00     0.031 A 
ATOM     91  C   UNL A   1      44.019  33.769  35.031  1.00  0.00     0.131 A 
ATOM     92  C   UNL A   1      41.353  34.494  35.181  1.00  0.00     0.055 A 
ATOM     93  C   UNL A   1      43.615  34.719  35.968  1.00  0.00     0.041 A 
ATOM     94  F   UNL A   1      45.327  33.470  34.971  1.00  0.00    -0.206 F 
ATOM     95  C   UNL A   1      42.277  35.099  36.037  1.00  0.00     0.022 A 
BRANCH  92  96
ATOM     96  S   UNL A   1      39.632  35.068  35.151  1.00  0.00     0.124 S 
ATOM     97  O   UNL A   1      38.984  34.135  36.067  1.00  0.00    -0.237 OA
ATOM     98  O   UNL A   1      39.755  36.443  35.624  1.00  0.00    -0.237 OA
ATOM     99  O   UNL A   1      39.247  34.928  33.748  1.00  0.00    -0.744 OA
ENDBRANCH  92  96
ENDBRANCH  66  89
ENDBRANCH  40  41
ENDBRANCH  32  35
ENDBRANCH  30  31
ENDBRANCH  29  30
ENDBRANCH   1  29
TORSDOF 19
ENDMDL
MODEL 3
REMARK VINA RESULT:      -9.1      2.965      4.510
REMARK SMILES O=C(COc1ccc(/C=C/C(=O)c2ccc(F)cc2F)cc1[N+](=O)[O-])NCCCNC(=O)c1ccc(-c2c3nc(c(-c4cc(S(=O)(=O)[O-])ccc4F)c4ccc([nH]4)c(-c4cc(S(=O)(=O)[O-])ccc4F)c4nc(c(-c5cc(S(=O)(=O)[O-])ccc5F)c5ccc2[nH]5)C=C4)C=C3)cc1
REMARK SMILES IDX 27 1 26 2 1 3 2 4 3 6 4 7 5 8 6 9 22 10 7 11 21 12 8 13
REMARK SMILES IDX 23 14 24 15 25 16 9 17 10 18 11 19 12 20 13 21 14 22 19 23
REMARK SMILES IDX 15 24 18 25 20 26 16 27 17 28 28 29 29 30 30 31 31 32 32 34
REMARK SMILES IDX 33 35 34 36 95 37 35 38 94 39 36 40 37 41 38 42 88 43 39 44
REMARK SMILES IDX 93 45 87 46 89 47 40 48 92 49 86 50 85 51 41 53 73 54 53 55
REMARK SMILES IDX 72 56 54 57 57 58 71 59 90 60 55 61 56 62 70 64 91 65 58 66
REMARK SMILES IDX 42 67 43 68 51 69 44 70 50 71 52 72 49 73 45 74 46 75 47 76
REMARK SMILES IDX 48 77 74 78 75 79 83 80 76 81 82 82 84 83 81 84 77 85 78 86
REMARK SMILES IDX 79 87 80 88 59 89 60 90 68 91 61 92 67 93 69 94 66 95 62 96
REMARK SMILES IDX 63 97 64 98 65 99
REMARK H PARENT 26 5 30 33 89 52 57 63
REMARK Flexibility Score: inf
ROOT
ATOM      1  C   UNL A   1      43.596  22.201  25.198  1.00  0.00     0.117 C 
ENDROOT
BRANCH   1   2
ATOM      2  N   UNL A   1      44.359  23.290  25.783  1.00  0.00    -0.353 N 
ATOM      3  O   UNL A   1      46.461  22.465  25.326  1.00  0.00    -0.271 OA
ATOM      4  C   UNL A   1      45.732  23.380  25.695  1.00  0.00     0.257 C 
ATOM      5  H   UNL A   1      43.872  23.997  26.265  1.00  0.00     0.163 HD
BRANCH   4   6
ATOM      6  C   UNL A   1      46.290  24.749  26.096  1.00  0.00     0.329 C 
BRANCH   6   7
ATOM      7  O   UNL A   1      45.760  25.819  25.299  1.00  0.00    -0.477 OA
BRANCH   7   8
ATOM      8  C   UNL A   1      45.499  26.942  26.037  1.00  0.00     0.197 A 
ATOM      9  C   UNL A   1      46.444  27.352  26.982  1.00  0.00     0.054 A 
ATOM     10  C   UNL A   1      44.294  27.640  25.961  1.00  0.00     0.311 A 
ATOM     11  C   UNL A   1      46.197  28.471  27.795  1.00  0.00     0.012 A 
ATOM     12  C   UNL A   1      44.053  28.778  26.736  1.00  0.00     0.098 A 
ATOM     13  C   UNL A   1      45.004  29.195  27.670  1.00  0.00    -0.018 A 
BRANCH  10  14
ATOM     14  N   UNL A   1      43.204  27.178  25.132  1.00  0.00     0.066 N 
ATOM     15  O   UNL A   1      42.998  25.957  25.106  1.00  0.00    -0.258 OA
ATOM     16  O   UNL A   1      42.587  28.028  24.475  1.00  0.00    -0.258 OA
ENDBRANCH  10  14
BRANCH  13  17
ATOM     17  C   UNL A   1      44.673  30.384  28.461  1.00  0.00     0.012 C 
ATOM     18  C   UNL A   1      45.422  31.494  28.509  1.00  0.00     0.053 C 
BRANCH  18  19
ATOM     19  C   UNL A   1      45.111  32.624  29.425  1.00  0.00     0.188 C 
ATOM     20  O   UNL A   1      45.782  32.790  30.439  1.00  0.00    -0.289 OA
BRANCH  19  21
ATOM     21  C   UNL A   1      44.007  33.559  29.114  1.00  0.00     0.058 A 
ATOM     22  C   UNL A   1      42.871  33.555  29.935  1.00  0.00     0.018 A 
ATOM     23  C   UNL A   1      44.054  34.417  28.009  1.00  0.00     0.137 A 
ATOM     24  C   UNL A   1      41.818  34.432  29.669  1.00  0.00     0.040 A 
ATOM     25  C   UNL A   1      43.006  35.293  27.741  1.00  0.00     0.079 A 
ATOM     26  F   UNL A   1      45.102  34.410  27.173  1.00  0.00    -0.206 F 
ATOM     27  C   UNL A   1      41.898  35.295  28.578  1.00  0.00     0.126 A 
ATOM     28  F   UNL A   1      40.887  36.136  28.330  1.00  0.00    -0.207 F 
ENDBRANCH  19  21
ENDBRANCH  18  19
ENDBRANCH  13  17
ENDBRANCH   7   8
ENDBRANCH   6   7
ENDBRANCH   4   6
ENDBRANCH   1   2
BRANCH   1  29
ATOM     29  C   UNL A   1      42.540  21.619  26.121  1.00  0.00     0.042 C 
BRANCH  29  30
ATOM     30  C   UNL A   1      41.585  22.627  26.749  1.00  0.00     0.118 C 
BRANCH  30  31
ATOM     31  N   UNL A   1      40.235  22.612  26.201  1.00  0.00    -0.352 N 
ATOM     32  C   UNL A   1      39.216  23.529  26.326  1.00  0.00     0.251 C 
ATOM     33  H   UNL A   1      40.018  21.821  25.655  1.00  0.00     0.163 HD
ATOM     34  O   UNL A   1      38.124  23.284  25.816  1.00  0.00    -0.269 OA
BRANCH  32  35
ATOM     35  C   UNL A   1      39.399  24.779  27.106  1.00  0.00     0.039 A 
ATOM     36  C   UNL A   1      38.981  24.801  28.441  1.00  0.00     0.014 A 
ATOM     37  C   UNL A   1      39.974  25.923  26.548  1.00  0.00     0.014 A 
ATOM     38  C   UNL A   1      39.222  25.929  29.232  1.00  0.00     0.010 A 
ATOM     39  C   UNL A   1      40.293  27.013  27.360  1.00  0.00     0.010 A 
ATOM     40  C   UNL A   1      39.925  27.028  28.714  1.00  0.00    -0.014 A 
BRANCH  40  41
ATOM     41  C   UNL A   1      40.289  28.187  29.575  1.00  0.00     0.031 A 
ATOM     42  C   UNL A   1      41.663  28.285  30.186  1.00  0.00     0.074 A 
ATOM     43  C   UNL A   1      39.361  29.123  29.862  1.00  0.00     0.049 A 
ATOM     44  N   UNL A   1      42.145  29.185  31.005  1.00  0.00    -0.248 NA
ATOM     45  C   UNL A   1      42.607  27.206  29.858  1.00  0.00     0.031 C 
ATOM     46  C   UNL A   1      37.975  29.114  29.386  1.00  0.00     0.029 A 
ATOM     47  N   UNL A   1      39.438  30.261  30.627  1.00  0.00    -0.354 N 
ATOM     48  C   UNL A   1      43.440  28.774  31.305  1.00  0.00     0.074 A 
ATOM     49  C   UNL A   1      43.641  27.510  30.627  1.00  0.00     0.031 C 
ATOM     50  C   UNL A   1      37.345  30.208  29.843  1.00  0.00     0.029 A 
ATOM     51  C   UNL A   1      38.264  30.977  30.676  1.00  0.00     0.049 A 
ATOM     52  H   UNL A   1      40.257  30.538  31.098  1.00  0.00     0.167 HD
ATOM     53  C   UNL A   1      44.382  29.403  32.052  1.00  0.00     0.034 A 
ATOM     54  C   UNL A   1      37.959  32.121  31.318  1.00  0.00     0.034 A 
ATOM     55  C   UNL A   1      44.177  30.673  32.704  1.00  0.00     0.049 A 
ATOM     56  C   UNL A   1      39.026  32.811  32.128  1.00  0.00     0.074 A 
ATOM     57  C   UNL A   1      45.082  31.427  33.434  1.00  0.00     0.029 A 
ATOM     58  N   UNL A   1      42.981  31.382  32.709  1.00  0.00    -0.354 N 
ATOM     59  N   UNL A   1      40.264  32.437  32.354  1.00  0.00    -0.248 NA
ATOM     60  C   UNL A   1      38.657  34.086  32.757  1.00  0.00     0.031 C 
ATOM     61  C   UNL A   1      44.419  32.557  33.926  1.00  0.00     0.029 A 
ATOM     62  C   UNL A   1      43.120  32.548  33.447  1.00  0.00     0.049 A 
ATOM     63  H   UNL A   1      42.156  31.097  32.255  1.00  0.00     0.167 HD
ATOM     64  C   UNL A   1      40.829  33.447  33.128  1.00  0.00     0.074 A 
ATOM     65  C   UNL A   1      39.803  34.452  33.313  1.00  0.00     0.031 C 
ATOM     66  C   UNL A   1      42.085  33.538  33.636  1.00  0.00     0.034 A 
BRANCH  53  67
ATOM     67  C   UNL A   1      45.714  28.706  32.215  1.00  0.00     0.023 A 
ATOM     68  C   UNL A   1      46.813  29.017  31.393  1.00  0.00     0.031 A 
ATOM     69  C   UNL A   1      45.880  27.696  33.178  1.00  0.00     0.131 A 
ATOM     70  C   UNL A   1      47.996  28.269  31.493  1.00  0.00     0.055 A 
ATOM     71  C   UNL A   1      47.089  27.013  33.330  1.00  0.00     0.041 A 
ATOM     72  F   UNL A   1      44.863  27.342  33.980  1.00  0.00    -0.206 F 
ATOM     73  C   UNL A   1      48.151  27.287  32.473  1.00  0.00     0.022 A 
BRANCH  70  74
ATOM     74  S   UNL A   1      49.274  28.499  30.226  1.00  0.00     0.124 S 
ATOM     75  O   UNL A   1      50.483  28.591  31.042  1.00  0.00    -0.237 OA
ATOM     76  O   UNL A   1      49.138  27.293  29.418  1.00  0.00    -0.237 OA
ATOM     77  O   UNL A   1      48.881  29.742  29.565  1.00  0.00    -0.744 OA
ENDBRANCH  70  74
ENDBRANCH  53  67
BRANCH  54  78
ATOM     78  C   UNL A   1      36.588  32.699  31.224  1.00  0.00     0.023 A 
ATOM     79  C   UNL A   1      36.102  33.211  30.010  1.00  0.00     0.031 A 
ATOM     80  C   UNL A   1      35.758  32.785  32.356  1.00  0.00     0.131 A 
ATOM     81  C   UNL A   1      34.843  33.829  29.965  1.00  0.00     0.055 A 
ATOM     82  C   UNL A   1      34.486  33.356  32.295  1.00  0.00     0.041 A 
ATOM     83  F   UNL A   1      36.172  32.302  33.538  1.00  0.00    -0.206 F 
ATOM     84  C   UNL A   1      34.027  33.895  31.097  1.00  0.00     0.022 A 
BRANCH  81  85
ATOM     85  S   UNL A   1      34.317  34.617  28.419  1.00  0.00     0.124 S 
ATOM     86  O   UNL A   1      35.105  33.890  27.431  1.00  0.00    -0.237 OA
ATOM     87  O   UNL A   1      32.882  34.351  28.416  1.00  0.00    -0.237 OA
ATOM     88  O   UNL A   1      34.688  36.018  28.608  1.00  0.00    -0.744 OA
ENDBRANCH  81  85
ENDBRANCH  54  78
BRANCH  66  89
ATOM     89  C   UNL A   1      42.419  34.793  34.404  1.00  0.00     0.023 A 
ATOM     90  C   UNL A   1      42.332  34.846  35.807  1.00  0.00     0.031 A 
ATOM     91  C   UNL A   1      42.801  35.959  33.719  1.00  0.00     0.131 A 
ATOM     92  C   UNL A   1      42.562  36.059  36.475  1.00  0.00     0.055 A 
ATOM     93  C   UNL A   1      43.085  37.147  34.394  1.00  0.00     0.041 A 
ATOM     94  F   UNL A   1      42.899  35.964  32.380  1.00  0.00    -0.206 F 
ATOM     95  C   UNL A   1      42.951  37.207  35.778  1.00  0.00     0.022 A 
BRANCH  92  96
ATOM     96  S   UNL A   1      42.244  36.145  38.259  1.00  0.00     0.124 S 
ATOM     97  O   UNL A   1      41.378  34.989  38.470  1.00  0.00    -0.237 OA
ATOM     98  O   UNL A   1      43.588  36.044  38.819  1.00  0.00    -0.237 OA
ATOM     99  O   UNL A   1      41.597  37.444  38.431  1.00  0.00    -0.744 OA
ENDBRANCH  92  96
ENDBRANCH  66  89
ENDBRANCH  40  41
ENDBRANCH  32  35
ENDBRANCH  30  31
ENDBRANCH  29  30
ENDBRANCH   1  29
TORSDOF 19
ENDMDL
