MODEL 1
REMARK VINA RESULT:     -11.5      0.000      0.000
REMARK SMILES CC(C)[NH2+][C@@]1(C(=O)NCCCNC(=O)c2ccc(-c3c4nc(c(-c5cc(S(=O)(=O)[O-])ccc5F)c5ccc([nH]5)c(-c5cc(S(=O)(=O)[O-])ccc5F)c5nc(c(-c6cc(S(=O)(=O)[O-])ccc6F)c6ccc3[nH]6)C=C5)C=C4)cc2)CCC[C@@H]([NH+]2CCS(=O)CC2)C1
REMARK SMILES IDX 10 1 9 2 8 3 6 4 7 5 5 7 78 8 89 9 79 10 81 11 80 12 4 13
REMARK SMILES IDX 2 16 1 17 3 18 82 19 83 20 88 21 84 23 87 24 85 25 86 26
REMARK SMILES IDX 11 27 12 28 13 29 14 31 15 32 16 33 77 34 17 35 76 36 18 37
REMARK SMILES IDX 19 38 20 39 70 40 21 41 75 42 69 43 71 44 22 45 74 46 68 47
REMARK SMILES IDX 67 48 23 50 55 51 35 52 54 53 36 54 39 55 53 56 72 57 37 58
REMARK SMILES IDX 38 59 52 61 73 62 40 63 24 64 25 65 33 66 26 67 32 68 34 69
REMARK SMILES IDX 31 70 27 71 28 72 29 73 30 74 56 75 57 76 65 77 58 78 64 79
REMARK SMILES IDX 66 80 63 81 59 82 60 83 61 84 62 85 41 86 42 87 50 88 43 89
REMARK SMILES IDX 49 90 51 91 48 92 44 93 45 94 46 95 47 96
REMARK H PARENT 8 6 4 14 4 15 82 22 12 30 71 49 39 60
REMARK Flexibility Score: inf
ROOT
ATOM      1  C   UNL A   1      31.392  31.686  26.582  1.00  0.00     0.042 C 
ENDROOT
BRANCH   1   2
ATOM      2  C   UNL A   1      31.596  30.452  25.721  1.00  0.00     0.118 C 
BRANCH   2   3
ATOM      3  N   UNL A   1      31.963  29.284  26.500  1.00  0.00    -0.351 N 
ATOM      4  C   UNL A   1      32.912  28.404  26.055  1.00  0.00     0.281 C 
ATOM      5  O   UNL A   1      34.036  28.475  26.565  1.00  0.00    -0.268 OA
ATOM      6  H   UNL A   1      31.522  29.122  27.364  1.00  0.00     0.163 HD
BRANCH   4   7
ATOM      7  C   UNL A   1      32.552  27.251  25.042  1.00  0.00     0.181 C 
ATOM      8  C   UNL A   1      31.143  26.707  25.363  1.00  0.00     0.079 C 
ATOM      9  C   UNL A   1      33.536  26.082  24.892  1.00  0.00     0.144 C 
ATOM     10  C   UNL A   1      31.097  25.681  26.494  1.00  0.00     0.013 C 
ATOM     11  C   UNL A   1      33.550  25.039  26.014  1.00  0.00     0.190 C 
ATOM     12  C   UNL A   1      32.131  24.556  26.362  1.00  0.00     0.065 C 
BRANCH   7  13
ATOM     13  N   UNL A   1      32.428  27.931  23.693  1.00  0.00    -0.331 N 
ATOM     14  H   UNL A   1      32.418  28.936  23.860  1.00  0.00     0.347 HD
ATOM     15  H   UNL A   1      33.221  27.578  23.156  1.00  0.00     0.347 HD
BRANCH  13  16
ATOM     16  C   UNL A   1      31.248  27.610  22.864  1.00  0.00     0.176 C 
ATOM     17  C   UNL A   1      30.691  28.933  22.328  1.00  0.00     0.075 C 
ATOM     18  C   UNL A   1      31.529  26.672  21.688  1.00  0.00     0.075 C 
ENDBRANCH  13  16
ENDBRANCH   7  13
BRANCH  11  19
ATOM     19  N   UNL A   1      34.600  24.008  25.904  1.00  0.00    -0.331 N 
ATOM     20  C   UNL A   1      34.653  22.888  26.837  1.00  0.00     0.276 C 
ATOM     21  C   UNL A   1      35.045  23.610  24.557  1.00  0.00     0.276 C 
ATOM     22  H   UNL A   1      35.303  24.646  26.279  1.00  0.00     0.348 HD
ATOM     23  C   UNL A   1      33.755  21.719  26.457  1.00  0.00     0.166 C 
ATOM     24  C   UNL A   1      34.225  22.493  23.905  1.00  0.00     0.166 C 
ATOM     25  S   UNL A   1      34.233  20.963  24.874  1.00  0.00     0.032 S 
ATOM     26  O   UNL A   1      35.646  20.478  24.981  1.00  0.00    -0.259 OA
ENDBRANCH  11  19
ENDBRANCH   4   7
ENDBRANCH   2   3
ENDBRANCH   1   2
BRANCH   1  27
ATOM     27  C   UNL A   1      32.689  32.226  27.139  1.00  0.00     0.118 C 
BRANCH  27  28
ATOM     28  N   UNL A   1      32.570  33.633  27.502  1.00  0.00    -0.352 N 
ATOM     29  C   UNL A   1      33.209  34.341  28.493  1.00  0.00     0.251 C 
ATOM     30  H   UNL A   1      31.938  34.155  26.957  1.00  0.00     0.163 HD
ATOM     31  O   UNL A   1      32.771  35.433  28.834  1.00  0.00    -0.269 OA
BRANCH  29  32
ATOM     32  C   UNL A   1      34.407  33.768  29.144  1.00  0.00     0.039 A 
ATOM     33  C   UNL A   1      35.671  34.275  28.841  1.00  0.00     0.014 A 
ATOM     34  C   UNL A   1      34.273  32.724  30.060  1.00  0.00     0.014 A 
ATOM     35  C   UNL A   1      36.792  33.771  29.506  1.00  0.00     0.010 A 
ATOM     36  C   UNL A   1      35.361  32.329  30.820  1.00  0.00     0.010 A 
ATOM     37  C   UNL A   1      36.639  32.819  30.527  1.00  0.00    -0.014 A 
BRANCH  37  38
ATOM     38  C   UNL A   1      37.797  32.245  31.258  1.00  0.00     0.031 A 
ATOM     39  C   UNL A   1      38.548  31.092  30.642  1.00  0.00     0.074 A 
ATOM     40  C   UNL A   1      38.120  32.699  32.485  1.00  0.00     0.049 A 
ATOM     41  N   UNL A   1      39.479  30.334  31.161  1.00  0.00    -0.248 NA
ATOM     42  C   UNL A   1      38.163  30.708  29.272  1.00  0.00     0.031 C 
ATOM     43  C   UNL A   1      37.444  33.788  33.192  1.00  0.00     0.029 A 
ATOM     44  N   UNL A   1      39.097  32.293  33.359  1.00  0.00    -0.354 N 
ATOM     45  C   UNL A   1      39.769  29.378  30.193  1.00  0.00     0.074 A 
ATOM     46  C   UNL A   1      38.853  29.595  29.096  1.00  0.00     0.031 C 
ATOM     47  C   UNL A   1      38.050  33.988  34.374  1.00  0.00     0.029 A 
ATOM     48  C   UNL A   1      39.116  33.005  34.537  1.00  0.00     0.049 A 
ATOM     49  H   UNL A   1      39.725  31.562  33.162  1.00  0.00     0.167 HD
ATOM     50  C   UNL A   1      40.738  28.431  30.199  1.00  0.00     0.034 A 
ATOM     51  C   UNL A   1      39.896  32.865  35.626  1.00  0.00     0.034 A 
ATOM     52  C   UNL A   1      41.661  28.253  31.290  1.00  0.00     0.049 A 
ATOM     53  C   UNL A   1      40.944  31.777  35.627  1.00  0.00     0.074 A 
ATOM     54  C   UNL A   1      42.705  27.353  31.398  1.00  0.00     0.029 A 
ATOM     55  N   UNL A   1      41.654  29.000  32.462  1.00  0.00    -0.354 N 
ATOM     56  N   UNL A   1      41.223  30.896  34.693  1.00  0.00    -0.248 NA
ATOM     57  C   UNL A   1      41.789  31.671  36.823  1.00  0.00     0.031 C 
ATOM     58  C   UNL A   1      43.286  27.509  32.660  1.00  0.00     0.029 A 
ATOM     59  C   UNL A   1      42.664  28.566  33.305  1.00  0.00     0.049 A 
ATOM     60  H   UNL A   1      41.025  29.729  32.663  1.00  0.00     0.167 HD
ATOM     61  C   UNL A   1      42.308  30.167  35.172  1.00  0.00     0.074 A 
ATOM     62  C   UNL A   1      42.635  30.716  36.471  1.00  0.00     0.031 C 
ATOM     63  C   UNL A   1      42.980  29.140  34.590  1.00  0.00     0.034 A 
BRANCH  50  64
ATOM     64  C   UNL A   1      40.834  27.523  28.997  1.00  0.00     0.023 A 
ATOM     65  C   UNL A   1      41.795  27.733  27.991  1.00  0.00     0.031 A 
ATOM     66  C   UNL A   1      39.940  26.450  28.836  1.00  0.00     0.131 A 
ATOM     67  C   UNL A   1      41.789  26.936  26.837  1.00  0.00     0.055 A 
ATOM     68  C   UNL A   1      39.998  25.603  27.728  1.00  0.00     0.041 A 
ATOM     69  F   UNL A   1      38.984  26.214  29.748  1.00  0.00    -0.206 F 
ATOM     70  C   UNL A   1      40.917  25.853  26.712  1.00  0.00     0.022 A 
BRANCH  67  71
ATOM     71  S   UNL A   1      42.835  27.430  25.441  1.00  0.00     0.124 S 
ATOM     72  O   UNL A   1      44.076  27.796  26.118  1.00  0.00    -0.237 OA
ATOM     73  O   UNL A   1      42.882  26.216  24.635  1.00  0.00    -0.237 OA
ATOM     74  O   UNL A   1      42.106  28.547  24.845  1.00  0.00    -0.744 OA
ENDBRANCH  67  71
ENDBRANCH  50  64
BRANCH  51  75
ATOM     75  C   UNL A   1      39.731  33.762  36.809  1.00  0.00     0.023 A 
ATOM     76  C   UNL A   1      40.616  34.830  37.028  1.00  0.00     0.031 A 
ATOM     77  C   UNL A   1      38.736  33.527  37.773  1.00  0.00     0.131 A 
ATOM     78  C   UNL A   1      40.535  35.577  38.213  1.00  0.00     0.055 A 
ATOM     79  C   UNL A   1      38.616  34.316  38.919  1.00  0.00     0.041 A 
ATOM     80  F   UNL A   1      37.861  32.521  37.616  1.00  0.00    -0.206 F 
ATOM     81  C   UNL A   1      39.533  35.337  39.154  1.00  0.00     0.022 A 
BRANCH  78  82
ATOM     82  S   UNL A   1      41.845  36.781  38.565  1.00  0.00     0.124 S 
ATOM     83  O   UNL A   1      41.097  37.847  39.222  1.00  0.00    -0.237 OA
ATOM     84  O   UNL A   1      42.743  36.010  39.418  1.00  0.00    -0.237 OA
ATOM     85  O   UNL A   1      42.370  37.109  37.242  1.00  0.00    -0.744 OA
ENDBRANCH  78  82
ENDBRANCH  51  75
BRANCH  63  86
ATOM     86  C   UNL A   1      44.185  28.602  35.321  1.00  0.00     0.023 A 
ATOM     87  C   UNL A   1      44.071  27.663  36.359  1.00  0.00     0.031 A 
ATOM     88  C   UNL A   1      45.474  29.034  34.956  1.00  0.00     0.131 A 
ATOM     89  C   UNL A   1      45.221  27.227  37.034  1.00  0.00     0.055 A 
ATOM     90  C   UNL A   1      46.618  28.546  35.586  1.00  0.00     0.041 A 
ATOM     91  F   UNL A   1      45.640  29.931  33.971  1.00  0.00    -0.206 F 
ATOM     92  C   UNL A   1      46.495  27.646  36.640  1.00  0.00     0.022 A 
BRANCH  89  93
ATOM     93  S   UNL A   1      45.026  26.170  38.494  1.00  0.00     0.124 S 
ATOM     94  O   UNL A   1      46.056  26.691  39.386  1.00  0.00    -0.237 OA
ATOM     95  O   UNL A   1      43.647  26.437  38.890  1.00  0.00    -0.237 OA
ATOM     96  O   UNL A   1      45.274  24.825  37.980  1.00  0.00    -0.744 OA
ENDBRANCH  89  93
ENDBRANCH  63  86
ENDBRANCH  37  38
ENDBRANCH  29  32
ENDBRANCH  27  28
ENDBRANCH   1  27
TORSDOF 16
ENDMDL
MODEL 2
REMARK VINA RESULT:     -11.4      2.881      4.112
REMARK SMILES CC(C)[NH2+][C@@]1(C(=O)NCCCNC(=O)c2ccc(-c3c4nc(c(-c5cc(S(=O)(=O)[O-])ccc5F)c5ccc([nH]5)c(-c5cc(S(=O)(=O)[O-])ccc5F)c5nc(c(-c6cc(S(=O)(=O)[O-])ccc6F)c6ccc3[nH]6)C=C5)C=C4)cc2)CCC[C@@H]([NH+]2CCS(=O)CC2)C1
REMARK SMILES IDX 10 1 9 2 8 3 6 4 7 5 5 7 78 8 89 9 79 10 81 11 80 12 4 13
REMARK SMILES IDX 2 16 1 17 3 18 82 19 83 20 88 21 84 23 87 24 85 25 86 26
REMARK SMILES IDX 11 27 12 28 13 29 14 31 15 32 16 33 77 34 17 35 76 36 18 37
REMARK SMILES IDX 19 38 20 39 70 40 21 41 75 42 69 43 71 44 22 45 74 46 68 47
REMARK SMILES IDX 67 48 23 50 55 51 35 52 54 53 36 54 39 55 53 56 72 57 37 58
REMARK SMILES IDX 38 59 52 61 73 62 40 63 24 64 25 65 33 66 26 67 32 68 34 69
REMARK SMILES IDX 31 70 27 71 28 72 29 73 30 74 56 75 57 76 65 77 58 78 64 79
REMARK SMILES IDX 66 80 63 81 59 82 60 83 61 84 62 85 41 86 42 87 50 88 43 89
REMARK SMILES IDX 49 90 51 91 48 92 44 93 45 94 46 95 47 96
REMARK H PARENT 8 6 4 14 4 15 82 22 12 30 71 49 39 60
REMARK Flexibility Score: inf
ROOT
ATOM      1  C   UNL A   1      32.795  27.687  24.881  1.00  0.00     0.042 C 
ENDROOT
BRANCH   1   2
ATOM      2  C   UNL A   1      33.583  26.414  24.627  1.00  0.00     0.118 C 
BRANCH   2   3
ATOM      3  N   UNL A   1      32.775  25.218  24.781  1.00  0.00    -0.351 N 
ATOM      4  C   UNL A   1      33.321  24.043  25.220  1.00  0.00     0.281 C 
ATOM      5  O   UNL A   1      33.116  23.726  26.397  1.00  0.00    -0.268 OA
ATOM      6  H   UNL A   1      31.815  25.253  24.566  1.00  0.00     0.163 HD
BRANCH   4   7
ATOM      7  C   UNL A   1      34.059  23.061  24.232  1.00  0.00     0.181 C 
ATOM      8  C   UNL A   1      33.612  23.358  22.784  1.00  0.00     0.079 C 
ATOM      9  C   UNL A   1      33.967  21.552  24.503  1.00  0.00     0.144 C 
ATOM     10  C   UNL A   1      32.286  22.713  22.380  1.00  0.00     0.013 C 
ATOM     11  C   UNL A   1      32.648  20.862  24.143  1.00  0.00     0.190 C 
ATOM     12  C   UNL A   1      32.187  21.221  22.719  1.00  0.00     0.065 C 
BRANCH   7  13
ATOM     13  N   UNL A   1      35.521  23.457  24.295  1.00  0.00    -0.331 N 
ATOM     14  H   UNL A   1      35.924  23.274  23.377  1.00  0.00     0.347 HD
ATOM     15  H   UNL A   1      35.507  24.435  24.586  1.00  0.00     0.347 HD
BRANCH  13  16
ATOM     16  C   UNL A   1      36.376  22.786  25.294  1.00  0.00     0.176 C 
ATOM     17  C   UNL A   1      37.329  21.858  24.533  1.00  0.00     0.075 C 
ATOM     18  C   UNL A   1      37.195  23.732  26.175  1.00  0.00     0.075 C 
ENDBRANCH  13  16
ENDBRANCH   7  13
BRANCH  11  19
ATOM     19  N   UNL A   1      32.547  19.446  24.543  1.00  0.00    -0.331 N 
ATOM     20  C   UNL A   1      31.909  18.463  23.673  1.00  0.00     0.276 C 
ATOM     21  C   UNL A   1      33.669  18.854  25.292  1.00  0.00     0.276 C 
ATOM     22  H   UNL A   1      31.813  19.660  25.216  1.00  0.00     0.348 HD
ATOM     23  C   UNL A   1      32.829  17.883  22.608  1.00  0.00     0.166 C 
ATOM     24  C   UNL A   1      34.794  18.274  24.430  1.00  0.00     0.166 C 
ATOM     25  S   UNL A   1      34.221  16.959  23.324  1.00  0.00     0.032 S 
ATOM     26  O   UNL A   1      33.676  15.842  24.161  1.00  0.00    -0.259 OA
ENDBRANCH  11  19
ENDBRANCH   4   7
ENDBRANCH   2   3
ENDBRANCH   1   2
BRANCH   1  27
ATOM     27  C   UNL A   1      33.675  28.915  24.924  1.00  0.00     0.118 C 
BRANCH  27  28
ATOM     28  N   UNL A   1      32.965  30.063  25.474  1.00  0.00    -0.352 N 
ATOM     29  C   UNL A   1      33.178  30.748  26.647  1.00  0.00     0.251 C 
ATOM     30  H   UNL A   1      32.219  30.397  24.924  1.00  0.00     0.163 HD
ATOM     31  O   UNL A   1      32.307  31.494  27.079  1.00  0.00    -0.269 OA
BRANCH  29  32
ATOM     32  C   UNL A   1      34.450  30.564  27.379  1.00  0.00     0.039 A 
ATOM     33  C   UNL A   1      35.302  31.653  27.574  1.00  0.00     0.014 A 
ATOM     34  C   UNL A   1      34.797  29.307  27.874  1.00  0.00     0.014 A 
ATOM     35  C   UNL A   1      36.472  31.485  28.320  1.00  0.00     0.010 A 
ATOM     36  C   UNL A   1      35.876  29.177  28.732  1.00  0.00     0.010 A 
ATOM     37  C   UNL A   1      36.748  30.253  28.935  1.00  0.00    -0.014 A 
BRANCH  37  38
ATOM     38  C   UNL A   1      37.980  30.020  29.729  1.00  0.00     0.031 A 
ATOM     39  C   UNL A   1      39.043  29.106  29.174  1.00  0.00     0.074 A 
ATOM     40  C   UNL A   1      38.109  30.557  30.959  1.00  0.00     0.049 A 
ATOM     41  N   UNL A   1      40.117  28.633  29.752  1.00  0.00    -0.248 NA
ATOM     42  C   UNL A   1      38.842  28.618  27.798  1.00  0.00     0.031 C 
ATOM     43  C   UNL A   1      37.131  31.431  31.610  1.00  0.00     0.029 A 
ATOM     44  N   UNL A   1      39.114  30.439  31.884  1.00  0.00    -0.354 N 
ATOM     45  C   UNL A   1      40.700  27.780  28.820  1.00  0.00     0.074 A 
ATOM     46  C   UNL A   1      39.814  27.730  27.679  1.00  0.00     0.031 C 
ATOM     47  C   UNL A   1      37.602  31.800  32.812  1.00  0.00     0.029 A 
ATOM     48  C   UNL A   1      38.883  31.142  33.045  1.00  0.00     0.049 A 
ATOM     49  H   UNL A   1      39.925  29.902  31.733  1.00  0.00     0.167 HD
ATOM     50  C   UNL A   1      41.886  27.130  28.892  1.00  0.00     0.034 A 
ATOM     51  C   UNL A   1      39.618  31.229  34.171  1.00  0.00     0.034 A 
ATOM     52  C   UNL A   1      42.769  27.219  30.026  1.00  0.00     0.049 A 
ATOM     53  C   UNL A   1      40.919  30.464  34.243  1.00  0.00     0.074 A 
ATOM     54  C   UNL A   1      44.010  26.634  30.202  1.00  0.00     0.029 A 
ATOM     55  N   UNL A   1      42.504  27.948  31.179  1.00  0.00    -0.354 N 
ATOM     56  N   UNL A   1      41.469  29.681  33.343  1.00  0.00    -0.248 NA
ATOM     57  C   UNL A   1      41.701  30.602  35.479  1.00  0.00     0.031 C 
ATOM     58  C   UNL A   1      44.465  26.955  31.484  1.00  0.00     0.029 A 
ATOM     59  C   UNL A   1      43.550  27.811  32.076  1.00  0.00     0.049 A 
ATOM     60  H   UNL A   1      41.693  28.482  31.335  1.00  0.00     0.167 HD
ATOM     61  C   UNL A   1      42.686  29.277  33.888  1.00  0.00     0.074 A 
ATOM     62  C   UNL A   1      42.789  29.907  35.186  1.00  0.00     0.031 C 
ATOM     63  C   UNL A   1      43.637  28.463  33.360  1.00  0.00     0.034 A 
BRANCH  50  64
ATOM     64  C   UNL A   1      42.282  26.268  27.716  1.00  0.00     0.023 A 
ATOM     65  C   UNL A   1      41.805  24.953  27.574  1.00  0.00     0.031 A 
ATOM     66  C   UNL A   1      43.167  26.754  26.739  1.00  0.00     0.131 A 
ATOM     67  C   UNL A   1      42.274  24.145  26.528  1.00  0.00     0.055 A 
ATOM     68  C   UNL A   1      43.560  25.975  25.648  1.00  0.00     0.041 A 
ATOM     69  F   UNL A   1      43.678  27.992  26.832  1.00  0.00    -0.206 F 
ATOM     70  C   UNL A   1      43.125  24.657  25.547  1.00  0.00     0.022 A 
BRANCH  67  71
ATOM     71  S   UNL A   1      41.875  22.377  26.557  1.00  0.00     0.124 S 
ATOM     72  O   UNL A   1      42.511  21.911  25.327  1.00  0.00    -0.237 OA
ATOM     73  O   UNL A   1      42.491  21.933  27.802  1.00  0.00    -0.237 OA
ATOM     74  O   UNL A   1      40.414  22.355  26.541  1.00  0.00    -0.744 OA
ENDBRANCH  67  71
ENDBRANCH  50  64
BRANCH  51  75
ATOM     75  C   UNL A   1      39.161  32.061  35.323  1.00  0.00     0.023 A 
ATOM     76  C   UNL A   1      38.564  31.466  36.446  1.00  0.00     0.031 A 
ATOM     77  C   UNL A   1      39.247  33.464  35.293  1.00  0.00     0.131 A 
ATOM     78  C   UNL A   1      38.013  32.268  37.457  1.00  0.00     0.055 A 
ATOM     79  C   UNL A   1      38.759  34.257  36.335  1.00  0.00     0.041 A 
ATOM     80  F   UNL A   1      39.810  34.088  34.246  1.00  0.00    -0.206 F 
ATOM     81  C   UNL A   1      38.119  33.660  37.416  1.00  0.00     0.022 A 
BRANCH  78  82
ATOM     82  S   UNL A   1      37.039  31.468  38.761  1.00  0.00     0.124 S 
ATOM     83  O   UNL A   1      35.840  32.298  38.787  1.00  0.00    -0.237 OA
ATOM     84  O   UNL A   1      36.873  30.119  38.230  1.00  0.00    -0.237 OA
ATOM     85  O   UNL A   1      37.898  31.572  39.939  1.00  0.00    -0.744 OA
ENDBRANCH  78  82
ENDBRANCH  51  75
BRANCH  63  86
ATOM     86  C   UNL A   1      44.905  28.277  34.156  1.00  0.00     0.023 A 
ATOM     87  C   UNL A   1      45.060  27.231  35.081  1.00  0.00     0.031 A 
ATOM     88  C   UNL A   1      45.982  29.163  33.970  1.00  0.00     0.131 A 
ATOM     89  C   UNL A   1      46.245  27.129  35.825  1.00  0.00     0.055 A 
ATOM     90  C   UNL A   1      47.182  29.017  34.665  1.00  0.00     0.041 A 
ATOM     91  F   UNL A   1      45.887  30.182  33.100  1.00  0.00    -0.206 F 
ATOM     92  C   UNL A   1      47.314  28.003  35.608  1.00  0.00     0.022 A 
BRANCH  89  93
ATOM     93  S   UNL A   1      46.338  25.893  37.148  1.00  0.00     0.124 S 
ATOM     94  O   UNL A   1      47.770  25.847  37.421  1.00  0.00    -0.237 OA
ATOM     95  O   UNL A   1      45.510  26.489  38.191  1.00  0.00    -0.237 OA
ATOM     96  O   UNL A   1      45.785  24.689  36.531  1.00  0.00    -0.744 OA
ENDBRANCH  89  93
ENDBRANCH  63  86
ENDBRANCH  37  38
ENDBRANCH  29  32
ENDBRANCH  27  28
ENDBRANCH   1  27
TORSDOF 16
ENDMDL
MODEL 3
REMARK VINA RESULT:     -11.4      5.565     10.550
REMARK SMILES CC(C)[NH2+][C@@]1(C(=O)NCCCNC(=O)c2ccc(-c3c4nc(c(-c5cc(S(=O)(=O)[O-])ccc5F)c5ccc([nH]5)c(-c5cc(S(=O)(=O)[O-])ccc5F)c5nc(c(-c6cc(S(=O)(=O)[O-])ccc6F)c6ccc3[nH]6)C=C5)C=C4)cc2)CCC[C@@H]([NH+]2CCS(=O)CC2)C1
REMARK SMILES IDX 10 1 9 2 8 3 6 4 7 5 5 7 78 8 89 9 79 10 81 11 80 12 4 13
REMARK SMILES IDX 2 16 1 17 3 18 82 19 83 20 88 21 84 23 87 24 85 25 86 26
REMARK SMILES IDX 11 27 12 28 13 29 14 31 15 32 16 33 77 34 17 35 76 36 18 37
REMARK SMILES IDX 19 38 20 39 70 40 21 41 75 42 69 43 71 44 22 45 74 46 68 47
REMARK SMILES IDX 67 48 23 50 55 51 35 52 54 53 36 54 39 55 53 56 72 57 37 58
REMARK SMILES IDX 38 59 52 61 73 62 40 63 24 64 25 65 33 66 26 67 32 68 34 69
REMARK SMILES IDX 31 70 27 71 28 72 29 73 30 74 56 75 57 76 65 77 58 78 64 79
REMARK SMILES IDX 66 80 63 81 59 82 60 83 61 84 62 85 41 86 42 87 50 88 43 89
REMARK SMILES IDX 49 90 51 91 48 92 44 93 45 94 46 95 47 96
REMARK H PARENT 8 6 4 14 4 15 82 22 12 30 71 49 39 60
REMARK Flexibility Score: inf
ROOT
ATOM      1  C   UNL A   1      35.524  22.941  24.729  1.00  0.00     0.042 C 
ENDROOT
BRANCH   1   2
ATOM      2  C   UNL A   1      34.640  21.762  24.362  1.00  0.00     0.118 C 
BRANCH   2   3
ATOM      3  N   UNL A   1      33.637  22.105  23.371  1.00  0.00    -0.351 N 
ATOM      4  C   UNL A   1      33.293  23.407  23.130  1.00  0.00     0.281 C 
ATOM      5  O   UNL A   1      33.755  23.938  22.113  1.00  0.00    -0.268 OA
ATOM      6  H   UNL A   1      33.195  21.387  22.863  1.00  0.00     0.163 HD
BRANCH   4   7
ATOM      7  C   UNL A   1      32.239  24.158  24.030  1.00  0.00     0.181 C 
ATOM      8  C   UNL A   1      31.024  24.563  23.167  1.00  0.00     0.079 C 
ATOM      9  C   UNL A   1      32.713  25.365  24.852  1.00  0.00     0.144 C 
ATOM     10  C   UNL A   1      31.209  25.851  22.367  1.00  0.00     0.013 C 
ATOM     11  C   UNL A   1      32.942  26.675  24.093  1.00  0.00     0.190 C 
ATOM     12  C   UNL A   1      31.746  27.028  23.191  1.00  0.00     0.065 C 
BRANCH   7  13
ATOM     13  N   UNL A   1      31.721  23.111  24.995  1.00  0.00    -0.331 N 
ATOM     14  H   UNL A   1      30.782  22.857  24.693  1.00  0.00     0.347 HD
ATOM     15  H   UNL A   1      32.416  22.364  24.957  1.00  0.00     0.347 HD
BRANCH  13  16
ATOM     16  C   UNL A   1      31.641  23.469  26.426  1.00  0.00     0.176 C 
ATOM     17  C   UNL A   1      30.203  23.207  26.885  1.00  0.00     0.075 C 
ATOM     18  C   UNL A   1      32.605  22.700  27.333  1.00  0.00     0.075 C 
ENDBRANCH  13  16
ENDBRANCH   7  13
BRANCH  11  19
ATOM     19  N   UNL A   1      33.527  27.771  24.889  1.00  0.00    -0.331 N 
ATOM     20  C   UNL A   1      33.248  29.166  24.565  1.00  0.00     0.276 C 
ATOM     21  C   UNL A   1      33.673  27.575  26.341  1.00  0.00     0.276 C 
ATOM     22  H   UNL A   1      34.444  27.623  24.469  1.00  0.00     0.348 HD
ATOM     23  C   UNL A   1      31.954  29.698  25.165  1.00  0.00     0.166 C 
ATOM     24  C   UNL A   1      32.447  27.954  27.177  1.00  0.00     0.166 C 
ATOM     25  S   UNL A   1      31.979  29.693  26.982  1.00  0.00     0.032 S 
ATOM     26  O   UNL A   1      33.120  30.544  27.449  1.00  0.00    -0.259 OA
ENDBRANCH  11  19
ENDBRANCH   4   7
ENDBRANCH   2   3
ENDBRANCH   1   2
BRANCH   1  27
ATOM     27  C   UNL A   1      36.232  22.747  26.050  1.00  0.00     0.118 C 
BRANCH  27  28
ATOM     28  N   UNL A   1      37.120  21.591  26.016  1.00  0.00    -0.352 N 
ATOM     29  C   UNL A   1      38.493  21.536  26.068  1.00  0.00     0.251 C 
ATOM     30  H   UNL A   1      36.669  20.718  25.945  1.00  0.00     0.163 HD
ATOM     31  O   UNL A   1      39.069  20.507  25.735  1.00  0.00    -0.269 OA
BRANCH  29  32
ATOM     32  C   UNL A   1      39.255  22.723  26.509  1.00  0.00     0.039 A 
ATOM     33  C   UNL A   1      40.294  22.579  27.431  1.00  0.00     0.014 A 
ATOM     34  C   UNL A   1      38.938  23.985  26.005  1.00  0.00     0.014 A 
ATOM     35  C   UNL A   1      41.049  23.696  27.795  1.00  0.00     0.010 A 
ATOM     36  C   UNL A   1      39.776  25.058  26.254  1.00  0.00     0.010 A 
ATOM     37  C   UNL A   1      40.818  24.938  27.181  1.00  0.00    -0.014 A 
BRANCH  37  38
ATOM     38  C   UNL A   1      41.586  26.157  27.539  1.00  0.00     0.031 A 
ATOM     39  C   UNL A   1      40.918  27.220  28.374  1.00  0.00     0.074 A 
ATOM     40  C   UNL A   1      42.832  26.341  27.060  1.00  0.00     0.049 A 
ATOM     41  N   UNL A   1      41.331  28.424  28.672  1.00  0.00    -0.248 NA
ATOM     42  C   UNL A   1      39.581  26.900  28.904  1.00  0.00     0.031 C 
ATOM     43  C   UNL A   1      43.566  25.395  26.217  1.00  0.00     0.029 A 
ATOM     44  N   UNL A   1      43.699  27.393  27.208  1.00  0.00    -0.354 N 
ATOM     45  C   UNL A   1      40.298  29.007  29.399  1.00  0.00     0.074 A 
ATOM     46  C   UNL A   1      39.207  28.060  29.417  1.00  0.00     0.031 C 
ATOM     47  C   UNL A   1      44.785  25.893  25.955  1.00  0.00     0.029 A 
ATOM     48  C   UNL A   1      44.899  27.217  26.556  1.00  0.00     0.049 A 
ATOM     49  H   UNL A   1      43.484  28.199  27.730  1.00  0.00     0.167 HD
ATOM     50  C   UNL A   1      40.276  30.206  30.029  1.00  0.00     0.034 A 
ATOM     51  C   UNL A   1      45.959  28.042  26.446  1.00  0.00     0.034 A 
ATOM     52  C   UNL A   1      41.388  31.121  30.024  1.00  0.00     0.049 A 
ATOM     53  C   UNL A   1      45.897  29.390  27.125  1.00  0.00     0.074 A 
ATOM     54  C   UNL A   1      41.497  32.349  30.653  1.00  0.00     0.029 A 
ATOM     55  N   UNL A   1      42.589  30.903  29.361  1.00  0.00    -0.354 N 
ATOM     56  N   UNL A   1      44.922  29.916  27.831  1.00  0.00    -0.248 NA
ATOM     57  C   UNL A   1      47.081  30.250  27.001  1.00  0.00     0.031 C 
ATOM     58  C   UNL A   1      42.736  32.902  30.316  1.00  0.00     0.029 A 
ATOM     59  C   UNL A   1      43.436  31.983  29.550  1.00  0.00     0.049 A 
ATOM     60  H   UNL A   1      42.806  30.101  28.834  1.00  0.00     0.167 HD
ATOM     61  C   UNL A   1      45.399  31.148  28.276  1.00  0.00     0.074 A 
ATOM     62  C   UNL A   1      46.747  31.279  27.764  1.00  0.00     0.031 C 
ATOM     63  C   UNL A   1      44.783  32.083  29.043  1.00  0.00     0.034 A 
BRANCH  50  64
ATOM     64  C   UNL A   1      39.012  30.585  30.762  1.00  0.00     0.023 A 
ATOM     65  C   UNL A   1      37.958  31.253  30.114  1.00  0.00     0.031 A 
ATOM     66  C   UNL A   1      38.866  30.303  32.132  1.00  0.00     0.131 A 
ATOM     67  C   UNL A   1      36.843  31.685  30.848  1.00  0.00     0.055 A 
ATOM     68  C   UNL A   1      37.713  30.654  32.837  1.00  0.00     0.041 A 
ATOM     69  F   UNL A   1      39.848  29.691  32.813  1.00  0.00    -0.206 F 
ATOM     70  C   UNL A   1      36.699  31.363  32.198  1.00  0.00     0.022 A 
BRANCH  67  71
ATOM     71  S   UNL A   1      35.659  32.800  30.045  1.00  0.00     0.124 S 
ATOM     72  O   UNL A   1      36.298  34.098  30.243  1.00  0.00    -0.237 OA
ATOM     73  O   UNL A   1      35.635  32.302  28.675  1.00  0.00    -0.237 OA
ATOM     74  O   UNL A   1      34.428  32.597  30.805  1.00  0.00    -0.744 OA
ENDBRANCH  67  71
ENDBRANCH  50  64
BRANCH  51  75
ATOM     75  C   UNL A   1      47.170  27.636  25.673  1.00  0.00     0.023 A 
ATOM     76  C   UNL A   1      47.310  27.988  24.321  1.00  0.00     0.031 A 
ATOM     77  C   UNL A   1      48.171  26.833  26.248  1.00  0.00     0.131 A 
ATOM     78  C   UNL A   1      48.382  27.483  23.571  1.00  0.00     0.055 A 
ATOM     79  C   UNL A   1      49.274  26.388  25.515  1.00  0.00     0.041 A 
ATOM     80  F   UNL A   1      48.092  26.466  27.537  1.00  0.00    -0.206 F 
ATOM     81  C   UNL A   1      49.374  26.697  24.161  1.00  0.00     0.022 A 
BRANCH  78  82
ATOM     82  S   UNL A   1      48.390  27.761  21.778  1.00  0.00     0.124 S 
ATOM     83  O   UNL A   1      48.642  26.416  21.272  1.00  0.00    -0.237 OA
ATOM     84  O   UNL A   1      47.050  28.291  21.549  1.00  0.00    -0.237 OA
ATOM     85  O   UNL A   1      49.478  28.716  21.587  1.00  0.00    -0.744 OA
ENDBRANCH  78  82
ENDBRANCH  51  75
BRANCH  63  86
ATOM     86  C   UNL A   1      45.594  33.292  29.441  1.00  0.00     0.023 A 
ATOM     87  C   UNL A   1      45.595  34.473  28.680  1.00  0.00     0.031 A 
ATOM     88  C   UNL A   1      46.368  33.257  30.615  1.00  0.00     0.131 A 
ATOM     89  C   UNL A   1      46.400  35.553  29.074  1.00  0.00     0.055 A 
ATOM     90  C   UNL A   1      47.114  34.358  31.035  1.00  0.00     0.041 A 
ATOM     91  F   UNL A   1      46.403  32.153  31.378  1.00  0.00    -0.206 F 
ATOM     92  C   UNL A   1      47.143  35.510  30.257  1.00  0.00     0.022 A 
BRANCH  89  93
ATOM     93  S   UNL A   1      46.535  36.985  27.970  1.00  0.00     0.124 S 
ATOM     94  O   UNL A   1      47.557  37.786  28.635  1.00  0.00    -0.237 OA
ATOM     95  O   UNL A   1      46.929  36.370  26.707  1.00  0.00    -0.237 OA
ATOM     96  O   UNL A   1      45.191  37.559  27.986  1.00  0.00    -0.744 OA
ENDBRANCH  89  93
ENDBRANCH  63  86
ENDBRANCH  37  38
ENDBRANCH  29  32
ENDBRANCH  27  28
ENDBRANCH   1  27
TORSDOF 16
ENDMDL
