MODEL 1
REMARK VINA RESULT:     -12.3      0.000      0.000
REMARK SMILES C[C@H]1[C@@H](C(=O)NCCCNC(=O)c2ccc(-c3c4nc(c(-c5cc(S(=O)(=O)[O-])ccc5F)c5ccc([nH]5)c(-c5cc(S(=O)(=O)[O-])ccc5F)c5nc(c(-c6cc(S(=O)(=O)[O-])ccc6F)c6ccc3[nH]6)C=C5)C=C4)cc2)CC[N@@H+]1Cc1cc(F)c(F)c(F)c1
REMARK SMILES IDX 8 1 7 2 6 3 4 4 5 5 3 7 1 8 2 9 78 10 76 11 77 12 79 14
REMARK SMILES IDX 80 15 81 16 88 17 82 18 86 19 83 20 84 21 87 22 85 23 9 24
REMARK SMILES IDX 10 25 11 26 12 28 13 29 14 30 75 31 15 32 74 33 16 34 17 35
REMARK SMILES IDX 18 36 68 37 19 38 73 39 67 40 69 41 20 42 72 43 66 44 65 45
REMARK SMILES IDX 21 47 53 48 33 49 52 50 34 51 37 52 51 53 70 54 35 55 36 56
REMARK SMILES IDX 50 58 71 59 38 60 22 61 23 62 31 63 24 64 30 65 32 66 29 67
REMARK SMILES IDX 25 68 26 69 27 70 28 71 54 72 55 73 63 74 56 75 62 76 64 77
REMARK SMILES IDX 61 78 57 79 58 80 59 81 60 82 39 83 40 84 48 85 41 86 47 87
REMARK SMILES IDX 49 88 46 89 42 90 43 91 44 92 45 93
REMARK H PARENT 6 6 78 13 10 27 69 46 37 57
REMARK Flexibility Score: inf
ROOT
ATOM      1  C   UNL A   1      35.553  23.197  24.639  1.00  0.00     0.042 C 
ENDROOT
BRANCH   1   2
ATOM      2  C   UNL A   1      34.301  24.067  24.504  1.00  0.00     0.117 C 
BRANCH   2   3
ATOM      3  N   UNL A   1      34.383  24.853  23.289  1.00  0.00    -0.356 N 
ATOM      4  C   UNL A   1      33.658  25.922  22.866  1.00  0.00     0.229 C 
ATOM      5  O   UNL A   1      33.682  26.136  21.651  1.00  0.00    -0.275 OA
ATOM      6  H   UNL A   1      35.086  24.563  22.663  1.00  0.00     0.163 HD
BRANCH   4   7
ATOM      7  C   UNL A   1      33.013  26.896  23.857  1.00  0.00     0.142 C 
ATOM      8  C   UNL A   1      30.568  25.971  23.433  1.00  0.00     0.076 C 
ATOM      9  C   UNL A   1      31.479  27.052  23.978  1.00  0.00     0.193 C 
ATOM     10  N   UNL A   1      31.113  28.298  23.285  1.00  0.00    -0.328 N 
ATOM     11  C   UNL A   1      33.447  28.326  23.483  1.00  0.00     0.081 C 
ATOM     12  C   UNL A   1      32.300  28.818  22.623  1.00  0.00     0.263 C 
ATOM     13  H   UNL A   1      30.428  28.085  22.560  1.00  0.00     0.348 HD
BRANCH  10  14
ATOM     14  C   UNL A   1      30.288  29.244  24.037  1.00  0.00     0.299 C 
BRANCH  14  15
ATOM     15  C   UNL A   1      29.519  30.271  23.230  1.00  0.00     0.012 A 
ATOM     16  C   UNL A   1      29.418  31.603  23.668  1.00  0.00     0.052 A 
ATOM     17  C   UNL A   1      28.894  29.916  22.024  1.00  0.00     0.052 A 
ATOM     18  C   UNL A   1      28.736  32.546  22.900  1.00  0.00     0.162 A 
ATOM     19  C   UNL A   1      28.234  30.875  21.259  1.00  0.00     0.162 A 
ATOM     20  F   UNL A   1      28.652  33.810  23.338  1.00  0.00    -0.204 F 
ATOM     21  C   UNL A   1      28.153  32.188  21.691  1.00  0.00     0.194 A 
ATOM     22  F   UNL A   1      27.684  30.513  20.092  1.00  0.00    -0.204 F 
ATOM     23  F   UNL A   1      27.517  33.106  20.949  1.00  0.00    -0.200 F 
ENDBRANCH  14  15
ENDBRANCH  10  14
ENDBRANCH   4   7
ENDBRANCH   2   3
ENDBRANCH   1   2
BRANCH   1  24
ATOM     24  C   UNL A   1      36.424  23.538  25.843  1.00  0.00     0.118 C 
BRANCH  24  25
ATOM     25  N   UNL A   1      37.484  22.569  26.031  1.00  0.00    -0.352 N 
ATOM     26  C   UNL A   1      38.810  22.765  26.333  1.00  0.00     0.251 C 
ATOM     27  H   UNL A   1      37.215  21.628  25.927  1.00  0.00     0.163 HD
ATOM     28  O   UNL A   1      39.589  21.824  26.176  1.00  0.00    -0.269 OA
BRANCH  26  29
ATOM     29  C   UNL A   1      39.317  24.076  26.818  1.00  0.00     0.039 A 
ATOM     30  C   UNL A   1      39.101  24.418  28.157  1.00  0.00     0.014 A 
ATOM     31  C   UNL A   1      39.932  25.000  25.968  1.00  0.00     0.014 A 
ATOM     32  C   UNL A   1      39.523  25.660  28.643  1.00  0.00     0.010 A 
ATOM     33  C   UNL A   1      40.436  26.200  26.476  1.00  0.00     0.010 A 
ATOM     34  C   UNL A   1      40.213  26.558  27.813  1.00  0.00    -0.014 A 
BRANCH  34  35
ATOM     35  C   UNL A   1      40.652  27.888  28.319  1.00  0.00     0.031 A 
ATOM     36  C   UNL A   1      42.122  28.211  28.427  1.00  0.00     0.074 A 
ATOM     37  C   UNL A   1      39.737  28.797  28.709  1.00  0.00     0.049 A 
ATOM     38  N   UNL A   1      42.704  29.295  28.876  1.00  0.00    -0.248 NA
ATOM     39  C   UNL A   1      43.061  27.162  28.003  1.00  0.00     0.031 C 
ATOM     40  C   UNL A   1      38.286  28.591  28.701  1.00  0.00     0.029 A 
ATOM     41  N   UNL A   1      39.886  30.074  29.190  1.00  0.00    -0.354 N 
ATOM     42  C   UNL A   1      44.073  29.052  28.802  1.00  0.00     0.074 A 
ATOM     43  C   UNL A   1      44.228  27.692  28.331  1.00  0.00     0.031 C 
ATOM     44  C   UNL A   1      37.681  29.711  29.131  1.00  0.00     0.029 A 
ATOM     45  C   UNL A   1      38.696  30.701  29.480  1.00  0.00     0.049 A 
ATOM     46  H   UNL A   1      40.764  30.502  29.317  1.00  0.00     0.167 HD
ATOM     47  C   UNL A   1      45.106  29.891  29.071  1.00  0.00     0.034 A 
ATOM     48  C   UNL A   1      38.448  31.929  29.974  1.00  0.00     0.034 A 
ATOM     49  C   UNL A   1      44.938  31.251  29.524  1.00  0.00     0.049 A 
ATOM     50  C   UNL A   1      39.608  32.849  30.261  1.00  0.00     0.074 A 
ATOM     51  C   UNL A   1      45.909  32.202  29.782  1.00  0.00     0.029 A 
ATOM     52  N   UNL A   1      43.714  31.854  29.790  1.00  0.00    -0.354 N 
ATOM     53  N   UNL A   1      40.895  32.618  30.139  1.00  0.00    -0.248 NA
ATOM     54  C   UNL A   1      39.279  34.199  30.735  1.00  0.00     0.031 C 
ATOM     55  C   UNL A   1      45.279  33.359  30.258  1.00  0.00     0.029 A 
ATOM     56  C   UNL A   1      43.909  33.156  30.231  1.00  0.00     0.049 A 
ATOM     57  H   UNL A   1      42.837  31.422  29.681  1.00  0.00     0.167 HD
ATOM     58  C   UNL A   1      41.528  33.803  30.503  1.00  0.00     0.074 A 
ATOM     59  C   UNL A   1      40.480  34.750  30.824  1.00  0.00     0.031 C 
ATOM     60  C   UNL A   1      42.855  34.084  30.567  1.00  0.00     0.034 A 
BRANCH  47  61
ATOM     61  C   UNL A   1      46.505  29.343  28.899  1.00  0.00     0.023 A 
ATOM     62  C   UNL A   1      47.076  29.165  27.626  1.00  0.00     0.031 A 
ATOM     63  C   UNL A   1      47.265  28.953  30.017  1.00  0.00     0.131 A 
ATOM     64  C   UNL A   1      48.323  28.536  27.496  1.00  0.00     0.055 A 
ATOM     65  C   UNL A   1      48.543  28.407  29.885  1.00  0.00     0.041 A 
ATOM     66  F   UNL A   1      46.769  29.080  31.258  1.00  0.00    -0.206 F 
ATOM     67  C   UNL A   1      49.072  28.177  28.619  1.00  0.00     0.022 A 
BRANCH  64  68
ATOM     68  S   UNL A   1      48.880  28.048  25.840  1.00  0.00     0.124 S 
ATOM     69  O   UNL A   1      50.107  28.830  25.701  1.00  0.00    -0.237 OA
ATOM     70  O   UNL A   1      49.058  26.604  25.981  1.00  0.00    -0.237 OA
ATOM     71  O   UNL A   1      47.784  28.461  24.971  1.00  0.00    -0.744 OA
ENDBRANCH  64  68
ENDBRANCH  47  61
BRANCH  48  72
ATOM     72  C   UNL A   1      37.046  32.365  30.237  1.00  0.00     0.023 A 
ATOM     73  C   UNL A   1      36.302  33.048  29.262  1.00  0.00     0.031 A 
ATOM     74  C   UNL A   1      36.442  32.129  31.485  1.00  0.00     0.131 A 
ATOM     75  C   UNL A   1      35.010  33.506  29.563  1.00  0.00     0.055 A 
ATOM     76  C   UNL A   1      35.140  32.546  31.763  1.00  0.00     0.041 A 
ATOM     77  F   UNL A   1      37.108  31.473  32.448  1.00  0.00    -0.206 F 
ATOM     78  C   UNL A   1      34.420  33.249  30.803  1.00  0.00     0.022 A 
BRANCH  75  79
ATOM     79  S   UNL A   1      34.134  34.508  28.330  1.00  0.00     0.124 S 
ATOM     80  O   UNL A   1      35.033  34.427  27.186  1.00  0.00    -0.237 OA
ATOM     81  O   UNL A   1      32.868  33.795  28.206  1.00  0.00    -0.237 OA
ATOM     82  O   UNL A   1      34.045  35.823  28.963  1.00  0.00    -0.744 OA
ENDBRANCH  75  79
ENDBRANCH  48  72
BRANCH  60  83
ATOM     83  C   UNL A   1      43.234  35.487  30.972  1.00  0.00     0.023 A 
ATOM     84  C   UNL A   1      43.438  36.501  30.020  1.00  0.00     0.031 A 
ATOM     85  C   UNL A   1      43.421  35.806  32.329  1.00  0.00     0.131 A 
ATOM     86  C   UNL A   1      43.881  37.767  30.430  1.00  0.00     0.055 A 
ATOM     87  C   UNL A   1      43.803  37.086  32.736  1.00  0.00     0.041 A 
ATOM     88  F   UNL A   1      43.240  34.877  33.282  1.00  0.00    -0.206 F 
ATOM     89  C   UNL A   1      44.050  38.070  31.784  1.00  0.00     0.022 A 
BRANCH  86  90
ATOM     90  S   UNL A   1      44.335  38.983  29.164  1.00  0.00     0.124 S 
ATOM     91  O   UNL A   1      43.044  39.582  28.839  1.00  0.00    -0.237 OA
ATOM     92  O   UNL A   1      45.275  39.841  29.879  1.00  0.00    -0.237 OA
ATOM     93  O   UNL A   1      44.924  38.169  28.102  1.00  0.00    -0.744 OA
ENDBRANCH  86  90
ENDBRANCH  60  83
ENDBRANCH  34  35
ENDBRANCH  26  29
ENDBRANCH  24  25
ENDBRANCH   1  24
TORSDOF 15
ENDMDL
MODEL 2
REMARK VINA RESULT:     -12.2      5.533     10.421
REMARK SMILES C[C@H]1[C@@H](C(=O)NCCCNC(=O)c2ccc(-c3c4nc(c(-c5cc(S(=O)(=O)[O-])ccc5F)c5ccc([nH]5)c(-c5cc(S(=O)(=O)[O-])ccc5F)c5nc(c(-c6cc(S(=O)(=O)[O-])ccc6F)c6ccc3[nH]6)C=C5)C=C4)cc2)CC[N@@H+]1Cc1cc(F)c(F)c(F)c1
REMARK SMILES IDX 8 1 7 2 6 3 4 4 5 5 3 7 1 8 2 9 78 10 76 11 77 12 79 14
REMARK SMILES IDX 80 15 81 16 88 17 82 18 86 19 83 20 84 21 87 22 85 23 9 24
REMARK SMILES IDX 10 25 11 26 12 28 13 29 14 30 75 31 15 32 74 33 16 34 17 35
REMARK SMILES IDX 18 36 68 37 19 38 73 39 67 40 69 41 20 42 72 43 66 44 65 45
REMARK SMILES IDX 21 47 53 48 33 49 52 50 34 51 37 52 51 53 70 54 35 55 36 56
REMARK SMILES IDX 50 58 71 59 38 60 22 61 23 62 31 63 24 64 30 65 32 66 29 67
REMARK SMILES IDX 25 68 26 69 27 70 28 71 54 72 55 73 63 74 56 75 62 76 64 77
REMARK SMILES IDX 61 78 57 79 58 80 59 81 60 82 39 83 40 84 48 85 41 86 47 87
REMARK SMILES IDX 49 88 46 89 42 90 43 91 44 92 45 93
REMARK H PARENT 6 6 78 13 10 27 69 46 37 57
REMARK Flexibility Score: inf
ROOT
ATOM      1  C   UNL A   1      32.951  29.175  24.269  1.00  0.00     0.042 C 
ENDROOT
BRANCH   1   2
ATOM      2  C   UNL A   1      34.022  28.140  23.915  1.00  0.00     0.117 C 
BRANCH   2   3
ATOM      3  N   UNL A   1      33.572  27.338  22.795  1.00  0.00    -0.356 N 
ATOM      4  C   UNL A   1      33.458  25.992  22.649  1.00  0.00     0.229 C 
ATOM      5  O   UNL A   1      33.425  25.582  21.485  1.00  0.00    -0.275 OA
ATOM      6  H   UNL A   1      33.301  27.859  22.004  1.00  0.00     0.163 HD
BRANCH   4   7
ATOM      7  C   UNL A   1      33.200  25.074  23.848  1.00  0.00     0.142 C 
ATOM      8  C   UNL A   1      35.064  23.335  23.132  1.00  0.00     0.076 C 
ATOM      9  C   UNL A   1      33.847  23.675  23.968  1.00  0.00     0.193 C 
ATOM     10  N   UNL A   1      32.812  22.686  23.626  1.00  0.00    -0.328 N 
ATOM     11  C   UNL A   1      31.698  24.731  23.881  1.00  0.00     0.081 C 
ATOM     12  C   UNL A   1      31.635  23.401  23.157  1.00  0.00     0.263 C 
ATOM     13  H   UNL A   1      33.148  22.111  22.854  1.00  0.00     0.348 HD
BRANCH  10  14
ATOM     14  C   UNL A   1      32.607  21.598  24.582  1.00  0.00     0.299 C 
BRANCH  14  15
ATOM     15  C   UNL A   1      32.982  20.204  24.122  1.00  0.00     0.012 A 
ATOM     16  C   UNL A   1      34.084  19.533  24.678  1.00  0.00     0.052 A 
ATOM     17  C   UNL A   1      32.232  19.549  23.131  1.00  0.00     0.052 A 
ATOM     18  C   UNL A   1      34.398  18.237  24.269  1.00  0.00     0.162 A 
ATOM     19  C   UNL A   1      32.548  18.248  22.748  1.00  0.00     0.162 A 
ATOM     20  F   UNL A   1      35.454  17.616  24.814  1.00  0.00    -0.204 F 
ATOM     21  C   UNL A   1      33.627  17.588  23.314  1.00  0.00     0.194 A 
ATOM     22  F   UNL A   1      31.788  17.635  21.830  1.00  0.00    -0.204 F 
ATOM     23  F   UNL A   1      33.924  16.335  22.942  1.00  0.00    -0.200 F 
ENDBRANCH  14  15
ENDBRANCH  10  14
ENDBRANCH   4   7
ENDBRANCH   2   3
ENDBRANCH   1   2
BRANCH   1  24
ATOM     24  C   UNL A   1      32.769  29.398  25.765  1.00  0.00     0.118 C 
BRANCH  24  25
ATOM     25  N   UNL A   1      32.522  30.791  26.076  1.00  0.00    -0.352 N 
ATOM     26  C   UNL A   1      33.118  31.602  27.011  1.00  0.00     0.251 C 
ATOM     27  H   UNL A   1      31.822  31.223  25.535  1.00  0.00     0.163 HD
ATOM     28  O   UNL A   1      32.569  32.667  27.293  1.00  0.00    -0.269 OA
BRANCH  26  29
ATOM     29  C   UNL A   1      34.381  31.214  27.693  1.00  0.00     0.039 A 
ATOM     30  C   UNL A   1      34.526  29.891  28.124  1.00  0.00     0.014 A 
ATOM     31  C   UNL A   1      35.388  32.140  27.983  1.00  0.00     0.014 A 
ATOM     32  C   UNL A   1      35.679  29.496  28.809  1.00  0.00     0.010 A 
ATOM     33  C   UNL A   1      36.579  31.724  28.583  1.00  0.00     0.010 A 
ATOM     34  C   UNL A   1      36.728  30.403  29.030  1.00  0.00    -0.014 A 
BRANCH  34  35
ATOM     35  C   UNL A   1      37.953  29.994  29.772  1.00  0.00     0.031 A 
ATOM     36  C   UNL A   1      38.197  30.501  31.172  1.00  0.00     0.074 A 
ATOM     37  C   UNL A   1      38.861  29.190  29.183  1.00  0.00     0.049 A 
ATOM     38  N   UNL A   1      39.217  30.290  31.967  1.00  0.00    -0.248 NA
ATOM     39  C   UNL A   1      37.173  31.390  31.739  1.00  0.00     0.031 C 
ATOM     40  C   UNL A   1      38.768  28.670  27.817  1.00  0.00     0.029 A 
ATOM     41  N   UNL A   1      40.042  28.672  29.654  1.00  0.00    -0.354 N 
ATOM     42  C   UNL A   1      38.963  31.030  33.118  1.00  0.00     0.074 A 
ATOM     43  C   UNL A   1      37.727  31.748  32.886  1.00  0.00     0.031 C 
ATOM     44  C   UNL A   1      39.832  27.888  27.571  1.00  0.00     0.029 A 
ATOM     45  C   UNL A   1      40.701  27.878  28.744  1.00  0.00     0.049 A 
ATOM     46  H   UNL A   1      40.385  28.852  30.559  1.00  0.00     0.167 HD
ATOM     47  C   UNL A   1      39.673  31.084  34.273  1.00  0.00     0.034 A 
ATOM     48  C   UNL A   1      41.873  27.220  28.838  1.00  0.00     0.034 A 
ATOM     49  C   UNL A   1      40.895  30.350  34.499  1.00  0.00     0.049 A 
ATOM     50  C   UNL A   1      42.645  27.288  30.132  1.00  0.00     0.074 A 
ATOM     51  C   UNL A   1      41.671  30.294  35.643  1.00  0.00     0.029 A 
ATOM     52  N   UNL A   1      41.522  29.543  33.557  1.00  0.00    -0.354 N 
ATOM     53  N   UNL A   1      42.365  27.955  31.228  1.00  0.00    -0.248 NA
ATOM     54  C   UNL A   1      43.882  26.499  30.205  1.00  0.00     0.031 C 
ATOM     55  C   UNL A   1      42.795  29.502  35.376  1.00  0.00     0.029 A 
ATOM     56  C   UNL A   1      42.686  29.005  34.088  1.00  0.00     0.049 A 
ATOM     57  H   UNL A   1      41.189  29.376  32.646  1.00  0.00     0.167 HD
ATOM     58  C   UNL A   1      43.382  27.648  32.128  1.00  0.00     0.074 A 
ATOM     59  C   UNL A   1      44.265  26.719  31.453  1.00  0.00     0.031 C 
ATOM     60  C   UNL A   1      43.570  28.094  33.396  1.00  0.00     0.034 A 
BRANCH  47  61
ATOM     61  C   UNL A   1      39.149  31.988  35.367  1.00  0.00     0.023 A 
ATOM     62  C   UNL A   1      39.560  33.329  35.476  1.00  0.00     0.031 A 
ATOM     63  C   UNL A   1      38.259  31.496  36.338  1.00  0.00     0.131 A 
ATOM     64  C   UNL A   1      39.156  34.101  36.575  1.00  0.00     0.055 A 
ATOM     65  C   UNL A   1      37.790  32.296  37.382  1.00  0.00     0.041 A 
ATOM     66  F   UNL A   1      37.842  30.220  36.299  1.00  0.00    -0.206 F 
ATOM     67  C   UNL A   1      38.253  33.601  37.516  1.00  0.00     0.022 A 
BRANCH  64  68
ATOM     68  S   UNL A   1      39.949  35.710  36.844  1.00  0.00     0.124 S 
ATOM     69  O   UNL A   1      39.279  36.168  38.059  1.00  0.00    -0.237 OA
ATOM     70  O   UNL A   1      41.356  35.346  36.990  1.00  0.00    -0.237 OA
ATOM     71  O   UNL A   1      39.621  36.463  35.638  1.00  0.00    -0.744 OA
ENDBRANCH  64  68
ENDBRANCH  47  61
BRANCH  48  72
ATOM     72  C   UNL A   1      42.396  26.444  27.678  1.00  0.00     0.023 A 
ATOM     73  C   UNL A   1      42.101  25.081  27.522  1.00  0.00     0.031 A 
ATOM     74  C   UNL A   1      43.227  27.054  26.722  1.00  0.00     0.131 A 
ATOM     75  C   UNL A   1      42.664  24.361  26.457  1.00  0.00     0.055 A 
ATOM     76  C   UNL A   1      43.747  26.345  25.638  1.00  0.00     0.041 A 
ATOM     77  F   UNL A   1      43.533  28.357  26.820  1.00  0.00    -0.206 F 
ATOM     78  C   UNL A   1      43.476  24.987  25.508  1.00  0.00     0.022 A 
BRANCH  75  79
ATOM     79  S   UNL A   1      42.378  22.572  26.368  1.00  0.00     0.124 S 
ATOM     80  O   UNL A   1      43.351  22.066  27.329  1.00  0.00    -0.237 OA
ATOM     81  O   UNL A   1      40.976  22.471  26.759  1.00  0.00    -0.237 OA
ATOM     82  O   UNL A   1      42.656  22.252  24.969  1.00  0.00    -0.744 OA
ENDBRANCH  75  79
ENDBRANCH  48  72
BRANCH  60  83
ATOM     83  C   UNL A   1      44.766  27.550  34.138  1.00  0.00     0.023 A 
ATOM     84  C   UNL A   1      44.690  26.366  34.892  1.00  0.00     0.031 A 
ATOM     85  C   UNL A   1      45.990  28.242  34.114  1.00  0.00     0.131 A 
ATOM     86  C   UNL A   1      45.797  25.943  35.643  1.00  0.00     0.055 A 
ATOM     87  C   UNL A   1      47.106  27.784  34.815  1.00  0.00     0.041 A 
ATOM     88  F   UNL A   1      46.119  29.379  33.411  1.00  0.00    -0.206 F 
ATOM     89  C   UNL A   1      47.009  26.637  35.597  1.00  0.00     0.022 A 
BRANCH  86  90
ATOM     90  S   UNL A   1      45.600  24.533  36.766  1.00  0.00     0.124 S 
ATOM     91  O   UNL A   1      45.694  25.170  38.075  1.00  0.00    -0.237 OA
ATOM     92  O   UNL A   1      44.282  24.024  36.398  1.00  0.00    -0.237 OA
ATOM     93  O   UNL A   1      46.720  23.660  36.420  1.00  0.00    -0.744 OA
ENDBRANCH  86  90
ENDBRANCH  60  83
ENDBRANCH  34  35
ENDBRANCH  26  29
ENDBRANCH  24  25
ENDBRANCH   1  24
TORSDOF 15
ENDMDL
MODEL 3
REMARK VINA RESULT:     -12.2      1.784      2.045
REMARK SMILES C[C@H]1[C@@H](C(=O)NCCCNC(=O)c2ccc(-c3c4nc(c(-c5cc(S(=O)(=O)[O-])ccc5F)c5ccc([nH]5)c(-c5cc(S(=O)(=O)[O-])ccc5F)c5nc(c(-c6cc(S(=O)(=O)[O-])ccc6F)c6ccc3[nH]6)C=C5)C=C4)cc2)CC[N@@H+]1Cc1cc(F)c(F)c(F)c1
REMARK SMILES IDX 8 1 7 2 6 3 4 4 5 5 3 7 1 8 2 9 78 10 76 11 77 12 79 14
REMARK SMILES IDX 80 15 81 16 88 17 82 18 86 19 83 20 84 21 87 22 85 23 9 24
REMARK SMILES IDX 10 25 11 26 12 28 13 29 14 30 75 31 15 32 74 33 16 34 17 35
REMARK SMILES IDX 18 36 68 37 19 38 73 39 67 40 69 41 20 42 72 43 66 44 65 45
REMARK SMILES IDX 21 47 53 48 33 49 52 50 34 51 37 52 51 53 70 54 35 55 36 56
REMARK SMILES IDX 50 58 71 59 38 60 22 61 23 62 31 63 24 64 30 65 32 66 29 67
REMARK SMILES IDX 25 68 26 69 27 70 28 71 54 72 55 73 63 74 56 75 62 76 64 77
REMARK SMILES IDX 61 78 57 79 58 80 59 81 60 82 39 83 40 84 48 85 41 86 47 87
REMARK SMILES IDX 49 88 46 89 42 90 43 91 44 92 45 93
REMARK H PARENT 6 6 78 13 10 27 69 46 37 57
REMARK Flexibility Score: inf
ROOT
ATOM      1  C   UNL A   1      35.587  23.061  24.686  1.00  0.00     0.042 C 
ENDROOT
BRANCH   1   2
ATOM      2  C   UNL A   1      34.306  23.883  24.531  1.00  0.00     0.117 C 
BRANCH   2   3
ATOM      3  N   UNL A   1      34.382  24.678  23.321  1.00  0.00    -0.356 N 
ATOM      4  C   UNL A   1      33.655  25.750  22.911  1.00  0.00     0.229 C 
ATOM      5  O   UNL A   1      33.673  25.975  21.697  1.00  0.00    -0.275 OA
ATOM      6  H   UNL A   1      35.082  24.394  22.690  1.00  0.00     0.163 HD
BRANCH   4   7
ATOM      7  C   UNL A   1      33.015  26.717  23.912  1.00  0.00     0.142 C 
ATOM      8  C   UNL A   1      30.560  25.836  23.451  1.00  0.00     0.076 C 
ATOM      9  C   UNL A   1      31.482  26.893  24.022  1.00  0.00     0.193 C 
ATOM     10  N   UNL A   1      31.141  28.157  23.349  1.00  0.00    -0.328 N 
ATOM     11  C   UNL A   1      33.473  28.147  23.567  1.00  0.00     0.081 C 
ATOM     12  C   UNL A   1      32.341  28.671  22.706  1.00  0.00     0.263 C 
ATOM     13  H   UNL A   1      30.460  27.966  22.614  1.00  0.00     0.348 HD
BRANCH  10  14
ATOM     14  C   UNL A   1      30.322  29.101  24.109  1.00  0.00     0.299 C 
BRANCH  14  15
ATOM     15  C   UNL A   1      29.562  30.142  23.312  1.00  0.00     0.012 A 
ATOM     16  C   UNL A   1      29.509  31.480  23.739  1.00  0.00     0.052 A 
ATOM     17  C   UNL A   1      28.896  29.793  22.126  1.00  0.00     0.052 A 
ATOM     18  C   UNL A   1      28.834  32.434  22.979  1.00  0.00     0.162 A 
ATOM     19  C   UNL A   1      28.243  30.763  21.369  1.00  0.00     0.162 A 
ATOM     20  F   UNL A   1      28.796  33.704  23.406  1.00  0.00    -0.204 F 
ATOM     21  C   UNL A   1      28.210  32.082  21.790  1.00  0.00     0.194 A 
ATOM     22  F   UNL A   1      27.652  30.405  20.220  1.00  0.00    -0.204 F 
ATOM     23  F   UNL A   1      27.580  33.010  21.055  1.00  0.00    -0.200 F 
ENDBRANCH  14  15
ENDBRANCH  10  14
ENDBRANCH   4   7
ENDBRANCH   2   3
ENDBRANCH   1   2
BRANCH   1  24
ATOM     24  C   UNL A   1      36.488  23.519  25.827  1.00  0.00     0.118 C 
BRANCH  24  25
ATOM     25  N   UNL A   1      37.506  22.536  26.136  1.00  0.00    -0.352 N 
ATOM     26  C   UNL A   1      38.818  22.715  26.501  1.00  0.00     0.251 C 
ATOM     27  H   UNL A   1      37.214  21.598  26.076  1.00  0.00     0.163 HD
ATOM     28  O   UNL A   1      39.576  21.745  26.448  1.00  0.00    -0.269 OA
BRANCH  26  29
ATOM     29  C   UNL A   1      39.338  24.039  26.932  1.00  0.00     0.039 A 
ATOM     30  C   UNL A   1      39.163  24.421  28.266  1.00  0.00     0.014 A 
ATOM     31  C   UNL A   1      39.924  24.940  26.037  1.00  0.00     0.014 A 
ATOM     32  C   UNL A   1      39.598  25.677  28.702  1.00  0.00     0.010 A 
ATOM     33  C   UNL A   1      40.442  26.154  26.493  1.00  0.00     0.010 A 
ATOM     34  C   UNL A   1      40.260  26.551  27.825  1.00  0.00    -0.014 A 
BRANCH  34  35
ATOM     35  C   UNL A   1      40.712  27.896  28.278  1.00  0.00     0.031 A 
ATOM     36  C   UNL A   1      42.177  28.253  28.250  1.00  0.00     0.074 A 
ATOM     37  C   UNL A   1      39.814  28.789  28.741  1.00  0.00     0.049 A 
ATOM     38  N   UNL A   1      42.772  29.355  28.635  1.00  0.00    -0.248 NA
ATOM     39  C   UNL A   1      43.098  27.220  27.752  1.00  0.00     0.031 C 
ATOM     40  C   UNL A   1      38.374  28.550  28.866  1.00  0.00     0.029 A 
ATOM     41  N   UNL A   1      39.976  30.073  29.196  1.00  0.00    -0.354 N 
ATOM     42  C   UNL A   1      44.134  29.141  28.440  1.00  0.00     0.074 A 
ATOM     43  C   UNL A   1      44.277  27.780  27.968  1.00  0.00     0.031 C 
ATOM     44  C   UNL A   1      37.784  29.661  29.339  1.00  0.00     0.029 A 
ATOM     45  C   UNL A   1      38.803  30.676  29.587  1.00  0.00     0.049 A 
ATOM     46  H   UNL A   1      40.852  30.522  29.239  1.00  0.00     0.167 HD
ATOM     47  C   UNL A   1      45.167  30.005  28.607  1.00  0.00     0.034 A 
ATOM     48  C   UNL A   1      38.572  31.904  30.091  1.00  0.00     0.034 A 
ATOM     49  C   UNL A   1      45.009  31.366  29.062  1.00  0.00     0.049 A 
ATOM     50  C   UNL A   1      39.732  32.852  30.264  1.00  0.00     0.074 A 
ATOM     51  C   UNL A   1      45.978  32.342  29.223  1.00  0.00     0.029 A 
ATOM     52  N   UNL A   1      43.801  31.945  29.432  1.00  0.00    -0.354 N 
ATOM     53  N   UNL A   1      41.008  32.649  30.028  1.00  0.00    -0.248 NA
ATOM     54  C   UNL A   1      39.415  34.200  30.754  1.00  0.00     0.031 C 
ATOM     55  C   UNL A   1      45.367  33.489  29.744  1.00  0.00     0.029 A 
ATOM     56  C   UNL A   1      44.004  33.255  29.843  1.00  0.00     0.049 A 
ATOM     57  H   UNL A   1      42.928  31.492  29.406  1.00  0.00     0.167 HD
ATOM     58  C   UNL A   1      41.643  33.852  30.324  1.00  0.00     0.074 A 
ATOM     59  C   UNL A   1      40.606  34.779  30.729  1.00  0.00     0.031 C 
ATOM     60  C   UNL A   1      42.963  34.163  30.265  1.00  0.00     0.034 A 
BRANCH  47  61
ATOM     61  C   UNL A   1      46.557  29.487  28.314  1.00  0.00     0.023 A 
ATOM     62  C   UNL A   1      47.379  28.966  29.331  1.00  0.00     0.031 A 
ATOM     63  C   UNL A   1      47.087  29.551  27.013  1.00  0.00     0.131 A 
ATOM     64  C   UNL A   1      48.707  28.614  29.049  1.00  0.00     0.055 A 
ATOM     65  C   UNL A   1      48.382  29.118  26.722  1.00  0.00     0.041 A 
ATOM     66  F   UNL A   1      46.360  30.055  26.003  1.00  0.00    -0.206 F 
ATOM     67  C   UNL A   1      49.208  28.663  27.746  1.00  0.00     0.022 A 
BRANCH  64  68
ATOM     68  S   UNL A   1      49.819  28.244  30.434  1.00  0.00     0.124 S 
ATOM     69  O   UNL A   1      49.771  26.784  30.467  1.00  0.00    -0.237 OA
ATOM     70  O   UNL A   1      51.081  28.830  29.989  1.00  0.00    -0.237 OA
ATOM     71  O   UNL A   1      49.188  28.907  31.570  1.00  0.00    -0.744 OA
ENDBRANCH  64  68
ENDBRANCH  47  61
BRANCH  48  72
ATOM     72  C   UNL A   1      37.190  32.312  30.476  1.00  0.00     0.023 A 
ATOM     73  C   UNL A   1      36.287  32.809  29.523  1.00  0.00     0.031 A 
ATOM     74  C   UNL A   1      36.765  32.236  31.814  1.00  0.00     0.131 A 
ATOM     75  C   UNL A   1      35.017  33.249  29.927  1.00  0.00     0.055 A 
ATOM     76  C   UNL A   1      35.484  32.631  32.203  1.00  0.00     0.041 A 
ATOM     77  F   UNL A   1      37.587  31.759  32.761  1.00  0.00    -0.206 F 
ATOM     78  C   UNL A   1      34.606  33.152  31.259  1.00  0.00     0.022 A 
BRANCH  75  79
ATOM     79  S   UNL A   1      33.930  34.018  28.695  1.00  0.00     0.124 S 
ATOM     80  O   UNL A   1      33.546  32.873  27.879  1.00  0.00    -0.237 OA
ATOM     81  O   UNL A   1      32.883  34.592  29.532  1.00  0.00    -0.237 OA
ATOM     82  O   UNL A   1      34.800  34.991  28.036  1.00  0.00    -0.744 OA
ENDBRANCH  75  79
ENDBRANCH  48  72
BRANCH  60  83
ATOM     83  C   UNL A   1      43.345  35.578  30.622  1.00  0.00     0.023 A 
ATOM     84  C   UNL A   1      43.467  35.994  31.960  1.00  0.00     0.031 A 
ATOM     85  C   UNL A   1      43.560  36.532  29.611  1.00  0.00     0.131 A 
ATOM     86  C   UNL A   1      43.732  37.340  32.253  1.00  0.00     0.055 A 
ATOM     87  C   UNL A   1      43.883  37.857  29.908  1.00  0.00     0.041 A 
ATOM     88  F   UNL A   1      43.456  36.190  28.316  1.00  0.00    -0.206 F 
ATOM     89  C   UNL A   1      43.955  38.271  31.234  1.00  0.00     0.022 A 
BRANCH  86  90
ATOM     90  S   UNL A   1      43.675  37.882  33.982  1.00  0.00     0.124 S 
ATOM     91  O   UNL A   1      42.838  39.075  33.901  1.00  0.00    -0.237 OA
ATOM     92  O   UNL A   1      43.080  36.729  34.651  1.00  0.00    -0.237 OA
ATOM     93  O   UNL A   1      45.078  38.132  34.309  1.00  0.00    -0.744 OA
ENDBRANCH  86  90
ENDBRANCH  60  83
ENDBRANCH  34  35
ENDBRANCH  26  29
ENDBRANCH  24  25
ENDBRANCH   1  24
TORSDOF 15
ENDMDL
