MODEL 1
REMARK VINA RESULT:     -12.4      0.000      0.000
REMARK SMILES O=C(NCCCNC(=O)c1c(-c2ccc(Cl)cc2)noc1CO[C@@H]1CCCCO1)c1ccc(-c2c3nc(c(-c4cc(S(=O)(=O)[O-])ccc4F)c4ccc([nH]4)c(-c4cc(S(=O)(=O)[O-])ccc4F)c4nc(c(-c5cc(S(=O)(=O)[O-])ccc5F)c5ccc2[nH]5)C=C4)C=C3)cc1
REMARK SMILES IDX 5 1 4 2 3 3 1 4 2 5 30 7 31 8 92 9 32 10 91 11 33 12 34 13
REMARK SMILES IDX 35 14 85 15 36 16 90 17 84 18 86 19 37 20 89 21 83 22 82 23
REMARK SMILES IDX 38 25 70 26 50 27 69 28 51 29 54 30 68 31 87 32 52 33 53 34
REMARK SMILES IDX 67 36 88 37 55 38 39 39 40 40 48 41 41 42 47 43 49 44 46 45
REMARK SMILES IDX 42 46 43 47 44 48 45 49 71 50 72 51 80 52 73 53 79 54 81 55
REMARK SMILES IDX 78 56 74 57 75 58 76 59 77 60 56 61 57 62 65 63 58 64 64 65
REMARK SMILES IDX 66 66 63 67 59 68 60 69 61 70 62 71 6 72 7 73 8 74 9 76
REMARK SMILES IDX 10 77 11 78 21 79 19 80 20 81 12 82 13 83 18 84 14 85 17 86
REMARK SMILES IDX 15 87 16 88 22 89 23 90 24 91 25 92 29 93 26 94 28 95 27 96
REMARK H PARENT 3 6 86 24 54 35 7 75
REMARK Flexibility Score: inf
ROOT
ATOM      1  C   UNL A   1      33.123  28.034  26.452  1.00  0.00     0.042 C 
ENDROOT
BRANCH   1   2
ATOM      2  C   UNL A   1      33.629  29.222  25.639  1.00  0.00     0.118 C 
BRANCH   2   3
ATOM      3  N   UNL A   1      33.244  30.505  26.211  1.00  0.00    -0.352 N 
ATOM      4  O   UNL A   1      33.147  32.198  27.674  1.00  0.00    -0.269 OA
ATOM      5  C   UNL A   1      33.777  31.230  27.248  1.00  0.00     0.251 C 
ATOM      6  H   UNL A   1      32.466  30.926  25.778  1.00  0.00     0.163 HD
BRANCH   5   7
ATOM      7  C   UNL A   1      35.073  30.868  27.867  1.00  0.00     0.039 A 
ATOM      8  C   UNL A   1      35.280  29.618  28.453  1.00  0.00     0.014 A 
ATOM      9  C   UNL A   1      36.136  31.778  27.790  1.00  0.00     0.014 A 
ATOM     10  C   UNL A   1      36.495  29.331  29.073  1.00  0.00     0.010 A 
ATOM     11  C   UNL A   1      37.378  31.462  28.352  1.00  0.00     0.010 A 
ATOM     12  C   UNL A   1      37.557  30.248  29.028  1.00  0.00    -0.014 A 
BRANCH  12  13
ATOM     13  C   UNL A   1      38.845  29.890  29.676  1.00  0.00     0.031 A 
ATOM     14  C   UNL A   1      39.165  30.349  31.072  1.00  0.00     0.074 A 
ATOM     15  C   UNL A   1      39.705  29.087  29.020  1.00  0.00     0.049 A 
ATOM     16  N   UNL A   1      40.198  30.051  31.821  1.00  0.00    -0.248 NA
ATOM     17  C   UNL A   1      38.214  31.274  31.701  1.00  0.00     0.031 C 
ATOM     18  C   UNL A   1      39.530  28.601  27.649  1.00  0.00     0.029 A 
ATOM     19  N   UNL A   1      40.872  28.502  29.436  1.00  0.00    -0.354 N 
ATOM     20  C   UNL A   1      40.039  30.778  32.995  1.00  0.00     0.074 A 
ATOM     21  C   UNL A   1      38.811  31.533  32.856  1.00  0.00     0.031 C 
ATOM     22  C   UNL A   1      40.513  27.733  27.364  1.00  0.00     0.029 A 
ATOM     23  C   UNL A   1      41.394  27.620  28.521  1.00  0.00     0.049 A 
ATOM     24  H   UNL A   1      41.295  28.695  30.304  1.00  0.00     0.167 HD
ATOM     25  C   UNL A   1      40.845  30.816  34.086  1.00  0.00     0.034 A 
ATOM     26  C   UNL A   1      42.449  26.792  28.612  1.00  0.00     0.034 A 
ATOM     27  C   UNL A   1      42.054  30.047  34.235  1.00  0.00     0.049 A 
ATOM     28  C   UNL A   1      43.258  26.760  29.874  1.00  0.00     0.074 A 
ATOM     29  C   UNL A   1      42.947  30.026  35.294  1.00  0.00     0.029 A 
ATOM     30  N   UNL A   1      42.534  29.143  33.297  1.00  0.00    -0.354 N 
ATOM     31  N   UNL A   1      43.113  27.479  30.960  1.00  0.00    -0.248 NA
ATOM     32  C   UNL A   1      44.372  25.805  29.917  1.00  0.00     0.031 C 
ATOM     33  C   UNL A   1      43.975  29.124  34.988  1.00  0.00     0.029 A 
ATOM     34  C   UNL A   1      43.706  28.560  33.752  1.00  0.00     0.049 A 
ATOM     35  H   UNL A   1      42.104  28.945  32.434  1.00  0.00     0.167 HD
ATOM     36  C   UNL A   1      44.136  27.079  31.810  1.00  0.00     0.074 A 
ATOM     37  C   UNL A   1      44.871  26.036  31.124  1.00  0.00     0.031 C 
ATOM     38  C   UNL A   1      44.444  27.546  33.046  1.00  0.00     0.034 A 
BRANCH  25  39
ATOM     39  C   UNL A   1      40.458  31.776  35.178  1.00  0.00     0.023 A 
ATOM     40  C   UNL A   1      39.491  31.444  36.141  1.00  0.00     0.031 A 
ATOM     41  C   UNL A   1      41.029  33.059  35.221  1.00  0.00     0.131 A 
ATOM     42  C   UNL A   1      39.083  32.407  37.076  1.00  0.00     0.055 A 
ATOM     43  C   UNL A   1      40.659  33.993  36.188  1.00  0.00     0.041 A 
ATOM     44  F   UNL A   1      41.940  33.431  34.307  1.00  0.00    -0.206 F 
ATOM     45  C   UNL A   1      39.671  33.674  37.117  1.00  0.00     0.022 A 
BRANCH  42  46
ATOM     46  S   UNL A   1      37.691  32.019  38.172  1.00  0.00     0.124 S 
ATOM     47  O   UNL A   1      37.395  30.638  37.795  1.00  0.00    -0.237 OA
ATOM     48  O   UNL A   1      38.268  32.210  39.497  1.00  0.00    -0.237 OA
ATOM     49  O   UNL A   1      36.672  32.994  37.789  1.00  0.00    -0.744 OA
ENDBRANCH  42  46
ENDBRANCH  25  39
BRANCH  26  50
ATOM     50  C   UNL A   1      42.787  25.911  27.471  1.00  0.00     0.023 A 
ATOM     51  C   UNL A   1      42.325  24.588  27.429  1.00  0.00     0.031 A 
ATOM     52  C   UNL A   1      43.556  26.392  26.401  1.00  0.00     0.131 A 
ATOM     53  C   UNL A   1      42.645  23.778  26.332  1.00  0.00     0.055 A 
ATOM     54  C   UNL A   1      43.868  25.583  25.308  1.00  0.00     0.041 A 
ATOM     55  F   UNL A   1      44.001  27.658  26.401  1.00  0.00    -0.206 F 
ATOM     56  C   UNL A   1      43.415  24.267  25.271  1.00  0.00     0.022 A 
BRANCH  53  57
ATOM     57  S   UNL A   1      42.043  22.069  26.307  1.00  0.00     0.124 S 
ATOM     58  O   UNL A   1      42.369  21.613  27.654  1.00  0.00    -0.237 OA
ATOM     59  O   UNL A   1      40.625  22.251  26.018  1.00  0.00    -0.237 OA
ATOM     60  O   UNL A   1      42.823  21.453  25.235  1.00  0.00    -0.744 OA
ENDBRANCH  53  57
ENDBRANCH  26  50
BRANCH  38  61
ATOM     61  C   UNL A   1      45.640  26.931  33.710  1.00  0.00     0.023 A 
ATOM     62  C   UNL A   1      45.499  25.824  34.562  1.00  0.00     0.031 A 
ATOM     63  C   UNL A   1      46.920  27.472  33.517  1.00  0.00     0.131 A 
ATOM     64  C   UNL A   1      46.624  25.304  35.218  1.00  0.00     0.055 A 
ATOM     65  C   UNL A   1      48.040  26.939  34.157  1.00  0.00     0.041 A 
ATOM     66  F   UNL A   1      47.097  28.537  32.719  1.00  0.00    -0.206 F 
ATOM     67  C   UNL A   1      47.895  25.854  35.018  1.00  0.00     0.022 A 
BRANCH  64  68
ATOM     68  S   UNL A   1      46.400  23.936  36.386  1.00  0.00     0.124 S 
ATOM     69  O   UNL A   1      45.169  24.315  37.073  1.00  0.00    -0.237 OA
ATOM     70  O   UNL A   1      46.305  22.782  35.497  1.00  0.00    -0.237 OA
ATOM     71  O   UNL A   1      47.607  23.986  37.209  1.00  0.00    -0.744 OA
ENDBRANCH  64  68
ENDBRANCH  38  61
ENDBRANCH  12  13
ENDBRANCH   5   7
ENDBRANCH   2   3
ENDBRANCH   1   2
BRANCH   1  72
ATOM     72  C   UNL A   1      31.607  27.967  26.613  1.00  0.00     0.118 C 
BRANCH  72  73
ATOM     73  N   UNL A   1      31.125  26.613  26.840  1.00  0.00    -0.352 N 
ATOM     74  C   UNL A   1      30.740  25.643  25.949  1.00  0.00     0.257 C 
ATOM     75  H   UNL A   1      31.067  26.349  27.786  1.00  0.00     0.163 HD
ATOM     76  O   UNL A   1      30.168  24.646  26.388  1.00  0.00    -0.269 OA
BRANCH  74  77
ATOM     77  C   UNL A   1      31.017  25.810  24.547  1.00  0.00     0.113 A 
ATOM     78  C   UNL A   1      32.105  25.293  23.787  1.00  0.00     0.127 A 
ATOM     79  C   UNL A   1      30.371  26.656  23.668  1.00  0.00     0.175 A 
ATOM     80  N   UNL A   1      32.054  25.735  22.520  1.00  0.00    -0.079 NA
ATOM     81  O   UNL A   1      30.964  26.577  22.449  1.00  0.00    -0.357 OA
BRANCH  78  82
ATOM     82  C   UNL A   1      33.181  24.411  24.227  1.00  0.00     0.005 A 
ATOM     83  C   UNL A   1      33.165  23.044  23.920  1.00  0.00     0.012 A 
ATOM     84  C   UNL A   1      34.247  24.933  24.975  1.00  0.00     0.012 A 
ATOM     85  C   UNL A   1      34.196  22.209  24.364  1.00  0.00     0.021 A 
ATOM     86  C   UNL A   1      35.273  24.099  25.423  1.00  0.00     0.021 A 
ATOM     87  C   UNL A   1      35.243  22.739  25.116  1.00  0.00     0.041 A 
ATOM     88  Cl  UNL A   1      36.506  21.712  25.672  1.00  0.00    -0.084 Cl
ENDBRANCH  78  82
BRANCH  79  89
ATOM     89  C   UNL A   1      29.243  27.607  23.794  1.00  0.00     0.242 C 
BRANCH  89  90
ATOM     90  O   UNL A   1      29.045  28.332  22.580  1.00  0.00    -0.345 OA
BRANCH  90  91
ATOM     91  C   UNL A   1      29.813  29.532  22.488  1.00  0.00     0.250 C 
ATOM     92  C   UNL A   1      29.438  30.452  23.650  1.00  0.00     0.062 C 
ATOM     93  O   UNL A   1      29.608  30.205  21.248  1.00  0.00    -0.353 OA
ATOM     94  C   UNL A   1      28.006  30.961  23.515  1.00  0.00     0.008 C 
ATOM     95  C   UNL A   1      28.247  30.586  21.044  1.00  0.00     0.163 C 
ATOM     96  C   UNL A   1      27.782  31.551  22.127  1.00  0.00     0.029 C 
ENDBRANCH  90  91
ENDBRANCH  89  90
ENDBRANCH  79  89
ENDBRANCH  74  77
ENDBRANCH  72  73
ENDBRANCH   1  72
TORSDOF 17
ENDMDL
MODEL 2
REMARK VINA RESULT:     -12.4      4.899      9.452
REMARK SMILES O=C(NCCCNC(=O)c1c(-c2ccc(Cl)cc2)noc1CO[C@@H]1CCCCO1)c1ccc(-c2c3nc(c(-c4cc(S(=O)(=O)[O-])ccc4F)c4ccc([nH]4)c(-c4cc(S(=O)(=O)[O-])ccc4F)c4nc(c(-c5cc(S(=O)(=O)[O-])ccc5F)c5ccc2[nH]5)C=C4)C=C3)cc1
REMARK SMILES IDX 5 1 4 2 3 3 1 4 2 5 30 7 31 8 92 9 32 10 91 11 33 12 34 13
REMARK SMILES IDX 35 14 85 15 36 16 90 17 84 18 86 19 37 20 89 21 83 22 82 23
REMARK SMILES IDX 38 25 70 26 50 27 69 28 51 29 54 30 68 31 87 32 52 33 53 34
REMARK SMILES IDX 67 36 88 37 55 38 39 39 40 40 48 41 41 42 47 43 49 44 46 45
REMARK SMILES IDX 42 46 43 47 44 48 45 49 71 50 72 51 80 52 73 53 79 54 81 55
REMARK SMILES IDX 78 56 74 57 75 58 76 59 77 60 56 61 57 62 65 63 58 64 64 65
REMARK SMILES IDX 66 66 63 67 59 68 60 69 61 70 62 71 6 72 7 73 8 74 9 76
REMARK SMILES IDX 10 77 11 78 21 79 19 80 20 81 12 82 13 83 18 84 14 85 17 86
REMARK SMILES IDX 15 87 16 88 22 89 23 90 24 91 25 92 29 93 26 94 28 95 27 96
REMARK H PARENT 3 6 86 24 54 35 7 75
REMARK Flexibility Score: inf
ROOT
ATOM      1  C   UNL A   1      34.859  22.212  26.838  1.00  0.00     0.042 C 
ENDROOT
BRANCH   1   2
ATOM      2  C   UNL A   1      36.078  22.710  26.066  1.00  0.00     0.118 C 
BRANCH   2   3
ATOM      3  N   UNL A   1      37.115  21.697  25.929  1.00  0.00    -0.352 N 
ATOM      4  O   UNL A   1      39.159  20.818  25.674  1.00  0.00    -0.269 OA
ATOM      5  C   UNL A   1      38.482  21.782  26.030  1.00  0.00     0.251 C 
ATOM      6  H   UNL A   1      36.777  20.794  25.731  1.00  0.00     0.163 HD
BRANCH   5   7
ATOM      7  C   UNL A   1      39.152  23.000  26.541  1.00  0.00     0.039 A 
ATOM      8  C   UNL A   1      38.739  24.277  26.155  1.00  0.00     0.014 A 
ATOM      9  C   UNL A   1      40.170  22.862  27.493  1.00  0.00     0.014 A 
ATOM     10  C   UNL A   1      39.427  25.400  26.614  1.00  0.00     0.010 A 
ATOM     11  C   UNL A   1      40.815  23.994  28.006  1.00  0.00     0.010 A 
ATOM     12  C   UNL A   1      40.470  25.271  27.545  1.00  0.00    -0.014 A 
BRANCH  12  13
ATOM     13  C   UNL A   1      41.157  26.496  28.030  1.00  0.00     0.031 A 
ATOM     14  C   UNL A   1      42.564  26.815  27.608  1.00  0.00     0.074 A 
ATOM     15  C   UNL A   1      40.477  27.361  28.808  1.00  0.00     0.049 A 
ATOM     16  N   UNL A   1      43.278  27.884  27.861  1.00  0.00    -0.248 NA
ATOM     17  C   UNL A   1      43.267  25.798  26.815  1.00  0.00     0.031 C 
ATOM     18  C   UNL A   1      39.119  27.152  29.317  1.00  0.00     0.029 A 
ATOM     19  N   UNL A   1      40.819  28.605  29.266  1.00  0.00    -0.354 N 
ATOM     20  C   UNL A   1      44.524  27.654  27.289  1.00  0.00     0.074 A 
ATOM     21  C   UNL A   1      44.468  26.342  26.678  1.00  0.00     0.031 C 
ATOM     22  C   UNL A   1      38.716  28.263  29.954  1.00  0.00     0.029 A 
ATOM     23  C   UNL A   1      39.791  29.247  29.914  1.00  0.00     0.049 A 
ATOM     24  H   UNL A   1      41.712  29.001  29.144  1.00  0.00     0.167 HD
ATOM     25  C   UNL A   1      45.615  28.460  27.279  1.00  0.00     0.034 A 
ATOM     26  C   UNL A   1      39.713  30.499  30.399  1.00  0.00     0.034 A 
ATOM     27  C   UNL A   1      45.665  29.775  27.865  1.00  0.00     0.049 A 
ATOM     28  C   UNL A   1      40.891  31.417  30.270  1.00  0.00     0.074 A 
ATOM     29  C   UNL A   1      46.727  30.664  27.920  1.00  0.00     0.029 A 
ATOM     30  N   UNL A   1      44.594  30.401  28.488  1.00  0.00    -0.354 N 
ATOM     31  N   UNL A   1      42.071  31.171  29.757  1.00  0.00    -0.248 NA
ATOM     32  C   UNL A   1      40.721  32.780  30.788  1.00  0.00     0.031 C 
ATOM     33  C   UNL A   1      46.302  31.819  28.592  1.00  0.00     0.029 A 
ATOM     34  C   UNL A   1      44.968  31.662  28.928  1.00  0.00     0.049 A 
ATOM     35  H   UNL A   1      43.699  30.007  28.600  1.00  0.00     0.167 HD
ATOM     36  C   UNL A   1      42.797  32.345  29.913  1.00  0.00     0.074 A 
ATOM     37  C   UNL A   1      41.913  33.307  30.539  1.00  0.00     0.031 C 
ATOM     38  C   UNL A   1      44.086  32.597  29.576  1.00  0.00     0.034 A 
BRANCH  25  39
ATOM     39  C   UNL A   1      46.864  27.898  26.655  1.00  0.00     0.023 A 
ATOM     40  C   UNL A   1      47.131  28.045  25.284  1.00  0.00     0.031 A 
ATOM     41  C   UNL A   1      47.770  27.162  27.436  1.00  0.00     0.131 A 
ATOM     42  C   UNL A   1      48.252  27.413  24.723  1.00  0.00     0.055 A 
ATOM     43  C   UNL A   1      48.913  26.583  26.883  1.00  0.00     0.041 A 
ATOM     44  F   UNL A   1      47.545  26.974  28.747  1.00  0.00    -0.206 F 
ATOM     45  C   UNL A   1      49.153  26.697  25.516  1.00  0.00     0.022 A 
BRANCH  42  46
ATOM     46  S   UNL A   1      48.458  27.448  22.922  1.00  0.00     0.124 S 
ATOM     47  O   UNL A   1      49.769  28.080  22.787  1.00  0.00    -0.237 OA
ATOM     48  O   UNL A   1      48.391  26.035  22.568  1.00  0.00    -0.237 OA
ATOM     49  O   UNL A   1      47.332  28.259  22.465  1.00  0.00    -0.744 OA
ENDBRANCH  42  46
ENDBRANCH  25  39
BRANCH  26  50
ATOM     50  C   UNL A   1      38.460  30.958  31.039  1.00  0.00     0.023 A 
ATOM     51  C   UNL A   1      37.489  31.645  30.297  1.00  0.00     0.031 A 
ATOM     52  C   UNL A   1      38.210  30.691  32.394  1.00  0.00     0.131 A 
ATOM     53  C   UNL A   1      36.304  32.056  30.921  1.00  0.00     0.055 A 
ATOM     54  C   UNL A   1      37.026  31.098  33.009  1.00  0.00     0.041 A 
ATOM     55  F   UNL A   1      39.110  30.021  33.129  1.00  0.00    -0.206 F 
ATOM     56  C   UNL A   1      36.066  31.787  32.273  1.00  0.00     0.022 A 
BRANCH  53  57
ATOM     57  S   UNL A   1      35.070  32.952  29.941  1.00  0.00     0.124 S 
ATOM     58  O   UNL A   1      35.888  33.952  29.265  1.00  0.00    -0.237 OA
ATOM     59  O   UNL A   1      34.526  31.893  29.097  1.00  0.00    -0.237 OA
ATOM     60  O   UNL A   1      34.153  33.474  30.952  1.00  0.00    -0.744 OA
ENDBRANCH  53  57
ENDBRANCH  26  50
BRANCH  38  61
ATOM     61  C   UNL A   1      44.605  33.967  29.903  1.00  0.00     0.023 A 
ATOM     62  C   UNL A   1      44.503  35.014  28.973  1.00  0.00     0.031 A 
ATOM     63  C   UNL A   1      45.229  34.218  31.134  1.00  0.00     0.131 A 
ATOM     64  C   UNL A   1      45.048  36.269  29.279  1.00  0.00     0.055 A 
ATOM     65  C   UNL A   1      45.752  35.474  31.442  1.00  0.00     0.041 A 
ATOM     66  F   UNL A   1      45.355  33.242  32.046  1.00  0.00    -0.206 F 
ATOM     67  C   UNL A   1      45.670  36.506  30.510  1.00  0.00     0.022 A 
BRANCH  64  68
ATOM     68  S   UNL A   1      44.989  37.576  28.024  1.00  0.00     0.124 S 
ATOM     69  O   UNL A   1      43.612  37.484  27.548  1.00  0.00    -0.237 OA
ATOM     70  O   UNL A   1      45.317  38.767  28.801  1.00  0.00    -0.237 OA
ATOM     71  O   UNL A   1      46.005  37.168  27.056  1.00  0.00    -0.744 OA
ENDBRANCH  64  68
ENDBRANCH  38  61
ENDBRANCH  12  13
ENDBRANCH   5   7
ENDBRANCH   2   3
ENDBRANCH   1   2
BRANCH   1  72
ATOM     72  C   UNL A   1      33.763  23.252  27.044  1.00  0.00     0.118 C 
BRANCH  72  73
ATOM     73  N   UNL A   1      32.425  22.688  26.934  1.00  0.00    -0.352 N 
ATOM     74  C   UNL A   1      31.564  22.636  25.868  1.00  0.00     0.257 C 
ATOM     75  H   UNL A   1      32.083  22.275  27.760  1.00  0.00     0.163 HD
ATOM     76  O   UNL A   1      30.401  22.293  26.076  1.00  0.00    -0.269 OA
BRANCH  74  77
ATOM     77  C   UNL A   1      32.038  22.970  24.550  1.00  0.00     0.113 A 
ATOM     78  C   UNL A   1      32.639  22.120  23.578  1.00  0.00     0.127 A 
ATOM     79  C   UNL A   1      32.165  24.234  24.010  1.00  0.00     0.175 A 
ATOM     80  N   UNL A   1      33.016  22.824  22.498  1.00  0.00    -0.079 NA
ATOM     81  O   UNL A   1      32.708  24.141  22.769  1.00  0.00    -0.357 OA
BRANCH  78  82
ATOM     82  C   UNL A   1      32.869  20.681  23.650  1.00  0.00     0.005 A 
ATOM     83  C   UNL A   1      33.812  20.144  24.536  1.00  0.00     0.012 A 
ATOM     84  C   UNL A   1      32.143  19.819  22.814  1.00  0.00     0.012 A 
ATOM     85  C   UNL A   1      34.031  18.763  24.580  1.00  0.00     0.021 A 
ATOM     86  C   UNL A   1      32.367  18.441  22.853  1.00  0.00     0.021 A 
ATOM     87  C   UNL A   1      33.312  17.918  23.736  1.00  0.00     0.041 A 
ATOM     88  Cl  UNL A   1      33.589  16.220  23.780  1.00  0.00    -0.084 Cl
ENDBRANCH  78  82
BRANCH  79  89
ATOM     89  C   UNL A   1      31.874  25.600  24.503  1.00  0.00     0.242 C 
BRANCH  89  90
ATOM     90  O   UNL A   1      30.898  26.244  23.685  1.00  0.00    -0.345 OA
BRANCH  90  91
ATOM     91  C   UNL A   1      31.438  27.228  22.803  1.00  0.00     0.250 C 
ATOM     92  C   UNL A   1      32.132  28.310  23.630  1.00  0.00     0.062 C 
ATOM     93  O   UNL A   1      30.434  27.816  21.978  1.00  0.00    -0.353 OA
ATOM     94  C   UNL A   1      31.126  29.112  24.451  1.00  0.00     0.008 C 
ATOM     95  C   UNL A   1      29.413  28.471  22.730  1.00  0.00     0.163 C 
ATOM     96  C   UNL A   1      29.993  29.610  23.561  1.00  0.00     0.029 C 
ENDBRANCH  90  91
ENDBRANCH  89  90
ENDBRANCH  79  89
ENDBRANCH  74  77
ENDBRANCH  72  73
ENDBRANCH   1  72
TORSDOF 17
ENDMDL
MODEL 3
REMARK VINA RESULT:     -12.3      5.343     10.152
REMARK SMILES O=C(NCCCNC(=O)c1c(-c2ccc(Cl)cc2)noc1CO[C@@H]1CCCCO1)c1ccc(-c2c3nc(c(-c4cc(S(=O)(=O)[O-])ccc4F)c4ccc([nH]4)c(-c4cc(S(=O)(=O)[O-])ccc4F)c4nc(c(-c5cc(S(=O)(=O)[O-])ccc5F)c5ccc2[nH]5)C=C4)C=C3)cc1
REMARK SMILES IDX 5 1 4 2 3 3 1 4 2 5 30 7 31 8 92 9 32 10 91 11 33 12 34 13
REMARK SMILES IDX 35 14 85 15 36 16 90 17 84 18 86 19 37 20 89 21 83 22 82 23
REMARK SMILES IDX 38 25 70 26 50 27 69 28 51 29 54 30 68 31 87 32 52 33 53 34
REMARK SMILES IDX 67 36 88 37 55 38 39 39 40 40 48 41 41 42 47 43 49 44 46 45
REMARK SMILES IDX 42 46 43 47 44 48 45 49 71 50 72 51 80 52 73 53 79 54 81 55
REMARK SMILES IDX 78 56 74 57 75 58 76 59 77 60 56 61 57 62 65 63 58 64 64 65
REMARK SMILES IDX 66 66 63 67 59 68 60 69 61 70 62 71 6 72 7 73 8 74 9 76
REMARK SMILES IDX 10 77 11 78 21 79 19 80 20 81 12 82 13 83 18 84 14 85 17 86
REMARK SMILES IDX 15 87 16 88 22 89 23 90 24 91 25 92 29 93 26 94 28 95 27 96
REMARK H PARENT 3 6 86 24 54 35 7 75
REMARK Flexibility Score: inf
ROOT
ATOM      1  C   UNL A   1      34.773  22.460  26.767  1.00  0.00     0.042 C 
ENDROOT
BRANCH   1   2
ATOM      2  C   UNL A   1      36.100  22.881  26.141  1.00  0.00     0.118 C 
BRANCH   2   3
ATOM      3  N   UNL A   1      37.033  21.773  25.991  1.00  0.00    -0.352 N 
ATOM      4  O   UNL A   1      38.973  20.702  25.668  1.00  0.00    -0.269 OA
ATOM      5  C   UNL A   1      38.405  21.734  26.022  1.00  0.00     0.251 C 
ATOM      6  H   UNL A   1      36.605  20.899  25.842  1.00  0.00     0.163 HD
BRANCH   5   7
ATOM      7  C   UNL A   1      39.208  22.902  26.454  1.00  0.00     0.039 A 
ATOM      8  C   UNL A   1      40.182  22.792  27.449  1.00  0.00     0.014 A 
ATOM      9  C   UNL A   1      39.036  24.123  25.790  1.00  0.00     0.014 A 
ATOM     10  C   UNL A   1      40.881  23.922  27.868  1.00  0.00     0.010 A 
ATOM     11  C   UNL A   1      39.788  25.243  26.164  1.00  0.00     0.010 A 
ATOM     12  C   UNL A   1      40.694  25.159  27.230  1.00  0.00    -0.014 A 
BRANCH  12  13
ATOM     13  C   UNL A   1      41.482  26.332  27.688  1.00  0.00     0.031 A 
ATOM     14  C   UNL A   1      42.891  26.554  27.214  1.00  0.00     0.074 A 
ATOM     15  C   UNL A   1      40.892  27.241  28.488  1.00  0.00     0.049 A 
ATOM     16  N   UNL A   1      43.686  27.570  27.438  1.00  0.00    -0.248 NA
ATOM     17  C   UNL A   1      43.492  25.491  26.397  1.00  0.00     0.031 C 
ATOM     18  C   UNL A   1      39.543  27.127  29.047  1.00  0.00     0.029 A 
ATOM     19  N   UNL A   1      41.336  28.459  28.931  1.00  0.00    -0.354 N 
ATOM     20  C   UNL A   1      44.891  27.255  26.821  1.00  0.00     0.074 A 
ATOM     21  C   UNL A   1      44.722  25.951  26.215  1.00  0.00     0.031 C 
ATOM     22  C   UNL A   1      39.241  28.263  29.696  1.00  0.00     0.029 A 
ATOM     23  C   UNL A   1      40.380  29.170  29.616  1.00  0.00     0.049 A 
ATOM     24  H   UNL A   1      42.250  28.792  28.775  1.00  0.00     0.167 HD
ATOM     25  C   UNL A   1      46.035  27.983  26.769  1.00  0.00     0.034 A 
ATOM     26  C   UNL A   1      40.407  30.424  30.101  1.00  0.00     0.034 A 
ATOM     27  C   UNL A   1      46.197  29.291  27.351  1.00  0.00     0.049 A 
ATOM     28  C   UNL A   1      41.640  31.258  29.928  1.00  0.00     0.074 A 
ATOM     29  C   UNL A   1      47.319  30.104  27.365  1.00  0.00     0.029 A 
ATOM     30  N   UNL A   1      45.195  29.990  28.012  1.00  0.00    -0.354 N 
ATOM     31  N   UNL A   1      42.781  30.932  29.372  1.00  0.00    -0.248 NA
ATOM     32  C   UNL A   1      41.585  32.629  30.449  1.00  0.00     0.031 C 
ATOM     33  C   UNL A   1      47.000  31.285  28.050  1.00  0.00     0.029 A 
ATOM     34  C   UNL A   1      45.672  31.221  28.435  1.00  0.00     0.049 A 
ATOM     35  H   UNL A   1      44.280  29.659  28.158  1.00  0.00     0.167 HD
ATOM     36  C   UNL A   1      43.591  32.052  29.498  1.00  0.00     0.074 A 
ATOM     37  C   UNL A   1      42.800  33.072  30.156  1.00  0.00     0.031 C 
ATOM     38  C   UNL A   1      44.882  32.214  29.115  1.00  0.00     0.034 A 
BRANCH  25  39
ATOM     39  C   UNL A   1      47.217  27.336  26.101  1.00  0.00     0.023 A 
ATOM     40  C   UNL A   1      48.164  26.600  26.832  1.00  0.00     0.031 A 
ATOM     41  C   UNL A   1      47.424  27.505  24.722  1.00  0.00     0.131 A 
ATOM     42  C   UNL A   1      49.308  26.105  26.187  1.00  0.00     0.055 A 
ATOM     43  C   UNL A   1      48.536  26.962  24.076  1.00  0.00     0.041 A 
ATOM     44  F   UNL A   1      46.559  28.220  23.984  1.00  0.00    -0.206 F 
ATOM     45  C   UNL A   1      49.492  26.267  24.812  1.00  0.00     0.022 A 
BRANCH  42  46
ATOM     46  S   UNL A   1      50.609  25.340  27.192  1.00  0.00     0.124 S 
ATOM     47  O   UNL A   1      51.535  24.867  26.166  1.00  0.00    -0.237 OA
ATOM     48  O   UNL A   1      51.075  26.455  28.009  1.00  0.00    -0.237 OA
ATOM     49  O   UNL A   1      49.905  24.287  27.920  1.00  0.00    -0.744 OA
ENDBRANCH  42  46
ENDBRANCH  25  39
BRANCH  26  50
ATOM     50  C   UNL A   1      39.213  30.968  30.786  1.00  0.00     0.023 A 
ATOM     51  C   UNL A   1      38.223  31.650  30.063  1.00  0.00     0.031 A 
ATOM     52  C   UNL A   1      39.038  30.789  32.167  1.00  0.00     0.131 A 
ATOM     53  C   UNL A   1      37.095  32.142  30.731  1.00  0.00     0.055 A 
ATOM     54  C   UNL A   1      37.910  31.277  32.826  1.00  0.00     0.041 A 
ATOM     55  F   UNL A   1      39.957  30.127  32.886  1.00  0.00    -0.206 F 
ATOM     56  C   UNL A   1      36.931  31.961  32.108  1.00  0.00     0.022 A 
BRANCH  53  57
ATOM     57  S   UNL A   1      35.836  33.029  29.774  1.00  0.00     0.124 S 
ATOM     58  O   UNL A   1      36.565  33.372  28.559  1.00  0.00    -0.237 OA
ATOM     59  O   UNL A   1      34.795  32.017  29.633  1.00  0.00    -0.237 OA
ATOM     60  O   UNL A   1      35.493  34.158  30.636  1.00  0.00    -0.744 OA
ENDBRANCH  53  57
ENDBRANCH  26  50
BRANCH  38  61
ATOM     61  C   UNL A   1      45.505  33.544  29.420  1.00  0.00     0.023 A 
ATOM     62  C   UNL A   1      45.515  34.570  28.461  1.00  0.00     0.031 A 
ATOM     63  C   UNL A   1      46.119  33.777  30.660  1.00  0.00     0.131 A 
ATOM     64  C   UNL A   1      46.156  35.783  28.749  1.00  0.00     0.055 A 
ATOM     65  C   UNL A   1      46.738  34.993  30.949  1.00  0.00     0.041 A 
ATOM     66  F   UNL A   1      46.140  32.819  31.600  1.00  0.00    -0.206 F 
ATOM     67  C   UNL A   1      46.766  36.002  29.989  1.00  0.00     0.022 A 
BRANCH  64  68
ATOM     68  S   UNL A   1      46.237  37.056  27.460  1.00  0.00     0.124 S 
ATOM     69  O   UNL A   1      46.666  36.288  26.295  1.00  0.00    -0.237 OA
ATOM     70  O   UNL A   1      44.865  37.552  27.427  1.00  0.00    -0.237 OA
ATOM     71  O   UNL A   1      47.226  38.002  27.974  1.00  0.00    -0.744 OA
ENDBRANCH  64  68
ENDBRANCH  38  61
ENDBRANCH  12  13
ENDBRANCH   5   7
ENDBRANCH   2   3
ENDBRANCH   1   2
BRANCH   1  72
ATOM     72  C   UNL A   1      34.164  21.190  26.180  1.00  0.00     0.118 C 
BRANCH  72  73
ATOM     73  N   UNL A   1      32.710  21.181  26.250  1.00  0.00    -0.352 N 
ATOM     74  C   UNL A   1      31.775  21.798  25.457  1.00  0.00     0.257 C 
ATOM     75  H   UNL A   1      32.336  20.645  26.986  1.00  0.00     0.163 HD
ATOM     76  O   UNL A   1      30.607  21.812  25.840  1.00  0.00    -0.269 OA
BRANCH  74  77
ATOM     77  C   UNL A   1      32.179  22.395  24.210  1.00  0.00     0.113 A 
ATOM     78  C   UNL A   1      32.338  23.774  23.895  1.00  0.00     0.127 A 
ATOM     79  C   UNL A   1      32.335  21.756  22.997  1.00  0.00     0.175 A 
ATOM     80  N   UNL A   1      32.654  23.934  22.600  1.00  0.00    -0.079 NA
ATOM     81  O   UNL A   1      32.661  22.670  22.047  1.00  0.00    -0.357 OA
BRANCH  78  82
ATOM     82  C   UNL A   1      32.192  24.929  24.776  1.00  0.00     0.005 A 
ATOM     83  C   UNL A   1      33.311  25.541  25.355  1.00  0.00     0.012 A 
ATOM     84  C   UNL A   1      30.913  25.433  25.054  1.00  0.00     0.012 A 
ATOM     85  C   UNL A   1      33.152  26.637  26.210  1.00  0.00     0.021 A 
ATOM     86  C   UNL A   1      30.754  26.524  25.912  1.00  0.00     0.021 A 
ATOM     87  C   UNL A   1      31.874  27.121  26.488  1.00  0.00     0.041 A 
ATOM     88  Cl  UNL A   1      31.676  28.462  27.548  1.00  0.00    -0.084 Cl
ENDBRANCH  78  82
BRANCH  79  89
ATOM     89  C   UNL A   1      32.190  20.355  22.543  1.00  0.00     0.242 C 
BRANCH  89  90
ATOM     90  O   UNL A   1      32.840  19.455  23.441  1.00  0.00    -0.345 OA
BRANCH  90  91
ATOM     91  C   UNL A   1      32.201  18.184  23.553  1.00  0.00     0.250 C 
ATOM     92  C   UNL A   1      32.288  17.710  25.005  1.00  0.00     0.062 C 
ATOM     93  O   UNL A   1      32.786  17.212  22.689  1.00  0.00    -0.353 OA
ATOM     94  C   UNL A   1      33.728  17.397  25.401  1.00  0.00     0.008 C 
ATOM     95  C   UNL A   1      34.169  16.989  22.963  1.00  0.00     0.163 C 
ATOM     96  C   UNL A   1      34.368  16.463  24.380  1.00  0.00     0.029 C 
ENDBRANCH  90  91
ENDBRANCH  89  90
ENDBRANCH  79  89
ENDBRANCH  74  77
ENDBRANCH  72  73
ENDBRANCH   1  72
TORSDOF 17
ENDMDL
