MODEL 1
REMARK VINA RESULT:     -14.5      0.000      0.000
REMARK SMILES Cc1ccc(NC(=O)c2ccccc2NC(=O)[C@H]2CCCC[C@H]2C(=O)NCCCNC(=O)c2ccc(-c3c4nc(c(-c5cc(S(=O)(=O)[O-])ccc5F)c5ccc([nH]5)c(-c5cc(S(=O)(=O)[O-])ccc5F)c5nc(c(-c6cc(S(=O)(=O)[O-])ccc6F)c6ccc3[nH]6)C=C5)C=C4)cc2)cc1
REMARK SMILES IDX 27 1 26 2 24 3 25 4 23 6 18 7 19 8 20 9 22 10 21 11 16 12
REMARK SMILES IDX 15 13 17 15 14 16 9 17 10 18 11 19 13 20 12 21 7 22 6 23
REMARK SMILES IDX 8 25 5 26 1 27 2 28 3 29 97 30 4 31 96 32 28 33 29 34 30 35
REMARK SMILES IDX 31 36 32 38 33 39 34 40 95 41 35 42 94 43 36 44 37 45 38 46
REMARK SMILES IDX 88 47 39 48 93 49 87 50 89 51 40 52 92 53 86 54 85 55 41 57
REMARK SMILES IDX 73 58 53 59 72 60 54 61 57 62 71 63 90 64 55 65 56 66 70 68
REMARK SMILES IDX 91 69 58 70 42 71 43 72 51 73 44 74 50 75 52 76 49 77 45 78
REMARK SMILES IDX 46 79 47 80 48 81 74 82 75 83 83 84 76 85 82 86 84 87 81 88
REMARK SMILES IDX 77 89 78 90 79 91 80 92 59 93 60 94 68 95 61 96 67 97 69 98
REMARK SMILES IDX 66 99 62 100 63 101 64 102 65 103
REMARK H PARENT 26 5 15 14 6 24 30 37 89 56 57 67
REMARK Flexibility Score: inf
ROOT
ATOM      1  C   UNL A   1      38.091  21.514  25.332  1.00  0.00     0.117 C 
ENDROOT
BRANCH   1   2
ATOM      2  N   UNL A   1      37.400  22.803  25.327  1.00  0.00    -0.356 N 
ATOM      3  C   UNL A   1      36.127  23.206  25.526  1.00  0.00     0.223 C 
ATOM      4  O   UNL A   1      35.926  24.429  25.486  1.00  0.00    -0.275 OA
ATOM      5  H   UNL A   1      38.006  23.555  25.133  1.00  0.00     0.163 HD
BRANCH   3   6
ATOM      6  C   UNL A   1      34.914  22.294  25.682  1.00  0.00     0.091 C 
ATOM      7  C   UNL A   1      33.624  23.110  25.901  1.00  0.00     0.091 C 
ATOM      8  C   UNL A   1      32.428  22.194  26.226  1.00  0.00     0.014 C 
ATOM      9  C   UNL A   1      32.315  20.961  25.320  1.00  0.00     0.001 C 
ATOM     10  C   UNL A   1      34.771  21.085  24.763  1.00  0.00     0.014 C 
ATOM     11  C   UNL A   1      33.626  20.186  25.231  1.00  0.00     0.001 C 
BRANCH   7  12
ATOM     12  C   UNL A   1      33.284  23.960  24.696  1.00  0.00     0.228 C 
ATOM     13  N   UNL A   1      33.096  25.305  24.711  1.00  0.00    -0.325 N 
ATOM     14  H   UNL A   1      33.171  25.678  23.803  1.00  0.00     0.169 HD
ATOM     15  O   UNL A   1      33.182  23.412  23.593  1.00  0.00    -0.274 OA
BRANCH  13  16
ATOM     16  C   UNL A   1      32.826  26.323  25.647  1.00  0.00     0.054 A 
ATOM     17  C   UNL A   1      31.517  26.475  26.181  1.00  0.00     0.063 A 
ATOM     18  C   UNL A   1      31.240  27.565  27.039  1.00  0.00     0.016 A 
ATOM     19  C   UNL A   1      32.229  28.467  27.413  1.00  0.00     0.001 A 
ATOM     20  C   UNL A   1      33.819  27.193  26.114  1.00  0.00     0.027 A 
ATOM     21  C   UNL A   1      33.523  28.268  26.964  1.00  0.00     0.002 A 
BRANCH  17  22
ATOM     22  C   UNL A   1      30.290  25.691  25.850  1.00  0.00     0.257 C 
ATOM     23  N   UNL A   1      29.348  25.995  24.902  1.00  0.00    -0.322 N 
ATOM     24  H   UNL A   1      28.583  25.376  24.934  1.00  0.00     0.170 HD
ATOM     25  O   UNL A   1      30.070  24.667  26.510  1.00  0.00    -0.269 OA
BRANCH  23  26
ATOM     26  C   UNL A   1      29.197  26.956  23.902  1.00  0.00     0.041 A 
ATOM     27  C   UNL A   1      28.501  30.600  21.769  1.00  0.00     0.044 C 
ATOM     28  C   UNL A   1      28.716  29.250  22.382  1.00  0.00    -0.051 A 
ATOM     29  C   UNL A   1      30.006  28.702  22.459  1.00  0.00     0.005 A 
ATOM     30  C   UNL A   1      27.650  28.569  22.972  1.00  0.00     0.005 A 
ATOM     31  C   UNL A   1      30.248  27.551  23.215  1.00  0.00     0.026 A 
ATOM     32  C   UNL A   1      27.888  27.409  23.701  1.00  0.00     0.026 A 
ENDBRANCH  23  26
ENDBRANCH  17  22
ENDBRANCH  13  16
ENDBRANCH   7  12
ENDBRANCH   3   6
ENDBRANCH   1   2
BRANCH   1  33
ATOM     33  C   UNL A   1      39.419  21.572  26.090  1.00  0.00     0.042 C 
BRANCH  33  34
ATOM     34  C   UNL A   1      39.723  22.923  26.731  1.00  0.00     0.118 C 
BRANCH  34  35
ATOM     35  N   UNL A   1      41.111  23.354  26.523  1.00  0.00    -0.352 N 
ATOM     36  C   UNL A   1      41.629  24.638  26.497  1.00  0.00     0.251 C 
ATOM     37  H   UNL A   1      41.764  22.630  26.382  1.00  0.00     0.163 HD
ATOM     38  O   UNL A   1      42.817  24.882  26.381  1.00  0.00    -0.269 OA
BRANCH  36  39
ATOM     39  C   UNL A   1      40.656  25.735  26.657  1.00  0.00     0.039 A 
ATOM     40  C   UNL A   1      41.007  26.969  26.113  1.00  0.00     0.014 A 
ATOM     41  C   UNL A   1      39.728  25.626  27.690  1.00  0.00     0.014 A 
ATOM     42  C   UNL A   1      40.640  28.121  26.796  1.00  0.00     0.010 A 
ATOM     43  C   UNL A   1      39.413  26.768  28.404  1.00  0.00     0.010 A 
ATOM     44  C   UNL A   1      39.958  27.997  28.012  1.00  0.00    -0.014 A 
BRANCH  44  45
ATOM     45  C   UNL A   1      39.986  29.063  29.011  1.00  0.00     0.031 A 
ATOM     46  C   UNL A   1      38.906  30.061  29.070  1.00  0.00     0.074 A 
ATOM     47  C   UNL A   1      41.037  29.201  29.852  1.00  0.00     0.049 A 
ATOM     48  N   UNL A   1      39.100  31.313  29.323  1.00  0.00    -0.248 NA
ATOM     49  C   UNL A   1      37.516  29.725  28.802  1.00  0.00     0.031 C 
ATOM     50  C   UNL A   1      41.147  30.121  30.982  1.00  0.00     0.029 A 
ATOM     51  N   UNL A   1      42.317  28.678  29.718  1.00  0.00    -0.354 N 
ATOM     52  C   UNL A   1      37.866  31.885  29.520  1.00  0.00     0.074 A 
ATOM     53  C   UNL A   1      36.913  30.875  29.113  1.00  0.00     0.031 C 
ATOM     54  C   UNL A   1      42.444  30.286  31.285  1.00  0.00     0.029 A 
ATOM     55  C   UNL A   1      43.230  29.567  30.298  1.00  0.00     0.049 A 
ATOM     56  H   UNL A   1      42.546  27.823  29.287  1.00  0.00     0.167 HD
ATOM     57  C   UNL A   1      37.760  33.093  30.145  1.00  0.00     0.034 A 
ATOM     58  C   UNL A   1      44.272  30.085  29.587  1.00  0.00     0.034 A 
ATOM     59  C   UNL A   1      39.060  33.607  30.572  1.00  0.00     0.049 A 
ATOM     60  C   UNL A   1      44.204  31.590  29.425  1.00  0.00     0.074 A 
ATOM     61  C   UNL A   1      39.705  33.596  31.799  1.00  0.00     0.029 A 
ATOM     62  N   UNL A   1      40.011  33.990  29.632  1.00  0.00    -0.354 N 
ATOM     63  N   UNL A   1      43.165  32.317  29.730  1.00  0.00    -0.248 NA
ATOM     64  C   UNL A   1      45.292  32.384  28.861  1.00  0.00     0.031 C 
ATOM     65  C   UNL A   1      41.066  33.930  31.584  1.00  0.00     0.029 A 
ATOM     66  C   UNL A   1      41.244  34.172  30.233  1.00  0.00     0.049 A 
ATOM     67  H   UNL A   1      39.831  34.115  28.672  1.00  0.00     0.167 HD
ATOM     68  C   UNL A   1      43.387  33.620  29.354  1.00  0.00     0.074 A 
ATOM     69  C   UNL A   1      44.754  33.616  28.864  1.00  0.00     0.031 C 
ATOM     70  C   UNL A   1      42.410  34.574  29.453  1.00  0.00     0.034 A 
BRANCH  57  71
ATOM     71  C   UNL A   1      36.444  33.625  30.662  1.00  0.00     0.023 A 
ATOM     72  C   UNL A   1      35.535  34.231  29.773  1.00  0.00     0.031 A 
ATOM     73  C   UNL A   1      36.047  33.601  32.013  1.00  0.00     0.131 A 
ATOM     74  C   UNL A   1      34.379  34.882  30.239  1.00  0.00     0.055 A 
ATOM     75  C   UNL A   1      34.937  34.310  32.488  1.00  0.00     0.041 A 
ATOM     76  F   UNL A   1      36.698  32.856  32.918  1.00  0.00    -0.206 F 
ATOM     77  C   UNL A   1      34.104  34.974  31.600  1.00  0.00     0.022 A 
BRANCH  74  78
ATOM     78  S   UNL A   1      33.225  35.598  29.035  1.00  0.00     0.124 S 
ATOM     79  O   UNL A   1      32.291  36.324  29.889  1.00  0.00    -0.237 OA
ATOM     80  O   UNL A   1      34.110  36.410  28.208  1.00  0.00    -0.237 OA
ATOM     81  O   UNL A   1      32.663  34.424  28.367  1.00  0.00    -0.744 OA
ENDBRANCH  74  78
ENDBRANCH  57  71
BRANCH  58  82
ATOM     82  C   UNL A   1      44.828  29.145  28.574  1.00  0.00     0.023 A 
ATOM     83  C   UNL A   1      45.586  28.047  29.032  1.00  0.00     0.031 A 
ATOM     84  C   UNL A   1      44.323  29.102  27.268  1.00  0.00     0.131 A 
ATOM     85  C   UNL A   1      45.708  26.896  28.239  1.00  0.00     0.055 A 
ATOM     86  C   UNL A   1      44.473  27.963  26.469  1.00  0.00     0.041 A 
ATOM     87  F   UNL A   1      43.572  30.105  26.791  1.00  0.00    -0.206 F 
ATOM     88  C   UNL A   1      45.130  26.838  26.968  1.00  0.00     0.022 A 
BRANCH  85  89
ATOM     89  S   UNL A   1      46.462  25.384  28.910  1.00  0.00     0.124 S 
ATOM     90  O   UNL A   1      45.503  24.986  29.933  1.00  0.00    -0.237 OA
ATOM     91  O   UNL A   1      46.552  24.506  27.748  1.00  0.00    -0.237 OA
ATOM     92  O   UNL A   1      47.752  25.866  29.403  1.00  0.00    -0.744 OA
ENDBRANCH  85  89
ENDBRANCH  58  82
BRANCH  70  93
ATOM     93  C   UNL A   1      42.486  35.991  28.912  1.00  0.00     0.023 A 
ATOM     94  C   UNL A   1      43.150  37.041  29.565  1.00  0.00     0.031 A 
ATOM     95  C   UNL A   1      41.920  36.323  27.655  1.00  0.00     0.131 A 
ATOM     96  C   UNL A   1      43.150  38.347  29.041  1.00  0.00     0.055 A 
ATOM     97  C   UNL A   1      41.995  37.603  27.095  1.00  0.00     0.041 A 
ATOM     98  F   UNL A   1      41.273  35.416  26.909  1.00  0.00    -0.206 F 
ATOM     99  C   UNL A   1      42.595  38.633  27.798  1.00  0.00     0.022 A 
BRANCH  96 100
ATOM    100  S   UNL A   1      43.830  39.681  30.064  1.00  0.00     0.124 S 
ATOM    101  O   UNL A   1      44.767  40.317  29.143  1.00  0.00    -0.237 OA
ATOM    102  O   UNL A   1      42.641  40.459  30.394  1.00  0.00    -0.237 OA
ATOM    103  O   UNL A   1      44.445  38.978  31.187  1.00  0.00    -0.744 OA
ENDBRANCH  96 100
ENDBRANCH  70  93
ENDBRANCH  44  45
ENDBRANCH  36  39
ENDBRANCH  34  35
ENDBRANCH  33  34
ENDBRANCH   1  33
TORSDOF 17
ENDMDL
MODEL 2
REMARK VINA RESULT:     -14.3      1.366      2.619
REMARK SMILES Cc1ccc(NC(=O)c2ccccc2NC(=O)[C@H]2CCCC[C@H]2C(=O)NCCCNC(=O)c2ccc(-c3c4nc(c(-c5cc(S(=O)(=O)[O-])ccc5F)c5ccc([nH]5)c(-c5cc(S(=O)(=O)[O-])ccc5F)c5nc(c(-c6cc(S(=O)(=O)[O-])ccc6F)c6ccc3[nH]6)C=C5)C=C4)cc2)cc1
REMARK SMILES IDX 27 1 26 2 24 3 25 4 23 6 18 7 19 8 20 9 22 10 21 11 16 12
REMARK SMILES IDX 15 13 17 15 14 16 9 17 10 18 11 19 13 20 12 21 7 22 6 23
REMARK SMILES IDX 8 25 5 26 1 27 2 28 3 29 97 30 4 31 96 32 28 33 29 34 30 35
REMARK SMILES IDX 31 36 32 38 33 39 34 40 95 41 35 42 94 43 36 44 37 45 38 46
REMARK SMILES IDX 88 47 39 48 93 49 87 50 89 51 40 52 92 53 86 54 85 55 41 57
REMARK SMILES IDX 73 58 53 59 72 60 54 61 57 62 71 63 90 64 55 65 56 66 70 68
REMARK SMILES IDX 91 69 58 70 42 71 43 72 51 73 44 74 50 75 52 76 49 77 45 78
REMARK SMILES IDX 46 79 47 80 48 81 74 82 75 83 83 84 76 85 82 86 84 87 81 88
REMARK SMILES IDX 77 89 78 90 79 91 80 92 59 93 60 94 68 95 61 96 67 97 69 98
REMARK SMILES IDX 66 99 62 100 63 101 64 102 65 103
REMARK H PARENT 26 5 15 14 6 24 30 37 89 56 57 67
REMARK Flexibility Score: inf
ROOT
ATOM      1  C   UNL A   1      36.888  21.591  25.440  1.00  0.00     0.117 C 
ENDROOT
BRANCH   1   2
ATOM      2  N   UNL A   1      36.024  22.194  26.453  1.00  0.00    -0.356 N 
ATOM      3  C   UNL A   1      34.699  22.422  26.567  1.00  0.00     0.223 C 
ATOM      4  O   UNL A   1      34.318  22.932  27.632  1.00  0.00    -0.275 OA
ATOM      5  H   UNL A   1      36.528  22.509  27.238  1.00  0.00     0.163 HD
BRANCH   3   6
ATOM      6  C   UNL A   1      33.657  22.212  25.472  1.00  0.00     0.091 C 
ATOM      7  C   UNL A   1      32.978  23.541  25.082  1.00  0.00     0.091 C 
ATOM      8  C   UNL A   1      31.812  23.309  24.101  1.00  0.00     0.014 C 
ATOM      9  C   UNL A   1      32.137  22.342  22.955  1.00  0.00     0.001 C 
ATOM     10  C   UNL A   1      33.980  21.281  24.309  1.00  0.00     0.014 C 
ATOM     11  C   UNL A   1      32.736  21.031  23.457  1.00  0.00     0.001 C 
BRANCH   7  12
ATOM     12  C   UNL A   1      33.958  24.514  24.465  1.00  0.00     0.228 C 
ATOM     13  N   UNL A   1      33.676  25.794  24.108  1.00  0.00    -0.325 N 
ATOM     14  H   UNL A   1      34.503  26.317  24.003  1.00  0.00     0.169 HD
ATOM     15  O   UNL A   1      35.124  24.145  24.279  1.00  0.00    -0.274 OA
BRANCH  13  16
ATOM     16  C   UNL A   1      32.545  26.591  23.844  1.00  0.00     0.054 A 
ATOM     17  C   UNL A   1      31.761  27.100  24.915  1.00  0.00     0.063 A 
ATOM     18  C   UNL A   1      30.572  27.810  24.628  1.00  0.00     0.016 A 
ATOM     19  C   UNL A   1      30.173  28.065  23.322  1.00  0.00     0.001 A 
ATOM     20  C   UNL A   1      32.165  26.942  22.542  1.00  0.00     0.027 A 
ATOM     21  C   UNL A   1      30.981  27.646  22.280  1.00  0.00     0.002 A 
BRANCH  17  22
ATOM     22  C   UNL A   1      31.944  26.872  26.380  1.00  0.00     0.257 C 
ATOM     23  N   UNL A   1      32.680  27.637  27.247  1.00  0.00    -0.322 N 
ATOM     24  H   UNL A   1      32.726  27.233  28.143  1.00  0.00     0.170 HD
ATOM     25  O   UNL A   1      31.402  25.876  26.877  1.00  0.00    -0.269 OA
BRANCH  23  26
ATOM     26  C   UNL A   1      33.379  28.842  27.184  1.00  0.00     0.041 A 
ATOM     27  C   UNL A   1      35.109  32.648  28.099  1.00  0.00     0.044 C 
ATOM     28  C   UNL A   1      34.522  31.352  27.628  1.00  0.00    -0.051 A 
ATOM     29  C   UNL A   1      35.331  30.214  27.490  1.00  0.00     0.005 A 
ATOM     30  C   UNL A   1      33.147  31.240  27.418  1.00  0.00     0.005 A 
ATOM     31  C   UNL A   1      34.762  28.958  27.263  1.00  0.00     0.026 A 
ATOM     32  C   UNL A   1      32.584  29.994  27.165  1.00  0.00     0.026 A 
ENDBRANCH  23  26
ENDBRANCH  17  22
ENDBRANCH  13  16
ENDBRANCH   7  12
ENDBRANCH   3   6
ENDBRANCH   1   2
BRANCH   1  33
ATOM     33  C   UNL A   1      38.372  21.798  25.746  1.00  0.00     0.042 C 
BRANCH  33  34
ATOM     34  C   UNL A   1      38.747  23.229  26.122  1.00  0.00     0.118 C 
BRANCH  34  35
ATOM     35  N   UNL A   1      40.180  23.389  26.400  1.00  0.00    -0.352 N 
ATOM     36  C   UNL A   1      40.841  24.467  26.965  1.00  0.00     0.251 C 
ATOM     37  H   UNL A   1      40.749  22.625  26.150  1.00  0.00     0.163 HD
ATOM     38  O   UNL A   1      42.034  24.470  27.213  1.00  0.00    -0.269 OA
BRANCH  36  39
ATOM     39  C   UNL A   1      40.009  25.639  27.298  1.00  0.00     0.039 A 
ATOM     40  C   UNL A   1      40.345  26.842  26.682  1.00  0.00     0.014 A 
ATOM     41  C   UNL A   1      39.294  25.600  28.493  1.00  0.00     0.014 A 
ATOM     42  C   UNL A   1      40.212  28.017  27.411  1.00  0.00     0.010 A 
ATOM     43  C   UNL A   1      39.217  26.761  29.241  1.00  0.00     0.010 A 
ATOM     44  C   UNL A   1      39.772  27.943  28.737  1.00  0.00    -0.014 A 
BRANCH  44  45
ATOM     45  C   UNL A   1      40.080  28.999  29.699  1.00  0.00     0.031 A 
ATOM     46  C   UNL A   1      39.064  30.001  30.060  1.00  0.00     0.074 A 
ATOM     47  C   UNL A   1      41.322  29.124  30.221  1.00  0.00     0.049 A 
ATOM     48  N   UNL A   1      39.327  31.249  30.261  1.00  0.00    -0.248 NA
ATOM     49  C   UNL A   1      37.651  29.673  30.181  1.00  0.00     0.031 C 
ATOM     50  C   UNL A   1      41.743  30.033  31.285  1.00  0.00     0.029 A 
ATOM     51  N   UNL A   1      42.513  28.599  29.737  1.00  0.00    -0.354 N 
ATOM     52  C   UNL A   1      38.199  31.825  30.794  1.00  0.00     0.074 A 
ATOM     53  C   UNL A   1      37.164  30.822  30.654  1.00  0.00     0.031 C 
ATOM     54  C   UNL A   1      43.074  30.190  31.223  1.00  0.00     0.029 A 
ATOM     55  C   UNL A   1      43.556  29.477  30.053  1.00  0.00     0.049 A 
ATOM     56  H   UNL A   1      42.609  27.747  29.252  1.00  0.00     0.167 HD
ATOM     57  C   UNL A   1      38.276  33.026  31.434  1.00  0.00     0.034 A 
ATOM     58  C   UNL A   1      44.366  29.999  29.087  1.00  0.00     0.034 A 
ATOM     59  C   UNL A   1      39.647  33.532  31.493  1.00  0.00     0.049 A 
ATOM     60  C   UNL A   1      44.266  31.505  28.963  1.00  0.00     0.074 A 
ATOM     61  C   UNL A   1      40.603  33.505  32.496  1.00  0.00     0.029 A 
ATOM     62  N   UNL A   1      40.306  33.919  30.332  1.00  0.00    -0.354 N 
ATOM     63  N   UNL A   1      43.355  32.233  29.547  1.00  0.00    -0.248 NA
ATOM     64  C   UNL A   1      45.163  32.301  28.130  1.00  0.00     0.031 C 
ATOM     65  C   UNL A   1      41.855  33.836  31.919  1.00  0.00     0.029 A 
ATOM     66  C   UNL A   1      41.658  34.090  30.573  1.00  0.00     0.049 A 
ATOM     67  H   UNL A   1      39.871  34.055  29.459  1.00  0.00     0.167 HD
ATOM     68  C   UNL A   1      43.474  33.539  29.136  1.00  0.00     0.074 A 
ATOM     69  C   UNL A   1      44.655  33.535  28.290  1.00  0.00     0.031 C 
ATOM     70  C   UNL A   1      42.567  34.496  29.507  1.00  0.00     0.034 A 
BRANCH  57  71
ATOM     71  C   UNL A   1      37.155  33.559  32.296  1.00  0.00     0.023 A 
ATOM     72  C   UNL A   1      36.057  34.207  31.697  1.00  0.00     0.031 A 
ATOM     73  C   UNL A   1      37.129  33.494  33.703  1.00  0.00     0.131 A 
ATOM     74  C   UNL A   1      35.080  34.858  32.472  1.00  0.00     0.055 A 
ATOM     75  C   UNL A   1      36.199  34.201  34.475  1.00  0.00     0.041 A 
ATOM     76  F   UNL A   1      37.979  32.709  34.381  1.00  0.00    -0.206 F 
ATOM     77  C   UNL A   1      35.177  34.906  33.860  1.00  0.00     0.022 A 
BRANCH  74  78
ATOM     78  S   UNL A   1      33.666  35.630  31.638  1.00  0.00     0.124 S 
ATOM     79  O   UNL A   1      33.912  35.306  30.238  1.00  0.00    -0.237 OA
ATOM     80  O   UNL A   1      32.534  34.959  32.269  1.00  0.00    -0.237 OA
ATOM     81  O   UNL A   1      33.807  37.047  31.976  1.00  0.00    -0.744 OA
ENDBRANCH  74  78
ENDBRANCH  57  71
BRANCH  58  82
ATOM     82  C   UNL A   1      44.617  29.067  27.953  1.00  0.00     0.023 A 
ATOM     83  C   UNL A   1      45.508  27.992  28.161  1.00  0.00     0.031 A 
ATOM     84  C   UNL A   1      43.744  29.001  26.859  1.00  0.00     0.131 A 
ATOM     85  C   UNL A   1      45.417  26.840  27.366  1.00  0.00     0.055 A 
ATOM     86  C   UNL A   1      43.678  27.861  26.051  1.00  0.00     0.041 A 
ATOM     87  F   UNL A   1      42.857  29.980  26.632  1.00  0.00    -0.206 F 
ATOM     88  C   UNL A   1      44.485  26.757  26.328  1.00  0.00     0.022 A 
BRANCH  85  89
ATOM     89  S   UNL A   1      46.380  25.353  27.777  1.00  0.00     0.124 S 
ATOM     90  O   UNL A   1      45.381  24.297  27.673  1.00  0.00    -0.237 OA
ATOM     91  O   UNL A   1      47.428  25.337  26.762  1.00  0.00    -0.237 OA
ATOM     92  O   UNL A   1      46.854  25.647  29.129  1.00  0.00    -0.744 OA
ENDBRANCH  85  89
ENDBRANCH  58  82
BRANCH  70  93
ATOM     93  C   UNL A   1      42.502  35.918  28.978  1.00  0.00     0.023 A 
ATOM     94  C   UNL A   1      43.254  36.981  29.502  1.00  0.00     0.031 A 
ATOM     95  C   UNL A   1      41.694  36.243  27.858  1.00  0.00     0.131 A 
ATOM     96  C   UNL A   1      43.120  38.290  29.003  1.00  0.00     0.055 A 
ATOM     97  C   UNL A   1      41.627  37.528  27.310  1.00  0.00     0.041 A 
ATOM     98  F   UNL A   1      40.937  35.324  27.242  1.00  0.00    -0.206 F 
ATOM     99  C   UNL A   1      42.327  38.569  27.895  1.00  0.00     0.022 A 
BRANCH  96 100
ATOM    100  S   UNL A   1      43.952  39.635  29.890  1.00  0.00     0.124 S 
ATOM    101  O   UNL A   1      43.439  40.814  29.197  1.00  0.00    -0.237 OA
ATOM    102  O   UNL A   1      43.479  39.448  31.257  1.00  0.00    -0.237 OA
ATOM    103  O   UNL A   1      45.372  39.362  29.679  1.00  0.00    -0.744 OA
ENDBRANCH  96 100
ENDBRANCH  70  93
ENDBRANCH  44  45
ENDBRANCH  36  39
ENDBRANCH  34  35
ENDBRANCH  33  34
ENDBRANCH   1  33
TORSDOF 17
ENDMDL
MODEL 3
REMARK VINA RESULT:     -14.0      3.844     10.357
REMARK SMILES Cc1ccc(NC(=O)c2ccccc2NC(=O)[C@H]2CCCC[C@H]2C(=O)NCCCNC(=O)c2ccc(-c3c4nc(c(-c5cc(S(=O)(=O)[O-])ccc5F)c5ccc([nH]5)c(-c5cc(S(=O)(=O)[O-])ccc5F)c5nc(c(-c6cc(S(=O)(=O)[O-])ccc6F)c6ccc3[nH]6)C=C5)C=C4)cc2)cc1
REMARK SMILES IDX 27 1 26 2 24 3 25 4 23 6 18 7 19 8 20 9 22 10 21 11 16 12
REMARK SMILES IDX 15 13 17 15 14 16 9 17 10 18 11 19 13 20 12 21 7 22 6 23
REMARK SMILES IDX 8 25 5 26 1 27 2 28 3 29 97 30 4 31 96 32 28 33 29 34 30 35
REMARK SMILES IDX 31 36 32 38 33 39 34 40 95 41 35 42 94 43 36 44 37 45 38 46
REMARK SMILES IDX 88 47 39 48 93 49 87 50 89 51 40 52 92 53 86 54 85 55 41 57
REMARK SMILES IDX 73 58 53 59 72 60 54 61 57 62 71 63 90 64 55 65 56 66 70 68
REMARK SMILES IDX 91 69 58 70 42 71 43 72 51 73 44 74 50 75 52 76 49 77 45 78
REMARK SMILES IDX 46 79 47 80 48 81 74 82 75 83 83 84 76 85 82 86 84 87 81 88
REMARK SMILES IDX 77 89 78 90 79 91 80 92 59 93 60 94 68 95 61 96 67 97 69 98
REMARK SMILES IDX 66 99 62 100 63 101 64 102 65 103
REMARK H PARENT 26 5 15 14 6 24 30 37 89 56 57 67
REMARK Flexibility Score: inf
ROOT
ATOM      1  C   UNL A   1      32.276  28.072  27.763  1.00  0.00     0.117 C 
ENDROOT
BRANCH   1   2
ATOM      2  N   UNL A   1      31.309  27.305  26.980  1.00  0.00    -0.356 N 
ATOM      3  C   UNL A   1      31.187  26.965  25.680  1.00  0.00     0.223 C 
ATOM      4  O   UNL A   1      30.223  26.241  25.389  1.00  0.00    -0.275 OA
ATOM      5  H   UNL A   1      30.573  26.953  27.531  1.00  0.00     0.163 HD
BRANCH   3   6
ATOM      6  C   UNL A   1      32.055  27.478  24.535  1.00  0.00     0.091 C 
ATOM      7  C   UNL A   1      33.140  26.452  24.150  1.00  0.00     0.091 C 
ATOM      8  C   UNL A   1      34.121  27.034  23.113  1.00  0.00     0.014 C 
ATOM      9  C   UNL A   1      33.444  27.783  21.958  1.00  0.00     0.001 C 
ATOM     10  C   UNL A   1      31.391  28.194  23.363  1.00  0.00     0.014 C 
ATOM     11  C   UNL A   1      32.444  28.825  22.451  1.00  0.00     0.001 C 
BRANCH   7  12
ATOM     12  C   UNL A   1      32.539  25.176  23.603  1.00  0.00     0.228 C 
ATOM     13  N   UNL A   1      32.402  24.014  24.291  1.00  0.00    -0.325 N 
ATOM     14  H   UNL A   1      31.745  23.425  23.854  1.00  0.00     0.169 HD
ATOM     15  O   UNL A   1      32.112  25.172  22.442  1.00  0.00    -0.274 OA
BRANCH  13  16
ATOM     16  C   UNL A   1      32.928  23.404  25.448  1.00  0.00     0.054 A 
ATOM     17  C   UNL A   1      34.248  22.878  25.443  1.00  0.00     0.063 A 
ATOM     18  C   UNL A   1      34.720  22.178  26.579  1.00  0.00     0.016 A 
ATOM     19  C   UNL A   1      33.941  22.032  27.719  1.00  0.00     0.001 A 
ATOM     20  C   UNL A   1      32.203  23.318  26.643  1.00  0.00     0.027 A 
ATOM     21  C   UNL A   1      32.689  22.619  27.757  1.00  0.00     0.002 A 
BRANCH  17  22
ATOM     22  C   UNL A   1      35.220  22.836  24.309  1.00  0.00     0.257 C 
ATOM     23  N   UNL A   1      36.586  22.903  24.392  1.00  0.00    -0.322 N 
ATOM     24  H   UNL A   1      37.005  22.951  23.502  1.00  0.00     0.170 HD
ATOM     25  O   UNL A   1      34.758  22.760  23.163  1.00  0.00    -0.269 OA
BRANCH  23  26
ATOM     26  C   UNL A   1      37.534  22.920  25.414  1.00  0.00     0.041 A 
ATOM     27  C   UNL A   1      41.196  22.968  27.629  1.00  0.00     0.044 C 
ATOM     28  C   UNL A   1      39.846  22.897  26.982  1.00  0.00    -0.051 A 
ATOM     29  C   UNL A   1      39.008  24.022  26.963  1.00  0.00     0.005 A 
ATOM     30  C   UNL A   1      39.451  21.742  26.308  1.00  0.00     0.005 A 
ATOM     31  C   UNL A   1      37.848  24.034  26.182  1.00  0.00     0.026 A 
ATOM     32  C   UNL A   1      38.283  21.745  25.553  1.00  0.00     0.026 A 
ENDBRANCH  23  26
ENDBRANCH  17  22
ENDBRANCH  13  16
ENDBRANCH   7  12
ENDBRANCH   3   6
ENDBRANCH   1   2
BRANCH   1  33
ATOM     33  C   UNL A   1      32.282  29.555  27.384  1.00  0.00     0.042 C 
BRANCH  33  34
ATOM     34  C   UNL A   1      33.663  30.121  27.066  1.00  0.00     0.118 C 
BRANCH  34  35
ATOM     35  N   UNL A   1      34.143  31.060  28.087  1.00  0.00    -0.352 N 
ATOM     36  C   UNL A   1      35.355  31.073  28.756  1.00  0.00     0.251 C 
ATOM     37  H   UNL A   1      33.517  31.780  28.331  1.00  0.00     0.163 HD
ATOM     38  O   UNL A   1      35.681  31.943  29.545  1.00  0.00    -0.269 OA
BRANCH  36  39
ATOM     39  C   UNL A   1      36.285  29.971  28.439  1.00  0.00     0.039 A 
ATOM     40  C   UNL A   1      36.583  29.085  29.473  1.00  0.00     0.014 A 
ATOM     41  C   UNL A   1      37.135  30.141  27.349  1.00  0.00     0.014 A 
ATOM     42  C   UNL A   1      37.873  28.578  29.556  1.00  0.00     0.010 A 
ATOM     43  C   UNL A   1      38.436  29.686  27.464  1.00  0.00     0.010 A 
ATOM     44  C   UNL A   1      38.825  28.996  28.619  1.00  0.00    -0.014 A 
BRANCH  44  45
ATOM     45  C   UNL A   1      40.255  28.936  28.910  1.00  0.00     0.031 A 
ATOM     46  C   UNL A   1      41.077  27.827  28.399  1.00  0.00     0.074 A 
ATOM     47  C   UNL A   1      40.840  29.853  29.715  1.00  0.00     0.049 A 
ATOM     48  N   UNL A   1      42.030  27.272  29.071  1.00  0.00    -0.248 NA
ATOM     49  C   UNL A   1      40.854  27.227  27.092  1.00  0.00     0.031 C 
ATOM     50  C   UNL A   1      42.268  30.004  29.986  1.00  0.00     0.029 A 
ATOM     51  N   UNL A   1      40.232  30.705  30.628  1.00  0.00    -0.354 N 
ATOM     52  C   UNL A   1      42.712  26.447  28.208  1.00  0.00     0.074 A 
ATOM     53  C   UNL A   1      41.897  26.398  27.012  1.00  0.00     0.031 C 
ATOM     54  C   UNL A   1      42.424  30.691  31.128  1.00  0.00     0.029 A 
ATOM     55  C   UNL A   1      41.108  30.919  31.699  1.00  0.00     0.049 A 
ATOM     56  H   UNL A   1      39.333  31.096  30.537  1.00  0.00     0.167 HD
ATOM     57  C   UNL A   1      43.963  26.006  28.523  1.00  0.00     0.034 A 
ATOM     58  C   UNL A   1      40.744  30.642  32.984  1.00  0.00     0.034 A 
ATOM     59  C   UNL A   1      44.433  26.547  29.797  1.00  0.00     0.049 A 
ATOM     60  C   UNL A   1      41.574  29.549  33.625  1.00  0.00     0.074 A 
ATOM     61  C   UNL A   1      45.276  27.604  30.102  1.00  0.00     0.029 A 
ATOM     62  N   UNL A   1      43.822  26.175  30.989  1.00  0.00    -0.354 N 
ATOM     63  N   UNL A   1      42.409  28.783  32.978  1.00  0.00    -0.248 NA
ATOM     64  C   UNL A   1      41.491  29.209  35.043  1.00  0.00     0.031 C 
ATOM     65  C   UNL A   1      45.133  27.898  31.481  1.00  0.00     0.029 A 
ATOM     66  C   UNL A   1      44.225  27.003  32.022  1.00  0.00     0.049 A 
ATOM     67  H   UNL A   1      43.190  25.426  31.086  1.00  0.00     0.167 HD
ATOM     68  C   UNL A   1      42.908  27.825  33.827  1.00  0.00     0.074 A 
ATOM     69  C   UNL A   1      42.342  28.170  35.119  1.00  0.00     0.031 C 
ATOM     70  C   UNL A   1      43.719  26.817  33.378  1.00  0.00     0.034 A 
BRANCH  57  71
ATOM     71  C   UNL A   1      44.876  25.363  27.504  1.00  0.00     0.023 A 
ATOM     72  C   UNL A   1      45.655  26.171  26.653  1.00  0.00     0.031 A 
ATOM     73  C   UNL A   1      44.993  23.975  27.299  1.00  0.00     0.131 A 
ATOM     74  C   UNL A   1      46.388  25.618  25.588  1.00  0.00     0.055 A 
ATOM     75  C   UNL A   1      45.662  23.427  26.197  1.00  0.00     0.041 A 
ATOM     76  F   UNL A   1      44.497  23.095  28.181  1.00  0.00    -0.206 F 
ATOM     77  C   UNL A   1      46.350  24.252  25.321  1.00  0.00     0.022 A 
BRANCH  74  78
ATOM     78  S   UNL A   1      47.410  26.710  24.561  1.00  0.00     0.124 S 
ATOM     79  O   UNL A   1      46.419  27.606  23.974  1.00  0.00    -0.237 OA
ATOM     80  O   UNL A   1      48.313  27.298  25.543  1.00  0.00    -0.237 OA
ATOM     81  O   UNL A   1      48.043  25.790  23.615  1.00  0.00    -0.744 OA
ENDBRANCH  74  78
ENDBRANCH  57  71
BRANCH  58  82
ATOM     82  C   UNL A   1      39.301  30.887  33.260  1.00  0.00     0.023 A 
ATOM     83  C   UNL A   1      38.870  32.223  33.406  1.00  0.00     0.031 A 
ATOM     84  C   UNL A   1      38.336  29.903  33.009  1.00  0.00     0.131 A 
ATOM     85  C   UNL A   1      37.528  32.558  33.171  1.00  0.00     0.055 A 
ATOM     86  C   UNL A   1      36.993  30.239  32.804  1.00  0.00     0.041 A 
ATOM     87  F   UNL A   1      38.693  28.623  32.833  1.00  0.00    -0.206 F 
ATOM     88  C   UNL A   1      36.591  31.575  32.842  1.00  0.00     0.022 A 
BRANCH  85  89
ATOM     89  S   UNL A   1      37.006  34.298  33.106  1.00  0.00     0.124 S 
ATOM     90  O   UNL A   1      37.454  34.709  31.781  1.00  0.00    -0.237 OA
ATOM     91  O   UNL A   1      35.560  34.226  33.292  1.00  0.00    -0.237 OA
ATOM     92  O   UNL A   1      37.730  34.888  34.231  1.00  0.00    -0.744 OA
ENDBRANCH  85  89
ENDBRANCH  58  82
BRANCH  70  93
ATOM     93  C   UNL A   1      44.184  25.617  34.185  1.00  0.00     0.023 A 
ATOM     94  C   UNL A   1      45.532  25.275  34.366  1.00  0.00     0.031 A 
ATOM     95  C   UNL A   1      43.253  24.788  34.860  1.00  0.00     0.131 A 
ATOM     96  C   UNL A   1      45.906  24.125  35.086  1.00  0.00     0.055 A 
ATOM     97  C   UNL A   1      43.631  23.694  35.645  1.00  0.00     0.041 A 
ATOM     98  F   UNL A   1      41.931  25.008  34.793  1.00  0.00    -0.206 F 
ATOM     99  C   UNL A   1      44.965  23.341  35.746  1.00  0.00     0.022 A 
BRANCH  96 100
ATOM    100  S   UNL A   1      47.652  23.634  35.072  1.00  0.00     0.124 S 
ATOM    101  O   UNL A   1      48.009  23.757  36.483  1.00  0.00    -0.237 OA
ATOM    102  O   UNL A   1      47.590  22.273  34.552  1.00  0.00    -0.237 OA
ATOM    103  O   UNL A   1      48.279  24.612  34.186  1.00  0.00    -0.744 OA
ENDBRANCH  96 100
ENDBRANCH  70  93
ENDBRANCH  44  45
ENDBRANCH  36  39
ENDBRANCH  34  35
ENDBRANCH  33  34
ENDBRANCH   1  33
TORSDOF 17
ENDMDL
