MODEL 1
REMARK VINA RESULT:     -11.2      0.000      0.000
REMARK SMILES C#CC[N@H+](CC(=O)NCCCNC(=O)c1ccc(-c2c3nc(c(-c4cc(S(=O)(=O)[O-])ccc4F)c4ccc([nH]4)c(-c4cc(S(=O)(=O)[O-])ccc4F)c4nc(c(-c5cc(S(=O)(=O)[O-])ccc5F)c5ccc2[nH]5)C=C4)C=C3)cc1)[C@H](C)c1nc2ccccc2s1
REMARK SMILES IDX 10 1 9 2 8 3 6 4 7 5 5 7 4 8 3 10 2 11 1 12 78 13 79 14
REMARK SMILES IDX 80 15 81 16 88 17 82 18 87 19 83 20 86 21 84 22 85 23 11 24
REMARK SMILES IDX 12 25 13 26 14 28 15 29 16 30 77 31 17 32 76 33 18 34 19 35
REMARK SMILES IDX 20 36 70 37 21 38 75 39 69 40 71 41 22 42 74 43 68 44 67 45
REMARK SMILES IDX 23 47 55 48 35 49 54 50 36 51 39 52 53 53 72 54 37 55 38 56
REMARK SMILES IDX 52 58 73 59 40 60 24 61 25 62 33 63 26 64 32 65 34 66 31 67
REMARK SMILES IDX 27 68 28 69 29 70 30 71 56 72 57 73 65 74 58 75 64 76 66 77
REMARK SMILES IDX 63 78 59 79 60 80 61 81 62 82 41 83 42 84 50 85 43 86 49 87
REMARK SMILES IDX 51 88 48 89 44 90 45 91 46 92 47 93
REMARK H PARENT 8 6 4 9 12 27 71 46 39 57
REMARK Flexibility Score: inf
ROOT
ATOM      1  C   UNL A   1      33.219  27.784  26.713  1.00  0.00     0.042 C 
ENDROOT
BRANCH   1   2
ATOM      2  C   UNL A   1      31.996  27.181  26.003  1.00  0.00     0.118 C 
BRANCH   2   3
ATOM      3  N   UNL A   1      31.378  26.067  26.725  1.00  0.00    -0.351 N 
ATOM      4  C   UNL A   1      31.248  24.730  26.421  1.00  0.00     0.275 C 
ATOM      5  O   UNL A   1      30.661  24.017  27.238  1.00  0.00    -0.269 OA
ATOM      6  H   UNL A   1      30.980  26.321  27.588  1.00  0.00     0.163 HD
BRANCH   4   7
ATOM      7  C   UNL A   1      31.854  24.135  25.127  1.00  0.00     0.364 C 
BRANCH   7   8
ATOM      8  N   UNL A   1      33.115  23.332  25.315  1.00  0.00    -0.309 N 
ATOM      9  H   UNL A   1      33.476  22.985  24.426  1.00  0.00     0.349 HD
BRANCH   8  10
ATOM     10  C   UNL A   1      34.124  24.221  25.892  1.00  0.00     0.354 C 
BRANCH  10  11
ATOM     11  C   UNL A   1      35.557  24.081  25.629  1.00  0.00    -0.047 C 
ATOM     12  C   UNL A   1      36.657  23.859  25.203  1.00  0.00     0.010 C 
ENDBRANCH  10  11
ENDBRANCH   8  10
BRANCH   8  13
ATOM     13  C   UNL A   1      32.845  22.084  26.113  1.00  0.00     0.242 C 
ATOM     14  C   UNL A   1      33.575  21.997  27.475  1.00  0.00     0.083 C 
BRANCH  13  15
ATOM     15  C   UNL A   1      33.129  20.793  25.352  1.00  0.00     0.151 A 
ATOM     16  N   UNL A   1      32.231  19.839  25.200  1.00  0.00    -0.235 NA
ATOM     17  S   UNL A   1      34.696  20.422  24.740  1.00  0.00    -0.113 S 
ATOM     18  C   UNL A   1      32.870  18.650  24.906  1.00  0.00     0.082 A 
ATOM     19  C   UNL A   1      34.243  18.753  24.667  1.00  0.00     0.055 A 
ATOM     20  C   UNL A   1      32.268  17.378  24.928  1.00  0.00     0.030 A 
ATOM     21  C   UNL A   1      35.042  17.613  24.477  1.00  0.00     0.021 A 
ATOM     22  C   UNL A   1      33.060  16.237  24.778  1.00  0.00     0.002 A 
ATOM     23  C   UNL A   1      34.430  16.356  24.564  1.00  0.00     0.002 A 
ENDBRANCH  13  15
ENDBRANCH   8  13
ENDBRANCH   7   8
ENDBRANCH   4   7
ENDBRANCH   2   3
ENDBRANCH   1   2
BRANCH   1  24
ATOM     24  C   UNL A   1      33.986  28.811  25.902  1.00  0.00     0.118 C 
BRANCH  24  25
ATOM     25  N   UNL A   1      33.809  30.139  26.452  1.00  0.00    -0.352 N 
ATOM     26  C   UNL A   1      34.444  30.725  27.521  1.00  0.00     0.251 C 
ATOM     27  H   UNL A   1      33.139  30.700  25.997  1.00  0.00     0.163 HD
ATOM     28  O   UNL A   1      33.925  31.706  28.048  1.00  0.00    -0.269 OA
BRANCH  26  29
ATOM     29  C   UNL A   1      35.723  30.181  28.047  1.00  0.00     0.039 A 
ATOM     30  C   UNL A   1      36.889  30.353  27.295  1.00  0.00     0.014 A 
ATOM     31  C   UNL A   1      35.780  29.458  29.242  1.00  0.00     0.014 A 
ATOM     32  C   UNL A   1      38.105  29.839  27.759  1.00  0.00     0.010 A 
ATOM     33  C   UNL A   1      37.007  29.039  29.754  1.00  0.00     0.010 A 
ATOM     34  C   UNL A   1      38.183  29.203  29.008  1.00  0.00    -0.014 A 
BRANCH  34  35
ATOM     35  C   UNL A   1      39.472  28.665  29.526  1.00  0.00     0.031 A 
ATOM     36  C   UNL A   1      40.108  29.275  30.750  1.00  0.00     0.074 A 
ATOM     37  C   UNL A   1      40.084  27.648  28.885  1.00  0.00     0.049 A 
ATOM     38  N   UNL A   1      41.252  28.989  31.319  1.00  0.00    -0.248 NA
ATOM     39  C   UNL A   1      39.372  30.367  31.405  1.00  0.00     0.031 C 
ATOM     40  C   UNL A   1      39.580  26.983  27.682  1.00  0.00     0.029 A 
ATOM     41  N   UNL A   1      41.261  26.993  29.154  1.00  0.00    -0.354 N 
ATOM     42  C   UNL A   1      41.370  29.862  32.396  1.00  0.00     0.074 A 
ATOM     43  C   UNL A   1      40.221  30.739  32.351  1.00  0.00     0.031 C 
ATOM     44  C   UNL A   1      40.419  25.991  27.343  1.00  0.00     0.029 A 
ATOM     45  C   UNL A   1      41.553  25.987  28.261  1.00  0.00     0.049 A 
ATOM     46  H   UNL A   1      41.842  27.223  29.915  1.00  0.00     0.167 HD
ATOM     47  C   UNL A   1      42.328  29.909  33.354  1.00  0.00     0.034 A 
ATOM     48  C   UNL A   1      42.619  25.165  28.181  1.00  0.00     0.034 A 
ATOM     49  C   UNL A   1      43.470  29.030  33.389  1.00  0.00     0.049 A 
ATOM     50  C   UNL A   1      43.717  25.296  29.211  1.00  0.00     0.074 A 
ATOM     51  C   UNL A   1      44.491  28.980  34.323  1.00  0.00     0.029 A 
ATOM     52  N   UNL A   1      43.750  28.050  32.445  1.00  0.00    -0.354 N 
ATOM     53  N   UNL A   1      43.795  26.109  30.240  1.00  0.00    -0.248 NA
ATOM     54  C   UNL A   1      44.866  24.391  29.074  1.00  0.00     0.031 C 
ATOM     55  C   UNL A   1      45.426  28.031  33.901  1.00  0.00     0.029 A 
ATOM     56  C   UNL A   1      44.943  27.417  32.757  1.00  0.00     0.049 A 
ATOM     57  H   UNL A   1      43.185  27.838  31.668  1.00  0.00     0.167 HD
ATOM     58  C   UNL A   1      44.979  25.778  30.896  1.00  0.00     0.074 A 
ATOM     59  C   UNL A   1      45.572  24.685  30.156  1.00  0.00     0.031 C 
ATOM     60  C   UNL A   1      45.523  26.323  32.014  1.00  0.00     0.034 A 
BRANCH  47  61
ATOM     61  C   UNL A   1      42.186  30.958  34.433  1.00  0.00     0.023 A 
ATOM     62  C   UNL A   1      42.756  32.235  34.295  1.00  0.00     0.031 A 
ATOM     63  C   UNL A   1      41.484  30.678  35.618  1.00  0.00     0.131 A 
ATOM     64  C   UNL A   1      42.681  33.156  35.350  1.00  0.00     0.055 A 
ATOM     65  C   UNL A   1      41.333  31.630  36.628  1.00  0.00     0.041 A 
ATOM     66  F   UNL A   1      40.937  29.468  35.821  1.00  0.00    -0.206 F 
ATOM     67  C   UNL A   1      41.947  32.873  36.505  1.00  0.00     0.022 A 
BRANCH  64  68
ATOM     68  S   UNL A   1      43.686  34.663  35.257  1.00  0.00     0.124 S 
ATOM     69  O   UNL A   1      43.855  34.991  36.671  1.00  0.00    -0.237 OA
ATOM     70  O   UNL A   1      44.881  34.201  34.560  1.00  0.00    -0.237 OA
ATOM     71  O   UNL A   1      42.843  35.590  34.507  1.00  0.00    -0.744 OA
ENDBRANCH  64  68
ENDBRANCH  47  61
BRANCH  48  72
ATOM     72  C   UNL A   1      42.729  24.155  27.086  1.00  0.00     0.023 A 
ATOM     73  C   UNL A   1      42.042  22.933  27.164  1.00  0.00     0.031 A 
ATOM     74  C   UNL A   1      43.584  24.357  25.987  1.00  0.00     0.131 A 
ATOM     75  C   UNL A   1      42.279  21.933  26.208  1.00  0.00     0.055 A 
ATOM     76  C   UNL A   1      43.757  23.388  24.997  1.00  0.00     0.041 A 
ATOM     77  F   UNL A   1      44.270  25.504  25.860  1.00  0.00    -0.206 F 
ATOM     78  C   UNL A   1      43.119  22.159  25.115  1.00  0.00     0.022 A 
BRANCH  75  79
ATOM     79  S   UNL A   1      41.586  20.281  26.495  1.00  0.00     0.124 S 
ATOM     80  O   UNL A   1      40.153  20.552  26.444  1.00  0.00    -0.237 OA
ATOM     81  O   UNL A   1      42.138  19.523  25.379  1.00  0.00    -0.237 OA
ATOM     82  O   UNL A   1      42.107  19.921  27.812  1.00  0.00    -0.744 OA
ENDBRANCH  75  79
ENDBRANCH  48  72
BRANCH  60  83
ATOM     83  C   UNL A   1      46.794  25.699  32.542  1.00  0.00     0.023 A 
ATOM     84  C   UNL A   1      48.051  25.972  31.978  1.00  0.00     0.031 A 
ATOM     85  C   UNL A   1      46.739  24.811  33.632  1.00  0.00     0.131 A 
ATOM     86  C   UNL A   1      49.193  25.317  32.465  1.00  0.00     0.055 A 
ATOM     87  C   UNL A   1      47.888  24.221  34.161  1.00  0.00     0.041 A 
ATOM     88  F   UNL A   1      45.565  24.506  34.208  1.00  0.00    -0.206 F 
ATOM     89  C   UNL A   1      49.122  24.462  33.567  1.00  0.00     0.022 A 
BRANCH  86  90
ATOM     90  S   UNL A   1      50.758  25.513  31.568  1.00  0.00     0.124 S 
ATOM     91  O   UNL A   1      51.576  24.457  32.153  1.00  0.00    -0.237 OA
ATOM     92  O   UNL A   1      50.350  25.311  30.182  1.00  0.00    -0.237 OA
ATOM     93  O   UNL A   1      51.173  26.876  31.898  1.00  0.00    -0.744 OA
ENDBRANCH  86  90
ENDBRANCH  60  83
ENDBRANCH  34  35
ENDBRANCH  26  29
ENDBRANCH  24  25
ENDBRANCH   1  24
TORSDOF 18
ENDMDL
MODEL 2
REMARK VINA RESULT:     -11.1      4.614      9.167
REMARK SMILES C#CC[N@H+](CC(=O)NCCCNC(=O)c1ccc(-c2c3nc(c(-c4cc(S(=O)(=O)[O-])ccc4F)c4ccc([nH]4)c(-c4cc(S(=O)(=O)[O-])ccc4F)c4nc(c(-c5cc(S(=O)(=O)[O-])ccc5F)c5ccc2[nH]5)C=C4)C=C3)cc1)[C@H](C)c1nc2ccccc2s1
REMARK SMILES IDX 10 1 9 2 8 3 6 4 7 5 5 7 4 8 3 10 2 11 1 12 78 13 79 14
REMARK SMILES IDX 80 15 81 16 88 17 82 18 87 19 83 20 86 21 84 22 85 23 11 24
REMARK SMILES IDX 12 25 13 26 14 28 15 29 16 30 77 31 17 32 76 33 18 34 19 35
REMARK SMILES IDX 20 36 70 37 21 38 75 39 69 40 71 41 22 42 74 43 68 44 67 45
REMARK SMILES IDX 23 47 55 48 35 49 54 50 36 51 39 52 53 53 72 54 37 55 38 56
REMARK SMILES IDX 52 58 73 59 40 60 24 61 25 62 33 63 26 64 32 65 34 66 31 67
REMARK SMILES IDX 27 68 28 69 29 70 30 71 56 72 57 73 65 74 58 75 64 76 66 77
REMARK SMILES IDX 63 78 59 79 60 80 61 81 62 82 41 83 42 84 50 85 43 86 49 87
REMARK SMILES IDX 51 88 48 89 44 90 45 91 46 92 47 93
REMARK H PARENT 8 6 4 9 12 27 71 46 39 57
REMARK Flexibility Score: inf
ROOT
ATOM      1  C   UNL A   1      35.456  21.743  26.255  1.00  0.00     0.042 C 
ENDROOT
BRANCH   1   2
ATOM      2  C   UNL A   1      34.690  23.072  26.341  1.00  0.00     0.118 C 
BRANCH   2   3
ATOM      3  N   UNL A   1      33.430  22.987  27.082  1.00  0.00    -0.351 N 
ATOM      4  C   UNL A   1      32.166  23.462  26.810  1.00  0.00     0.275 C 
ATOM      5  O   UNL A   1      31.284  23.235  27.642  1.00  0.00    -0.269 OA
ATOM      6  H   UNL A   1      33.499  22.499  27.934  1.00  0.00     0.163 HD
BRANCH   4   7
ATOM      7  C   UNL A   1      31.853  24.211  25.493  1.00  0.00     0.364 C 
BRANCH   7   8
ATOM      8  N   UNL A   1      31.389  23.343  24.352  1.00  0.00    -0.309 N 
ATOM      9  H   UNL A   1      30.712  22.645  24.661  1.00  0.00     0.349 HD
BRANCH   8  10
ATOM     10  C   UNL A   1      30.724  24.210  23.378  1.00  0.00     0.354 C 
BRANCH  10  11
ATOM     11  C   UNL A   1      30.031  25.445  23.749  1.00  0.00    -0.047 C 
ATOM     12  C   UNL A   1      29.588  26.434  24.265  1.00  0.00     0.010 C 
ENDBRANCH  10  11
ENDBRANCH   8  10
BRANCH   8  13
ATOM     13  C   UNL A   1      32.527  22.530  23.796  1.00  0.00     0.242 C 
ATOM     14  C   UNL A   1      32.929  22.860  22.339  1.00  0.00     0.083 C 
BRANCH  13  15
ATOM     15  C   UNL A   1      32.307  21.022  23.886  1.00  0.00     0.151 A 
ATOM     16  N   UNL A   1      32.234  20.376  25.033  1.00  0.00    -0.235 NA
ATOM     17  S   UNL A   1      32.270  20.022  22.483  1.00  0.00    -0.113 S 
ATOM     18  C   UNL A   1      32.501  19.038  24.824  1.00  0.00     0.082 A 
ATOM     19  C   UNL A   1      32.607  18.651  23.486  1.00  0.00     0.055 A 
ATOM     20  C   UNL A   1      32.763  18.094  25.836  1.00  0.00     0.030 A 
ATOM     21  C   UNL A   1      32.996  17.350  23.126  1.00  0.00     0.021 A 
ATOM     22  C   UNL A   1      33.187  16.810  25.489  1.00  0.00     0.002 A 
ATOM     23  C   UNL A   1      33.309  16.447  24.151  1.00  0.00     0.002 A 
ENDBRANCH  13  15
ENDBRANCH   8  13
ENDBRANCH   7   8
ENDBRANCH   4   7
ENDBRANCH   2   3
ENDBRANCH   1   2
BRANCH   1  24
ATOM     24  C   UNL A   1      36.640  21.748  25.306  1.00  0.00     0.118 C 
BRANCH  24  25
ATOM     25  N   UNL A   1      37.593  20.719  25.665  1.00  0.00    -0.352 N 
ATOM     26  C   UNL A   1      38.933  20.840  25.951  1.00  0.00     0.251 C 
ATOM     27  H   UNL A   1      37.231  19.804  25.711  1.00  0.00     0.163 HD
ATOM     28  O   UNL A   1      39.641  19.838  25.889  1.00  0.00    -0.269 OA
BRANCH  26  29
ATOM     29  C   UNL A   1      39.525  22.155  26.310  1.00  0.00     0.039 A 
ATOM     30  C   UNL A   1      40.620  22.188  27.178  1.00  0.00     0.014 A 
ATOM     31  C   UNL A   1      38.983  23.359  25.846  1.00  0.00     0.014 A 
ATOM     32  C   UNL A   1      41.188  23.413  27.544  1.00  0.00     0.010 A 
ATOM     33  C   UNL A   1      39.614  24.569  26.126  1.00  0.00     0.010 A 
ATOM     34  C   UNL A   1      40.711  24.615  26.998  1.00  0.00    -0.014 A 
BRANCH  34  35
ATOM     35  C   UNL A   1      41.316  25.927  27.363  1.00  0.00     0.031 A 
ATOM     36  C   UNL A   1      42.705  26.276  26.891  1.00  0.00     0.074 A 
ATOM     37  C   UNL A   1      40.630  26.793  28.138  1.00  0.00     0.049 A 
ATOM     38  N   UNL A   1      43.425  27.339  27.150  1.00  0.00    -0.248 NA
ATOM     39  C   UNL A   1      43.381  25.291  26.033  1.00  0.00     0.031 C 
ATOM     40  C   UNL A   1      39.287  26.566  28.672  1.00  0.00     0.029 A 
ATOM     41  N   UNL A   1      40.966  28.038  28.610  1.00  0.00    -0.354 N 
ATOM     42  C   UNL A   1      44.635  27.148  26.488  1.00  0.00     0.074 A 
ATOM     43  C   UNL A   1      44.579  25.835  25.885  1.00  0.00     0.031 C 
ATOM     44  C   UNL A   1      38.898  27.650  29.363  1.00  0.00     0.029 A 
ATOM     45  C   UNL A   1      39.984  28.624  29.377  1.00  0.00     0.049 A 
ATOM     46  H   UNL A   1      41.830  28.471  28.419  1.00  0.00     0.167 HD
ATOM     47  C   UNL A   1      45.683  28.000  26.366  1.00  0.00     0.034 A 
ATOM     48  C   UNL A   1      39.966  29.804  30.030  1.00  0.00     0.034 A 
ATOM     49  C   UNL A   1      45.728  29.307  26.973  1.00  0.00     0.049 A 
ATOM     50  C   UNL A   1      41.182  30.698  29.949  1.00  0.00     0.074 A 
ATOM     51  C   UNL A   1      46.731  30.257  26.898  1.00  0.00     0.029 A 
ATOM     52  N   UNL A   1      44.729  29.848  27.773  1.00  0.00    -0.354 N 
ATOM     53  N   UNL A   1      42.304  30.513  29.293  1.00  0.00    -0.248 NA
ATOM     54  C   UNL A   1      41.122  31.966  30.689  1.00  0.00     0.031 C 
ATOM     55  C   UNL A   1      46.379  31.334  27.717  1.00  0.00     0.029 A 
ATOM     56  C   UNL A   1      45.111  31.102  28.225  1.00  0.00     0.049 A 
ATOM     57  H   UNL A   1      43.877  29.406  27.989  1.00  0.00     0.167 HD
ATOM     58  C   UNL A   1      43.062  31.662  29.506  1.00  0.00     0.074 A 
ATOM     59  C   UNL A   1      42.264  32.538  30.337  1.00  0.00     0.031 C 
ATOM     60  C   UNL A   1      44.304  31.970  29.050  1.00  0.00     0.034 A 
BRANCH  47  61
ATOM     61  C   UNL A   1      46.871  27.534  25.557  1.00  0.00     0.023 A 
ATOM     62  C   UNL A   1      47.080  27.973  24.239  1.00  0.00     0.031 A 
ATOM     63  C   UNL A   1      47.800  26.630  26.103  1.00  0.00     0.131 A 
ATOM     64  C   UNL A   1      48.143  27.453  23.486  1.00  0.00     0.055 A 
ATOM     65  C   UNL A   1      48.909  26.187  25.379  1.00  0.00     0.041 A 
ATOM     66  F   UNL A   1      47.642  26.155  27.349  1.00  0.00    -0.206 F 
ATOM     67  C   UNL A   1      49.077  26.586  24.057  1.00  0.00     0.022 A 
BRANCH  64  68
ATOM     68  S   UNL A   1      48.196  27.805  21.707  1.00  0.00     0.124 S 
ATOM     69  O   UNL A   1      49.316  28.741  21.626  1.00  0.00    -0.237 OA
ATOM     70  O   UNL A   1      48.424  26.484  21.132  1.00  0.00    -0.237 OA
ATOM     71  O   UNL A   1      46.885  28.388  21.435  1.00  0.00    -0.744 OA
ENDBRANCH  64  68
ENDBRANCH  47  61
BRANCH  48  72
ATOM     72  C   UNL A   1      38.778  30.217  30.834  1.00  0.00     0.023 A 
ATOM     73  C   UNL A   1      37.791  31.049  30.283  1.00  0.00     0.031 A 
ATOM     74  C   UNL A   1      38.651  29.859  32.189  1.00  0.00     0.131 A 
ATOM     75  C   UNL A   1      36.765  31.556  31.098  1.00  0.00     0.055 A 
ATOM     76  C   UNL A   1      37.587  30.303  32.975  1.00  0.00     0.041 A 
ATOM     77  F   UNL A   1      39.566  29.068  32.772  1.00  0.00    -0.206 F 
ATOM     78  C   UNL A   1      36.647  31.175  32.436  1.00  0.00     0.022 A 
BRANCH  75  79
ATOM     79  S   UNL A   1      35.675  32.836  30.418  1.00  0.00     0.124 S 
ATOM     80  O   UNL A   1      36.328  34.055  30.882  1.00  0.00    -0.237 OA
ATOM     81  O   UNL A   1      35.751  32.570  28.986  1.00  0.00    -0.237 OA
ATOM     82  O   UNL A   1      34.384  32.544  31.038  1.00  0.00    -0.744 OA
ENDBRANCH  75  79
ENDBRANCH  48  72
BRANCH  60  83
ATOM     83  C   UNL A   1      44.847  33.339  29.386  1.00  0.00     0.023 A 
ATOM     84  C   UNL A   1      44.551  34.471  28.607  1.00  0.00     0.031 A 
ATOM     85  C   UNL A   1      45.678  33.509  30.508  1.00  0.00     0.131 A 
ATOM     86  C   UNL A   1      45.133  35.709  28.926  1.00  0.00     0.055 A 
ATOM     87  C   UNL A   1      46.191  34.757  30.863  1.00  0.00     0.041 A 
ATOM     88  F   UNL A   1      46.000  32.463  31.286  1.00  0.00    -0.206 F 
ATOM     89  C   UNL A   1      45.931  35.863  30.061  1.00  0.00     0.022 A 
BRANCH  86  90
ATOM     90  S   UNL A   1      44.919  37.092  27.771  1.00  0.00     0.124 S 
ATOM     91  O   UNL A   1      43.792  36.639  26.962  1.00  0.00    -0.237 OA
ATOM     92  O   UNL A   1      44.651  38.210  28.669  1.00  0.00    -0.237 OA
ATOM     93  O   UNL A   1      46.202  37.154  27.071  1.00  0.00    -0.744 OA
ENDBRANCH  86  90
ENDBRANCH  60  83
ENDBRANCH  34  35
ENDBRANCH  26  29
ENDBRANCH  24  25
ENDBRANCH   1  24
TORSDOF 18
ENDMDL
MODEL 3
REMARK VINA RESULT:     -11.1      2.498      2.931
REMARK SMILES C#CC[N@H+](CC(=O)NCCCNC(=O)c1ccc(-c2c3nc(c(-c4cc(S(=O)(=O)[O-])ccc4F)c4ccc([nH]4)c(-c4cc(S(=O)(=O)[O-])ccc4F)c4nc(c(-c5cc(S(=O)(=O)[O-])ccc5F)c5ccc2[nH]5)C=C4)C=C3)cc1)[C@H](C)c1nc2ccccc2s1
REMARK SMILES IDX 10 1 9 2 8 3 6 4 7 5 5 7 4 8 3 10 2 11 1 12 78 13 79 14
REMARK SMILES IDX 80 15 81 16 88 17 82 18 87 19 83 20 86 21 84 22 85 23 11 24
REMARK SMILES IDX 12 25 13 26 14 28 15 29 16 30 77 31 17 32 76 33 18 34 19 35
REMARK SMILES IDX 20 36 70 37 21 38 75 39 69 40 71 41 22 42 74 43 68 44 67 45
REMARK SMILES IDX 23 47 55 48 35 49 54 50 36 51 39 52 53 53 72 54 37 55 38 56
REMARK SMILES IDX 52 58 73 59 40 60 24 61 25 62 33 63 26 64 32 65 34 66 31 67
REMARK SMILES IDX 27 68 28 69 29 70 30 71 56 72 57 73 65 74 58 75 64 76 66 77
REMARK SMILES IDX 63 78 59 79 60 80 61 81 62 82 41 83 42 84 50 85 43 86 49 87
REMARK SMILES IDX 51 88 48 89 44 90 45 91 46 92 47 93
REMARK H PARENT 8 6 4 9 12 27 71 46 39 57
REMARK Flexibility Score: inf
ROOT
ATOM      1  C   UNL A   1      31.998  28.822  26.002  1.00  0.00     0.042 C 
ENDROOT
BRANCH   1   2
ATOM      2  C   UNL A   1      31.840  27.877  27.204  1.00  0.00     0.118 C 
BRANCH   2   3
ATOM      3  N   UNL A   1      31.169  26.616  26.885  1.00  0.00    -0.351 N 
ATOM      4  C   UNL A   1      31.631  25.434  26.348  1.00  0.00     0.275 C 
ATOM      5  O   UNL A   1      30.813  24.526  26.187  1.00  0.00    -0.269 OA
ATOM      6  H   UNL A   1      30.207  26.610  27.093  1.00  0.00     0.163 HD
BRANCH   4   7
ATOM      7  C   UNL A   1      33.127  25.238  26.002  1.00  0.00     0.364 C 
BRANCH   7   8
ATOM      8  N   UNL A   1      33.411  24.246  24.905  1.00  0.00    -0.309 N 
ATOM      9  H   UNL A   1      32.562  23.767  24.602  1.00  0.00     0.349 HD
BRANCH   8  10
ATOM     10  C   UNL A   1      33.938  24.990  23.761  1.00  0.00     0.354 C 
BRANCH  10  11
ATOM     11  C   UNL A   1      33.275  26.168  23.199  1.00  0.00    -0.047 C 
ATOM     12  C   UNL A   1      32.525  27.005  22.780  1.00  0.00     0.010 C 
ENDBRANCH  10  11
ENDBRANCH   8  10
BRANCH   8  13
ATOM     13  C   UNL A   1      34.301  23.136  25.399  1.00  0.00     0.242 C 
ATOM     14  C   UNL A   1      35.758  23.175  24.881  1.00  0.00     0.083 C 
BRANCH  13  15
ATOM     15  C   UNL A   1      33.750  21.739  25.129  1.00  0.00     0.151 A 
ATOM     16  N   UNL A   1      34.409  20.638  25.433  1.00  0.00    -0.235 NA
ATOM     17  S   UNL A   1      32.272  21.491  24.279  1.00  0.00    -0.113 S 
ATOM     18  C   UNL A   1      33.920  19.587  24.682  1.00  0.00     0.082 A 
ATOM     19  C   UNL A   1      32.773  19.869  23.936  1.00  0.00     0.055 A 
ATOM     20  C   UNL A   1      34.537  18.329  24.548  1.00  0.00     0.030 A 
ATOM     21  C   UNL A   1      32.236  18.936  23.033  1.00  0.00     0.021 A 
ATOM     22  C   UNL A   1      34.034  17.409  23.626  1.00  0.00     0.002 A 
ATOM     23  C   UNL A   1      32.903  17.714  22.874  1.00  0.00     0.002 A 
ENDBRANCH  13  15
ENDBRANCH   8  13
ENDBRANCH   7   8
ENDBRANCH   4   7
ENDBRANCH   2   3
ENDBRANCH   1   2
BRANCH   1  24
ATOM     24  C   UNL A   1      33.324  29.557  25.937  1.00  0.00     0.118 C 
BRANCH  24  25
ATOM     25  N   UNL A   1      33.173  30.931  26.370  1.00  0.00    -0.352 N 
ATOM     26  C   UNL A   1      33.802  31.587  27.402  1.00  0.00     0.251 C 
ATOM     27  H   UNL A   1      32.530  31.470  25.854  1.00  0.00     0.163 HD
ATOM     28  O   UNL A   1      33.300  32.622  27.834  1.00  0.00    -0.269 OA
BRANCH  26  29
ATOM     29  C   UNL A   1      35.053  31.054  28.002  1.00  0.00     0.039 A 
ATOM     30  C   UNL A   1      36.220  31.821  27.921  1.00  0.00     0.014 A 
ATOM     31  C   UNL A   1      35.105  29.789  28.595  1.00  0.00     0.014 A 
ATOM     32  C   UNL A   1      37.415  31.337  28.464  1.00  0.00     0.010 A 
ATOM     33  C   UNL A   1      36.269  29.355  29.228  1.00  0.00     0.010 A 
ATOM     34  C   UNL A   1      37.446  30.113  29.151  1.00  0.00    -0.014 A 
BRANCH  34  35
ATOM     35  C   UNL A   1      38.705  29.591  29.751  1.00  0.00     0.031 A 
ATOM     36  C   UNL A   1      39.180  30.112  31.085  1.00  0.00     0.074 A 
ATOM     37  C   UNL A   1      39.436  28.670  29.090  1.00  0.00     0.049 A 
ATOM     38  N   UNL A   1      40.275  29.828  31.743  1.00  0.00    -0.248 NA
ATOM     39  C   UNL A   1      38.320  31.100  31.754  1.00  0.00     0.031 C 
ATOM     40  C   UNL A   1      39.094  28.098  27.786  1.00  0.00     0.029 A 
ATOM     41  N   UNL A   1      40.616  28.050  29.422  1.00  0.00    -0.354 N 
ATOM     42  C   UNL A   1      40.234  30.600  32.900  1.00  0.00     0.074 A 
ATOM     43  C   UNL A   1      39.047  31.422  32.813  1.00  0.00     0.031 C 
ATOM     44  C   UNL A   1      40.019  27.185  27.449  1.00  0.00     0.029 A 
ATOM     45  C   UNL A   1      41.054  27.148  28.477  1.00  0.00     0.049 A 
ATOM     46  H   UNL A   1      41.104  28.234  30.257  1.00  0.00     0.167 HD
ATOM     47  C   UNL A   1      41.088  30.603  33.954  1.00  0.00     0.034 A 
ATOM     48  C   UNL A   1      42.168  26.390  28.437  1.00  0.00     0.034 A 
ATOM     49  C   UNL A   1      42.269  29.781  34.030  1.00  0.00     0.049 A 
ATOM     50  C   UNL A   1      43.148  26.475  29.584  1.00  0.00     0.074 A 
ATOM     51  C   UNL A   1      43.192  29.691  35.057  1.00  0.00     0.029 A 
ATOM     52  N   UNL A   1      42.698  28.909  33.036  1.00  0.00    -0.354 N 
ATOM     53  N   UNL A   1      43.075  27.190  30.684  1.00  0.00    -0.248 NA
ATOM     54  C   UNL A   1      44.355  25.643  29.488  1.00  0.00     0.031 C 
ATOM     55  C   UNL A   1      44.218  28.833  34.653  1.00  0.00     0.029 A 
ATOM     56  C   UNL A   1      43.888  28.307  33.414  1.00  0.00     0.049 A 
ATOM     57  H   UNL A   1      42.227  28.744  32.188  1.00  0.00     0.167 HD
ATOM     58  C   UNL A   1      44.204  26.855  31.428  1.00  0.00     0.074 A 
ATOM     59  C   UNL A   1      44.931  25.867  30.660  1.00  0.00     0.031 C 
ATOM     60  C   UNL A   1      44.602  27.318  32.641  1.00  0.00     0.034 A 
BRANCH  47  61
ATOM     61  C   UNL A   1      40.778  31.537  35.101  1.00  0.00     0.023 A 
ATOM     62  C   UNL A   1      39.706  31.295  35.977  1.00  0.00     0.031 A 
ATOM     63  C   UNL A   1      41.554  32.690  35.316  1.00  0.00     0.131 A 
ATOM     64  C   UNL A   1      39.392  32.227  36.977  1.00  0.00     0.055 A 
ATOM     65  C   UNL A   1      41.293  33.567  36.371  1.00  0.00     0.041 A 
ATOM     66  F   UNL A   1      42.577  32.990  34.499  1.00  0.00    -0.206 F 
ATOM     67  C   UNL A   1      40.197  33.347  37.199  1.00  0.00     0.022 A 
BRANCH  64  68
ATOM     68  S   UNL A   1      37.830  32.035  37.877  1.00  0.00     0.124 S 
ATOM     69  O   UNL A   1      38.247  32.310  39.251  1.00  0.00    -0.237 OA
ATOM     70  O   UNL A   1      36.981  33.044  37.254  1.00  0.00    -0.237 OA
ATOM     71  O   UNL A   1      37.451  30.649  37.614  1.00  0.00    -0.744 OA
ENDBRANCH  64  68
ENDBRANCH  47  61
BRANCH  48  72
ATOM     72  C   UNL A   1      42.444  25.494  27.274  1.00  0.00     0.023 A 
ATOM     73  C   UNL A   1      41.966  24.175  27.253  1.00  0.00     0.031 A 
ATOM     74  C   UNL A   1      43.260  25.912  26.206  1.00  0.00     0.131 A 
ATOM     75  C   UNL A   1      42.366  23.300  26.231  1.00  0.00     0.055 A 
ATOM     76  C   UNL A   1      43.591  25.061  25.152  1.00  0.00     0.041 A 
ATOM     77  F   UNL A   1      43.750  27.162  26.173  1.00  0.00    -0.206 F 
ATOM     78  C   UNL A   1      43.161  23.738  25.171  1.00  0.00     0.022 A 
BRANCH  75  79
ATOM     79  S   UNL A   1      41.949  21.541  26.387  1.00  0.00     0.124 S 
ATOM     80  O   UNL A   1      42.356  21.264  27.760  1.00  0.00    -0.237 OA
ATOM     81  O   UNL A   1      40.513  21.546  26.130  1.00  0.00    -0.237 OA
ATOM     82  O   UNL A   1      42.765  20.908  25.353  1.00  0.00    -0.744 OA
ENDBRANCH  75  79
ENDBRANCH  48  72
BRANCH  60  83
ATOM     83  C   UNL A   1      45.847  26.708  33.243  1.00  0.00     0.023 A 
ATOM     84  C   UNL A   1      45.810  25.520  33.992  1.00  0.00     0.031 A 
ATOM     85  C   UNL A   1      47.094  27.334  33.060  1.00  0.00     0.131 A 
ATOM     86  C   UNL A   1      46.985  25.030  34.583  1.00  0.00     0.055 A 
ATOM     87  C   UNL A   1      48.271  26.800  33.586  1.00  0.00     0.041 A 
ATOM     88  F   UNL A   1      47.190  28.475  32.359  1.00  0.00    -0.206 F 
ATOM     89  C   UNL A   1      48.217  25.649  34.365  1.00  0.00     0.022 A 
BRANCH  86  90
ATOM     90  S   UNL A   1      46.862  23.631  35.732  1.00  0.00     0.124 S 
ATOM     91  O   UNL A   1      47.583  24.133  36.897  1.00  0.00    -0.237 OA
ATOM     92  O   UNL A   1      45.420  23.483  35.891  1.00  0.00    -0.237 OA
ATOM     93  O   UNL A   1      47.521  22.540  35.015  1.00  0.00    -0.744 OA
ENDBRANCH  86  90
ENDBRANCH  60  83
ENDBRANCH  34  35
ENDBRANCH  26  29
ENDBRANCH  24  25
ENDBRANCH   1  24
TORSDOF 18
ENDMDL
