MODEL 1
REMARK VINA RESULT:     -12.6      0.000      0.000
REMARK SMILES C=C(C(=O)NCCCNC(=O)c1ccc(-c2c3nc(c(-c4cc(S(=O)(=O)[O-])ccc4F)c4ccc([nH]4)c(-c4cc(S(=O)(=O)[O-])ccc4F)c4nc(c(-c5cc(S(=O)(=O)[O-])ccc5F)c5ccc2[nH]5)C=C4)C=C3)cc1)[C@@H]1CC[C@]2(C)CCCC(=C)[C@H]2[C@H]1O
REMARK SMILES IDX 7 1 6 2 5 3 3 4 4 5 2 7 1 8 75 9 76 10 86 11 77 12 85 13
REMARK SMILES IDX 78 14 83 15 79 16 80 17 82 18 84 19 81 20 87 21 8 23 9 24
REMARK SMILES IDX 10 25 11 27 12 28 13 29 74 30 14 31 73 32 15 33 16 34 17 35
REMARK SMILES IDX 67 36 18 37 72 38 66 39 68 40 19 41 71 42 65 43 64 44 20 46
REMARK SMILES IDX 52 47 32 48 51 49 33 50 36 51 50 52 69 53 34 54 35 55 49 57
REMARK SMILES IDX 70 58 37 59 21 60 22 61 30 62 23 63 29 64 31 65 28 66 24 67
REMARK SMILES IDX 25 68 26 69 27 70 53 71 54 72 62 73 55 74 61 75 63 76 60 77
REMARK SMILES IDX 56 78 57 79 58 80 59 81 38 82 39 83 47 84 40 85 46 86 48 87
REMARK SMILES IDX 45 88 41 89 42 90 43 91 44 92
REMARK H PARENT 5 6 87 22 9 26 68 45 36 56
REMARK Flexibility Score: inf
ROOT
ATOM      1  C   UNL A   1      32.092  28.283  25.232  1.00  0.00     0.042 C 
ENDROOT
BRANCH   1   2
ATOM      2  C   UNL A   1      31.376  28.273  23.889  1.00  0.00     0.118 C 
BRANCH   2   3
ATOM      3  N   UNL A   1      30.122  27.536  23.921  1.00  0.00    -0.352 N 
ATOM      4  C   UNL A   1      29.732  26.240  23.935  1.00  0.00     0.246 C 
ATOM      5  O   UNL A   1      28.512  26.074  23.965  1.00  0.00    -0.270 OA
ATOM      6  H   UNL A   1      29.347  28.145  23.935  1.00  0.00     0.163 HD
BRANCH   4   7
ATOM      7  C   UNL A   1      30.649  25.054  23.900  1.00  0.00     0.015 C 
ATOM      8  C   UNL A   1      31.468  24.792  22.861  1.00  0.00     0.019 C 
BRANCH   7   9
ATOM      9  C   UNL A   1      30.859  24.181  25.159  1.00  0.00     0.053 C 
ATOM     10  C   UNL A   1      31.689  24.913  26.239  1.00  0.00     0.012 C 
ATOM     11  C   UNL A   1      31.250  22.669  25.051  1.00  0.00     0.129 C 
ATOM     12  C   UNL A   1      33.186  24.639  26.163  1.00  0.00     0.008 C 
ATOM     13  C   UNL A   1      32.794  22.414  25.051  1.00  0.00     0.050 C 
ATOM     14  C   UNL A   1      33.540  23.134  26.221  1.00  0.00    -0.024 C 
ATOM     15  C   UNL A   1      33.289  20.968  24.923  1.00  0.00    -0.071 C 
ATOM     16  C   UNL A   1      33.196  22.560  27.616  1.00  0.00     0.012 C 
ATOM     17  C   UNL A   1      35.079  23.004  26.016  1.00  0.00     0.008 C 
ATOM     18  C   UNL A   1      34.784  20.855  24.715  1.00  0.00     0.031 C 
ATOM     19  C   UNL A   1      32.528  19.861  24.966  1.00  0.00     0.008 C 
ATOM     20  C   UNL A   1      35.549  21.560  25.832  1.00  0.00     0.005 C 
BRANCH  11  21
ATOM     21  O   UNL A   1      30.606  21.943  26.122  1.00  0.00    -0.392 OA
ATOM     22  H   UNL A   1      31.092  22.087  26.949  1.00  0.00     0.211 HD
ENDBRANCH  11  21
ENDBRANCH   7   9
ENDBRANCH   4   7
ENDBRANCH   2   3
ENDBRANCH   1   2
BRANCH   1  23
ATOM     23  C   UNL A   1      33.200  29.324  25.337  1.00  0.00     0.118 C 
BRANCH  23  24
ATOM     24  N   UNL A   1      32.716  30.605  25.842  1.00  0.00    -0.352 N 
ATOM     25  C   UNL A   1      33.131  31.344  26.920  1.00  0.00     0.251 C 
ATOM     26  H   UNL A   1      31.975  31.000  25.328  1.00  0.00     0.163 HD
ATOM     27  O   UNL A   1      32.414  32.254  27.344  1.00  0.00    -0.269 OA
BRANCH  25  28
ATOM     28  C   UNL A   1      34.420  31.046  27.577  1.00  0.00     0.039 A 
ATOM     29  C   UNL A   1      35.360  32.064  27.752  1.00  0.00     0.014 A 
ATOM     30  C   UNL A   1      34.705  29.748  28.007  1.00  0.00     0.014 A 
ATOM     31  C   UNL A   1      36.551  31.797  28.435  1.00  0.00     0.010 A 
ATOM     32  C   UNL A   1      35.845  29.505  28.761  1.00  0.00     0.010 A 
ATOM     33  C   UNL A   1      36.781  30.526  28.984  1.00  0.00    -0.014 A 
BRANCH  33  34
ATOM     34  C   UNL A   1      37.992  30.222  29.791  1.00  0.00     0.031 A 
ATOM     35  C   UNL A   1      39.027  29.275  29.250  1.00  0.00     0.074 A 
ATOM     36  C   UNL A   1      38.102  30.711  31.043  1.00  0.00     0.049 A 
ATOM     37  N   UNL A   1      40.061  28.745  29.850  1.00  0.00    -0.248 NA
ATOM     38  C   UNL A   1      38.850  28.836  27.856  1.00  0.00     0.031 C 
ATOM     39  C   UNL A   1      37.145  31.614  31.685  1.00  0.00     0.029 A 
ATOM     40  N   UNL A   1      39.055  30.501  32.007  1.00  0.00    -0.354 N 
ATOM     41  C   UNL A   1      40.645  27.894  28.917  1.00  0.00     0.074 A 
ATOM     42  C   UNL A   1      39.811  27.934  27.734  1.00  0.00     0.031 C 
ATOM     43  C   UNL A   1      37.568  31.891  32.928  1.00  0.00     0.029 A 
ATOM     44  C   UNL A   1      38.791  31.143  33.196  1.00  0.00     0.049 A 
ATOM     45  H   UNL A   1      39.854  29.944  31.862  1.00  0.00     0.167 HD
ATOM     46  C   UNL A   1      41.781  27.163  29.032  1.00  0.00     0.034 A 
ATOM     47  C   UNL A   1      39.446  31.110  34.374  1.00  0.00     0.034 A 
ATOM     48  C   UNL A   1      42.604  27.151  30.216  1.00  0.00     0.049 A 
ATOM     49  C   UNL A   1      40.689  30.264  34.491  1.00  0.00     0.074 A 
ATOM     50  C   UNL A   1      43.803  26.493  30.425  1.00  0.00     0.029 A 
ATOM     51  N   UNL A   1      42.310  27.824  31.396  1.00  0.00    -0.354 N 
ATOM     52  N   UNL A   1      41.249  29.493  33.587  1.00  0.00    -0.248 NA
ATOM     53  C   UNL A   1      41.391  30.286  35.781  1.00  0.00     0.031 C 
ATOM     54  C   UNL A   1      44.196  26.708  31.750  1.00  0.00     0.029 A 
ATOM     55  C   UNL A   1      43.288  27.571  32.344  1.00  0.00     0.049 A 
ATOM     56  H   UNL A   1      41.522  28.397  31.537  1.00  0.00     0.167 HD
ATOM     57  C   UNL A   1      42.392  28.971  34.189  1.00  0.00     0.074 A 
ATOM     58  C   UNL A   1      42.441  29.517  35.530  1.00  0.00     0.031 C 
ATOM     59  C   UNL A   1      43.322  28.126  33.677  1.00  0.00     0.034 A 
BRANCH  46  60
ATOM     60  C   UNL A   1      42.178  26.302  27.856  1.00  0.00     0.023 A 
ATOM     61  C   UNL A   1      41.685  24.995  27.697  1.00  0.00     0.031 A 
ATOM     62  C   UNL A   1      43.083  26.783  26.893  1.00  0.00     0.131 A 
ATOM     63  C   UNL A   1      42.160  24.188  26.653  1.00  0.00     0.055 A 
ATOM     64  C   UNL A   1      43.484  26.005  25.804  1.00  0.00     0.041 A 
ATOM     65  F   UNL A   1      43.605  28.015  27.000  1.00  0.00    -0.206 F 
ATOM     66  C   UNL A   1      43.035  24.694  25.689  1.00  0.00     0.022 A 
BRANCH  63  67
ATOM     67  S   UNL A   1      41.734  22.425  26.661  1.00  0.00     0.124 S 
ATOM     68  O   UNL A   1      42.278  21.986  25.377  1.00  0.00    -0.237 OA
ATOM     69  O   UNL A   1      42.427  21.938  27.847  1.00  0.00    -0.237 OA
ATOM     70  O   UNL A   1      40.275  22.425  26.745  1.00  0.00    -0.744 OA
ENDBRANCH  63  67
ENDBRANCH  46  60
BRANCH  47  71
ATOM     71  C   UNL A   1      38.938  31.887  35.542  1.00  0.00     0.023 A 
ATOM     72  C   UNL A   1      38.325  31.241  36.626  1.00  0.00     0.031 A 
ATOM     73  C   UNL A   1      39.024  33.291  35.576  1.00  0.00     0.131 A 
ATOM     74  C   UNL A   1      37.778  31.997  37.675  1.00  0.00     0.055 A 
ATOM     75  C   UNL A   1      38.530  34.036  36.647  1.00  0.00     0.041 A 
ATOM     76  F   UNL A   1      39.605  33.961  34.568  1.00  0.00    -0.206 F 
ATOM     77  C   UNL A   1      37.889  33.389  37.700  1.00  0.00     0.022 A 
BRANCH  74  78
ATOM     78  S   UNL A   1      36.837  31.138  38.966  1.00  0.00     0.124 S 
ATOM     79  O   UNL A   1      35.634  31.958  39.048  1.00  0.00    -0.237 OA
ATOM     80  O   UNL A   1      36.671  29.810  38.386  1.00  0.00    -0.237 OA
ATOM     81  O   UNL A   1      37.719  31.203  40.129  1.00  0.00    -0.744 OA
ENDBRANCH  74  78
ENDBRANCH  47  71
BRANCH  59  82
ATOM     82  C   UNL A   1      44.507  27.790  34.548  1.00  0.00     0.023 A 
ATOM     83  C   UNL A   1      44.514  26.674  35.400  1.00  0.00     0.031 A 
ATOM     84  C   UNL A   1      45.658  28.597  34.501  1.00  0.00     0.131 A 
ATOM     85  C   UNL A   1      45.637  26.415  36.201  1.00  0.00     0.055 A 
ATOM     86  C   UNL A   1      46.793  28.303  35.257  1.00  0.00     0.041 A 
ATOM     87  F   UNL A   1      45.703  29.679  33.706  1.00  0.00    -0.206 F 
ATOM     88  C   UNL A   1      46.784  27.211  36.120  1.00  0.00     0.022 A 
BRANCH  85  89
ATOM     89  S   UNL A   1      45.559  25.060  37.403  1.00  0.00     0.124 S 
ATOM     90  O   UNL A   1      44.250  25.272  38.013  1.00  0.00    -0.237 OA
ATOM     91  O   UNL A   1      45.683  23.880  36.555  1.00  0.00    -0.237 OA
ATOM     92  O   UNL A   1      46.701  25.314  38.281  1.00  0.00    -0.744 OA
ENDBRANCH  85  89
ENDBRANCH  59  82
ENDBRANCH  33  34
ENDBRANCH  25  28
ENDBRANCH  23  24
ENDBRANCH   1  23
TORSDOF 15
ENDMDL
MODEL 2
REMARK VINA RESULT:     -12.6      2.190      2.871
REMARK SMILES C=C(C(=O)NCCCNC(=O)c1ccc(-c2c3nc(c(-c4cc(S(=O)(=O)[O-])ccc4F)c4ccc([nH]4)c(-c4cc(S(=O)(=O)[O-])ccc4F)c4nc(c(-c5cc(S(=O)(=O)[O-])ccc5F)c5ccc2[nH]5)C=C4)C=C3)cc1)[C@@H]1CC[C@]2(C)CCCC(=C)[C@H]2[C@H]1O
REMARK SMILES IDX 7 1 6 2 5 3 3 4 4 5 2 7 1 8 75 9 76 10 86 11 77 12 85 13
REMARK SMILES IDX 78 14 83 15 79 16 80 17 82 18 84 19 81 20 87 21 8 23 9 24
REMARK SMILES IDX 10 25 11 27 12 28 13 29 74 30 14 31 73 32 15 33 16 34 17 35
REMARK SMILES IDX 67 36 18 37 72 38 66 39 68 40 19 41 71 42 65 43 64 44 20 46
REMARK SMILES IDX 52 47 32 48 51 49 33 50 36 51 50 52 69 53 34 54 35 55 49 57
REMARK SMILES IDX 70 58 37 59 21 60 22 61 30 62 23 63 29 64 31 65 28 66 24 67
REMARK SMILES IDX 25 68 26 69 27 70 53 71 54 72 62 73 55 74 61 75 63 76 60 77
REMARK SMILES IDX 56 78 57 79 58 80 59 81 38 82 39 83 47 84 40 85 46 86 48 87
REMARK SMILES IDX 45 88 41 89 42 90 43 91 44 92
REMARK H PARENT 5 6 87 22 9 26 68 45 36 56
REMARK Flexibility Score: inf
ROOT
ATOM      1  C   UNL A   1      31.482  31.922  26.590  1.00  0.00     0.042 C 
ENDROOT
BRANCH   1   2
ATOM      2  C   UNL A   1      31.549  30.418  26.374  1.00  0.00     0.118 C 
BRANCH   2   3
ATOM      3  N   UNL A   1      31.894  30.055  25.008  1.00  0.00    -0.352 N 
ATOM      4  C   UNL A   1      31.739  28.982  24.197  1.00  0.00     0.246 C 
ATOM      5  O   UNL A   1      32.209  29.124  23.068  1.00  0.00    -0.270 OA
ATOM      6  H   UNL A   1      32.370  30.786  24.551  1.00  0.00     0.163 HD
BRANCH   4   7
ATOM      7  C   UNL A   1      31.079  27.691  24.577  1.00  0.00     0.015 C 
ATOM      8  C   UNL A   1      29.991  27.209  23.942  1.00  0.00     0.019 C 
BRANCH   7   9
ATOM      9  C   UNL A   1      31.746  26.731  25.589  1.00  0.00     0.053 C 
ATOM     10  C   UNL A   1      33.285  26.878  25.597  1.00  0.00     0.012 C 
ATOM     11  C   UNL A   1      31.305  25.234  25.713  1.00  0.00     0.129 C 
ATOM     12  C   UNL A   1      34.005  25.915  24.662  1.00  0.00     0.008 C 
ATOM     13  C   UNL A   1      32.114  24.259  24.794  1.00  0.00     0.050 C 
ATOM     14  C   UNL A   1      33.662  24.430  24.923  1.00  0.00    -0.024 C 
ATOM     15  C   UNL A   1      31.745  22.770  24.817  1.00  0.00    -0.071 C 
ATOM     16  C   UNL A   1      34.217  23.989  26.299  1.00  0.00     0.012 C 
ATOM     17  C   UNL A   1      34.373  23.581  23.826  1.00  0.00     0.008 C 
ATOM     18  C   UNL A   1      32.435  21.959  23.741  1.00  0.00     0.031 C 
ATOM     19  C   UNL A   1      30.891  22.176  25.667  1.00  0.00     0.008 C 
ATOM     20  C   UNL A   1      33.951  22.111  23.825  1.00  0.00     0.005 C 
BRANCH  11  21
ATOM     21  O   UNL A   1      31.394  24.834  27.099  1.00  0.00    -0.392 OA
ATOM     22  H   UNL A   1      30.860  25.433  27.643  1.00  0.00     0.211 HD
ENDBRANCH  11  21
ENDBRANCH   7   9
ENDBRANCH   4   7
ENDBRANCH   2   3
ENDBRANCH   1   2
BRANCH   1  23
ATOM     23  C   UNL A   1      32.806  32.551  27.006  1.00  0.00     0.118 C 
BRANCH  23  24
ATOM     24  N   UNL A   1      32.631  33.862  27.625  1.00  0.00    -0.352 N 
ATOM     25  C   UNL A   1      33.241  34.408  28.725  1.00  0.00     0.251 C 
ATOM     26  H   UNL A   1      31.970  34.444  27.184  1.00  0.00     0.163 HD
ATOM     27  O   UNL A   1      32.755  35.413  29.251  1.00  0.00    -0.269 OA
BRANCH  25  28
ATOM     28  C   UNL A   1      34.462  33.794  29.283  1.00  0.00     0.039 A 
ATOM     29  C   UNL A   1      35.715  34.311  28.943  1.00  0.00     0.014 A 
ATOM     30  C   UNL A   1      34.367  32.691  30.134  1.00  0.00     0.014 A 
ATOM     31  C   UNL A   1      36.867  33.773  29.526  1.00  0.00     0.010 A 
ATOM     32  C   UNL A   1      35.502  32.216  30.778  1.00  0.00     0.010 A 
ATOM     33  C   UNL A   1      36.764  32.751  30.483  1.00  0.00    -0.014 A 
BRANCH  33  34
ATOM     34  C   UNL A   1      37.954  32.209  31.191  1.00  0.00     0.031 A 
ATOM     35  C   UNL A   1      38.743  31.091  30.568  1.00  0.00     0.074 A 
ATOM     36  C   UNL A   1      38.252  32.649  32.429  1.00  0.00     0.049 A 
ATOM     37  N   UNL A   1      39.701  30.365  31.083  1.00  0.00    -0.248 NA
ATOM     38  C   UNL A   1      38.377  30.715  29.193  1.00  0.00     0.031 C 
ATOM     39  C   UNL A   1      37.539  33.707  33.147  1.00  0.00     0.029 A 
ATOM     40  N   UNL A   1      39.221  32.246  33.315  1.00  0.00    -0.354 N 
ATOM     41  C   UNL A   1      40.037  29.433  30.107  1.00  0.00     0.074 A 
ATOM     42  C   UNL A   1      39.137  29.650  28.994  1.00  0.00     0.031 C 
ATOM     43  C   UNL A   1      38.102  33.879  34.352  1.00  0.00     0.029 A 
ATOM     44  C   UNL A   1      39.177  32.907  34.521  1.00  0.00     0.049 A 
ATOM     45  H   UNL A   1      39.884  31.549  33.107  1.00  0.00     0.167 HD
ATOM     46  C   UNL A   1      41.018  28.498  30.130  1.00  0.00     0.034 A 
ATOM     47  C   UNL A   1      39.904  32.732  35.644  1.00  0.00     0.034 A 
ATOM     48  C   UNL A   1      41.913  28.310  31.245  1.00  0.00     0.049 A 
ATOM     49  C   UNL A   1      40.968  31.663  35.660  1.00  0.00     0.074 A 
ATOM     50  C   UNL A   1      42.977  27.432  31.358  1.00  0.00     0.029 A 
ATOM     51  N   UNL A   1      41.846  29.008  32.445  1.00  0.00    -0.354 N 
ATOM     52  N   UNL A   1      41.298  30.814  34.715  1.00  0.00    -0.248 NA
ATOM     53  C   UNL A   1      41.759  31.531  36.890  1.00  0.00     0.031 C 
ATOM     54  C   UNL A   1      43.506  27.548  32.648  1.00  0.00     0.029 A 
ATOM     55  C   UNL A   1      42.829  28.558  33.312  1.00  0.00     0.049 A 
ATOM     56  H   UNL A   1      41.195  29.718  32.649  1.00  0.00     0.167 HD
ATOM     57  C   UNL A   1      42.363  30.075  35.223  1.00  0.00     0.074 A 
ATOM     58  C   UNL A   1      42.620  30.580  36.556  1.00  0.00     0.031 C 
ATOM     59  C   UNL A   1      43.072  29.076  34.638  1.00  0.00     0.034 A 
BRANCH  46  60
ATOM     60  C   UNL A   1      41.150  27.595  28.926  1.00  0.00     0.023 A 
ATOM     61  C   UNL A   1      42.148  27.797  27.957  1.00  0.00     0.031 A 
ATOM     62  C   UNL A   1      40.251  26.532  28.729  1.00  0.00     0.131 A 
ATOM     63  C   UNL A   1      42.172  27.006  26.799  1.00  0.00     0.055 A 
ATOM     64  C   UNL A   1      40.335  25.690  27.618  1.00  0.00     0.041 A 
ATOM     65  F   UNL A   1      39.263  26.300  29.608  1.00  0.00    -0.206 F 
ATOM     66  C   UNL A   1      41.290  25.936  26.636  1.00  0.00     0.022 A 
BRANCH  63  67
ATOM     67  S   UNL A   1      43.275  27.491  25.443  1.00  0.00     0.124 S 
ATOM     68  O   UNL A   1      42.340  28.133  24.521  1.00  0.00    -0.237 OA
ATOM     69  O   UNL A   1      44.224  28.375  26.108  1.00  0.00    -0.237 OA
ATOM     70  O   UNL A   1      43.825  26.220  24.977  1.00  0.00    -0.744 OA
ENDBRANCH  63  67
ENDBRANCH  46  60
BRANCH  47  71
ATOM     71  C   UNL A   1      39.647  33.573  36.849  1.00  0.00     0.023 A 
ATOM     72  C   UNL A   1      38.978  33.048  37.965  1.00  0.00     0.031 A 
ATOM     73  C   UNL A   1      40.032  34.925  36.889  1.00  0.00     0.131 A 
ATOM     74  C   UNL A   1      38.670  33.880  39.053  1.00  0.00     0.055 A 
ATOM     75  C   UNL A   1      39.776  35.734  37.997  1.00  0.00     0.041 A 
ATOM     76  F   UNL A   1      40.680  35.478  35.851  1.00  0.00    -0.206 F 
ATOM     77  C   UNL A   1      39.078  35.215  39.083  1.00  0.00     0.022 A 
BRANCH  74  78
ATOM     78  S   UNL A   1      37.649  33.212  40.395  1.00  0.00     0.124 S 
ATOM     79  O   UNL A   1      38.436  32.060  40.819  1.00  0.00    -0.237 OA
ATOM     80  O   UNL A   1      37.599  34.335  41.325  1.00  0.00    -0.237 OA
ATOM     81  O   UNL A   1      36.384  32.896  39.733  1.00  0.00    -0.744 OA
ENDBRANCH  74  78
ENDBRANCH  47  71
BRANCH  59  82
ATOM     82  C   UNL A   1      44.236  28.507  35.412  1.00  0.00     0.023 A 
ATOM     83  C   UNL A   1      44.074  27.473  36.349  1.00  0.00     0.031 A 
ATOM     84  C   UNL A   1      45.533  29.001  35.185  1.00  0.00     0.131 A 
ATOM     85  C   UNL A   1      45.188  26.991  37.053  1.00  0.00     0.055 A 
ATOM     86  C   UNL A   1      46.644  28.478  35.845  1.00  0.00     0.041 A 
ATOM     87  F   UNL A   1      45.742  29.991  34.302  1.00  0.00    -0.206 F 
ATOM     88  C   UNL A   1      46.474  27.473  36.792  1.00  0.00     0.022 A 
BRANCH  85  89
ATOM     89  S   UNL A   1      44.928  25.767  38.365  1.00  0.00     0.124 S 
ATOM     90  O   UNL A   1      44.241  24.697  37.650  1.00  0.00    -0.237 OA
ATOM     91  O   UNL A   1      46.291  25.473  38.795  1.00  0.00    -0.237 OA
ATOM     92  O   UNL A   1      44.112  26.482  39.346  1.00  0.00    -0.744 OA
ENDBRANCH  85  89
ENDBRANCH  59  82
ENDBRANCH  33  34
ENDBRANCH  25  28
ENDBRANCH  23  24
ENDBRANCH   1  23
TORSDOF 15
ENDMDL
MODEL 3
REMARK VINA RESULT:     -12.5      1.776      2.047
REMARK SMILES C=C(C(=O)NCCCNC(=O)c1ccc(-c2c3nc(c(-c4cc(S(=O)(=O)[O-])ccc4F)c4ccc([nH]4)c(-c4cc(S(=O)(=O)[O-])ccc4F)c4nc(c(-c5cc(S(=O)(=O)[O-])ccc5F)c5ccc2[nH]5)C=C4)C=C3)cc1)[C@@H]1CC[C@]2(C)CCCC(=C)[C@H]2[C@H]1O
REMARK SMILES IDX 7 1 6 2 5 3 3 4 4 5 2 7 1 8 75 9 76 10 86 11 77 12 85 13
REMARK SMILES IDX 78 14 83 15 79 16 80 17 82 18 84 19 81 20 87 21 8 23 9 24
REMARK SMILES IDX 10 25 11 27 12 28 13 29 74 30 14 31 73 32 15 33 16 34 17 35
REMARK SMILES IDX 67 36 18 37 72 38 66 39 68 40 19 41 71 42 65 43 64 44 20 46
REMARK SMILES IDX 52 47 32 48 51 49 33 50 36 51 50 52 69 53 34 54 35 55 49 57
REMARK SMILES IDX 70 58 37 59 21 60 22 61 30 62 23 63 29 64 31 65 28 66 24 67
REMARK SMILES IDX 25 68 26 69 27 70 53 71 54 72 62 73 55 74 61 75 63 76 60 77
REMARK SMILES IDX 56 78 57 79 58 80 59 81 38 82 39 83 47 84 40 85 46 86 48 87
REMARK SMILES IDX 45 88 41 89 42 90 43 91 44 92
REMARK H PARENT 5 6 87 22 9 26 68 45 36 56
REMARK Flexibility Score: inf
ROOT
ATOM      1  C   UNL A   1      32.487  29.415  25.246  1.00  0.00     0.042 C 
ENDROOT
BRANCH   1   2
ATOM      2  C   UNL A   1      31.299  29.431  24.296  1.00  0.00     0.118 C 
BRANCH   2   3
ATOM      3  N   UNL A   1      31.374  28.398  23.275  1.00  0.00    -0.352 N 
ATOM      4  C   UNL A   1      30.829  27.178  23.056  1.00  0.00     0.246 C 
ATOM      5  O   UNL A   1      31.194  26.636  22.012  1.00  0.00    -0.270 OA
ATOM      6  H   UNL A   1      31.987  28.655  22.548  1.00  0.00     0.163 HD
BRANCH   4   7
ATOM      7  C   UNL A   1      29.872  26.475  23.970  1.00  0.00     0.015 C 
ATOM      8  C   UNL A   1      28.535  26.644  23.903  1.00  0.00     0.019 C 
BRANCH   7   9
ATOM      9  C   UNL A   1      30.360  25.344  24.906  1.00  0.00     0.053 C 
ATOM     10  C   UNL A   1      31.194  25.892  26.087  1.00  0.00     0.012 C 
ATOM     11  C   UNL A   1      30.957  24.012  24.340  1.00  0.00     0.129 C 
ATOM     12  C   UNL A   1      32.695  25.918  25.827  1.00  0.00     0.008 C 
ATOM     13  C   UNL A   1      32.511  24.045  24.154  1.00  0.00     0.050 C 
ATOM     14  C   UNL A   1      33.275  24.542  25.424  1.00  0.00    -0.024 C 
ATOM     15  C   UNL A   1      33.197  22.799  23.581  1.00  0.00    -0.071 C 
ATOM     16  C   UNL A   1      33.190  23.559  26.616  1.00  0.00     0.012 C 
ATOM     17  C   UNL A   1      34.780  24.747  25.078  1.00  0.00     0.008 C 
ATOM     18  C   UNL A   1      34.657  23.015  23.241  1.00  0.00     0.031 C 
ATOM     19  C   UNL A   1      32.621  21.606  23.359  1.00  0.00     0.008 C 
ATOM     20  C   UNL A   1      35.436  23.514  24.454  1.00  0.00     0.005 C 
BRANCH  11  21
ATOM     21  O   UNL A   1      30.562  22.921  25.202  1.00  0.00    -0.392 OA
ATOM     22  H   UNL A   1      30.688  23.178  26.129  1.00  0.00     0.211 HD
ENDBRANCH  11  21
ENDBRANCH   7   9
ENDBRANCH   4   7
ENDBRANCH   2   3
ENDBRANCH   1   2
BRANCH   1  23
ATOM     23  C   UNL A   1      32.179  29.953  26.638  1.00  0.00     0.118 C 
BRANCH  23  24
ATOM     24  N   UNL A   1      32.064  31.409  26.660  1.00  0.00    -0.352 N 
ATOM     25  C   UNL A   1      32.825  32.344  27.314  1.00  0.00     0.251 C 
ATOM     26  H   UNL A   1      31.325  31.775  26.123  1.00  0.00     0.163 HD
ATOM     27  O   UNL A   1      32.399  33.496  27.432  1.00  0.00    -0.269 OA
BRANCH  25  28
ATOM     28  C   UNL A   1      34.137  31.975  27.881  1.00  0.00     0.039 A 
ATOM     29  C   UNL A   1      35.147  32.936  27.972  1.00  0.00     0.014 A 
ATOM     30  C   UNL A   1      34.373  30.668  28.310  1.00  0.00     0.014 A 
ATOM     31  C   UNL A   1      36.366  32.604  28.573  1.00  0.00     0.010 A 
ATOM     32  C   UNL A   1      35.548  30.364  28.984  1.00  0.00     0.010 A 
ATOM     33  C   UNL A   1      36.558  31.328  29.124  1.00  0.00    -0.014 A 
BRANCH  33  34
ATOM     34  C   UNL A   1      37.803  30.959  29.847  1.00  0.00     0.031 A 
ATOM     35  C   UNL A   1      38.758  29.975  29.229  1.00  0.00     0.074 A 
ATOM     36  C   UNL A   1      38.015  31.424  31.094  1.00  0.00     0.049 A 
ATOM     37  N   UNL A   1      39.804  29.392  29.754  1.00  0.00    -0.248 NA
ATOM     38  C   UNL A   1      38.472  29.565  27.845  1.00  0.00     0.031 C 
ATOM     39  C   UNL A   1      37.143  32.359  31.808  1.00  0.00     0.029 A 
ATOM     40  N   UNL A   1      39.019  31.159  31.992  1.00  0.00    -0.354 N 
ATOM     41  C   UNL A   1      40.288  28.530  28.775  1.00  0.00     0.074 A 
ATOM     42  C   UNL A   1      39.383  28.624  27.649  1.00  0.00     0.031 C 
ATOM     43  C   UNL A   1      37.657  32.599  33.025  1.00  0.00     0.029 A 
ATOM     44  C   UNL A   1      38.860  31.794  33.203  1.00  0.00     0.049 A 
ATOM     45  H   UNL A   1      39.780  30.569  31.790  1.00  0.00     0.167 HD
ATOM     46  C   UNL A   1      41.395  27.749  28.807  1.00  0.00     0.034 A 
ATOM     47  C   UNL A   1      39.587  31.716  34.336  1.00  0.00     0.034 A 
ATOM     48  C   UNL A   1      42.291  27.683  29.936  1.00  0.00     0.049 A 
ATOM     49  C   UNL A   1      40.796  30.814  34.362  1.00  0.00     0.074 A 
ATOM     50  C   UNL A   1      43.471  26.970  30.059  1.00  0.00     0.029 A 
ATOM     51  N   UNL A   1      42.104  28.351  31.140  1.00  0.00    -0.354 N 
ATOM     52  N   UNL A   1      41.262  30.032  33.415  1.00  0.00    -0.248 NA
ATOM     53  C   UNL A   1      41.579  30.786  35.604  1.00  0.00     0.031 C 
ATOM     54  C   UNL A   1      43.957  27.148  31.358  1.00  0.00     0.029 A 
ATOM     55  C   UNL A   1      43.129  28.041  32.020  1.00  0.00     0.049 A 
ATOM     56  H   UNL A   1      41.353  28.955  31.338  1.00  0.00     0.167 HD
ATOM     57  C   UNL A   1      42.416  29.453  33.935  1.00  0.00     0.074 A 
ATOM     58  C   UNL A   1      42.576  29.976  35.276  1.00  0.00     0.031 C 
ATOM     59  C   UNL A   1      43.273  28.575  33.354  1.00  0.00     0.034 A 
BRANCH  46  60
ATOM     60  C   UNL A   1      41.677  26.888  27.598  1.00  0.00     0.023 A 
ATOM     61  C   UNL A   1      41.301  25.534  27.551  1.00  0.00     0.031 A 
ATOM     62  C   UNL A   1      42.354  27.420  26.487  1.00  0.00     0.131 A 
ATOM     63  C   UNL A   1      41.676  24.740  26.457  1.00  0.00     0.055 A 
ATOM     64  C   UNL A   1      42.646  26.646  25.361  1.00  0.00     0.041 A 
ATOM     65  F   UNL A   1      42.757  28.700  26.479  1.00  0.00    -0.206 F 
ATOM     66  C   UNL A   1      42.321  25.293  25.349  1.00  0.00     0.022 A 
BRANCH  63  67
ATOM     67  S   UNL A   1      41.441  22.945  26.572  1.00  0.00     0.124 S 
ATOM     68  O   UNL A   1      39.984  22.842  26.616  1.00  0.00    -0.237 OA
ATOM     69  O   UNL A   1      42.078  22.464  25.352  1.00  0.00    -0.237 OA
ATOM     70  O   UNL A   1      42.122  22.589  27.815  1.00  0.00    -0.744 OA
ENDBRANCH  63  67
ENDBRANCH  46  60
BRANCH  47  71
ATOM     71  C   UNL A   1      39.191  32.496  35.544  1.00  0.00     0.023 A 
ATOM     72  C   UNL A   1      39.630  33.817  35.726  1.00  0.00     0.031 A 
ATOM     73  C   UNL A   1      38.398  31.922  36.554  1.00  0.00     0.131 A 
ATOM     74  C   UNL A   1      39.316  34.503  36.909  1.00  0.00     0.055 A 
ATOM     75  C   UNL A   1      38.040  32.628  37.704  1.00  0.00     0.041 A 
ATOM     76  F   UNL A   1      37.946  30.664  36.431  1.00  0.00    -0.206 F 
ATOM     77  C   UNL A   1      38.512  33.924  37.892  1.00  0.00     0.022 A 
BRANCH  74  78
ATOM     78  S   UNL A   1      40.050  36.139  37.184  1.00  0.00     0.124 S 
ATOM     79  O   UNL A   1      39.184  36.680  38.225  1.00  0.00    -0.237 OA
ATOM     80  O   UNL A   1      41.408  35.795  37.593  1.00  0.00    -0.237 OA
ATOM     81  O   UNL A   1      39.939  36.786  35.879  1.00  0.00    -0.744 OA
ENDBRANCH  74  78
ENDBRANCH  47  71
BRANCH  59  82
ATOM     82  C   UNL A   1      44.496  28.175  34.142  1.00  0.00     0.023 A 
ATOM     83  C   UNL A   1      44.510  27.043  34.974  1.00  0.00     0.031 A 
ATOM     84  C   UNL A   1      45.674  28.935  34.035  1.00  0.00     0.131 A 
ATOM     85  C   UNL A   1      45.669  26.724  35.698  1.00  0.00     0.055 A 
ATOM     86  C   UNL A   1      46.841  28.580  34.712  1.00  0.00     0.041 A 
ATOM     87  F   UNL A   1      45.714  30.028  33.257  1.00  0.00    -0.206 F 
ATOM     88  C   UNL A   1      46.840  27.474  35.556  1.00  0.00     0.022 A 
BRANCH  85  89
ATOM     89  S   UNL A   1      45.609  25.351  36.880  1.00  0.00     0.124 S 
ATOM     90  O   UNL A   1      44.572  25.793  37.806  1.00  0.00    -0.237 OA
ATOM     91  O   UNL A   1      45.264  24.218  36.029  1.00  0.00    -0.237 OA
ATOM     92  O   UNL A   1      46.962  25.317  37.435  1.00  0.00    -0.744 OA
ENDBRANCH  85  89
ENDBRANCH  59  82
ENDBRANCH  33  34
ENDBRANCH  25  28
ENDBRANCH  23  24
ENDBRANCH   1  23
TORSDOF 15
ENDMDL
