MODEL 1
REMARK VINA RESULT:     -12.2      0.000      0.000
REMARK SMILES O=C(NCCCNC(=O)[C@@H](F)[C@H]1CCCc2cccnc21)c1ccc(-c2c3nc(c(-c4cc(S(=O)(=O)[O-])ccc4F)c4ccc([nH]4)c(-c4cc(S(=O)(=O)[O-])ccc4F)c4nc(c(-c5cc(S(=O)(=O)[O-])ccc5F)c5ccc2[nH]5)C=C4)C=C3)cc1
REMARK SMILES IDX 4 1 3 2 1 3 2 4 22 6 23 7 84 8 24 9 83 10 25 11 26 12 27 13
REMARK SMILES IDX 77 14 28 15 82 16 76 17 78 18 29 19 81 20 75 21 74 22 30 24
REMARK SMILES IDX 62 25 42 26 61 27 43 28 46 29 60 30 79 31 44 32 45 33 59 35
REMARK SMILES IDX 80 36 47 37 31 38 32 39 40 40 33 41 39 42 41 43 38 44 34 45
REMARK SMILES IDX 35 46 36 47 37 48 63 49 64 50 72 51 65 52 71 53 73 54 70 55
REMARK SMILES IDX 66 56 67 57 68 58 69 59 48 60 49 61 57 62 50 63 56 64 58 65
REMARK SMILES IDX 55 66 51 67 52 68 53 69 54 70 5 71 6 72 7 73 8 74 9 76 10 77
REMARK SMILES IDX 11 78 12 79 13 80 21 81 14 82 16 83 20 84 15 85 17 86 19 87
REMARK SMILES IDX 18 88
REMARK H PARENT 3 5 78 23 46 34 7 75
REMARK Flexibility Score: inf
ROOT
ATOM      1  C   UNL A   1      36.097  22.161  25.467  1.00  0.00     0.118 C 
ENDROOT
BRANCH   1   2
ATOM      2  N   UNL A   1      37.059  21.061  25.553  1.00  0.00    -0.352 N 
ATOM      3  O   UNL A   1      39.042  20.007  25.639  1.00  0.00    -0.269 OA
ATOM      4  C   UNL A   1      38.411  21.041  25.819  1.00  0.00     0.251 C 
ATOM      5  H   UNL A   1      36.669  20.172  25.390  1.00  0.00     0.163 HD
BRANCH   4   6
ATOM      6  C   UNL A   1      39.105  22.262  26.292  1.00  0.00     0.039 A 
ATOM      7  C   UNL A   1      38.659  23.521  25.910  1.00  0.00     0.014 A 
ATOM      8  C   UNL A   1      40.206  22.154  27.149  1.00  0.00     0.014 A 
ATOM      9  C   UNL A   1      39.433  24.639  26.170  1.00  0.00     0.010 A 
ATOM     10  C   UNL A   1      40.899  23.307  27.546  1.00  0.00     0.010 A 
ATOM     11  C   UNL A   1      40.541  24.558  27.025  1.00  0.00    -0.014 A 
BRANCH  11  12
ATOM     12  C   UNL A   1      41.234  25.820  27.398  1.00  0.00     0.031 A 
ATOM     13  C   UNL A   1      42.577  26.176  26.822  1.00  0.00     0.074 A 
ATOM     14  C   UNL A   1      40.588  26.681  28.212  1.00  0.00     0.049 A 
ATOM     15  N   UNL A   1      43.294  27.253  27.020  1.00  0.00    -0.248 NA
ATOM     16  C   UNL A   1      43.204  25.198  25.920  1.00  0.00     0.031 C 
ATOM     17  C   UNL A   1      39.279  26.433  28.829  1.00  0.00     0.029 A 
ATOM     18  N   UNL A   1      40.908  27.947  28.630  1.00  0.00    -0.354 N 
ATOM     19  C   UNL A   1      44.468  27.072  26.296  1.00  0.00     0.074 A 
ATOM     20  C   UNL A   1      44.374  25.771  25.666  1.00  0.00     0.031 C 
ATOM     21  C   UNL A   1      38.874  27.535  29.471  1.00  0.00     0.029 A 
ATOM     22  C   UNL A   1      39.932  28.532  29.406  1.00  0.00     0.049 A 
ATOM     23  H   UNL A   1      41.753  28.394  28.399  1.00  0.00     0.167 HD
ATOM     24  C   UNL A   1      45.523  27.916  26.174  1.00  0.00     0.034 A 
ATOM     25  C   UNL A   1      39.901  29.728  30.025  1.00  0.00     0.034 A 
ATOM     26  C   UNL A   1      45.583  29.220  26.793  1.00  0.00     0.049 A 
ATOM     27  C   UNL A   1      41.091  30.633  29.881  1.00  0.00     0.074 A 
ATOM     28  C   UNL A   1      46.587  30.169  26.708  1.00  0.00     0.029 A 
ATOM     29  N   UNL A   1      44.601  29.758  27.616  1.00  0.00    -0.354 N 
ATOM     30  N   UNL A   1      42.192  30.441  29.192  1.00  0.00    -0.248 NA
ATOM     31  C   UNL A   1      41.041  31.909  30.601  1.00  0.00     0.031 C 
ATOM     32  C   UNL A   1      46.241  31.251  27.525  1.00  0.00     0.029 A 
ATOM     33  C   UNL A   1      44.989  31.011  28.068  1.00  0.00     0.049 A 
ATOM     34  H   UNL A   1      43.751  29.315  27.845  1.00  0.00     0.167 HD
ATOM     35  C   UNL A   1      42.964  31.578  29.392  1.00  0.00     0.074 A 
ATOM     36  C   UNL A   1      42.187  32.464  30.237  1.00  0.00     0.031 C 
ATOM     37  C   UNL A   1      44.206  31.865  28.927  1.00  0.00     0.034 A 
BRANCH  24  38
ATOM     38  C   UNL A   1      46.720  27.439  25.387  1.00  0.00     0.023 A 
ATOM     39  C   UNL A   1      46.973  27.869  24.073  1.00  0.00     0.031 A 
ATOM     40  C   UNL A   1      47.632  26.543  25.975  1.00  0.00     0.131 A 
ATOM     41  C   UNL A   1      48.084  27.368  23.375  1.00  0.00     0.055 A 
ATOM     42  C   UNL A   1      48.770  26.099  25.298  1.00  0.00     0.041 A 
ATOM     43  F   UNL A   1      47.430  26.082  27.219  1.00  0.00    -0.206 F 
ATOM     44  C   UNL A   1      48.997  26.504  23.987  1.00  0.00     0.022 A 
BRANCH  41  45
ATOM     45  S   UNL A   1      48.270  27.780  21.618  1.00  0.00     0.124 S 
ATOM     46  O   UNL A   1      48.569  26.472  21.037  1.00  0.00    -0.237 OA
ATOM     47  O   UNL A   1      46.967  28.343  21.286  1.00  0.00    -0.237 OA
ATOM     48  O   UNL A   1      49.381  28.729  21.603  1.00  0.00    -0.744 OA
ENDBRANCH  41  45
ENDBRANCH  24  38
BRANCH  25  49
ATOM     49  C   UNL A   1      38.738  30.104  30.879  1.00  0.00     0.023 A 
ATOM     50  C   UNL A   1      37.683  30.879  30.374  1.00  0.00     0.031 A 
ATOM     51  C   UNL A   1      38.684  29.720  32.233  1.00  0.00     0.131 A 
ATOM     52  C   UNL A   1      36.639  31.276  31.225  1.00  0.00     0.055 A 
ATOM     53  C   UNL A   1      37.614  30.065  33.058  1.00  0.00     0.041 A 
ATOM     54  F   UNL A   1      39.667  28.978  32.769  1.00  0.00    -0.206 F 
ATOM     55  C   UNL A   1      36.589  30.861  32.559  1.00  0.00     0.022 A 
BRANCH  52  56
ATOM     56  S   UNL A   1      35.392  32.430  30.590  1.00  0.00     0.124 S 
ATOM     57  O   UNL A   1      35.111  31.870  29.273  1.00  0.00    -0.237 OA
ATOM     58  O   UNL A   1      34.330  32.302  31.583  1.00  0.00    -0.237 OA
ATOM     59  O   UNL A   1      36.089  33.714  30.586  1.00  0.00    -0.744 OA
ENDBRANCH  52  56
ENDBRANCH  25  49
BRANCH  37  60
ATOM     60  C   UNL A   1      44.771  33.207  29.316  1.00  0.00     0.023 A 
ATOM     61  C   UNL A   1      44.566  34.347  28.520  1.00  0.00     0.031 A 
ATOM     62  C   UNL A   1      45.556  33.336  30.474  1.00  0.00     0.131 A 
ATOM     63  C   UNL A   1      45.194  35.554  28.857  1.00  0.00     0.055 A 
ATOM     64  C   UNL A   1      46.130  34.555  30.837  1.00  0.00     0.041 A 
ATOM     65  F   UNL A   1      45.785  32.276  31.267  1.00  0.00    -0.206 F 
ATOM     66  C   UNL A   1      45.962  35.669  30.018  1.00  0.00     0.022 A 
BRANCH  63  67
ATOM     67  S   UNL A   1      45.073  36.947  27.703  1.00  0.00     0.124 S 
ATOM     68  O   UNL A   1      46.280  36.782  26.900  1.00  0.00    -0.237 OA
ATOM     69  O   UNL A   1      43.812  36.680  27.020  1.00  0.00    -0.237 OA
ATOM     70  O   UNL A   1      45.066  38.118  28.579  1.00  0.00    -0.744 OA
ENDBRANCH  63  67
ENDBRANCH  37  60
ENDBRANCH  11  12
ENDBRANCH   4   6
ENDBRANCH   1   2
BRANCH   1  71
ATOM     71  C   UNL A   1      35.186  22.259  26.679  1.00  0.00     0.042 C 
BRANCH  71  72
ATOM     72  C   UNL A   1      33.808  21.693  26.422  1.00  0.00     0.117 C 
BRANCH  72  73
ATOM     73  N   UNL A   1      32.758  22.232  27.261  1.00  0.00    -0.353 N 
ATOM     74  C   UNL A   1      31.731  23.039  26.861  1.00  0.00     0.255 C 
ATOM     75  H   UNL A   1      32.787  21.993  28.215  1.00  0.00     0.163 HD
ATOM     76  O   UNL A   1      30.745  23.136  27.599  1.00  0.00    -0.272 OA
BRANCH  74  77
ATOM     77  C   UNL A   1      31.812  23.830  25.557  1.00  0.00     0.264 C 
ATOM     78  F   UNL A   1      30.716  23.644  24.762  1.00  0.00    -0.236 F 
BRANCH  77  79
ATOM     79  C   UNL A   1      32.146  25.331  25.707  1.00  0.00     0.082 C 
ATOM     80  C   UNL A   1      33.669  25.554  25.737  1.00  0.00     0.014 C 
ATOM     81  C   UNL A   1      31.567  26.191  24.604  1.00  0.00     0.050 A 
ATOM     82  C   UNL A   1      34.319  25.198  24.402  1.00  0.00     0.006 C 
ATOM     83  C   UNL A   1      32.260  26.368  23.401  1.00  0.00    -0.026 A 
ATOM     84  N   UNL A   1      30.344  26.735  24.829  1.00  0.00    -0.261 NA
ATOM     85  C   UNL A   1      33.689  25.933  23.217  1.00  0.00     0.037 C 
ATOM     86  C   UNL A   1      31.605  27.034  22.358  1.00  0.00     0.007 A 
ATOM     87  C   UNL A   1      29.759  27.404  23.805  1.00  0.00     0.111 A 
ATOM     88  C   UNL A   1      30.328  27.546  22.554  1.00  0.00     0.020 A 
ENDBRANCH  77  79
ENDBRANCH  74  77
ENDBRANCH  72  73
ENDBRANCH  71  72
ENDBRANCH   1  71
TORSDOF 14
ENDMDL
MODEL 2
REMARK VINA RESULT:     -12.1      5.201     10.338
REMARK SMILES O=C(NCCCNC(=O)[C@@H](F)[C@H]1CCCc2cccnc21)c1ccc(-c2c3nc(c(-c4cc(S(=O)(=O)[O-])ccc4F)c4ccc([nH]4)c(-c4cc(S(=O)(=O)[O-])ccc4F)c4nc(c(-c5cc(S(=O)(=O)[O-])ccc5F)c5ccc2[nH]5)C=C4)C=C3)cc1
REMARK SMILES IDX 4 1 3 2 1 3 2 4 22 6 23 7 84 8 24 9 83 10 25 11 26 12 27 13
REMARK SMILES IDX 77 14 28 15 82 16 76 17 78 18 29 19 81 20 75 21 74 22 30 24
REMARK SMILES IDX 62 25 42 26 61 27 43 28 46 29 60 30 79 31 44 32 45 33 59 35
REMARK SMILES IDX 80 36 47 37 31 38 32 39 40 40 33 41 39 42 41 43 38 44 34 45
REMARK SMILES IDX 35 46 36 47 37 48 63 49 64 50 72 51 65 52 71 53 73 54 70 55
REMARK SMILES IDX 66 56 67 57 68 58 69 59 48 60 49 61 57 62 50 63 56 64 58 65
REMARK SMILES IDX 55 66 51 67 52 68 53 69 54 70 5 71 6 72 7 73 8 74 9 76 10 77
REMARK SMILES IDX 11 78 12 79 13 80 21 81 14 82 16 83 20 84 15 85 17 86 19 87
REMARK SMILES IDX 18 88
REMARK H PARENT 3 5 78 23 46 34 7 75
REMARK Flexibility Score: inf
ROOT
ATOM      1  C   UNL A   1      33.293  29.105  25.158  1.00  0.00     0.118 C 
ENDROOT
BRANCH   1   2
ATOM      2  N   UNL A   1      32.773  30.349  25.727  1.00  0.00    -0.352 N 
ATOM      3  O   UNL A   1      32.450  32.007  27.209  1.00  0.00    -0.269 OA
ATOM      4  C   UNL A   1      33.172  31.102  26.810  1.00  0.00     0.251 C 
ATOM      5  H   UNL A   1      31.995  30.716  25.248  1.00  0.00     0.163 HD
BRANCH   4   6
ATOM      6  C   UNL A   1      34.446  30.807  27.506  1.00  0.00     0.039 A 
ATOM      7  C   UNL A   1      34.714  29.527  27.977  1.00  0.00     0.014 A 
ATOM      8  C   UNL A   1      35.402  31.815  27.674  1.00  0.00     0.014 A 
ATOM      9  C   UNL A   1      35.796  29.309  28.813  1.00  0.00     0.010 A 
ATOM     10  C   UNL A   1      36.581  31.550  28.386  1.00  0.00     0.010 A 
ATOM     11  C   UNL A   1      36.768  30.302  28.998  1.00  0.00    -0.014 A 
BRANCH  11  12
ATOM     12  C   UNL A   1      37.989  29.953  29.772  1.00  0.00     0.031 A 
ATOM     13  C   UNL A   1      38.167  30.399  31.197  1.00  0.00     0.074 A 
ATOM     14  C   UNL A   1      38.906  29.156  29.185  1.00  0.00     0.049 A 
ATOM     15  N   UNL A   1      39.156  30.148  32.017  1.00  0.00    -0.248 NA
ATOM     16  C   UNL A   1      37.110  31.242  31.777  1.00  0.00     0.031 C 
ATOM     17  C   UNL A   1      38.832  28.668  27.802  1.00  0.00     0.029 A 
ATOM     18  N   UNL A   1      40.050  28.579  29.671  1.00  0.00    -0.354 N 
ATOM     19  C   UNL A   1      38.860  30.825  33.196  1.00  0.00     0.074 A 
ATOM     20  C   UNL A   1      37.604  31.512  32.979  1.00  0.00     0.031 C 
ATOM     21  C   UNL A   1      39.831  27.805  27.581  1.00  0.00     0.029 A 
ATOM     22  C   UNL A   1      40.679  27.756  28.763  1.00  0.00     0.049 A 
ATOM     23  H   UNL A   1      40.389  28.737  30.580  1.00  0.00     0.167 HD
ATOM     24  C   UNL A   1      39.575  30.866  34.348  1.00  0.00     0.034 A 
ATOM     25  C   UNL A   1      41.828  27.060  28.857  1.00  0.00     0.034 A 
ATOM     26  C   UNL A   1      40.814  30.152  34.549  1.00  0.00     0.049 A 
ATOM     27  C   UNL A   1      42.603  27.138  30.141  1.00  0.00     0.074 A 
ATOM     28  C   UNL A   1      41.602  30.096  35.686  1.00  0.00     0.029 A 
ATOM     29  N   UNL A   1      41.450  29.371  33.590  1.00  0.00    -0.354 N 
ATOM     30  N   UNL A   1      42.304  27.786  31.243  1.00  0.00    -0.248 NA
ATOM     31  C   UNL A   1      43.869  26.401  30.194  1.00  0.00     0.031 C 
ATOM     32  C   UNL A   1      42.741  29.335  35.395  1.00  0.00     0.029 A 
ATOM     33  C   UNL A   1      42.632  28.857  34.100  1.00  0.00     0.049 A 
ATOM     34  H   UNL A   1      41.109  29.206  32.680  1.00  0.00     0.167 HD
ATOM     35  C   UNL A   1      43.347  27.528  32.125  1.00  0.00     0.074 A 
ATOM     36  C   UNL A   1      44.261  26.638  31.436  1.00  0.00     0.031 C 
ATOM     37  C   UNL A   1      43.538  27.989  33.387  1.00  0.00     0.034 A 
BRANCH  24  38
ATOM     38  C   UNL A   1      39.068  31.751  35.462  1.00  0.00     0.023 A 
ATOM     39  C   UNL A   1      38.401  31.234  36.585  1.00  0.00     0.031 A 
ATOM     40  C   UNL A   1      39.270  33.142  35.397  1.00  0.00     0.131 A 
ATOM     41  C   UNL A   1      37.921  32.106  37.577  1.00  0.00     0.055 A 
ATOM     42  C   UNL A   1      38.847  33.997  36.417  1.00  0.00     0.041 A 
ATOM     43  F   UNL A   1      39.882  33.695  34.338  1.00  0.00    -0.206 F 
ATOM     44  C   UNL A   1      38.160  33.481  37.511  1.00  0.00     0.022 A 
BRANCH  41  45
ATOM     45  S   UNL A   1      36.888  31.432  38.907  1.00  0.00     0.124 S 
ATOM     46  O   UNL A   1      37.777  31.552  40.061  1.00  0.00    -0.237 OA
ATOM     47  O   UNL A   1      35.734  32.322  38.893  1.00  0.00    -0.237 OA
ATOM     48  O   UNL A   1      36.623  30.060  38.476  1.00  0.00    -0.744 OA
ENDBRANCH  41  45
ENDBRANCH  24  38
BRANCH  25  49
ATOM     49  C   UNL A   1      42.339  26.287  27.687  1.00  0.00     0.023 A 
ATOM     50  C   UNL A   1      41.961  24.954  27.473  1.00  0.00     0.031 A 
ATOM     51  C   UNL A   1      43.246  26.868  26.781  1.00  0.00     0.131 A 
ATOM     52  C   UNL A   1      42.516  24.233  26.404  1.00  0.00     0.055 A 
ATOM     53  C   UNL A   1      43.747  26.168  25.684  1.00  0.00     0.041 A 
ATOM     54  F   UNL A   1      43.643  28.142  26.938  1.00  0.00    -0.206 F 
ATOM     55  C   UNL A   1      43.394  24.837  25.499  1.00  0.00     0.022 A 
BRANCH  52  56
ATOM     56  S   UNL A   1      42.152  22.462  26.267  1.00  0.00     0.124 S 
ATOM     57  O   UNL A   1      42.878  22.101  25.056  1.00  0.00    -0.237 OA
ATOM     58  O   UNL A   1      42.694  21.946  27.521  1.00  0.00    -0.237 OA
ATOM     59  O   UNL A   1      40.695  22.423  26.157  1.00  0.00    -0.744 OA
ENDBRANCH  52  56
ENDBRANCH  25  49
BRANCH  37  60
ATOM     60  C   UNL A   1      44.779  27.506  34.093  1.00  0.00     0.023 A 
ATOM     61  C   UNL A   1      44.779  26.317  34.844  1.00  0.00     0.031 A 
ATOM     62  C   UNL A   1      45.960  28.265  34.047  1.00  0.00     0.131 A 
ATOM     63  C   UNL A   1      45.919  25.954  35.573  1.00  0.00     0.055 A 
ATOM     64  C   UNL A   1      47.112  27.867  34.728  1.00  0.00     0.041 A 
ATOM     65  F   UNL A   1      46.011  29.410  33.347  1.00  0.00    -0.206 F 
ATOM     66  C   UNL A   1      47.090  26.713  35.507  1.00  0.00     0.022 A 
BRANCH  63  67
ATOM     67  S   UNL A   1      45.819  24.528  36.687  1.00  0.00     0.124 S 
ATOM     68  O   UNL A   1      46.697  24.933  37.779  1.00  0.00    -0.237 OA
ATOM     69  O   UNL A   1      44.395  24.474  37.000  1.00  0.00    -0.237 OA
ATOM     70  O   UNL A   1      46.315  23.420  35.871  1.00  0.00    -0.744 OA
ENDBRANCH  63  67
ENDBRANCH  37  60
ENDBRANCH  11  12
ENDBRANCH   4   6
ENDBRANCH   1   2
BRANCH   1  71
ATOM     71  C   UNL A   1      33.569  29.194  23.666  1.00  0.00     0.042 C 
BRANCH  71  72
ATOM     72  C   UNL A   1      32.574  28.411  22.840  1.00  0.00     0.117 C 
BRANCH  72  73
ATOM     73  N   UNL A   1      33.158  27.503  21.876  1.00  0.00    -0.353 N 
ATOM     74  C   UNL A   1      32.967  26.152  21.812  1.00  0.00     0.255 C 
ATOM     75  H   UNL A   1      33.753  27.898  21.199  1.00  0.00     0.163 HD
ATOM     76  O   UNL A   1      33.247  25.572  20.757  1.00  0.00    -0.272 OA
BRANCH  74  77
ATOM     77  C   UNL A   1      32.457  25.369  23.021  1.00  0.00     0.264 C 
ATOM     78  F   UNL A   1      31.433  24.522  22.703  1.00  0.00    -0.236 F 
BRANCH  77  79
ATOM     79  C   UNL A   1      33.540  24.651  23.855  1.00  0.00     0.082 C 
ATOM     80  C   UNL A   1      33.916  25.478  25.098  1.00  0.00     0.014 C 
ATOM     81  C   UNL A   1      33.127  23.269  24.318  1.00  0.00     0.050 A 
ATOM     82  C   UNL A   1      32.751  25.583  26.080  1.00  0.00     0.006 C 
ATOM     83  C   UNL A   1      32.398  23.103  25.500  1.00  0.00    -0.026 A 
ATOM     84  N   UNL A   1      33.462  22.228  23.514  1.00  0.00    -0.261 NA
ATOM     85  C   UNL A   1      32.190  24.219  26.489  1.00  0.00     0.037 C 
ATOM     86  C   UNL A   1      31.901  21.826  25.792  1.00  0.00     0.007 A 
ATOM     87  C   UNL A   1      32.993  21.002  23.851  1.00  0.00     0.111 A 
ATOM     88  C   UNL A   1      32.187  20.761  24.948  1.00  0.00     0.020 A 
ENDBRANCH  77  79
ENDBRANCH  74  77
ENDBRANCH  72  73
ENDBRANCH  71  72
ENDBRANCH   1  71
TORSDOF 14
ENDMDL
MODEL 3
REMARK VINA RESULT:     -12.1      5.075     10.295
REMARK SMILES O=C(NCCCNC(=O)[C@@H](F)[C@H]1CCCc2cccnc21)c1ccc(-c2c3nc(c(-c4cc(S(=O)(=O)[O-])ccc4F)c4ccc([nH]4)c(-c4cc(S(=O)(=O)[O-])ccc4F)c4nc(c(-c5cc(S(=O)(=O)[O-])ccc5F)c5ccc2[nH]5)C=C4)C=C3)cc1
REMARK SMILES IDX 4 1 3 2 1 3 2 4 22 6 23 7 84 8 24 9 83 10 25 11 26 12 27 13
REMARK SMILES IDX 77 14 28 15 82 16 76 17 78 18 29 19 81 20 75 21 74 22 30 24
REMARK SMILES IDX 62 25 42 26 61 27 43 28 46 29 60 30 79 31 44 32 45 33 59 35
REMARK SMILES IDX 80 36 47 37 31 38 32 39 40 40 33 41 39 42 41 43 38 44 34 45
REMARK SMILES IDX 35 46 36 47 37 48 63 49 64 50 72 51 65 52 71 53 73 54 70 55
REMARK SMILES IDX 66 56 67 57 68 58 69 59 48 60 49 61 57 62 50 63 56 64 58 65
REMARK SMILES IDX 55 66 51 67 52 68 53 69 54 70 5 71 6 72 7 73 8 74 9 76 10 77
REMARK SMILES IDX 11 78 12 79 13 80 21 81 14 82 16 83 20 84 15 85 17 86 19 87
REMARK SMILES IDX 18 88
REMARK H PARENT 3 5 78 23 46 34 7 75
REMARK Flexibility Score: inf
ROOT
ATOM      1  C   UNL A   1      32.723  28.978  25.871  1.00  0.00     0.118 C 
ENDROOT
BRANCH   1   2
ATOM      2  N   UNL A   1      32.429  30.385  26.148  1.00  0.00    -0.352 N 
ATOM      3  O   UNL A   1      32.472  32.374  27.194  1.00  0.00    -0.269 OA
ATOM      4  C   UNL A   1      33.027  31.301  26.985  1.00  0.00     0.251 C 
ATOM      5  H   UNL A   1      31.663  30.742  25.643  1.00  0.00     0.163 HD
BRANCH   4   6
ATOM      6  C   UNL A   1      34.312  30.989  27.652  1.00  0.00     0.039 A 
ATOM      7  C   UNL A   1      34.614  29.685  28.029  1.00  0.00     0.014 A 
ATOM      8  C   UNL A   1      35.245  32.005  27.888  1.00  0.00     0.014 A 
ATOM      9  C   UNL A   1      35.706  29.434  28.841  1.00  0.00     0.010 A 
ATOM     10  C   UNL A   1      36.434  31.718  28.573  1.00  0.00     0.010 A 
ATOM     11  C   UNL A   1      36.655  30.435  29.092  1.00  0.00    -0.014 A 
BRANCH  11  12
ATOM     12  C   UNL A   1      37.890  30.062  29.833  1.00  0.00     0.031 A 
ATOM     13  C   UNL A   1      38.106  30.487  31.260  1.00  0.00     0.074 A 
ATOM     14  C   UNL A   1      38.783  29.261  29.214  1.00  0.00     0.049 A 
ATOM     15  N   UNL A   1      39.111  30.214  32.053  1.00  0.00    -0.248 NA
ATOM     16  C   UNL A   1      37.074  31.335  31.874  1.00  0.00     0.031 C 
ATOM     17  C   UNL A   1      38.672  28.792  27.828  1.00  0.00     0.029 A 
ATOM     18  N   UNL A   1      39.931  28.664  29.667  1.00  0.00    -0.354 N 
ATOM     19  C   UNL A   1      38.851  30.879  33.247  1.00  0.00     0.074 A 
ATOM     20  C   UNL A   1      37.598  31.584  33.067  1.00  0.00     0.031 C 
ATOM     21  C   UNL A   1      39.654  27.920  27.573  1.00  0.00     0.029 A 
ATOM     22  C   UNL A   1      40.529  27.846  28.734  1.00  0.00     0.049 A 
ATOM     23  H   UNL A   1      40.293  28.807  30.570  1.00  0.00     0.167 HD
ATOM     24  C   UNL A   1      39.592  30.896  34.382  1.00  0.00     0.034 A 
ATOM     25  C   UNL A   1      41.671  27.135  28.792  1.00  0.00     0.034 A 
ATOM     26  C   UNL A   1      40.827  30.165  34.545  1.00  0.00     0.049 A 
ATOM     27  C   UNL A   1      42.477  27.187  30.059  1.00  0.00     0.074 A 
ATOM     28  C   UNL A   1      41.641  30.085  35.662  1.00  0.00     0.029 A 
ATOM     29  N   UNL A   1      41.431  29.390  33.562  1.00  0.00    -0.354 N 
ATOM     30  N   UNL A   1      42.211  27.824  31.176  1.00  0.00    -0.248 NA
ATOM     31  C   UNL A   1      43.735  26.434  30.073  1.00  0.00     0.031 C 
ATOM     32  C   UNL A   1      42.763  29.315  35.336  1.00  0.00     0.029 A 
ATOM     33  C   UNL A   1      42.619  28.854  34.037  1.00  0.00     0.049 A 
ATOM     34  H   UNL A   1      41.067  29.240  32.658  1.00  0.00     0.167 HD
ATOM     35  C   UNL A   1      43.272  27.543  32.030  1.00  0.00     0.074 A 
ATOM     36  C   UNL A   1      44.158  26.651  31.309  1.00  0.00     0.031 C 
ATOM     37  C   UNL A   1      43.497  27.985  33.292  1.00  0.00     0.034 A 
BRANCH  24  38
ATOM     38  C   UNL A   1      39.122  31.773  35.518  1.00  0.00     0.023 A 
ATOM     39  C   UNL A   1      38.428  31.256  36.626  1.00  0.00     0.031 A 
ATOM     40  C   UNL A   1      39.388  33.155  35.493  1.00  0.00     0.131 A 
ATOM     41  C   UNL A   1      37.984  32.122  37.639  1.00  0.00     0.055 A 
ATOM     42  C   UNL A   1      39.001  34.000  36.534  1.00  0.00     0.041 A 
ATOM     43  F   UNL A   1      40.029  33.707  34.450  1.00  0.00    -0.206 F 
ATOM     44  C   UNL A   1      38.287  33.486  37.612  1.00  0.00     0.022 A 
BRANCH  41  45
ATOM     45  S   UNL A   1      36.917  31.460  38.947  1.00  0.00     0.124 S 
ATOM     46  O   UNL A   1      37.775  31.588  40.123  1.00  0.00    -0.237 OA
ATOM     47  O   UNL A   1      35.765  32.352  38.897  1.00  0.00    -0.237 OA
ATOM     48  O   UNL A   1      36.661  30.086  38.520  1.00  0.00    -0.744 OA
ENDBRANCH  41  45
ENDBRANCH  24  38
BRANCH  25  49
ATOM     49  C   UNL A   1      42.145  26.371  27.602  1.00  0.00     0.023 A 
ATOM     50  C   UNL A   1      41.812  25.021  27.422  1.00  0.00     0.031 A 
ATOM     51  C   UNL A   1      42.972  26.980  26.638  1.00  0.00     0.131 A 
ATOM     52  C   UNL A   1      42.335  24.313  26.328  1.00  0.00     0.055 A 
ATOM     53  C   UNL A   1      43.438  26.289  25.520  1.00  0.00     0.041 A 
ATOM     54  F   UNL A   1      43.323  28.271  26.760  1.00  0.00    -0.206 F 
ATOM     55  C   UNL A   1      43.131  24.942  25.367  1.00  0.00     0.022 A 
BRANCH  52  56
ATOM     56  S   UNL A   1      42.039  22.526  26.228  1.00  0.00     0.124 S 
ATOM     57  O   UNL A   1      42.648  22.054  27.466  1.00  0.00    -0.237 OA
ATOM     58  O   UNL A   1      40.582  22.465  26.165  1.00  0.00    -0.237 OA
ATOM     59  O   UNL A   1      42.731  22.135  25.002  1.00  0.00    -0.744 OA
ENDBRANCH  52  56
ENDBRANCH  25  49
BRANCH  37  60
ATOM     60  C   UNL A   1      44.748  27.478  33.963  1.00  0.00     0.023 A 
ATOM     61  C   UNL A   1      44.752  26.278  34.695  1.00  0.00     0.031 A 
ATOM     62  C   UNL A   1      45.936  28.226  33.903  1.00  0.00     0.131 A 
ATOM     63  C   UNL A   1      45.904  25.892  35.393  1.00  0.00     0.055 A 
ATOM     64  C   UNL A   1      47.098  27.805  34.552  1.00  0.00     0.041 A 
ATOM     65  F   UNL A   1      45.984  29.381  33.220  1.00  0.00    -0.206 F 
ATOM     66  C   UNL A   1      47.081  26.639  35.313  1.00  0.00     0.022 A 
BRANCH  63  67
ATOM     67  S   UNL A   1      45.814  24.449  36.487  1.00  0.00     0.124 S 
ATOM     68  O   UNL A   1      46.833  23.573  35.920  1.00  0.00    -0.237 OA
ATOM     69  O   UNL A   1      46.123  25.025  37.791  1.00  0.00    -0.237 OA
ATOM     70  O   UNL A   1      44.436  23.984  36.327  1.00  0.00    -0.744 OA
ENDBRANCH  63  67
ENDBRANCH  37  60
ENDBRANCH  11  12
ENDBRANCH   4   6
ENDBRANCH   1   2
BRANCH   1  71
ATOM     71  C   UNL A   1      31.812  28.015  26.616  1.00  0.00     0.042 C 
BRANCH  71  72
ATOM     72  C   UNL A   1      31.032  27.112  25.687  1.00  0.00     0.117 C 
BRANCH  72  73
ATOM     73  N   UNL A   1      30.594  25.863  26.273  1.00  0.00    -0.353 N 
ATOM     74  C   UNL A   1      31.348  24.737  26.447  1.00  0.00     0.255 C 
ATOM     75  H   UNL A   1      29.658  25.820  26.575  1.00  0.00     0.163 HD
ATOM     76  O   UNL A   1      30.950  23.888  27.251  1.00  0.00    -0.272 OA
BRANCH  74  77
ATOM     77  C   UNL A   1      32.628  24.513  25.644  1.00  0.00     0.264 C 
ATOM     78  F   UNL A   1      33.722  25.085  26.231  1.00  0.00    -0.236 F 
BRANCH  77  79
ATOM     79  C   UNL A   1      32.912  23.051  25.237  1.00  0.00     0.082 C 
ATOM     80  C   UNL A   1      32.001  22.618  24.073  1.00  0.00     0.014 C 
ATOM     81  C   UNL A   1      34.348  22.808  24.824  1.00  0.00     0.050 A 
ATOM     82  C   UNL A   1      32.314  23.390  22.793  1.00  0.00     0.006 C 
ATOM     83  C   UNL A   1      34.759  23.039  23.507  1.00  0.00    -0.026 A 
ATOM     84  N   UNL A   1      35.205  22.402  25.796  1.00  0.00    -0.261 NA
ATOM     85  C   UNL A   1      33.787  23.300  22.387  1.00  0.00     0.037 C 
ATOM     86  C   UNL A   1      36.128  22.958  23.222  1.00  0.00     0.007 A 
ATOM     87  C   UNL A   1      36.516  22.300  25.470  1.00  0.00     0.111 A 
ATOM     88  C   UNL A   1      37.025  22.600  24.221  1.00  0.00     0.020 A 
ENDBRANCH  77  79
ENDBRANCH  74  77
ENDBRANCH  72  73
ENDBRANCH  71  72
ENDBRANCH   1  71
TORSDOF 14
ENDMDL
