MODEL 1
REMARK VINA RESULT:     -10.3      0.000      0.000
REMARK SMILES CC(C)N(CC(F)(F)F)C(=O)N(CC(=O)NCCCNC(=O)c1ccc(-c2c3nc(c(-c4cc(S(=O)(=O)[O-])ccc4F)c4ccc([nH]4)c(-c4cc(S(=O)(=O)[O-])ccc4F)c4nc(c(-c5cc(S(=O)(=O)[O-])ccc5F)c5ccc2[nH]5)C=C4)C=C3)cc1)C(C)(C)C
REMARK SMILES IDX 17 1 16 2 14 3 15 4 13 6 12 7 10 8 11 9 4 10 2 11 1 12 3 13
REMARK SMILES IDX 5 14 6 15 7 16 8 17 9 18 86 19 87 20 88 21 89 22 18 23 19 24
REMARK SMILES IDX 20 25 21 26 22 28 23 29 24 30 85 31 25 32 84 33 26 34 27 35
REMARK SMILES IDX 28 36 78 37 29 38 83 39 77 40 79 41 30 42 82 43 76 44 75 45
REMARK SMILES IDX 31 47 63 48 43 49 62 50 44 51 47 52 61 53 80 54 45 55 46 56
REMARK SMILES IDX 60 58 81 59 48 60 32 61 33 62 41 63 34 64 40 65 42 66 39 67
REMARK SMILES IDX 35 68 36 69 37 70 38 71 64 72 65 73 73 74 66 75 72 76 74 77
REMARK SMILES IDX 71 78 67 79 68 80 69 81 70 82 49 83 50 84 58 85 51 86 57 87
REMARK SMILES IDX 59 88 56 89 52 90 53 91 54 92 55 93
REMARK H PARENT 16 5 20 27 79 46 47 57
REMARK Flexibility Score: inf
ROOT
ATOM      1  C   UNL A   1      31.390  30.591  26.241  1.00  0.00     0.117 C 
ENDROOT
BRANCH   1   2
ATOM      2  N   UNL A   1      32.611  29.880  26.560  1.00  0.00    -0.354 N 
ATOM      3  C   UNL A   1      33.281  28.947  25.832  1.00  0.00     0.239 C 
ATOM      4  O   UNL A   1      34.470  28.756  26.110  1.00  0.00    -0.273 OA
ATOM      5  H   UNL A   1      33.013  30.105  27.430  1.00  0.00     0.163 HD
BRANCH   3   6
ATOM      6  C   UNL A   1      32.661  28.271  24.600  1.00  0.00     0.221 C 
BRANCH   6   7
ATOM      7  N   UNL A   1      31.699  27.178  24.792  1.00  0.00    -0.311 N 
BRANCH   7   8
ATOM      8  C   UNL A   1      31.614  26.306  25.878  1.00  0.00     0.321 C 
ATOM      9  O   UNL A   1      30.786  26.548  26.762  1.00  0.00    -0.248 OA
BRANCH   8  10
ATOM     10  N   UNL A   1      32.383  25.157  26.030  1.00  0.00    -0.313 N 
BRANCH  10  11
ATOM     11  C   UNL A   1      31.676  23.929  26.521  1.00  0.00     0.081 C 
ATOM     12  C   UNL A   1      30.880  23.232  25.412  1.00  0.00     0.031 C 
ATOM     13  C   UNL A   1      32.559  22.953  27.306  1.00  0.00     0.031 C 
ENDBRANCH  10  11
BRANCH  10  14
ATOM     14  C   UNL A   1      33.855  24.960  25.954  1.00  0.00     0.237 C 
BRANCH  14  15
ATOM     15  C   UNL A   1      34.436  24.657  24.556  1.00  0.00     0.406 C 
ATOM     16  F   UNL A   1      34.421  25.730  23.738  1.00  0.00    -0.169 F 
ATOM     17  F   UNL A   1      35.730  24.268  24.659  1.00  0.00    -0.169 F 
ATOM     18  F   UNL A   1      33.769  23.663  23.929  1.00  0.00    -0.169 F 
ENDBRANCH  14  15
ENDBRANCH  10  14
ENDBRANCH   8  10
ENDBRANCH   7   8
BRANCH   7  19
ATOM     19  C   UNL A   1      30.770  26.897  23.595  1.00  0.00     0.037 C 
ATOM     20  C   UNL A   1      30.629  28.136  22.680  1.00  0.00     0.034 C 
ATOM     21  C   UNL A   1      31.273  25.689  22.767  1.00  0.00     0.034 C 
ATOM     22  C   UNL A   1      29.310  26.518  23.985  1.00  0.00     0.034 C 
ENDBRANCH   7  19
ENDBRANCH   6   7
ENDBRANCH   3   6
ENDBRANCH   1   2
BRANCH   1  23
ATOM     23  C   UNL A   1      31.435  32.068  26.574  1.00  0.00     0.042 C 
BRANCH  23  24
ATOM     24  C   UNL A   1      32.728  32.482  27.252  1.00  0.00     0.118 C 
BRANCH  24  25
ATOM     25  N   UNL A   1      32.705  33.881  27.653  1.00  0.00    -0.352 N 
ATOM     26  C   UNL A   1      33.436  34.509  28.631  1.00  0.00     0.251 C 
ATOM     27  H   UNL A   1      32.079  34.457  27.156  1.00  0.00     0.163 HD
ATOM     28  O   UNL A   1      33.114  35.634  29.006  1.00  0.00    -0.269 OA
BRANCH  26  29
ATOM     29  C   UNL A   1      34.589  33.812  29.239  1.00  0.00     0.039 A 
ATOM     30  C   UNL A   1      35.883  34.226  28.924  1.00  0.00     0.014 A 
ATOM     31  C   UNL A   1      34.386  32.765  30.143  1.00  0.00     0.014 A 
ATOM     32  C   UNL A   1      36.970  33.628  29.565  1.00  0.00     0.010 A 
ATOM     33  C   UNL A   1      35.459  32.254  30.862  1.00  0.00     0.010 A 
ATOM     34  C   UNL A   1      36.767  32.666  30.567  1.00  0.00    -0.014 A 
BRANCH  34  35
ATOM     35  C   UNL A   1      37.906  32.053  31.299  1.00  0.00     0.031 A 
ATOM     36  C   UNL A   1      38.706  30.952  30.652  1.00  0.00     0.074 A 
ATOM     37  C   UNL A   1      38.184  32.446  32.558  1.00  0.00     0.049 A 
ATOM     38  N   UNL A   1      39.688  30.243  31.144  1.00  0.00    -0.248 NA
ATOM     39  C   UNL A   1      38.324  30.576  29.282  1.00  0.00     0.031 C 
ATOM     40  C   UNL A   1      37.448  33.468  33.307  1.00  0.00     0.029 A 
ATOM     41  N   UNL A   1      39.156  32.032  33.435  1.00  0.00    -0.354 N 
ATOM     42  C   UNL A   1      40.028  29.328  30.152  1.00  0.00     0.074 A 
ATOM     43  C   UNL A   1      39.096  29.524  29.064  1.00  0.00     0.031 C 
ATOM     44  C   UNL A   1      38.020  33.628  34.512  1.00  0.00     0.029 A 
ATOM     45  C   UNL A   1      39.125  32.684  34.646  1.00  0.00     0.049 A 
ATOM     46  H   UNL A   1      39.815  31.334  33.217  1.00  0.00     0.167 HD
ATOM     47  C   UNL A   1      41.043  28.430  30.138  1.00  0.00     0.034 A 
ATOM     48  C   UNL A   1      39.892  32.532  35.744  1.00  0.00     0.034 A 
ATOM     49  C   UNL A   1      41.973  28.262  31.227  1.00  0.00     0.049 A 
ATOM     50  C   UNL A   1      41.001  31.508  35.714  1.00  0.00     0.074 A 
ATOM     51  C   UNL A   1      43.072  27.425  31.300  1.00  0.00     0.029 A 
ATOM     52  N   UNL A   1      41.909  28.939  32.439  1.00  0.00    -0.354 N 
ATOM     53  N   UNL A   1      41.345  30.690  34.746  1.00  0.00    -0.248 NA
ATOM     54  C   UNL A   1      41.830  31.396  36.920  1.00  0.00     0.031 C 
ATOM     55  C   UNL A   1      43.624  27.537  32.580  1.00  0.00     0.029 A 
ATOM     56  C   UNL A   1      42.926  28.512  33.277  1.00  0.00     0.049 A 
ATOM     57  H   UNL A   1      41.239  29.623  32.669  1.00  0.00     0.167 HD
ATOM     58  C   UNL A   1      42.453  29.990  35.217  1.00  0.00     0.074 A 
ATOM     59  C   UNL A   1      42.727  30.497  36.546  1.00  0.00     0.031 C 
ATOM     60  C   UNL A   1      43.181  29.021  34.605  1.00  0.00     0.034 A 
BRANCH  47  61
ATOM     61  C   UNL A   1      41.180  27.550  28.916  1.00  0.00     0.023 A 
ATOM     62  C   UNL A   1      42.185  27.766  27.956  1.00  0.00     0.031 A 
ATOM     63  C   UNL A   1      40.274  26.499  28.689  1.00  0.00     0.131 A 
ATOM     64  C   UNL A   1      42.211  26.999  26.781  1.00  0.00     0.055 A 
ATOM     65  C   UNL A   1      40.360  25.680  27.563  1.00  0.00     0.041 A 
ATOM     66  F   UNL A   1      39.276  26.257  29.556  1.00  0.00    -0.206 F 
ATOM     67  C   UNL A   1      41.323  25.938  26.591  1.00  0.00     0.022 A 
BRANCH  64  68
ATOM     68  S   UNL A   1      43.319  27.509  25.439  1.00  0.00     0.124 S 
ATOM     69  O   UNL A   1      44.189  28.464  26.122  1.00  0.00    -0.237 OA
ATOM     70  O   UNL A   1      43.937  26.249  25.044  1.00  0.00    -0.237 OA
ATOM     71  O   UNL A   1      42.414  28.097  24.453  1.00  0.00    -0.744 OA
ENDBRANCH  64  68
ENDBRANCH  47  61
BRANCH  48  72
ATOM     72  C   UNL A   1      39.643  33.353  36.964  1.00  0.00     0.023 A 
ATOM     73  C   UNL A   1      38.942  32.827  38.061  1.00  0.00     0.031 A 
ATOM     74  C   UNL A   1      40.064  34.694  37.034  1.00  0.00     0.131 A 
ATOM     75  C   UNL A   1      38.636  33.651  39.157  1.00  0.00     0.055 A 
ATOM     76  C   UNL A   1      39.810  35.490  38.152  1.00  0.00     0.041 A 
ATOM     77  F   UNL A   1      40.739  35.248  36.015  1.00  0.00    -0.206 F 
ATOM     78  C   UNL A   1      39.079  34.974  39.217  1.00  0.00     0.022 A 
BRANCH  75  79
ATOM     79  S   UNL A   1      37.561  32.994  40.464  1.00  0.00     0.124 S 
ATOM     80  O   UNL A   1      37.602  34.068  41.449  1.00  0.00    -0.237 OA
ATOM     81  O   UNL A   1      36.298  32.818  39.756  1.00  0.00    -0.237 OA
ATOM     82  O   UNL A   1      38.228  31.756  40.861  1.00  0.00    -0.744 OA
ENDBRANCH  75  79
ENDBRANCH  48  72
BRANCH  60  83
ATOM     83  C   UNL A   1      44.376  28.482  35.356  1.00  0.00     0.023 A 
ATOM     84  C   UNL A   1      44.280  27.366  36.204  1.00  0.00     0.031 A 
ATOM     85  C   UNL A   1      45.631  29.106  35.223  1.00  0.00     0.131 A 
ATOM     86  C   UNL A   1      45.402  26.946  36.935  1.00  0.00     0.055 A 
ATOM     87  C   UNL A   1      46.760  28.638  35.897  1.00  0.00     0.041 A 
ATOM     88  F   UNL A   1      45.782  30.178  34.429  1.00  0.00    -0.206 F 
ATOM     89  C   UNL A   1      46.645  27.562  36.771  1.00  0.00     0.022 A 
BRANCH  86  90
ATOM     90  S   UNL A   1      45.191  25.648  38.184  1.00  0.00     0.124 S 
ATOM     91  O   UNL A   1      43.969  24.990  37.733  1.00  0.00    -0.237 OA
ATOM     92  O   UNL A   1      46.420  24.875  38.042  1.00  0.00    -0.237 OA
ATOM     93  O   UNL A   1      45.068  26.393  39.435  1.00  0.00    -0.744 OA
ENDBRANCH  86  90
ENDBRANCH  60  83
ENDBRANCH  34  35
ENDBRANCH  26  29
ENDBRANCH  24  25
ENDBRANCH  23  24
ENDBRANCH   1  23
TORSDOF 20
ENDMDL
MODEL 2
REMARK VINA RESULT:     -10.3      1.624      2.089
REMARK SMILES CC(C)N(CC(F)(F)F)C(=O)N(CC(=O)NCCCNC(=O)c1ccc(-c2c3nc(c(-c4cc(S(=O)(=O)[O-])ccc4F)c4ccc([nH]4)c(-c4cc(S(=O)(=O)[O-])ccc4F)c4nc(c(-c5cc(S(=O)(=O)[O-])ccc5F)c5ccc2[nH]5)C=C4)C=C3)cc1)C(C)(C)C
REMARK SMILES IDX 17 1 16 2 14 3 15 4 13 6 12 7 10 8 11 9 4 10 2 11 1 12 3 13
REMARK SMILES IDX 5 14 6 15 7 16 8 17 9 18 86 19 87 20 88 21 89 22 18 23 19 24
REMARK SMILES IDX 20 25 21 26 22 28 23 29 24 30 85 31 25 32 84 33 26 34 27 35
REMARK SMILES IDX 28 36 78 37 29 38 83 39 77 40 79 41 30 42 82 43 76 44 75 45
REMARK SMILES IDX 31 47 63 48 43 49 62 50 44 51 47 52 61 53 80 54 45 55 46 56
REMARK SMILES IDX 60 58 81 59 48 60 32 61 33 62 41 63 34 64 40 65 42 66 39 67
REMARK SMILES IDX 35 68 36 69 37 70 38 71 64 72 65 73 73 74 66 75 72 76 74 77
REMARK SMILES IDX 71 78 67 79 68 80 69 81 70 82 49 83 50 84 58 85 51 86 57 87
REMARK SMILES IDX 59 88 56 89 52 90 53 91 54 92 55 93
REMARK H PARENT 16 5 20 27 79 46 47 57
REMARK Flexibility Score: inf
ROOT
ATOM      1  C   UNL A   1      31.408  30.599  25.911  1.00  0.00     0.117 C 
ENDROOT
BRANCH   1   2
ATOM      2  N   UNL A   1      32.456  29.803  26.514  1.00  0.00    -0.354 N 
ATOM      3  C   UNL A   1      33.212  28.814  25.966  1.00  0.00     0.239 C 
ATOM      4  O   UNL A   1      34.280  28.539  26.525  1.00  0.00    -0.273 OA
ATOM      5  H   UNL A   1      32.650  30.007  27.458  1.00  0.00     0.163 HD
BRANCH   3   6
ATOM      6  C   UNL A   1      32.863  28.172  24.615  1.00  0.00     0.221 C 
BRANCH   6   7
ATOM      7  N   UNL A   1      31.852  27.107  24.569  1.00  0.00    -0.311 N 
BRANCH   7   8
ATOM      8  C   UNL A   1      31.801  25.955  25.352  1.00  0.00     0.321 C 
ATOM      9  O   UNL A   1      31.388  26.051  26.513  1.00  0.00    -0.248 OA
BRANCH   8  10
ATOM     10  N   UNL A   1      32.160  24.685  24.913  1.00  0.00    -0.313 N 
BRANCH  10  11
ATOM     11  C   UNL A   1      33.558  24.515  24.400  1.00  0.00     0.081 C 
ATOM     12  C   UNL A   1      34.613  24.784  25.479  1.00  0.00     0.031 C 
ATOM     13  C   UNL A   1      33.811  23.200  23.654  1.00  0.00     0.031 C 
ENDBRANCH  10  11
BRANCH  10  14
ATOM     14  C   UNL A   1      31.334  23.467  24.695  1.00  0.00     0.237 C 
BRANCH  14  15
ATOM     15  C   UNL A   1      31.212  22.497  25.891  1.00  0.00     0.406 C 
ATOM     16  F   UNL A   1      31.934  22.890  26.961  1.00  0.00    -0.169 F 
ATOM     17  F   UNL A   1      29.923  22.418  26.302  1.00  0.00    -0.169 F 
ATOM     18  F   UNL A   1      31.608  21.244  25.576  1.00  0.00    -0.169 F 
ENDBRANCH  14  15
ENDBRANCH  10  14
ENDBRANCH   8  10
ENDBRANCH   7   8
BRANCH   7  19
ATOM     19  C   UNL A   1      30.812  27.232  23.439  1.00  0.00     0.037 C 
ATOM     20  C   UNL A   1      31.296  26.546  22.140  1.00  0.00     0.034 C 
ATOM     21  C   UNL A   1      29.446  26.641  23.867  1.00  0.00     0.034 C 
ATOM     22  C   UNL A   1      30.486  28.697  23.021  1.00  0.00     0.034 C 
ENDBRANCH   7  19
ENDBRANCH   6   7
ENDBRANCH   3   6
ENDBRANCH   1   2
BRANCH   1  23
ATOM     23  C   UNL A   1      31.349  32.025  26.421  1.00  0.00     0.042 C 
BRANCH  23  24
ATOM     24  C   UNL A   1      32.564  32.409  27.243  1.00  0.00     0.118 C 
BRANCH  24  25
ATOM     25  N   UNL A   1      32.554  33.821  27.597  1.00  0.00    -0.352 N 
ATOM     26  C   UNL A   1      33.301  34.476  28.545  1.00  0.00     0.251 C 
ATOM     27  H   UNL A   1      31.927  34.383  27.088  1.00  0.00     0.163 HD
ATOM     28  O   UNL A   1      32.989  35.615  28.886  1.00  0.00    -0.269 OA
BRANCH  26  29
ATOM     29  C   UNL A   1      34.456  33.793  29.164  1.00  0.00     0.039 A 
ATOM     30  C   UNL A   1      35.745  34.260  28.907  1.00  0.00     0.014 A 
ATOM     31  C   UNL A   1      34.259  32.706  30.019  1.00  0.00     0.014 A 
ATOM     32  C   UNL A   1      36.830  33.672  29.560  1.00  0.00     0.010 A 
ATOM     33  C   UNL A   1      35.325  32.201  30.753  1.00  0.00     0.010 A 
ATOM     34  C   UNL A   1      36.627  32.666  30.518  1.00  0.00    -0.014 A 
BRANCH  34  35
ATOM     35  C   UNL A   1      37.763  32.061  31.262  1.00  0.00     0.031 A 
ATOM     36  C   UNL A   1      38.550  30.936  30.642  1.00  0.00     0.074 A 
ATOM     37  C   UNL A   1      38.047  32.483  32.510  1.00  0.00     0.049 A 
ATOM     38  N   UNL A   1      39.527  30.230  31.150  1.00  0.00    -0.248 NA
ATOM     39  C   UNL A   1      38.162  30.528  29.282  1.00  0.00     0.031 C 
ATOM     40  C   UNL A   1      37.323  33.531  33.235  1.00  0.00     0.029 A 
ATOM     41  N   UNL A   1      39.018  32.082  33.395  1.00  0.00    -0.354 N 
ATOM     42  C   UNL A   1      39.856  29.287  30.181  1.00  0.00     0.074 A 
ATOM     43  C   UNL A   1      38.923  29.464  29.090  1.00  0.00     0.031 C 
ATOM     44  C   UNL A   1      37.900  33.716  34.433  1.00  0.00     0.029 A 
ATOM     45  C   UNL A   1      38.996  32.766  34.589  1.00  0.00     0.049 A 
ATOM     46  H   UNL A   1      39.669  31.373  33.193  1.00  0.00     0.167 HD
ATOM     47  C   UNL A   1      40.863  28.380  30.187  1.00  0.00     0.034 A 
ATOM     48  C   UNL A   1      39.764  32.634  35.689  1.00  0.00     0.034 A 
ATOM     49  C   UNL A   1      41.794  28.231  31.278  1.00  0.00     0.049 A 
ATOM     50  C   UNL A   1      40.863  31.600  35.683  1.00  0.00     0.074 A 
ATOM     51  C   UNL A   1      42.885  27.386  31.370  1.00  0.00     0.029 A 
ATOM     52  N   UNL A   1      41.739  28.939  32.473  1.00  0.00    -0.354 N 
ATOM     53  N   UNL A   1      41.197  30.753  34.736  1.00  0.00    -0.248 NA
ATOM     54  C   UNL A   1      41.694  31.511  36.889  1.00  0.00     0.031 C 
ATOM     55  C   UNL A   1      43.441  27.525  32.646  1.00  0.00     0.029 A 
ATOM     56  C   UNL A   1      42.754  28.524  33.319  1.00  0.00     0.049 A 
ATOM     57  H   UNL A   1      41.076  29.635  32.686  1.00  0.00     0.167 HD
ATOM     58  C   UNL A   1      42.300  30.055  35.221  1.00  0.00     0.074 A 
ATOM     59  C   UNL A   1      42.581  30.593  36.537  1.00  0.00     0.031 C 
ATOM     60  C   UNL A   1      43.017  29.064  34.633  1.00  0.00     0.034 A 
BRANCH  47  61
ATOM     61  C   UNL A   1      40.988  27.468  28.988  1.00  0.00     0.023 A 
ATOM     62  C   UNL A   1      41.982  27.660  28.011  1.00  0.00     0.031 A 
ATOM     63  C   UNL A   1      40.082  26.408  28.800  1.00  0.00     0.131 A 
ATOM     64  C   UNL A   1      41.996  26.861  26.858  1.00  0.00     0.055 A 
ATOM     65  C   UNL A   1      40.159  25.559  27.695  1.00  0.00     0.041 A 
ATOM     66  F   UNL A   1      39.095  26.187  29.684  1.00  0.00    -0.206 F 
ATOM     67  C   UNL A   1      41.109  25.794  26.706  1.00  0.00     0.022 A 
BRANCH  64  68
ATOM     68  S   UNL A   1      43.088  27.338  25.489  1.00  0.00     0.124 S 
ATOM     69  O   UNL A   1      43.384  26.041  24.884  1.00  0.00    -0.237 OA
ATOM     70  O   UNL A   1      42.243  28.230  24.707  1.00  0.00    -0.237 OA
ATOM     71  O   UNL A   1      44.219  27.976  26.160  1.00  0.00    -0.744 OA
ENDBRANCH  64  68
ENDBRANCH  47  61
BRANCH  48  72
ATOM     72  C   UNL A   1      39.526  33.489  36.888  1.00  0.00     0.023 A 
ATOM     73  C   UNL A   1      40.317  34.621  37.140  1.00  0.00     0.031 A 
ATOM     74  C   UNL A   1      38.531  33.160  37.827  1.00  0.00     0.131 A 
ATOM     75  C   UNL A   1      40.136  35.353  38.326  1.00  0.00     0.055 A 
ATOM     76  C   UNL A   1      38.314  33.926  38.973  1.00  0.00     0.041 A 
ATOM     77  F   UNL A   1      37.745  32.089  37.635  1.00  0.00    -0.206 F 
ATOM     78  C   UNL A   1      39.130  35.022  39.236  1.00  0.00     0.022 A 
BRANCH  75  79
ATOM     79  S   UNL A   1      41.304  36.687  38.710  1.00  0.00     0.124 S 
ATOM     80  O   UNL A   1      42.130  36.070  39.741  1.00  0.00    -0.237 OA
ATOM     81  O   UNL A   1      41.947  36.907  37.419  1.00  0.00    -0.237 OA
ATOM     82  O   UNL A   1      40.440  37.773  39.167  1.00  0.00    -0.744 OA
ENDBRANCH  75  79
ENDBRANCH  48  72
BRANCH  60  83
ATOM     83  C   UNL A   1      44.209  28.534  35.394  1.00  0.00     0.023 A 
ATOM     84  C   UNL A   1      44.092  27.486  36.323  1.00  0.00     0.031 A 
ATOM     85  C   UNL A   1      45.483  29.096  35.189  1.00  0.00     0.131 A 
ATOM     86  C   UNL A   1      45.214  27.075  37.058  1.00  0.00     0.055 A 
ATOM     87  C   UNL A   1      46.610  28.634  35.871  1.00  0.00     0.041 A 
ATOM     88  F   UNL A   1      45.655  30.102  34.317  1.00  0.00    -0.206 F 
ATOM     89  C   UNL A   1      46.476  27.628  36.823  1.00  0.00     0.022 A 
BRANCH  86  90
ATOM     90  S   UNL A   1      44.985  25.879  38.402  1.00  0.00     0.124 S 
ATOM     91  O   UNL A   1      44.132  24.876  37.772  1.00  0.00    -0.237 OA
ATOM     92  O   UNL A   1      46.354  25.463  38.688  1.00  0.00    -0.237 OA
ATOM     93  O   UNL A   1      44.343  26.665  39.454  1.00  0.00    -0.744 OA
ENDBRANCH  86  90
ENDBRANCH  60  83
ENDBRANCH  34  35
ENDBRANCH  26  29
ENDBRANCH  24  25
ENDBRANCH  23  24
ENDBRANCH   1  23
TORSDOF 20
ENDMDL
MODEL 3
REMARK VINA RESULT:     -10.3      3.315      8.561
REMARK SMILES CC(C)N(CC(F)(F)F)C(=O)N(CC(=O)NCCCNC(=O)c1ccc(-c2c3nc(c(-c4cc(S(=O)(=O)[O-])ccc4F)c4ccc([nH]4)c(-c4cc(S(=O)(=O)[O-])ccc4F)c4nc(c(-c5cc(S(=O)(=O)[O-])ccc5F)c5ccc2[nH]5)C=C4)C=C3)cc1)C(C)(C)C
REMARK SMILES IDX 17 1 16 2 14 3 15 4 13 6 12 7 10 8 11 9 4 10 2 11 1 12 3 13
REMARK SMILES IDX 5 14 6 15 7 16 8 17 9 18 86 19 87 20 88 21 89 22 18 23 19 24
REMARK SMILES IDX 20 25 21 26 22 28 23 29 24 30 85 31 25 32 84 33 26 34 27 35
REMARK SMILES IDX 28 36 78 37 29 38 83 39 77 40 79 41 30 42 82 43 76 44 75 45
REMARK SMILES IDX 31 47 63 48 43 49 62 50 44 51 47 52 61 53 80 54 45 55 46 56
REMARK SMILES IDX 60 58 81 59 48 60 32 61 33 62 41 63 34 64 40 65 42 66 39 67
REMARK SMILES IDX 35 68 36 69 37 70 38 71 64 72 65 73 73 74 66 75 72 76 74 77
REMARK SMILES IDX 71 78 67 79 68 80 69 81 70 82 49 83 50 84 58 85 51 86 57 87
REMARK SMILES IDX 59 88 56 89 52 90 53 91 54 92 55 93
REMARK H PARENT 16 5 20 27 79 46 47 57
REMARK Flexibility Score: inf
ROOT
ATOM      1  C   UNL A   1      31.689  27.527  25.666  1.00  0.00     0.117 C 
ENDROOT
BRANCH   1   2
ATOM      2  N   UNL A   1      31.316  26.433  26.539  1.00  0.00    -0.354 N 
ATOM      3  C   UNL A   1      31.266  25.099  26.278  1.00  0.00     0.239 C 
ATOM      4  O   UNL A   1      31.294  24.329  27.244  1.00  0.00    -0.273 OA
ATOM      5  H   UNL A   1      31.063  26.693  27.454  1.00  0.00     0.163 HD
BRANCH   3   6
ATOM      6  C   UNL A   1      31.348  24.544  24.848  1.00  0.00     0.221 C 
BRANCH   6   7
ATOM      7  N   UNL A   1      32.653  24.487  24.176  1.00  0.00    -0.311 N 
BRANCH   7   8
ATOM      8  C   UNL A   1      33.859  24.030  24.706  1.00  0.00     0.321 C 
ATOM      9  O   UNL A   1      34.576  24.832  25.313  1.00  0.00    -0.248 OA
BRANCH   8  10
ATOM     10  N   UNL A   1      34.310  22.716  24.626  1.00  0.00    -0.313 N 
BRANCH  10  11
ATOM     11  C   UNL A   1      35.794  22.511  24.581  1.00  0.00     0.081 C 
ATOM     12  C   UNL A   1      36.208  21.127  25.095  1.00  0.00     0.031 C 
ATOM     13  C   UNL A   1      36.447  22.852  23.237  1.00  0.00     0.031 C 
ENDBRANCH  10  11
BRANCH  10  14
ATOM     14  C   UNL A   1      33.565  21.450  24.400  1.00  0.00     0.237 C 
BRANCH  14  15
ATOM     15  C   UNL A   1      32.693  20.946  25.572  1.00  0.00     0.406 C 
ATOM     16  F   UNL A   1      33.116  21.398  26.771  1.00  0.00    -0.169 F 
ATOM     17  F   UNL A   1      31.416  21.375  25.425  1.00  0.00    -0.169 F 
ATOM     18  F   UNL A   1      32.657  19.597  25.639  1.00  0.00    -0.169 F 
ENDBRANCH  14  15
ENDBRANCH  10  14
ENDBRANCH   8  10
ENDBRANCH   7   8
BRANCH   7  19
ATOM     19  C   UNL A   1      32.702  25.126  22.774  1.00  0.00     0.037 C 
ATOM     20  C   UNL A   1      33.124  24.102  21.695  1.00  0.00     0.034 C 
ATOM     21  C   UNL A   1      31.336  25.753  22.397  1.00  0.00     0.034 C 
ATOM     22  C   UNL A   1      33.718  26.298  22.635  1.00  0.00     0.034 C 
ENDBRANCH   7  19
ENDBRANCH   6   7
ENDBRANCH   3   6
ENDBRANCH   1   2
BRANCH   1  23
ATOM     23  C   UNL A   1      33.058  28.107  25.958  1.00  0.00     0.042 C 
BRANCH  23  24
ATOM     24  C   UNL A   1      33.166  28.694  27.352  1.00  0.00     0.118 C 
BRANCH  24  25
ATOM     25  N   UNL A   1      33.330  30.140  27.319  1.00  0.00    -0.352 N 
ATOM     26  C   UNL A   1      34.356  30.902  27.820  1.00  0.00     0.251 C 
ATOM     27  H   UNL A   1      32.606  30.641  26.877  1.00  0.00     0.163 HD
ATOM     28  O   UNL A   1      34.215  32.119  27.930  1.00  0.00    -0.269 OA
BRANCH  26  29
ATOM     29  C   UNL A   1      35.609  30.247  28.248  1.00  0.00     0.039 A 
ATOM     30  C   UNL A   1      36.711  30.251  27.392  1.00  0.00     0.014 A 
ATOM     31  C   UNL A   1      35.701  29.650  29.509  1.00  0.00     0.014 A 
ATOM     32  C   UNL A   1      37.922  29.710  27.829  1.00  0.00     0.010 A 
ATOM     33  C   UNL A   1      36.934  29.219  29.982  1.00  0.00     0.010 A 
ATOM     34  C   UNL A   1      38.055  29.226  29.140  1.00  0.00    -0.014 A 
BRANCH  34  35
ATOM     35  C   UNL A   1      39.348  28.693  29.644  1.00  0.00     0.031 A 
ATOM     36  C   UNL A   1      40.045  29.378  30.790  1.00  0.00     0.074 A 
ATOM     37  C   UNL A   1      39.918  27.633  29.037  1.00  0.00     0.049 A 
ATOM     38  N   UNL A   1      41.207  29.114  31.331  1.00  0.00    -0.248 NA
ATOM     39  C   UNL A   1      39.359  30.537  31.384  1.00  0.00     0.031 C 
ATOM     40  C   UNL A   1      39.362  26.916  27.886  1.00  0.00     0.029 A 
ATOM     41  N   UNL A   1      41.093  26.972  29.299  1.00  0.00    -0.354 N 
ATOM     42  C   UNL A   1      41.396  30.082  32.312  1.00  0.00     0.074 A 
ATOM     43  C   UNL A   1      40.266  30.982  32.238  1.00  0.00     0.031 C 
ATOM     44  C   UNL A   1      40.174  25.896  27.568  1.00  0.00     0.029 A 
ATOM     45  C   UNL A   1      41.335  25.915  28.452  1.00  0.00     0.049 A 
ATOM     46  H   UNL A   1      41.705  27.231  30.025  1.00  0.00     0.167 HD
ATOM     47  C   UNL A   1      42.403  30.193  33.212  1.00  0.00     0.034 A 
ATOM     48  C   UNL A   1      42.379  25.065  28.387  1.00  0.00     0.034 A 
ATOM     49  C   UNL A   1      43.513  29.274  33.282  1.00  0.00     0.049 A 
ATOM     50  C   UNL A   1      43.502  25.222  29.383  1.00  0.00     0.074 A 
ATOM     51  C   UNL A   1      44.560  29.255  34.186  1.00  0.00     0.029 A 
ATOM     52  N   UNL A   1      43.726  28.216  32.405  1.00  0.00    -0.354 N 
ATOM     53  N   UNL A   1      43.638  26.109  30.342  1.00  0.00    -0.248 NA
ATOM     54  C   UNL A   1      44.604  24.257  29.296  1.00  0.00     0.031 C 
ATOM     55  C   UNL A   1      45.443  28.238  33.811  1.00  0.00     0.029 A 
ATOM     56  C   UNL A   1      44.904  27.562  32.727  1.00  0.00     0.049 A 
ATOM     57  H   UNL A   1      43.127  27.968  31.665  1.00  0.00     0.167 HD
ATOM     58  C   UNL A   1      44.826  25.786  30.993  1.00  0.00     0.074 A 
ATOM     59  C   UNL A   1      45.355  24.613  30.326  1.00  0.00     0.031 C 
ATOM     60  C   UNL A   1      45.424  26.398  32.047  1.00  0.00     0.034 A 
BRANCH  47  61
ATOM     61  C   UNL A   1      42.356  31.359  34.173  1.00  0.00     0.023 A 
ATOM     62  C   UNL A   1      41.457  31.392  35.254  1.00  0.00     0.031 A 
ATOM     63  C   UNL A   1      43.201  32.468  33.990  1.00  0.00     0.131 A 
ATOM     64  C   UNL A   1      41.367  32.539  36.058  1.00  0.00     0.055 A 
ATOM     65  C   UNL A   1      43.169  33.569  34.848  1.00  0.00     0.041 A 
ATOM     66  F   UNL A   1      44.064  32.508  32.962  1.00  0.00    -0.206 F 
ATOM     67  C   UNL A   1      42.236  33.616  35.880  1.00  0.00     0.022 A 
BRANCH  64  68
ATOM     68  S   UNL A   1      39.992  32.665  37.235  1.00  0.00     0.124 S 
ATOM     69  O   UNL A   1      39.271  31.420  36.980  1.00  0.00    -0.237 OA
ATOM     70  O   UNL A   1      40.681  32.754  38.516  1.00  0.00    -0.237 OA
ATOM     71  O   UNL A   1      39.292  33.878  36.816  1.00  0.00    -0.744 OA
ENDBRANCH  64  68
ENDBRANCH  47  61
BRANCH  48  72
ATOM     72  C   UNL A   1      42.426  23.997  27.346  1.00  0.00     0.023 A 
ATOM     73  C   UNL A   1      41.838  22.742  27.569  1.00  0.00     0.031 A 
ATOM     74  C   UNL A   1      43.099  24.201  26.128  1.00  0.00     0.131 A 
ATOM     75  C   UNL A   1      41.980  21.722  26.613  1.00  0.00     0.055 A 
ATOM     76  C   UNL A   1      43.184  23.205  25.155  1.00  0.00     0.041 A 
ATOM     77  F   UNL A   1      43.678  25.383  25.861  1.00  0.00    -0.206 F 
ATOM     78  C   UNL A   1      42.635  21.950  25.400  1.00  0.00     0.022 A 
BRANCH  75  79
ATOM     79  S   UNL A   1      41.380  20.059  27.021  1.00  0.00     0.124 S 
ATOM     80  O   UNL A   1      40.852  20.257  28.365  1.00  0.00    -0.237 OA
ATOM     81  O   UNL A   1      40.394  19.827  25.970  1.00  0.00    -0.237 OA
ATOM     82  O   UNL A   1      42.583  19.234  26.937  1.00  0.00    -0.744 OA
ENDBRANCH  75  79
ENDBRANCH  48  72
BRANCH  60  83
ATOM     83  C   UNL A   1      46.695  25.775  32.574  1.00  0.00     0.023 A 
ATOM     84  C   UNL A   1      46.681  24.799  33.585  1.00  0.00     0.031 A 
ATOM     85  C   UNL A   1      47.942  26.174  32.058  1.00  0.00     0.131 A 
ATOM     86  C   UNL A   1      47.891  24.300  34.092  1.00  0.00     0.055 A 
ATOM     87  C   UNL A   1      49.138  25.622  32.516  1.00  0.00     0.041 A 
ATOM     88  F   UNL A   1      48.017  27.106  31.094  1.00  0.00    -0.206 F 
ATOM     89  C   UNL A   1      49.118  24.690  33.549  1.00  0.00     0.022 A 
BRANCH  86  90
ATOM     90  S   UNL A   1      47.844  23.213  35.542  1.00  0.00     0.124 S 
ATOM     91  O   UNL A   1      47.399  21.951  34.960  1.00  0.00    -0.237 OA
ATOM     92  O   UNL A   1      49.228  23.248  36.003  1.00  0.00    -0.237 OA
ATOM     93  O   UNL A   1      46.879  23.862  36.427  1.00  0.00    -0.744 OA
ENDBRANCH  86  90
ENDBRANCH  60  83
ENDBRANCH  34  35
ENDBRANCH  26  29
ENDBRANCH  24  25
ENDBRANCH  23  24
ENDBRANCH   1  23
TORSDOF 20
ENDMDL
