MODEL 1
REMARK VINA RESULT:     -11.9      0.000      0.000
REMARK SMILES CC1(C)CCC[C@@](C)(CCC(=O)NCCCNC(=O)c2ccc(-c3c4nc(c(-c5cc(S(=O)(=O)[O-])ccc5F)c5ccc([nH]5)c(-c5cc(S(=O)(=O)[O-])ccc5F)c5nc(c(-c6cc(S(=O)(=O)[O-])ccc6F)c6ccc3[nH]6)C=C5)C=C4)cc2)C1=O
REMARK SMILES IDX 15 1 14 2 13 3 11 4 12 5 10 7 9 8 7 9 1 10 2 11 3 12 4 13
REMARK SMILES IDX 83 14 5 15 84 16 6 17 8 18 16 19 17 20 18 21 19 23 20 24
REMARK SMILES IDX 21 25 82 26 22 27 81 28 23 29 24 30 25 31 75 32 26 33 80 34
REMARK SMILES IDX 74 35 76 36 27 37 79 38 73 39 72 40 28 42 60 43 40 44 59 45
REMARK SMILES IDX 41 46 44 47 58 48 77 49 42 50 43 51 57 53 78 54 45 55 29 56
REMARK SMILES IDX 30 57 38 58 31 59 37 60 39 61 36 62 32 63 33 64 34 65 35 66
REMARK SMILES IDX 61 67 62 68 70 69 63 70 69 71 71 72 68 73 64 74 65 75 66 76
REMARK SMILES IDX 67 77 46 78 47 79 55 80 48 81 54 82 56 83 53 84 49 85 50 86
REMARK SMILES IDX 51 87 52 88
REMARK H PARENT 13 6 17 22 76 41 44 52
REMARK Flexibility Score: inf
ROOT
ATOM      1  C   UNL A   1      30.961  31.022  25.627  1.00  0.00     0.042 C 
ENDROOT
BRANCH   1   2
ATOM      2  C   UNL A   1      31.246  29.773  24.809  1.00  0.00     0.117 C 
BRANCH   2   3
ATOM      3  N   UNL A   1      30.745  29.867  23.455  1.00  0.00    -0.356 N 
ATOM      4  C   UNL A   1      30.026  28.999  22.698  1.00  0.00     0.220 C 
ATOM      5  O   UNL A   1      29.590  29.431  21.626  1.00  0.00    -0.275 OA
ATOM      6  H   UNL A   1      30.965  30.712  23.002  1.00  0.00     0.163 HD
BRANCH   4   7
ATOM      7  C   UNL A   1      29.676  27.576  23.142  1.00  0.00     0.101 C 
BRANCH   7   8
ATOM      8  C   UNL A   1      30.672  26.466  22.824  1.00  0.00     0.024 C 
BRANCH   8   9
ATOM      9  C   UNL A   1      31.075  25.337  23.843  1.00  0.00     0.027 C 
ATOM     10  C   UNL A   1      33.877  27.175  24.863  1.00  0.00     0.019 C 
ATOM     11  C   UNL A   1      33.385  25.757  25.199  1.00  0.00     0.024 C 
ATOM     12  C   UNL A   1      34.669  24.930  25.460  1.00  0.00     0.019 C 
ATOM     13  C   UNL A   1      32.539  25.778  26.479  1.00  0.00     0.014 C 
ATOM     14  C   UNL A   1      32.586  25.048  24.066  1.00  0.00     0.144 C 
ATOM     15  C   UNL A   1      31.130  26.315  26.238  1.00  0.00     0.002 C 
ATOM     16  O   UNL A   1      33.167  24.232  23.342  1.00  0.00    -0.298 OA
ATOM     17  C   UNL A   1      30.394  25.454  25.227  1.00  0.00     0.014 C 
ATOM     18  C   UNL A   1      30.440  24.047  23.216  1.00  0.00     0.020 C 
ENDBRANCH   8   9
ENDBRANCH   7   8
ENDBRANCH   4   7
ENDBRANCH   2   3
ENDBRANCH   1   2
BRANCH   1  19
ATOM     19  C   UNL A   1      32.008  31.307  26.691  1.00  0.00     0.118 C 
BRANCH  19  20
ATOM     20  N   UNL A   1      32.144  32.700  27.093  1.00  0.00    -0.352 N 
ATOM     21  C   UNL A   1      33.230  33.360  27.635  1.00  0.00     0.251 C 
ATOM     22  H   UNL A   1      31.343  33.256  26.958  1.00  0.00     0.163 HD
ATOM     23  O   UNL A   1      33.154  34.564  27.877  1.00  0.00    -0.269 OA
BRANCH  21  24
ATOM     24  C   UNL A   1      34.457  32.609  28.009  1.00  0.00     0.039 A 
ATOM     25  C   UNL A   1      35.668  33.302  28.117  1.00  0.00     0.014 A 
ATOM     26  C   UNL A   1      34.414  31.257  28.342  1.00  0.00     0.014 A 
ATOM     27  C   UNL A   1      36.789  32.672  28.671  1.00  0.00     0.010 A 
ATOM     28  C   UNL A   1      35.480  30.680  29.020  1.00  0.00     0.010 A 
ATOM     29  C   UNL A   1      36.686  31.375  29.195  1.00  0.00    -0.014 A 
BRANCH  29  30
ATOM     30  C   UNL A   1      37.809  30.705  29.912  1.00  0.00     0.031 A 
ATOM     31  C   UNL A   1      38.079  31.050  31.357  1.00  0.00     0.074 A 
ATOM     32  C   UNL A   1      38.648  29.878  29.253  1.00  0.00     0.049 A 
ATOM     33  N   UNL A   1      39.110  30.753  32.106  1.00  0.00    -0.248 NA
ATOM     34  C   UNL A   1      37.079  31.897  32.025  1.00  0.00     0.031 C 
ATOM     35  C   UNL A   1      38.539  29.502  27.840  1.00  0.00     0.029 A 
ATOM     36  N   UNL A   1      39.773  29.212  29.680  1.00  0.00    -0.354 N 
ATOM     37  C   UNL A   1      38.899  31.413  33.315  1.00  0.00     0.074 A 
ATOM     38  C   UNL A   1      37.690  32.190  33.161  1.00  0.00     0.031 C 
ATOM     39  C   UNL A   1      39.531  28.652  27.530  1.00  0.00     0.029 A 
ATOM     40  C   UNL A   1      40.383  28.463  28.699  1.00  0.00     0.049 A 
ATOM     41  H   UNL A   1      40.110  29.266  30.603  1.00  0.00     0.167 HD
ATOM     42  C   UNL A   1      39.624  31.348  34.459  1.00  0.00     0.034 A 
ATOM     43  C   UNL A   1      41.509  27.723  28.732  1.00  0.00     0.034 A 
ATOM     44  C   UNL A   1      40.799  30.527  34.614  1.00  0.00     0.049 A 
ATOM     45  C   UNL A   1      42.289  27.645  30.022  1.00  0.00     0.074 A 
ATOM     46  C   UNL A   1      41.581  30.339  35.739  1.00  0.00     0.029 A 
ATOM     47  N   UNL A   1      41.352  29.742  33.610  1.00  0.00    -0.354 N 
ATOM     48  N   UNL A   1      42.059  28.252  31.164  1.00  0.00    -0.248 NA
ATOM     49  C   UNL A   1      43.472  26.776  30.031  1.00  0.00     0.031 C 
ATOM     50  C   UNL A   1      42.633  29.480  35.406  1.00  0.00     0.029 A 
ATOM     51  C   UNL A   1      42.470  29.077  34.090  1.00  0.00     0.049 A 
ATOM     52  H   UNL A   1      41.003  29.668  32.693  1.00  0.00     0.167 HD
ATOM     53  C   UNL A   1      43.052  27.810  32.035  1.00  0.00     0.074 A 
ATOM     54  C   UNL A   1      43.869  26.875  31.291  1.00  0.00     0.031 C 
ATOM     55  C   UNL A   1      43.270  28.145  33.332  1.00  0.00     0.034 A 
BRANCH  42  56
ATOM     56  C   UNL A   1      39.156  32.191  35.624  1.00  0.00     0.023 A 
ATOM     57  C   UNL A   1      39.550  33.534  35.763  1.00  0.00     0.031 A 
ATOM     58  C   UNL A   1      38.346  31.638  36.631  1.00  0.00     0.131 A 
ATOM     59  C   UNL A   1      39.221  34.246  36.925  1.00  0.00     0.055 A 
ATOM     60  C   UNL A   1      37.942  32.383  37.741  1.00  0.00     0.041 A 
ATOM     61  F   UNL A   1      37.950  30.357  36.565  1.00  0.00    -0.206 F 
ATOM     62  C   UNL A   1      38.396  33.688  37.904  1.00  0.00     0.022 A 
BRANCH  59  63
ATOM     63  S   UNL A   1      40.024  35.846  37.211  1.00  0.00     0.124 S 
ATOM     64  O   UNL A   1      39.683  36.567  35.987  1.00  0.00    -0.237 OA
ATOM     65  O   UNL A   1      39.373  36.314  38.430  1.00  0.00    -0.237 OA
ATOM     66  O   UNL A   1      41.437  35.501  37.350  1.00  0.00    -0.744 OA
ENDBRANCH  59  63
ENDBRANCH  42  56
BRANCH  43  67
ATOM     67  C   UNL A   1      41.983  26.995  27.517  1.00  0.00     0.023 A 
ATOM     68  C   UNL A   1      41.784  25.613  27.381  1.00  0.00     0.031 A 
ATOM     69  C   UNL A   1      42.689  27.661  26.499  1.00  0.00     0.131 A 
ATOM     70  C   UNL A   1      42.333  24.928  26.285  1.00  0.00     0.055 A 
ATOM     71  C   UNL A   1      43.184  26.986  25.382  1.00  0.00     0.041 A 
ATOM     72  F   UNL A   1      42.902  28.985  26.573  1.00  0.00    -0.206 F 
ATOM     73  C   UNL A   1      43.021  25.608  25.278  1.00  0.00     0.022 A 
BRANCH  70  74
ATOM     74  S   UNL A   1      42.223  23.118  26.248  1.00  0.00     0.124 S 
ATOM     75  O   UNL A   1      40.804  22.901  26.499  1.00  0.00    -0.237 OA
ATOM     76  O   UNL A   1      42.691  22.814  24.899  1.00  0.00    -0.237 OA
ATOM     77  O   UNL A   1      43.119  22.700  27.324  1.00  0.00    -0.744 OA
ENDBRANCH  70  74
ENDBRANCH  43  67
BRANCH  55  78
ATOM     78  C   UNL A   1      44.405  27.446  34.037  1.00  0.00     0.023 A 
ATOM     79  C   UNL A   1      44.217  26.232  34.718  1.00  0.00     0.031 A 
ATOM     80  C   UNL A   1      45.692  28.013  34.032  1.00  0.00     0.131 A 
ATOM     81  C   UNL A   1      45.289  25.649  35.412  1.00  0.00     0.055 A 
ATOM     82  C   UNL A   1      46.767  27.400  34.675  1.00  0.00     0.041 A 
ATOM     83  F   UNL A   1      45.926  29.173  33.396  1.00  0.00    -0.206 F 
ATOM     84  C   UNL A   1      46.565  26.217  35.381  1.00  0.00     0.022 A 
BRANCH  81  85
ATOM     85  S   UNL A   1      44.972  24.180  36.427  1.00  0.00     0.124 S 
ATOM     86  O   UNL A   1      44.395  24.764  37.634  1.00  0.00    -0.237 OA
ATOM     87  O   UNL A   1      44.056  23.413  35.589  1.00  0.00    -0.237 OA
ATOM     88  O   UNL A   1      46.298  23.588  36.597  1.00  0.00    -0.744 OA
ENDBRANCH  81  85
ENDBRANCH  55  78
ENDBRANCH  29  30
ENDBRANCH  21  24
ENDBRANCH  19  20
ENDBRANCH   1  19
TORSDOF 15
ENDMDL
MODEL 2
REMARK VINA RESULT:     -11.8      2.102      8.185
REMARK SMILES CC1(C)CCC[C@@](C)(CCC(=O)NCCCNC(=O)c2ccc(-c3c4nc(c(-c5cc(S(=O)(=O)[O-])ccc5F)c5ccc([nH]5)c(-c5cc(S(=O)(=O)[O-])ccc5F)c5nc(c(-c6cc(S(=O)(=O)[O-])ccc6F)c6ccc3[nH]6)C=C5)C=C4)cc2)C1=O
REMARK SMILES IDX 15 1 14 2 13 3 11 4 12 5 10 7 9 8 7 9 1 10 2 11 3 12 4 13
REMARK SMILES IDX 83 14 5 15 84 16 6 17 8 18 16 19 17 20 18 21 19 23 20 24
REMARK SMILES IDX 21 25 82 26 22 27 81 28 23 29 24 30 25 31 75 32 26 33 80 34
REMARK SMILES IDX 74 35 76 36 27 37 79 38 73 39 72 40 28 42 60 43 40 44 59 45
REMARK SMILES IDX 41 46 44 47 58 48 77 49 42 50 43 51 57 53 78 54 45 55 29 56
REMARK SMILES IDX 30 57 38 58 31 59 37 60 39 61 36 62 32 63 33 64 34 65 35 66
REMARK SMILES IDX 61 67 62 68 70 69 63 70 69 71 71 72 68 73 64 74 65 75 66 76
REMARK SMILES IDX 67 77 46 78 47 79 55 80 48 81 54 82 56 83 53 84 49 85 50 86
REMARK SMILES IDX 51 87 52 88
REMARK H PARENT 13 6 17 22 76 41 44 52
REMARK Flexibility Score: inf
ROOT
ATOM      1  C   UNL A   1      31.408  28.889  25.584  1.00  0.00     0.042 C 
ENDROOT
BRANCH   1   2
ATOM      2  C   UNL A   1      31.851  27.680  24.777  1.00  0.00     0.117 C 
BRANCH   2   3
ATOM      3  N   UNL A   1      31.723  26.441  25.513  1.00  0.00    -0.356 N 
ATOM      4  C   UNL A   1      32.612  25.447  25.764  1.00  0.00     0.220 C 
ATOM      5  O   UNL A   1      32.263  24.586  26.579  1.00  0.00    -0.275 OA
ATOM      6  H   UNL A   1      30.831  26.294  25.902  1.00  0.00     0.163 HD
BRANCH   4   7
ATOM      7  C   UNL A   1      34.017  25.393  25.160  1.00  0.00     0.101 C 
BRANCH   7   8
ATOM      8  C   UNL A   1      34.767  24.067  25.218  1.00  0.00     0.024 C 
BRANCH   8   9
ATOM      9  C   UNL A   1      34.759  23.008  24.054  1.00  0.00     0.027 C 
ATOM     10  C   UNL A   1      31.893  21.489  25.377  1.00  0.00     0.019 C 
ATOM     11  C   UNL A   1      32.822  21.116  24.210  1.00  0.00     0.024 C 
ATOM     12  C   UNL A   1      32.794  19.569  24.143  1.00  0.00     0.019 C 
ATOM     13  C   UNL A   1      32.274  21.681  22.893  1.00  0.00     0.014 C 
ATOM     14  C   UNL A   1      34.307  21.557  24.379  1.00  0.00     0.144 C 
ATOM     15  C   UNL A   1      32.532  23.179  22.747  1.00  0.00     0.002 C 
ATOM     16  O   UNL A   1      35.138  20.728  24.767  1.00  0.00    -0.298 OA
ATOM     17  C   UNL A   1      34.021  23.471  22.775  1.00  0.00     0.014 C 
ATOM     18  C   UNL A   1      36.264  22.942  23.620  1.00  0.00     0.020 C 
ENDBRANCH   8   9
ENDBRANCH   7   8
ENDBRANCH   4   7
ENDBRANCH   2   3
ENDBRANCH   1   2
BRANCH   1  19
ATOM     19  C   UNL A   1      32.467  29.974  25.690  1.00  0.00     0.118 C 
BRANCH  19  20
ATOM     20  N   UNL A   1      32.054  31.205  26.349  1.00  0.00    -0.352 N 
ATOM     21  C   UNL A   1      32.761  32.028  27.205  1.00  0.00     0.251 C 
ATOM     22  H   UNL A   1      31.133  31.496  26.156  1.00  0.00     0.163 HD
ATOM     23  O   UNL A   1      32.236  33.055  27.634  1.00  0.00    -0.269 OA
BRANCH  21  24
ATOM     24  C   UNL A   1      34.113  31.636  27.680  1.00  0.00     0.039 A 
ATOM     25  C   UNL A   1      35.041  32.639  27.980  1.00  0.00     0.014 A 
ATOM     26  C   UNL A   1      34.447  30.305  27.919  1.00  0.00     0.014 A 
ATOM     27  C   UNL A   1      36.240  32.314  28.627  1.00  0.00     0.010 A 
ATOM     28  C   UNL A   1      35.565  30.002  28.686  1.00  0.00     0.010 A 
ATOM     29  C   UNL A   1      36.482  30.999  29.052  1.00  0.00    -0.014 A 
BRANCH  29  30
ATOM     30  C   UNL A   1      37.678  30.621  29.858  1.00  0.00     0.031 A 
ATOM     31  C   UNL A   1      38.711  29.693  29.265  1.00  0.00     0.074 A 
ATOM     32  C   UNL A   1      37.791  31.013  31.144  1.00  0.00     0.049 A 
ATOM     33  N   UNL A   1      39.707  29.074  29.845  1.00  0.00    -0.248 NA
ATOM     34  C   UNL A   1      38.558  29.372  27.837  1.00  0.00     0.031 C 
ATOM     35  C   UNL A   1      36.837  31.863  31.863  1.00  0.00     0.029 A 
ATOM     36  N   UNL A   1      38.753  30.735  32.087  1.00  0.00    -0.354 N 
ATOM     37  C   UNL A   1      40.269  28.262  28.863  1.00  0.00     0.074 A 
ATOM     38  C   UNL A   1      39.447  28.405  27.682  1.00  0.00     0.031 C 
ATOM     39  C   UNL A   1      37.278  32.062  33.116  1.00  0.00     0.029 A 
ATOM     40  C   UNL A   1      38.512  31.311  33.315  1.00  0.00     0.049 A 
ATOM     41  H   UNL A   1      39.540  30.176  31.902  1.00  0.00     0.167 HD
ATOM     42  C   UNL A   1      41.387  27.497  28.925  1.00  0.00     0.034 A 
ATOM     43  C   UNL A   1      39.198  31.230  34.473  1.00  0.00     0.034 A 
ATOM     44  C   UNL A   1      42.226  27.406  30.094  1.00  0.00     0.049 A 
ATOM     45  C   UNL A   1      40.453  30.392  34.516  1.00  0.00     0.074 A 
ATOM     46  C   UNL A   1      43.410  26.708  30.257  1.00  0.00     0.029 A 
ATOM     47  N   UNL A   1      41.975  28.049  31.300  1.00  0.00    -0.354 N 
ATOM     48  N   UNL A   1      40.986  29.654  33.569  1.00  0.00    -0.248 NA
ATOM     49  C   UNL A   1      41.203  30.385  35.778  1.00  0.00     0.031 C 
ATOM     50  C   UNL A   1      43.850  26.890  31.572  1.00  0.00     0.029 A 
ATOM     51  C   UNL A   1      42.977  27.755  32.212  1.00  0.00     0.049 A 
ATOM     52  H   UNL A   1      41.200  28.628  31.481  1.00  0.00     0.167 HD
ATOM     53  C   UNL A   1      42.152  29.122  34.114  1.00  0.00     0.074 A 
ATOM     54  C   UNL A   1      42.251  29.637  35.463  1.00  0.00     0.031 C 
ATOM     55  C   UNL A   1      43.059  28.283  33.553  1.00  0.00     0.034 A 
BRANCH  42  56
ATOM     56  C   UNL A   1      41.755  26.706  27.691  1.00  0.00     0.023 A 
ATOM     57  C   UNL A   1      41.400  25.352  27.554  1.00  0.00     0.031 A 
ATOM     58  C   UNL A   1      42.508  27.293  26.659  1.00  0.00     0.131 A 
ATOM     59  C   UNL A   1      41.880  24.606  26.468  1.00  0.00     0.055 A 
ATOM     60  C   UNL A   1      42.902  26.568  25.532  1.00  0.00     0.041 A 
ATOM     61  F   UNL A   1      42.893  28.576  26.738  1.00  0.00    -0.206 F 
ATOM     62  C   UNL A   1      42.606  25.211  25.441  1.00  0.00     0.022 A 
BRANCH  59  63
ATOM     63  S   UNL A   1      41.680  22.804  26.505  1.00  0.00     0.124 S 
ATOM     64  O   UNL A   1      40.225  22.671  26.490  1.00  0.00    -0.237 OA
ATOM     65  O   UNL A   1      42.372  22.383  25.293  1.00  0.00    -0.237 OA
ATOM     66  O   UNL A   1      42.321  22.414  27.759  1.00  0.00    -0.744 OA
ENDBRANCH  59  63
ENDBRANCH  42  56
BRANCH  43  67
ATOM     67  C   UNL A   1      38.727  31.950  35.693  1.00  0.00     0.023 A 
ATOM     68  C   UNL A   1      38.153  31.251  36.766  1.00  0.00     0.031 A 
ATOM     69  C   UNL A   1      38.795  33.352  35.783  1.00  0.00     0.131 A 
ATOM     70  C   UNL A   1      37.615  31.954  37.856  1.00  0.00     0.055 A 
ATOM     71  C   UNL A   1      38.311  34.044  36.895  1.00  0.00     0.041 A 
ATOM     72  F   UNL A   1      39.341  34.072  34.790  1.00  0.00    -0.206 F 
ATOM     73  C   UNL A   1      37.702  33.346  37.933  1.00  0.00     0.022 A 
BRANCH  70  74
ATOM     74  S   UNL A   1      36.708  31.028  39.125  1.00  0.00     0.124 S 
ATOM     75  O   UNL A   1      35.488  31.815  39.253  1.00  0.00    -0.237 OA
ATOM     76  O   UNL A   1      36.566  29.717  38.499  1.00  0.00    -0.237 OA
ATOM     77  O   UNL A   1      37.603  31.070  40.280  1.00  0.00    -0.744 OA
ENDBRANCH  70  74
ENDBRANCH  43  67
BRANCH  55  78
ATOM     78  C   UNL A   1      44.264  27.924  34.384  1.00  0.00     0.023 A 
ATOM     79  C   UNL A   1      44.272  26.805  35.233  1.00  0.00     0.031 A 
ATOM     80  C   UNL A   1      45.420  28.724  34.329  1.00  0.00     0.131 A 
ATOM     81  C   UNL A   1      45.394  26.545  36.034  1.00  0.00     0.055 A 
ATOM     82  C   UNL A   1      46.555  28.427  35.085  1.00  0.00     0.041 A 
ATOM     83  F   UNL A   1      45.466  29.805  33.535  1.00  0.00    -0.206 F 
ATOM     84  C   UNL A   1      46.540  27.339  35.953  1.00  0.00     0.022 A 
BRANCH  81  85
ATOM     85  S   UNL A   1      45.304  25.200  37.248  1.00  0.00     0.124 S 
ATOM     86  O   UNL A   1      46.569  24.507  37.026  1.00  0.00    -0.237 OA
ATOM     87  O   UNL A   1      45.187  25.925  38.509  1.00  0.00    -0.237 OA
ATOM     88  O   UNL A   1      44.111  24.456  36.849  1.00  0.00    -0.744 OA
ENDBRANCH  81  85
ENDBRANCH  55  78
ENDBRANCH  29  30
ENDBRANCH  21  24
ENDBRANCH  19  20
ENDBRANCH   1  19
TORSDOF 15
ENDMDL
MODEL 3
REMARK VINA RESULT:     -11.8      5.250      7.883
REMARK SMILES CC1(C)CCC[C@@](C)(CCC(=O)NCCCNC(=O)c2ccc(-c3c4nc(c(-c5cc(S(=O)(=O)[O-])ccc5F)c5ccc([nH]5)c(-c5cc(S(=O)(=O)[O-])ccc5F)c5nc(c(-c6cc(S(=O)(=O)[O-])ccc6F)c6ccc3[nH]6)C=C5)C=C4)cc2)C1=O
REMARK SMILES IDX 15 1 14 2 13 3 11 4 12 5 10 7 9 8 7 9 1 10 2 11 3 12 4 13
REMARK SMILES IDX 83 14 5 15 84 16 6 17 8 18 16 19 17 20 18 21 19 23 20 24
REMARK SMILES IDX 21 25 82 26 22 27 81 28 23 29 24 30 25 31 75 32 26 33 80 34
REMARK SMILES IDX 74 35 76 36 27 37 79 38 73 39 72 40 28 42 60 43 40 44 59 45
REMARK SMILES IDX 41 46 44 47 58 48 77 49 42 50 43 51 57 53 78 54 45 55 29 56
REMARK SMILES IDX 30 57 38 58 31 59 37 60 39 61 36 62 32 63 33 64 34 65 35 66
REMARK SMILES IDX 61 67 62 68 70 69 63 70 69 71 71 72 68 73 64 74 65 75 66 76
REMARK SMILES IDX 67 77 46 78 47 79 55 80 48 81 54 82 56 83 53 84 49 85 50 86
REMARK SMILES IDX 51 87 52 88
REMARK H PARENT 13 6 17 22 76 41 44 52
REMARK Flexibility Score: inf
ROOT
ATOM      1  C   UNL A   1      34.807  21.449  25.668  1.00  0.00     0.042 C 
ENDROOT
BRANCH   1   2
ATOM      2  C   UNL A   1      33.715  22.454  25.342  1.00  0.00     0.117 C 
BRANCH   2   3
ATOM      3  N   UNL A   1      34.077  23.339  24.255  1.00  0.00    -0.356 N 
ATOM      4  C   UNL A   1      33.361  24.268  23.574  1.00  0.00     0.220 C 
ATOM      5  O   UNL A   1      33.994  25.001  22.806  1.00  0.00    -0.275 OA
ATOM      6  H   UNL A   1      35.011  23.251  23.959  1.00  0.00     0.163 HD
BRANCH   4   7
ATOM      7  C   UNL A   1      31.860  24.494  23.771  1.00  0.00     0.101 C 
BRANCH   7   8
ATOM      8  C   UNL A   1      31.257  25.787  23.234  1.00  0.00     0.024 C 
BRANCH   8   9
ATOM      9  C   UNL A   1      30.492  26.832  24.129  1.00  0.00     0.027 C 
ATOM     10  C   UNL A   1      33.420  27.527  25.922  1.00  0.00     0.019 C 
ATOM     11  C   UNL A   1      31.961  27.978  26.100  1.00  0.00     0.024 C 
ATOM     12  C   UNL A   1      31.778  28.182  27.625  1.00  0.00     0.019 C 
ATOM     13  C   UNL A   1      31.727  29.317  25.388  1.00  0.00     0.014 C 
ATOM     14  C   UNL A   1      30.889  26.951  25.627  1.00  0.00     0.144 C 
ATOM     15  C   UNL A   1      31.596  29.158  23.875  1.00  0.00     0.002 C 
ATOM     16  O   UNL A   1      30.338  26.230  26.467  1.00  0.00    -0.298 OA
ATOM     17  C   UNL A   1      30.424  28.257  23.530  1.00  0.00     0.014 C 
ATOM     18  C   UNL A   1      29.008  26.328  24.077  1.00  0.00     0.020 C 
ENDBRANCH   8   9
ENDBRANCH   7   8
ENDBRANCH   4   7
ENDBRANCH   2   3
ENDBRANCH   1   2
BRANCH   1  19
ATOM     19  C   UNL A   1      36.213  22.012  25.541  1.00  0.00     0.118 C 
BRANCH  19  20
ATOM     20  N   UNL A   1      37.275  21.035  25.341  1.00  0.00    -0.352 N 
ATOM     21  C   UNL A   1      38.593  21.068  25.751  1.00  0.00     0.251 C 
ATOM     22  H   UNL A   1      37.013  20.229  24.839  1.00  0.00     0.163 HD
ATOM     23  O   UNL A   1      39.331  20.114  25.508  1.00  0.00    -0.269 OA
BRANCH  21  24
ATOM     24  C   UNL A   1      39.148  22.282  26.405  1.00  0.00     0.039 A 
ATOM     25  C   UNL A   1      40.261  22.150  27.242  1.00  0.00     0.014 A 
ATOM     26  C   UNL A   1      38.646  23.553  26.133  1.00  0.00     0.014 A 
ATOM     27  C   UNL A   1      40.934  23.291  27.699  1.00  0.00     0.010 A 
ATOM     28  C   UNL A   1      39.394  24.675  26.466  1.00  0.00     0.010 A 
ATOM     29  C   UNL A   1      40.549  24.565  27.255  1.00  0.00    -0.014 A 
BRANCH  29  30
ATOM     30  C   UNL A   1      41.307  25.801  27.604  1.00  0.00     0.031 A 
ATOM     31  C   UNL A   1      40.631  26.885  28.407  1.00  0.00     0.074 A 
ATOM     32  C   UNL A   1      42.550  26.004  27.119  1.00  0.00     0.049 A 
ATOM     33  N   UNL A   1      41.019  28.112  28.645  1.00  0.00    -0.248 NA
ATOM     34  C   UNL A   1      39.307  26.559  28.963  1.00  0.00     0.031 C 
ATOM     35  C   UNL A   1      43.302  25.065  26.281  1.00  0.00     0.029 A 
ATOM     36  N   UNL A   1      43.400  27.077  27.247  1.00  0.00    -0.354 N 
ATOM     37  C   UNL A   1      39.970  28.711  29.339  1.00  0.00     0.074 A 
ATOM     38  C   UNL A   1      38.902  27.739  29.404  1.00  0.00     0.031 C 
ATOM     39  C   UNL A   1      44.507  25.588  26.001  1.00  0.00     0.029 A 
ATOM     40  C   UNL A   1      44.598  26.921  26.585  1.00  0.00     0.049 A 
ATOM     41  H   UNL A   1      43.173  27.883  27.764  1.00  0.00     0.167 HD
ATOM     42  C   UNL A   1      39.915  29.943  29.904  1.00  0.00     0.034 A 
ATOM     43  C   UNL A   1      45.643  27.762  26.451  1.00  0.00     0.034 A 
ATOM     44  C   UNL A   1      41.008  30.882  29.877  1.00  0.00     0.049 A 
ATOM     45  C   UNL A   1      45.571  29.119  27.106  1.00  0.00     0.074 A 
ATOM     46  C   UNL A   1      41.087  32.134  30.460  1.00  0.00     0.029 A 
ATOM     47  N   UNL A   1      42.224  30.663  29.242  1.00  0.00    -0.354 N 
ATOM     48  N   UNL A   1      44.584  29.658  27.784  1.00  0.00    -0.248 NA
ATOM     49  C   UNL A   1      46.758  29.976  26.989  1.00  0.00     0.031 C 
ATOM     50  C   UNL A   1      42.330  32.691  30.139  1.00  0.00     0.029 A 
ATOM     51  C   UNL A   1      43.054  31.760  29.412  1.00  0.00     0.049 A 
ATOM     52  H   UNL A   1      42.463  29.848  28.744  1.00  0.00     0.167 HD
ATOM     53  C   UNL A   1      45.045  30.905  28.200  1.00  0.00     0.074 A 
ATOM     54  C   UNL A   1      46.402  31.028  27.712  1.00  0.00     0.031 C 
ATOM     55  C   UNL A   1      44.407  31.862  28.920  1.00  0.00     0.034 A 
BRANCH  42  56
ATOM     56  C   UNL A   1      38.627  30.331  30.594  1.00  0.00     0.023 A 
ATOM     57  C   UNL A   1      37.581  30.960  29.897  1.00  0.00     0.031 A 
ATOM     58  C   UNL A   1      38.457  30.113  31.973  1.00  0.00     0.131 A 
ATOM     59  C   UNL A   1      36.462  31.440  30.591  1.00  0.00     0.055 A 
ATOM     60  C   UNL A   1      37.296  30.507  32.642  1.00  0.00     0.041 A 
ATOM     61  F   UNL A   1      39.425  29.532  32.699  1.00  0.00    -0.206 F 
ATOM     62  C   UNL A   1      36.299  31.193  31.956  1.00  0.00     0.022 A 
BRANCH  59  63
ATOM     63  S   UNL A   1      35.306  32.530  29.717  1.00  0.00     0.124 S 
ATOM     64  O   UNL A   1      36.208  33.552  29.192  1.00  0.00    -0.237 OA
ATOM     65  O   UNL A   1      34.711  31.636  28.730  1.00  0.00    -0.237 OA
ATOM     66  O   UNL A   1      34.403  32.988  30.770  1.00  0.00    -0.744 OA
ENDBRANCH  59  63
ENDBRANCH  42  56
BRANCH  43  67
ATOM     67  C   UNL A   1      46.849  27.364  25.665  1.00  0.00     0.023 A 
ATOM     68  C   UNL A   1      47.041  27.828  24.355  1.00  0.00     0.031 A 
ATOM     69  C   UNL A   1      47.800  26.471  26.192  1.00  0.00     0.131 A 
ATOM     70  C   UNL A   1      48.122  27.356  23.592  1.00  0.00     0.055 A 
ATOM     71  C   UNL A   1      48.905  26.048  25.451  1.00  0.00     0.041 A 
ATOM     72  F   UNL A   1      47.670  26.000  27.443  1.00  0.00    -0.206 F 
ATOM     73  C   UNL A   1      49.062  26.479  24.137  1.00  0.00     0.022 A 
BRANCH  70  74
ATOM     74  S   UNL A   1      48.224  27.827  21.844  1.00  0.00     0.124 S 
ATOM     75  O   UNL A   1      49.451  28.613  21.818  1.00  0.00    -0.237 OA
ATOM     76  O   UNL A   1      48.279  26.526  21.183  1.00  0.00    -0.237 OA
ATOM     77  O   UNL A   1      46.992  28.583  21.624  1.00  0.00    -0.744 OA
ENDBRANCH  70  74
ENDBRANCH  43  67
BRANCH  55  78
ATOM     78  C   UNL A   1      45.197  33.097  29.268  1.00  0.00     0.023 A 
ATOM     79  C   UNL A   1      45.222  34.222  28.427  1.00  0.00     0.031 A 
ATOM     80  C   UNL A   1      45.945  33.141  30.459  1.00  0.00     0.131 A 
ATOM     81  C   UNL A   1      46.021  35.325  28.763  1.00  0.00     0.055 A 
ATOM     82  C   UNL A   1      46.692  34.264  30.816  1.00  0.00     0.041 A 
ATOM     83  F   UNL A   1      45.957  32.093  31.298  1.00  0.00    -0.206 F 
ATOM     84  C   UNL A   1      46.743  35.360  29.958  1.00  0.00     0.022 A 
BRANCH  81  85
ATOM     85  S   UNL A   1      46.171  36.685  27.572  1.00  0.00     0.124 S 
ATOM     86  O   UNL A   1      47.519  37.175  27.839  1.00  0.00    -0.237 OA
ATOM     87  O   UNL A   1      45.981  36.005  26.295  1.00  0.00    -0.237 OA
ATOM     88  O   UNL A   1      45.093  37.597  27.953  1.00  0.00    -0.744 OA
ENDBRANCH  81  85
ENDBRANCH  55  78
ENDBRANCH  29  30
ENDBRANCH  21  24
ENDBRANCH  19  20
ENDBRANCH   1  19
TORSDOF 15
ENDMDL
