MODEL 1
REMARK VINA RESULT:     -14.2      0.000      0.000
REMARK SMILES C[C@@H](CCC(=O)NCCCNC(=O)c1ccc(-c2c3nc(c(-c4cc(S(=O)(=O)[O-])ccc4F)c4ccc([nH]4)c(-c4cc(S(=O)(=O)[O-])ccc4F)c4nc(c(-c5cc(S(=O)(=O)[O-])ccc5F)c5ccc2[nH]5)C=C4)C=C3)cc1)[C@@H]1CC[C@H]2[C@@H]3CC[C@H]4CC(=O)CC[C@@]4(C)[C@H]3CC(=O)[C@@]21C
REMARK SMILES IDX 9 1 8 2 7 3 5 4 6 5 4 7 3 8 2 9 1 10 77 11 78 12 96 13 79 14
REMARK SMILES IDX 80 15 94 16 97 17 81 18 93 19 95 20 82 21 92 22 83 23 90 24
REMARK SMILES IDX 84 25 89 26 91 27 85 28 88 29 86 30 87 31 10 32 11 33 12 34
REMARK SMILES IDX 13 36 14 37 15 38 76 39 16 40 75 41 17 42 18 43 19 44 69 45
REMARK SMILES IDX 20 46 74 47 68 48 70 49 21 50 73 51 67 52 66 53 22 55 54 56
REMARK SMILES IDX 34 57 53 58 35 59 38 60 52 61 71 62 36 63 37 64 51 66 72 67
REMARK SMILES IDX 39 68 23 69 24 70 32 71 25 72 31 73 33 74 30 75 26 76 27 77
REMARK SMILES IDX 28 78 29 79 55 80 56 81 64 82 57 83 63 84 65 85 62 86 58 87
REMARK SMILES IDX 59 88 60 89 61 90 40 91 41 92 49 93 42 94 48 95 50 96 47 97
REMARK SMILES IDX 43 98 44 99 45 100 46 101
REMARK H PARENT 7 6 11 35 70 54 38 65
REMARK Flexibility Score: inf
ROOT
ATOM      1  C   UNL A   1      40.598  20.345  26.000  1.00  0.00     0.042 C 
ENDROOT
BRANCH   1   2
ATOM      2  C   UNL A   1      39.712  21.480  26.590  1.00  0.00     0.117 C 
BRANCH   2   3
ATOM      3  N   UNL A   1      39.017  22.397  25.710  1.00  0.00    -0.356 N 
ATOM      4  C   UNL A   1      37.698  22.440  25.333  1.00  0.00     0.220 C 
ATOM      5  O   UNL A   1      37.268  23.507  24.882  1.00  0.00    -0.275 OA
ATOM      6  H   UNL A   1      39.581  23.102  25.319  1.00  0.00     0.163 HD
BRANCH   4   7
ATOM      7  C   UNL A   1      36.790  21.221  25.385  1.00  0.00     0.100 C 
BRANCH   7   8
ATOM      8  C   UNL A   1      35.440  21.398  24.662  1.00  0.00     0.013 C 
BRANCH   8   9
ATOM      9  C   UNL A   1      34.194  20.692  25.262  1.00  0.00    -0.010 C 
ATOM     10  C   UNL A   1      34.349  19.168  25.153  1.00  0.00     0.008 C 
BRANCH   9  11
ATOM     11  C   UNL A   1      32.848  21.155  24.680  1.00  0.00     0.005 C 
ATOM     12  C   UNL A   1      32.809  21.104  23.122  1.00  0.00     0.005 C 
ATOM     13  C   UNL A   1      32.317  22.591  25.060  1.00  0.00     0.032 C 
ATOM     14  C   UNL A   1      31.887  22.210  22.691  1.00  0.00     0.005 C 
ATOM     15  C   UNL A   1      32.334  23.260  23.670  1.00  0.00     0.006 C 
ATOM     16  C   UNL A   1      33.061  23.612  25.922  1.00  0.00     0.139 C 
ATOM     17  C   UNL A   1      30.971  22.492  25.801  1.00  0.00     0.020 C 
ATOM     18  C   UNL A   1      31.640  24.593  23.542  1.00  0.00    -0.003 C 
ATOM     19  C   UNL A   1      32.355  24.973  26.004  1.00  0.00     0.080 C 
ATOM     20  O   UNL A   1      34.110  23.395  26.510  1.00  0.00    -0.299 OA
ATOM     21  C   UNL A   1      31.862  25.105  22.107  1.00  0.00     0.004 C 
ATOM     22  C   UNL A   1      32.249  25.555  24.580  1.00  0.00     0.006 C 
ATOM     23  C   UNL A   1      31.703  26.595  21.897  1.00  0.00     0.005 C 
ATOM     24  C   UNL A   1      31.654  26.984  24.421  1.00  0.00    -0.025 C 
ATOM     25  C   UNL A   1      32.220  27.490  23.064  1.00  0.00     0.002 C 
ATOM     26  C   UNL A   1      30.118  27.069  24.328  1.00  0.00     0.015 C 
ATOM     27  C   UNL A   1      32.078  27.794  25.653  1.00  0.00     0.012 C 
ATOM     28  C   UNL A   1      31.851  28.945  22.789  1.00  0.00     0.079 C 
ATOM     29  C   UNL A   1      29.519  28.199  23.463  1.00  0.00     0.076 C 
ATOM     30  C   UNL A   1      30.387  28.971  22.511  1.00  0.00     0.133 C 
ATOM     31  O   UNL A   1      29.920  29.589  21.564  1.00  0.00    -0.300 OA
ENDBRANCH   9  11
ENDBRANCH   8   9
ENDBRANCH   7   8
ENDBRANCH   4   7
ENDBRANCH   2   3
ENDBRANCH   1   2
BRANCH   1  32
ATOM     32  C   UNL A   1      42.160  20.273  26.139  1.00  0.00     0.118 C 
BRANCH  32  33
ATOM     33  N   UNL A   1      42.793  21.333  25.286  1.00  0.00    -0.352 N 
ATOM     34  C   UNL A   1      43.124  22.665  25.137  1.00  0.00     0.251 C 
ATOM     35  H   UNL A   1      43.111  20.877  24.472  1.00  0.00     0.163 HD
ATOM     36  O   UNL A   1      43.447  22.918  23.963  1.00  0.00    -0.269 OA
BRANCH  34  37
ATOM     37  C   UNL A   1      43.201  23.866  26.061  1.00  0.00     0.039 A 
ATOM     38  C   UNL A   1      42.374  23.834  27.216  1.00  0.00     0.014 A 
ATOM     39  C   UNL A   1      43.718  25.123  25.764  1.00  0.00     0.014 A 
ATOM     40  C   UNL A   1      42.073  24.977  28.034  1.00  0.00     0.010 A 
ATOM     41  C   UNL A   1      43.434  26.267  26.615  1.00  0.00     0.010 A 
ATOM     42  C   UNL A   1      42.611  26.243  27.787  1.00  0.00    -0.014 A 
BRANCH  42  43
ATOM     43  C   UNL A   1      42.383  27.492  28.733  1.00  0.00     0.031 A 
ATOM     44  C   UNL A   1      42.989  27.510  30.158  1.00  0.00     0.074 A 
ATOM     45  C   UNL A   1      41.440  28.469  28.509  1.00  0.00     0.049 A 
ATOM     46  N   UNL A   1      42.596  28.163  31.236  1.00  0.00    -0.248 NA
ATOM     47  C   UNL A   1      44.119  26.608  30.405  1.00  0.00     0.031 C 
ATOM     48  C   UNL A   1      40.604  28.622  27.314  1.00  0.00     0.029 A 
ATOM     49  N   UNL A   1      40.847  29.390  29.400  1.00  0.00    -0.354 N 
ATOM     50  C   UNL A   1      43.392  27.708  32.296  1.00  0.00     0.074 A 
ATOM     51  C   UNL A   1      44.222  26.660  31.727  1.00  0.00     0.031 C 
ATOM     52  C   UNL A   1      39.531  29.389  27.598  1.00  0.00     0.029 A 
ATOM     53  C   UNL A   1      39.581  29.823  28.992  1.00  0.00     0.049 A 
ATOM     54  H   UNL A   1      41.283  29.696  30.227  1.00  0.00     0.167 HD
ATOM     55  C   UNL A   1      43.484  28.125  33.595  1.00  0.00     0.034 A 
ATOM     56  C   UNL A   1      38.537  30.418  29.633  1.00  0.00     0.034 A 
ATOM     57  C   UNL A   1      42.703  29.186  34.196  1.00  0.00     0.049 A 
ATOM     58  C   UNL A   1      38.600  30.841  31.084  1.00  0.00     0.074 A 
ATOM     59  C   UNL A   1      42.928  29.854  35.394  1.00  0.00     0.029 A 
ATOM     60  N   UNL A   1      41.516  29.687  33.696  1.00  0.00    -0.354 N 
ATOM     61  N   UNL A   1      39.484  30.544  31.997  1.00  0.00    -0.248 NA
ATOM     62  C   UNL A   1      37.518  31.723  31.567  1.00  0.00     0.031 C 
ATOM     63  C   UNL A   1      41.850  30.713  35.644  1.00  0.00     0.029 A 
ATOM     64  C   UNL A   1      41.001  30.654  34.556  1.00  0.00     0.049 A 
ATOM     65  H   UNL A   1      41.095  29.402  32.853  1.00  0.00     0.167 HD
ATOM     66  C   UNL A   1      39.121  31.285  33.127  1.00  0.00     0.074 A 
ATOM     67  C   UNL A   1      37.905  31.989  32.806  1.00  0.00     0.031 C 
ATOM     68  C   UNL A   1      39.796  31.403  34.297  1.00  0.00     0.034 A 
BRANCH  55  69
ATOM     69  C   UNL A   1      44.549  27.487  34.478  1.00  0.00     0.023 A 
ATOM     70  C   UNL A   1      44.229  26.404  35.314  1.00  0.00     0.031 A 
ATOM     71  C   UNL A   1      45.893  27.908  34.457  1.00  0.00     0.131 A 
ATOM     72  C   UNL A   1      45.189  25.868  36.181  1.00  0.00     0.055 A 
ATOM     73  C   UNL A   1      46.875  27.291  35.241  1.00  0.00     0.041 A 
ATOM     74  F   UNL A   1      46.286  28.922  33.668  1.00  0.00    -0.206 F 
ATOM     75  C   UNL A   1      46.520  26.280  36.130  1.00  0.00     0.022 A 
BRANCH  72  76
ATOM     76  S   UNL A   1      44.617  24.751  37.486  1.00  0.00     0.124 S 
ATOM     77  O   UNL A   1      45.269  25.320  38.664  1.00  0.00    -0.237 OA
ATOM     78  O   UNL A   1      43.167  24.909  37.425  1.00  0.00    -0.237 OA
ATOM     79  O   UNL A   1      45.123  23.446  37.070  1.00  0.00    -0.744 OA
ENDBRANCH  72  76
ENDBRANCH  55  69
BRANCH  56  80
ATOM     80  C   UNL A   1      37.226  30.679  28.944  1.00  0.00     0.023 A 
ATOM     81  C   UNL A   1      36.641  31.953  28.961  1.00  0.00     0.031 A 
ATOM     82  C   UNL A   1      36.432  29.618  28.474  1.00  0.00     0.131 A 
ATOM     83  C   UNL A   1      35.321  32.122  28.503  1.00  0.00     0.055 A 
ATOM     84  C   UNL A   1      35.174  29.811  27.896  1.00  0.00     0.041 A 
ATOM     85  F   UNL A   1      36.802  28.354  28.701  1.00  0.00    -0.206 F 
ATOM     86  C   UNL A   1      34.606  31.076  27.914  1.00  0.00     0.022 A 
BRANCH  83  87
ATOM     87  S   UNL A   1      34.469  33.683  28.862  1.00  0.00     0.124 S 
ATOM     88  O   UNL A   1      35.516  34.654  28.580  1.00  0.00    -0.237 OA
ATOM     89  O   UNL A   1      33.354  33.645  27.919  1.00  0.00    -0.237 OA
ATOM     90  O   UNL A   1      34.096  33.551  30.268  1.00  0.00    -0.744 OA
ENDBRANCH  83  87
ENDBRANCH  56  80
BRANCH  68  91
ATOM     91  C   UNL A   1      39.353  32.475  35.275  1.00  0.00     0.023 A 
ATOM     92  C   UNL A   1      39.920  33.761  35.335  1.00  0.00     0.031 A 
ATOM     93  C   UNL A   1      38.340  32.168  36.207  1.00  0.00     0.131 A 
ATOM     94  C   UNL A   1      39.503  34.670  36.328  1.00  0.00     0.055 A 
ATOM     95  C   UNL A   1      37.888  33.094  37.150  1.00  0.00     0.041 A 
ATOM     96  F   UNL A   1      37.772  30.952  36.223  1.00  0.00    -0.206 F 
ATOM     97  C   UNL A   1      38.477  34.350  37.222  1.00  0.00     0.022 A 
BRANCH  94  98
ATOM     98  S   UNL A   1      40.377  36.253  36.509  1.00  0.00     0.124 S 
ATOM     99  O   UNL A   1      41.760  35.820  36.681  1.00  0.00    -0.237 OA
ATOM    100  O   UNL A   1      40.071  36.926  35.252  1.00  0.00    -0.237 OA
ATOM    101  O   UNL A   1      39.765  36.853  37.695  1.00  0.00    -0.744 OA
ENDBRANCH  94  98
ENDBRANCH  68  91
ENDBRANCH  42  43
ENDBRANCH  34  37
ENDBRANCH  32  33
ENDBRANCH   1  32
TORSDOF 16
ENDMDL
MODEL 2
REMARK VINA RESULT:     -14.1      1.251      1.543
REMARK SMILES C[C@@H](CCC(=O)NCCCNC(=O)c1ccc(-c2c3nc(c(-c4cc(S(=O)(=O)[O-])ccc4F)c4ccc([nH]4)c(-c4cc(S(=O)(=O)[O-])ccc4F)c4nc(c(-c5cc(S(=O)(=O)[O-])ccc5F)c5ccc2[nH]5)C=C4)C=C3)cc1)[C@@H]1CC[C@H]2[C@@H]3CC[C@H]4CC(=O)CC[C@@]4(C)[C@H]3CC(=O)[C@@]21C
REMARK SMILES IDX 9 1 8 2 7 3 5 4 6 5 4 7 3 8 2 9 1 10 77 11 78 12 96 13 79 14
REMARK SMILES IDX 80 15 94 16 97 17 81 18 93 19 95 20 82 21 92 22 83 23 90 24
REMARK SMILES IDX 84 25 89 26 91 27 85 28 88 29 86 30 87 31 10 32 11 33 12 34
REMARK SMILES IDX 13 36 14 37 15 38 76 39 16 40 75 41 17 42 18 43 19 44 69 45
REMARK SMILES IDX 20 46 74 47 68 48 70 49 21 50 73 51 67 52 66 53 22 55 54 56
REMARK SMILES IDX 34 57 53 58 35 59 38 60 52 61 71 62 36 63 37 64 51 66 72 67
REMARK SMILES IDX 39 68 23 69 24 70 32 71 25 72 31 73 33 74 30 75 26 76 27 77
REMARK SMILES IDX 28 78 29 79 55 80 56 81 64 82 57 83 63 84 65 85 62 86 58 87
REMARK SMILES IDX 59 88 60 89 61 90 40 91 41 92 49 93 42 94 48 95 50 96 47 97
REMARK SMILES IDX 43 98 44 99 45 100 46 101
REMARK H PARENT 7 6 11 35 70 54 38 65
REMARK Flexibility Score: inf
ROOT
ATOM      1  C   UNL A   1      41.210  20.392  26.736  1.00  0.00     0.042 C 
ENDROOT
BRANCH   1   2
ATOM      2  C   UNL A   1      39.887  20.439  25.918  1.00  0.00     0.117 C 
BRANCH   2   3
ATOM      3  N   UNL A   1      39.185  21.692  25.735  1.00  0.00    -0.356 N 
ATOM      4  C   UNL A   1      37.849  21.944  25.542  1.00  0.00     0.220 C 
ATOM      5  O   UNL A   1      37.444  23.087  25.778  1.00  0.00    -0.275 OA
ATOM      6  H   UNL A   1      39.758  22.492  25.752  1.00  0.00     0.163 HD
BRANCH   4   7
ATOM      7  C   UNL A   1      36.891  20.902  24.988  1.00  0.00     0.100 C 
BRANCH   7   8
ATOM      8  C   UNL A   1      35.496  21.447  24.620  1.00  0.00     0.013 C 
BRANCH   8   9
ATOM      9  C   UNL A   1      34.254  20.738  25.223  1.00  0.00    -0.010 C 
ATOM     10  C   UNL A   1      34.417  19.214  25.123  1.00  0.00     0.008 C 
BRANCH   9  11
ATOM     11  C   UNL A   1      32.906  21.190  24.637  1.00  0.00     0.005 C 
ATOM     12  C   UNL A   1      32.873  21.145  23.080  1.00  0.00     0.005 C 
ATOM     13  C   UNL A   1      32.360  22.620  25.021  1.00  0.00     0.032 C 
ATOM     14  C   UNL A   1      31.942  22.244  22.649  1.00  0.00     0.005 C 
ATOM     15  C   UNL A   1      32.376  23.294  23.634  1.00  0.00     0.006 C 
ATOM     16  C   UNL A   1      33.091  23.644  25.890  1.00  0.00     0.139 C 
ATOM     17  C   UNL A   1      31.012  22.506  25.757  1.00  0.00     0.020 C 
ATOM     18  C   UNL A   1      31.670  24.621  23.508  1.00  0.00    -0.003 C 
ATOM     19  C   UNL A   1      32.372  24.998  25.974  1.00  0.00     0.080 C 
ATOM     20  O   UNL A   1      34.140  23.435  26.481  1.00  0.00    -0.299 OA
ATOM     21  C   UNL A   1      31.892  25.140  22.076  1.00  0.00     0.004 C 
ATOM     22  C   UNL A   1      32.266  25.585  24.552  1.00  0.00     0.006 C 
ATOM     23  C   UNL A   1      31.720  26.629  21.871  1.00  0.00     0.005 C 
ATOM     24  C   UNL A   1      31.658  27.009  24.396  1.00  0.00    -0.025 C 
ATOM     25  C   UNL A   1      32.225  27.525  23.043  1.00  0.00     0.002 C 
ATOM     26  C   UNL A   1      30.121  27.080  24.298  1.00  0.00     0.015 C 
ATOM     27  C   UNL A   1      32.069  27.818  25.633  1.00  0.00     0.012 C 
ATOM     28  C   UNL A   1      31.842  28.978  22.772  1.00  0.00     0.079 C 
ATOM     29  C   UNL A   1      29.515  28.207  23.435  1.00  0.00     0.076 C 
ATOM     30  C   UNL A   1      30.379  28.991  22.489  1.00  0.00     0.133 C 
ATOM     31  O   UNL A   1      29.910  29.608  21.542  1.00  0.00    -0.300 OA
ENDBRANCH   9  11
ENDBRANCH   8   9
ENDBRANCH   7   8
ENDBRANCH   4   7
ENDBRANCH   2   3
ENDBRANCH   1   2
BRANCH   1  32
ATOM     32  C   UNL A   1      42.625  20.097  26.123  1.00  0.00     0.118 C 
BRANCH  32  33
ATOM     33  N   UNL A   1      43.076  21.273  25.307  1.00  0.00    -0.352 N 
ATOM     34  C   UNL A   1      43.030  22.638  25.106  1.00  0.00     0.251 C 
ATOM     35  H   UNL A   1      43.663  20.910  24.604  1.00  0.00     0.163 HD
ATOM     36  O   UNL A   1      43.486  22.941  23.989  1.00  0.00    -0.269 OA
BRANCH  34  37
ATOM     37  C   UNL A   1      42.576  23.833  25.923  1.00  0.00     0.039 A 
ATOM     38  C   UNL A   1      43.438  24.962  25.931  1.00  0.00     0.014 A 
ATOM     39  C   UNL A   1      41.602  23.851  26.916  1.00  0.00     0.014 A 
ATOM     40  C   UNL A   1      43.347  26.049  26.867  1.00  0.00     0.010 A 
ATOM     41  C   UNL A   1      41.497  24.969  27.838  1.00  0.00     0.010 A 
ATOM     42  C   UNL A   1      42.354  26.117  27.849  1.00  0.00    -0.014 A 
BRANCH  42  43
ATOM     43  C   UNL A   1      42.165  27.353  28.820  1.00  0.00     0.031 A 
ATOM     44  C   UNL A   1      42.747  27.313  30.254  1.00  0.00     0.074 A 
ATOM     45  C   UNL A   1      41.269  28.375  28.603  1.00  0.00     0.049 A 
ATOM     46  N   UNL A   1      42.365  27.957  31.341  1.00  0.00    -0.248 NA
ATOM     47  C   UNL A   1      43.832  26.357  30.498  1.00  0.00     0.031 C 
ATOM     48  C   UNL A   1      40.460  28.592  27.400  1.00  0.00     0.029 A 
ATOM     49  N   UNL A   1      40.702  29.301  29.506  1.00  0.00    -0.354 N 
ATOM     50  C   UNL A   1      43.123  27.445  32.402  1.00  0.00     0.074 A 
ATOM     51  C   UNL A   1      43.916  26.374  31.822  1.00  0.00     0.031 C 
ATOM     52  C   UNL A   1      39.418  29.398  27.685  1.00  0.00     0.029 A 
ATOM     53  C   UNL A   1      39.463  29.798  29.089  1.00  0.00     0.049 A 
ATOM     54  H   UNL A   1      41.137  29.569  30.347  1.00  0.00     0.167 HD
ATOM     55  C   UNL A   1      43.212  27.828  33.711  1.00  0.00     0.034 A 
ATOM     56  C   UNL A   1      38.435  30.424  29.727  1.00  0.00     0.034 A 
ATOM     57  C   UNL A   1      42.467  28.909  34.325  1.00  0.00     0.049 A 
ATOM     58  C   UNL A   1      38.493  30.811  31.188  1.00  0.00     0.074 A 
ATOM     59  C   UNL A   1      42.702  29.539  35.541  1.00  0.00     0.029 A 
ATOM     60  N   UNL A   1      41.312  29.473  33.818  1.00  0.00    -0.354 N 
ATOM     61  N   UNL A   1      39.348  30.456  32.108  1.00  0.00    -0.248 NA
ATOM     62  C   UNL A   1      37.442  31.729  31.674  1.00  0.00     0.031 C 
ATOM     63  C   UNL A   1      41.658  30.439  35.794  1.00  0.00     0.029 A 
ATOM     64  C   UNL A   1      40.825  30.441  34.692  1.00  0.00     0.049 A 
ATOM     65  H   UNL A   1      40.893  29.225  32.962  1.00  0.00     0.167 HD
ATOM     66  C   UNL A   1      38.998  31.186  33.249  1.00  0.00     0.074 A 
ATOM     67  C   UNL A   1      37.819  31.950  32.925  1.00  0.00     0.031 C 
ATOM     68  C   UNL A   1      39.658  31.249  34.432  1.00  0.00     0.034 A 
BRANCH  55  69
ATOM     69  C   UNL A   1      44.233  27.124  34.596  1.00  0.00     0.023 A 
ATOM     70  C   UNL A   1      45.524  27.654  34.757  1.00  0.00     0.031 A 
ATOM     71  C   UNL A   1      43.919  25.962  35.327  1.00  0.00     0.131 A 
ATOM     72  C   UNL A   1      46.485  26.967  35.509  1.00  0.00     0.055 A 
ATOM     73  C   UNL A   1      44.849  25.343  36.170  1.00  0.00     0.041 A 
ATOM     74  F   UNL A   1      42.699  25.404  35.246  1.00  0.00    -0.206 F 
ATOM     75  C   UNL A   1      46.151  25.831  36.245  1.00  0.00     0.022 A 
BRANCH  72  76
ATOM     76  S   UNL A   1      48.210  27.497  35.359  1.00  0.00     0.124 S 
ATOM     77  O   UNL A   1      48.248  27.979  33.979  1.00  0.00    -0.237 OA
ATOM     78  O   UNL A   1      48.317  28.522  36.393  1.00  0.00    -0.237 OA
ATOM     79  O   UNL A   1      48.970  26.275  35.607  1.00  0.00    -0.744 OA
ENDBRANCH  72  76
ENDBRANCH  55  69
BRANCH  56  80
ATOM     80  C   UNL A   1      37.148  30.758  29.024  1.00  0.00     0.023 A 
ATOM     81  C   UNL A   1      36.602  32.047  29.090  1.00  0.00     0.031 A 
ATOM     82  C   UNL A   1      36.333  29.745  28.488  1.00  0.00     0.131 A 
ATOM     83  C   UNL A   1      35.298  32.278  28.612  1.00  0.00     0.055 A 
ATOM     84  C   UNL A   1      35.095  30.004  27.893  1.00  0.00     0.041 A 
ATOM     85  F   UNL A   1      36.660  28.461  28.662  1.00  0.00    -0.206 F 
ATOM     86  C   UNL A   1      34.566  31.284  27.960  1.00  0.00     0.022 A 
BRANCH  83  87
ATOM     87  S   UNL A   1      34.486  33.847  29.027  1.00  0.00     0.124 S 
ATOM     88  O   UNL A   1      34.101  33.616  30.412  1.00  0.00    -0.237 OA
ATOM     89  O   UNL A   1      35.560  34.812  28.808  1.00  0.00    -0.237 OA
ATOM     90  O   UNL A   1      33.383  33.921  28.071  1.00  0.00    -0.744 OA
ENDBRANCH  83  87
ENDBRANCH  56  80
BRANCH  68  91
ATOM     91  C   UNL A   1      39.247  32.317  35.427  1.00  0.00     0.023 A 
ATOM     92  C   UNL A   1      39.790  33.614  35.451  1.00  0.00     0.031 A 
ATOM     93  C   UNL A   1      38.291  31.995  36.413  1.00  0.00     0.131 A 
ATOM     94  C   UNL A   1      39.407  34.520  36.462  1.00  0.00     0.055 A 
ATOM     95  C   UNL A   1      37.870  32.916  37.375  1.00  0.00     0.041 A 
ATOM     96  F   UNL A   1      37.749  30.767  36.464  1.00  0.00    -0.206 F 
ATOM     97  C   UNL A   1      38.437  34.184  37.410  1.00  0.00     0.022 A 
BRANCH  94  98
ATOM     98  S   UNL A   1      40.258  36.121  36.589  1.00  0.00     0.124 S 
ATOM     99  O   UNL A   1      41.661  35.718  36.631  1.00  0.00    -0.237 OA
ATOM    100  O   UNL A   1      39.826  36.803  35.374  1.00  0.00    -0.237 OA
ATOM    101  O   UNL A   1      39.740  36.689  37.833  1.00  0.00    -0.744 OA
ENDBRANCH  94  98
ENDBRANCH  68  91
ENDBRANCH  42  43
ENDBRANCH  34  37
ENDBRANCH  32  33
ENDBRANCH   1  32
TORSDOF 16
ENDMDL
MODEL 3
REMARK VINA RESULT:     -13.7      4.702     10.378
REMARK SMILES C[C@@H](CCC(=O)NCCCNC(=O)c1ccc(-c2c3nc(c(-c4cc(S(=O)(=O)[O-])ccc4F)c4ccc([nH]4)c(-c4cc(S(=O)(=O)[O-])ccc4F)c4nc(c(-c5cc(S(=O)(=O)[O-])ccc5F)c5ccc2[nH]5)C=C4)C=C3)cc1)[C@@H]1CC[C@H]2[C@@H]3CC[C@H]4CC(=O)CC[C@@]4(C)[C@H]3CC(=O)[C@@]21C
REMARK SMILES IDX 9 1 8 2 7 3 5 4 6 5 4 7 3 8 2 9 1 10 77 11 78 12 96 13 79 14
REMARK SMILES IDX 80 15 94 16 97 17 81 18 93 19 95 20 82 21 92 22 83 23 90 24
REMARK SMILES IDX 84 25 89 26 91 27 85 28 88 29 86 30 87 31 10 32 11 33 12 34
REMARK SMILES IDX 13 36 14 37 15 38 76 39 16 40 75 41 17 42 18 43 19 44 69 45
REMARK SMILES IDX 20 46 74 47 68 48 70 49 21 50 73 51 67 52 66 53 22 55 54 56
REMARK SMILES IDX 34 57 53 58 35 59 38 60 52 61 71 62 36 63 37 64 51 66 72 67
REMARK SMILES IDX 39 68 23 69 24 70 32 71 25 72 31 73 33 74 30 75 26 76 27 77
REMARK SMILES IDX 28 78 29 79 55 80 56 81 64 82 57 83 63 84 65 85 62 86 58 87
REMARK SMILES IDX 59 88 60 89 61 90 40 91 41 92 49 93 42 94 48 95 50 96 47 97
REMARK SMILES IDX 43 98 44 99 45 100 46 101
REMARK H PARENT 7 6 11 35 70 54 38 65
REMARK Flexibility Score: inf
ROOT
ATOM      1  C   UNL A   1      34.665  33.658  28.580  1.00  0.00     0.042 C 
ENDROOT
BRANCH   1   2
ATOM      2  C   UNL A   1      34.245  32.200  28.238  1.00  0.00     0.117 C 
BRANCH   2   3
ATOM      3  N   UNL A   1      34.951  31.079  28.824  1.00  0.00    -0.356 N 
ATOM      4  C   UNL A   1      35.429  29.929  28.248  1.00  0.00     0.220 C 
ATOM      5  O   UNL A   1      36.304  29.306  28.858  1.00  0.00    -0.275 OA
ATOM      6  H   UNL A   1      35.114  31.155  29.792  1.00  0.00     0.163 HD
BRANCH   4   7
ATOM      7  C   UNL A   1      34.874  29.373  26.946  1.00  0.00     0.100 C 
BRANCH   7   8
ATOM      8  C   UNL A   1      33.408  28.902  27.025  1.00  0.00     0.013 C 
BRANCH   8   9
ATOM      9  C   UNL A   1      32.513  29.090  25.771  1.00  0.00    -0.010 C 
ATOM     10  C   UNL A   1      31.779  30.437  25.846  1.00  0.00     0.008 C 
BRANCH   9  11
ATOM     11  C   UNL A   1      31.531  27.937  25.501  1.00  0.00     0.005 C 
ATOM     12  C   UNL A   1      30.980  27.289  26.806  1.00  0.00     0.005 C 
ATOM     13  C   UNL A   1      32.015  26.728  24.610  1.00  0.00     0.032 C 
ATOM     14  C   UNL A   1      30.724  25.844  26.479  1.00  0.00     0.005 C 
ATOM     15  C   UNL A   1      31.952  25.589  25.648  1.00  0.00     0.006 C 
ATOM     16  C   UNL A   1      33.420  26.562  24.030  1.00  0.00     0.139 C 
ATOM     17  C   UNL A   1      31.148  26.606  23.344  1.00  0.00     0.020 C 
ATOM     18  C   UNL A   1      32.092  24.180  25.129  1.00  0.00    -0.003 C 
ATOM     19  C   UNL A   1      33.633  25.217  23.322  1.00  0.00     0.080 C 
ATOM     20  O   UNL A   1      34.306  27.402  24.097  1.00  0.00    -0.299 OA
ATOM     21  C   UNL A   1      32.088  23.228  26.339  1.00  0.00     0.004 C 
ATOM     22  C   UNL A   1      33.416  24.085  24.346  1.00  0.00     0.006 C 
ATOM     23  C   UNL A   1      32.705  21.865  26.119  1.00  0.00     0.005 C 
ATOM     24  C   UNL A   1      33.676  22.623  23.881  1.00  0.00    -0.025 C 
ATOM     25  C   UNL A   1      33.962  21.843  25.197  1.00  0.00     0.002 C 
ATOM     26  C   UNL A   1      32.496  21.916  23.185  1.00  0.00     0.015 C 
ATOM     27  C   UNL A   1      34.835  22.663  22.876  1.00  0.00     0.012 C 
ATOM     28  C   UNL A   1      34.375  20.398  24.935  1.00  0.00     0.079 C 
ATOM     29  C   UNL A   1      32.368  20.390  23.379  1.00  0.00     0.076 C 
ATOM     30  C   UNL A   1      33.161  19.686  24.443  1.00  0.00     0.133 C 
ATOM     31  O   UNL A   1      32.832  18.592  24.880  1.00  0.00    -0.300 OA
ENDBRANCH   9  11
ENDBRANCH   8   9
ENDBRANCH   7   8
ENDBRANCH   4   7
ENDBRANCH   2   3
ENDBRANCH   1   2
BRANCH   1  32
ATOM     32  C   UNL A   1      33.955  34.561  29.650  1.00  0.00     0.118 C 
BRANCH  32  33
ATOM     33  N   UNL A   1      34.011  33.892  30.992  1.00  0.00    -0.352 N 
ATOM     34  C   UNL A   1      34.668  33.012  31.829  1.00  0.00     0.251 C 
ATOM     35  H   UNL A   1      33.237  34.229  31.500  1.00  0.00     0.163 HD
ATOM     36  O   UNL A   1      33.960  32.711  32.807  1.00  0.00    -0.269 OA
BRANCH  34  37
ATOM     37  C   UNL A   1      36.034  32.351  31.840  1.00  0.00     0.039 A 
ATOM     38  C   UNL A   1      36.978  32.827  30.892  1.00  0.00     0.014 A 
ATOM     39  C   UNL A   1      36.374  31.134  32.423  1.00  0.00     0.014 A 
ATOM     40  C   UNL A   1      38.191  32.143  30.537  1.00  0.00     0.010 A 
ATOM     41  C   UNL A   1      37.618  30.465  32.082  1.00  0.00     0.010 A 
ATOM     42  C   UNL A   1      38.582  30.941  31.136  1.00  0.00    -0.014 A 
BRANCH  42  43
ATOM     43  C   UNL A   1      39.963  30.225  30.844  1.00  0.00     0.031 A 
ATOM     44  C   UNL A   1      41.225  31.065  30.527  1.00  0.00     0.074 A 
ATOM     45  C   UNL A   1      40.092  28.884  30.560  1.00  0.00     0.049 A 
ATOM     46  N   UNL A   1      42.306  30.743  29.841  1.00  0.00    -0.248 NA
ATOM     47  C   UNL A   1      41.211  32.465  30.965  1.00  0.00     0.031 C 
ATOM     48  C   UNL A   1      39.038  27.868  30.628  1.00  0.00     0.029 A 
ATOM     49  N   UNL A   1      41.132  28.183  29.911  1.00  0.00    -0.354 N 
ATOM     50  C   UNL A   1      43.069  31.912  29.720  1.00  0.00     0.074 A 
ATOM     51  C   UNL A   1      42.267  32.957  30.331  1.00  0.00     0.031 C 
ATOM     52  C   UNL A   1      39.389  26.791  29.896  1.00  0.00     0.029 A 
ATOM     53  C   UNL A   1      40.709  26.995  29.305  1.00  0.00     0.049 A 
ATOM     54  H   UNL A   1      42.063  28.499  29.888  1.00  0.00     0.167 HD
ATOM     55  C   UNL A   1      44.320  32.119  29.208  1.00  0.00     0.034 A 
ATOM     56  C   UNL A   1      41.236  26.189  28.342  1.00  0.00     0.034 A 
ATOM     57  C   UNL A   1      45.169  31.103  28.619  1.00  0.00     0.049 A 
ATOM     58  C   UNL A   1      42.596  26.430  27.726  1.00  0.00     0.074 A 
ATOM     59  C   UNL A   1      46.530  31.165  28.347  1.00  0.00     0.029 A 
ATOM     60  N   UNL A   1      44.739  29.877  28.148  1.00  0.00    -0.354 N 
ATOM     61  N   UNL A   1      43.369  27.479  27.804  1.00  0.00    -0.248 NA
ATOM     62  C   UNL A   1      43.162  25.333  26.915  1.00  0.00     0.031 C 
ATOM     63  C   UNL A   1      46.908  30.003  27.660  1.00  0.00     0.029 A 
ATOM     64  C   UNL A   1      45.805  29.175  27.591  1.00  0.00     0.049 A 
ATOM     65  H   UNL A   1      43.813  29.548  28.197  1.00  0.00     0.167 HD
ATOM     66  C   UNL A   1      44.549  27.127  27.141  1.00  0.00     0.074 A 
ATOM     67  C   UNL A   1      44.365  25.798  26.613  1.00  0.00     0.031 C 
ATOM     68  C   UNL A   1      45.698  27.841  27.051  1.00  0.00     0.034 A 
BRANCH  55  69
ATOM     69  C   UNL A   1      44.922  33.513  29.330  1.00  0.00     0.023 A 
ATOM     70  C   UNL A   1      44.706  34.475  28.330  1.00  0.00     0.031 A 
ATOM     71  C   UNL A   1      45.664  33.914  30.459  1.00  0.00     0.131 A 
ATOM     72  C   UNL A   1      45.322  35.731  28.406  1.00  0.00     0.055 A 
ATOM     73  C   UNL A   1      46.180  35.210  30.584  1.00  0.00     0.041 A 
ATOM     74  F   UNL A   1      45.897  33.061  31.469  1.00  0.00    -0.206 F 
ATOM     75  C   UNL A   1      46.032  36.120  29.541  1.00  0.00     0.022 A 
BRANCH  72  76
ATOM     76  S   UNL A   1      45.314  36.765  26.920  1.00  0.00     0.124 S 
ATOM     77  O   UNL A   1      46.030  35.916  25.970  1.00  0.00    -0.237 OA
ATOM     78  O   UNL A   1      43.887  36.941  26.664  1.00  0.00    -0.237 OA
ATOM     79  O   UNL A   1      46.029  37.969  27.334  1.00  0.00    -0.744 OA
ENDBRANCH  72  76
ENDBRANCH  55  69
BRANCH  56  80
ATOM     80  C   UNL A   1      40.486  25.003  27.801  1.00  0.00     0.023 A 
ATOM     81  C   UNL A   1      41.020  23.709  27.887  1.00  0.00     0.031 A 
ATOM     82  C   UNL A   1      39.354  25.173  26.985  1.00  0.00     0.131 A 
ATOM     83  C   UNL A   1      40.408  22.653  27.185  1.00  0.00     0.055 A 
ATOM     84  C   UNL A   1      38.673  24.103  26.400  1.00  0.00     0.041 A 
ATOM     85  F   UNL A   1      38.972  26.401  26.619  1.00  0.00    -0.206 F 
ATOM     86  C   UNL A   1      39.207  22.826  26.495  1.00  0.00     0.022 A 
BRANCH  83  87
ATOM     87  S   UNL A   1      41.305  21.085  27.021  1.00  0.00     0.124 S 
ATOM     88  O   UNL A   1      42.686  21.527  27.148  1.00  0.00    -0.237 OA
ATOM     89  O   UNL A   1      40.771  20.310  28.137  1.00  0.00    -0.237 OA
ATOM     90  O   UNL A   1      40.917  20.609  25.695  1.00  0.00    -0.744 OA
ENDBRANCH  83  87
ENDBRANCH  56  80
BRANCH  68  91
ATOM     91  C   UNL A   1      46.936  27.145  26.519  1.00  0.00     0.023 A 
ATOM     92  C   UNL A   1      47.882  26.498  27.335  1.00  0.00     0.031 A 
ATOM     93  C   UNL A   1      47.184  27.168  25.131  1.00  0.00     0.131 A 
ATOM     94  C   UNL A   1      49.045  25.945  26.764  1.00  0.00     0.055 A 
ATOM     95  C   UNL A   1      48.309  26.564  24.563  1.00  0.00     0.041 A 
ATOM     96  F   UNL A   1      46.336  27.788  24.295  1.00  0.00    -0.206 F 
ATOM     97  C   UNL A   1      49.253  25.957  25.382  1.00  0.00     0.022 A 
BRANCH  94  98
ATOM     98  S   UNL A   1      50.342  25.284  27.852  1.00  0.00     0.124 S 
ATOM     99  O   UNL A   1      50.500  26.360  28.826  1.00  0.00    -0.237 OA
ATOM    100  O   UNL A   1      49.737  24.055  28.351  1.00  0.00    -0.237 OA
ATOM    101  O   UNL A   1      51.481  25.090  26.954  1.00  0.00    -0.744 OA
ENDBRANCH  94  98
ENDBRANCH  68  91
ENDBRANCH  42  43
ENDBRANCH  34  37
ENDBRANCH  32  33
ENDBRANCH   1  32
TORSDOF 16
ENDMDL
