MODEL 1
REMARK VINA RESULT:     -13.3      0.000      0.000
REMARK SMILES CN1C(=O)/C(=C\c2ccc(-c3ccccc3C(=O)NCCCNC(=O)c3ccc(-c4c5nc(c(-c6cc(S(=O)(=O)[O-])ccc6F)c6ccc([nH]6)c(-c6cc(S(=O)(=O)[O-])ccc6F)c6nc(c(-c7cc(S(=O)(=O)[O-])ccc7F)c7ccc4[nH]7)C=C6)C=C5)cc3)o2)C(=O)[NH+]=C1S
REMARK SMILES IDX 21 1 20 2 19 3 17 4 18 5 16 7 11 8 12 9 13 10 15 11 14 12
REMARK SMILES IDX 10 13 7 14 8 15 89 16 9 17 6 18 1 19 2 20 3 21 93 22 4 23
REMARK SMILES IDX 5 24 92 25 90 26 91 28 94 29 22 31 23 32 24 33 25 35 26 36
REMARK SMILES IDX 27 37 88 38 28 39 87 40 29 41 30 42 31 43 81 44 32 45 86 46
REMARK SMILES IDX 80 47 82 48 33 49 85 50 79 51 78 52 34 54 66 55 46 56 65 57
REMARK SMILES IDX 47 58 50 59 64 60 83 61 48 62 49 63 63 65 84 66 51 67 35 68
REMARK SMILES IDX 36 69 44 70 37 71 43 72 45 73 42 74 38 75 39 76 40 77 41 78
REMARK SMILES IDX 67 79 68 80 76 81 69 82 75 83 77 84 74 85 70 86 71 87 72 88
REMARK SMILES IDX 73 89 52 90 53 91 61 92 54 93 60 94 62 95 59 96 55 97 56 98
REMARK SMILES IDX 57 99 58 100
REMARK H PARENT 19 6 92 27 94 30 23 34 82 53 50 64
REMARK Flexibility Score: inf
ROOT
ATOM      1  C   UNL A   1      32.854  29.984  25.597  1.00  0.00     0.042 C 
ENDROOT
BRANCH   1   2
ATOM      2  C   UNL A   1      33.584  28.675  25.846  1.00  0.00     0.118 C 
BRANCH   2   3
ATOM      3  N   UNL A   1      33.591  27.815  24.691  1.00  0.00    -0.352 N 
ATOM      4  C   UNL A   1      32.727  27.297  23.781  1.00  0.00     0.252 C 
ATOM      5  O   UNL A   1      33.342  26.724  22.865  1.00  0.00    -0.269 OA
ATOM      6  H   UNL A   1      34.507  27.508  24.503  1.00  0.00     0.163 HD
BRANCH   4   7
ATOM      7  C   UNL A   1      31.221  27.291  23.719  1.00  0.00     0.050 A 
ATOM      8  C   UNL A   1      30.241  26.427  24.242  1.00  0.00     0.030 A 
ATOM      9  C   UNL A   1      28.870  26.663  23.934  1.00  0.00     0.013 A 
ATOM     10  C   UNL A   1      28.445  27.736  23.157  1.00  0.00     0.001 A 
ATOM     11  C   UNL A   1      30.739  28.382  22.934  1.00  0.00     0.014 A 
ATOM     12  C   UNL A   1      29.388  28.610  22.662  1.00  0.00     0.001 A 
BRANCH   8  13
ATOM     13  C   UNL A   1      30.417  25.330  25.169  1.00  0.00     0.135 A 
ATOM     14  C   UNL A   1      30.933  23.204  25.626  1.00  0.00     0.128 A 
ATOM     15  C   UNL A   1      30.310  23.759  26.740  1.00  0.00     0.051 A 
ATOM     16  O   UNL A   1      31.018  24.210  24.678  1.00  0.00    -0.457 OA
ATOM     17  C   UNL A   1      29.892  25.068  26.412  1.00  0.00     0.051 A 
BRANCH  14  18
ATOM     18  C   UNL A   1      31.491  21.910  25.404  1.00  0.00     0.071 C 
ATOM     19  C   UNL A   1      36.059  23.217  26.094  1.00  0.00     0.301 C 
ATOM     20  N   UNL A   1      35.070  22.182  25.814  1.00  0.00    -0.189 N 
ATOM     21  C   UNL A   1      33.792  22.394  26.274  1.00  0.00     0.349 C 
ATOM     22  C   UNL A   1      35.377  20.976  25.232  1.00  0.00     0.318 C 
ATOM     23  O   UNL A   1      33.522  23.180  27.178  1.00  0.00    -0.240 OA
ATOM     24  C   UNL A   1      32.770  21.549  25.634  1.00  0.00     0.157 C 
ATOM     25  N   UNL A   1      34.534  20.046  24.956  1.00  0.00    -0.200 N 
ATOM     26  C   UNL A   1      33.196  20.209  25.174  1.00  0.00     0.347 C 
ATOM     27  H   UNL A   1      34.861  19.198  24.578  1.00  0.00     0.316 HD
ATOM     28  O   UNL A   1      32.379  19.322  24.961  1.00  0.00    -0.241 OA
BRANCH  22  29
ATOM     29  S   UNL A   1      37.049  20.642  24.849  1.00  0.00    -0.055 SA
ATOM     30  H   UNL A   1      37.597  19.884  25.836  1.00  0.00     0.116 HD
ENDBRANCH  22  29
ENDBRANCH  14  18
ENDBRANCH   8  13
ENDBRANCH   4   7
ENDBRANCH   2   3
ENDBRANCH   1   2
BRANCH   1  31
ATOM     31  C   UNL A   1      32.124  30.497  26.833  1.00  0.00     0.118 C 
BRANCH  31  32
ATOM     32  N   UNL A   1      32.199  31.945  27.002  1.00  0.00    -0.352 N 
ATOM     33  C   UNL A   1      33.181  32.745  27.536  1.00  0.00     0.251 C 
ATOM     34  H   UNL A   1      31.408  32.433  26.678  1.00  0.00     0.163 HD
ATOM     35  O   UNL A   1      32.947  33.943  27.680  1.00  0.00    -0.269 OA
BRANCH  33  36
ATOM     36  C   UNL A   1      34.472  32.181  27.996  1.00  0.00     0.039 A 
ATOM     37  C   UNL A   1      35.612  32.992  27.943  1.00  0.00     0.014 A 
ATOM     38  C   UNL A   1      34.579  30.884  28.495  1.00  0.00     0.014 A 
ATOM     39  C   UNL A   1      36.815  32.544  28.494  1.00  0.00     0.010 A 
ATOM     40  C   UNL A   1      35.741  30.485  29.147  1.00  0.00     0.010 A 
ATOM     41  C   UNL A   1      36.872  31.313  29.165  1.00  0.00    -0.014 A 
BRANCH  41  42
ATOM     42  C   UNL A   1      38.084  30.872  29.910  1.00  0.00     0.031 A 
ATOM     43  C   UNL A   1      39.022  29.869  29.292  1.00  0.00     0.074 A 
ATOM     44  C   UNL A   1      38.275  31.285  31.180  1.00  0.00     0.049 A 
ATOM     45  N   UNL A   1      40.016  29.218  29.839  1.00  0.00    -0.248 NA
ATOM     46  C   UNL A   1      38.778  29.520  27.885  1.00  0.00     0.031 C 
ATOM     47  C   UNL A   1      37.407  32.215  31.904  1.00  0.00     0.029 A 
ATOM     48  N   UNL A   1      39.244  30.961  32.097  1.00  0.00    -0.354 N 
ATOM     49  C   UNL A   1      40.491  28.356  28.855  1.00  0.00     0.074 A 
ATOM     50  C   UNL A   1      39.635  28.527  27.701  1.00  0.00     0.031 C 
ATOM     51  C   UNL A   1      37.892  32.405  33.140  1.00  0.00     0.029 A 
ATOM     52  C   UNL A   1      39.068  31.564  33.323  1.00  0.00     0.049 A 
ATOM     53  H   UNL A   1      39.994  30.356  31.897  1.00  0.00     0.167 HD
ATOM     54  C   UNL A   1      41.558  27.520  28.903  1.00  0.00     0.034 A 
ATOM     55  C   UNL A   1      39.755  31.430  34.475  1.00  0.00     0.034 A 
ATOM     56  C   UNL A   1      42.419  27.393  30.054  1.00  0.00     0.049 A 
ATOM     57  C   UNL A   1      40.926  30.484  34.510  1.00  0.00     0.074 A 
ATOM     58  C   UNL A   1      43.573  26.642  30.186  1.00  0.00     0.029 A 
ATOM     59  N   UNL A   1      42.219  28.033  31.271  1.00  0.00    -0.354 N 
ATOM     60  N   UNL A   1      41.394  29.713  33.555  1.00  0.00    -0.248 NA
ATOM     61  C   UNL A   1      41.665  30.388  35.776  1.00  0.00     0.031 C 
ATOM     62  C   UNL A   1      44.033  26.775  31.502  1.00  0.00     0.029 A 
ATOM     63  C   UNL A   1      43.209  27.667  32.170  1.00  0.00     0.049 A 
ATOM     64  H   UNL A   1      41.482  28.656  31.466  1.00  0.00     0.167 HD
ATOM     65  C   UNL A   1      42.495  29.061  34.098  1.00  0.00     0.074 A 
ATOM     66  C   UNL A   1      42.631  29.540  35.459  1.00  0.00     0.031 C 
ATOM     67  C   UNL A   1      43.321  28.149  33.526  1.00  0.00     0.034 A 
BRANCH  54  68
ATOM     68  C   UNL A   1      41.832  26.670  27.685  1.00  0.00     0.023 A 
ATOM     69  C   UNL A   1      41.445  25.320  27.624  1.00  0.00     0.031 A 
ATOM     70  C   UNL A   1      42.521  27.205  26.581  1.00  0.00     0.131 A 
ATOM     71  C   UNL A   1      41.822  24.530  26.528  1.00  0.00     0.055 A 
ATOM     72  C   UNL A   1      42.816  26.436  25.453  1.00  0.00     0.041 A 
ATOM     73  F   UNL A   1      42.935  28.482  26.586  1.00  0.00    -0.206 F 
ATOM     74  C   UNL A   1      42.482  25.084  25.430  1.00  0.00     0.022 A 
BRANCH  71  75
ATOM     75  S   UNL A   1      41.573  22.736  26.630  1.00  0.00     0.124 S 
ATOM     76  O   UNL A   1      42.342  22.401  27.827  1.00  0.00    -0.237 OA
ATOM     77  O   UNL A   1      40.124  22.625  26.750  1.00  0.00    -0.237 OA
ATOM     78  O   UNL A   1      42.137  22.239  25.377  1.00  0.00    -0.744 OA
ENDBRANCH  71  75
ENDBRANCH  54  68
BRANCH  55  79
ATOM     79  C   UNL A   1      39.346  32.187  35.694  1.00  0.00     0.023 A 
ATOM     80  C   UNL A   1      38.568  31.581  36.692  1.00  0.00     0.031 A 
ATOM     81  C   UNL A   1      39.699  33.539  35.863  1.00  0.00     0.131 A 
ATOM     82  C   UNL A   1      38.132  32.333  37.795  1.00  0.00     0.055 A 
ATOM     83  C   UNL A   1      39.309  34.267  36.989  1.00  0.00     0.041 A 
ATOM     84  F   UNL A   1      40.438  34.169  34.937  1.00  0.00    -0.206 F 
ATOM     85  C   UNL A   1      38.510  33.668  37.957  1.00  0.00     0.022 A 
BRANCH  82  86
ATOM     86  S   UNL A   1      36.987  31.563  38.972  1.00  0.00     0.124 S 
ATOM     87  O   UNL A   1      36.799  30.241  38.386  1.00  0.00    -0.237 OA
ATOM     88  O   UNL A   1      37.750  31.612  40.215  1.00  0.00    -0.237 OA
ATOM     89  O   UNL A   1      35.815  32.436  38.929  1.00  0.00    -0.744 OA
ENDBRANCH  82  86
ENDBRANCH  55  79
BRANCH  67  90
ATOM     90  C   UNL A   1      44.470  27.646  34.363  1.00  0.00     0.023 A 
ATOM     91  C   UNL A   1      44.373  26.460  35.111  1.00  0.00     0.031 A 
ATOM     92  C   UNL A   1      45.677  28.363  34.407  1.00  0.00     0.131 A 
ATOM     93  C   UNL A   1      45.452  26.048  35.905  1.00  0.00     0.055 A 
ATOM     94  C   UNL A   1      46.768  27.919  35.155  1.00  0.00     0.041 A 
ATOM     95  F   UNL A   1      45.821  29.503  33.712  1.00  0.00    -0.206 F 
ATOM     96  C   UNL A   1      46.656  26.760  35.918  1.00  0.00     0.022 A 
BRANCH  93  97
ATOM     97  S   UNL A   1      45.243  24.602  36.980  1.00  0.00     0.124 S 
ATOM     98  O   UNL A   1      46.621  24.155  37.158  1.00  0.00    -0.237 OA
ATOM     99  O   UNL A   1      44.602  25.176  38.158  1.00  0.00    -0.237 OA
ATOM    100  O   UNL A   1      44.398  23.707  36.191  1.00  0.00    -0.744 OA
ENDBRANCH  93  97
ENDBRANCH  67  90
ENDBRANCH  41  42
ENDBRANCH  33  36
ENDBRANCH  31  32
ENDBRANCH   1  31
TORSDOF 16
ENDMDL
MODEL 2
REMARK VINA RESULT:     -13.2      1.436      1.651
REMARK SMILES CN1C(=O)/C(=C\c2ccc(-c3ccccc3C(=O)NCCCNC(=O)c3ccc(-c4c5nc(c(-c6cc(S(=O)(=O)[O-])ccc6F)c6ccc([nH]6)c(-c6cc(S(=O)(=O)[O-])ccc6F)c6nc(c(-c7cc(S(=O)(=O)[O-])ccc7F)c7ccc4[nH]7)C=C6)C=C5)cc3)o2)C(=O)[NH+]=C1S
REMARK SMILES IDX 21 1 20 2 19 3 17 4 18 5 16 7 11 8 12 9 13 10 15 11 14 12
REMARK SMILES IDX 10 13 7 14 8 15 89 16 9 17 6 18 1 19 2 20 3 21 93 22 4 23
REMARK SMILES IDX 5 24 92 25 90 26 91 28 94 29 22 31 23 32 24 33 25 35 26 36
REMARK SMILES IDX 27 37 88 38 28 39 87 40 29 41 30 42 31 43 81 44 32 45 86 46
REMARK SMILES IDX 80 47 82 48 33 49 85 50 79 51 78 52 34 54 66 55 46 56 65 57
REMARK SMILES IDX 47 58 50 59 64 60 83 61 48 62 49 63 63 65 84 66 51 67 35 68
REMARK SMILES IDX 36 69 44 70 37 71 43 72 45 73 42 74 38 75 39 76 40 77 41 78
REMARK SMILES IDX 67 79 68 80 76 81 69 82 75 83 77 84 74 85 70 86 71 87 72 88
REMARK SMILES IDX 73 89 52 90 53 91 61 92 54 93 60 94 62 95 59 96 55 97 56 98
REMARK SMILES IDX 57 99 58 100
REMARK H PARENT 19 6 92 27 94 30 23 34 82 53 50 64
REMARK Flexibility Score: inf
ROOT
ATOM      1  C   UNL A   1      31.790  29.607  27.085  1.00  0.00     0.042 C 
ENDROOT
BRANCH   1   2
ATOM      2  C   UNL A   1      32.760  28.456  27.290  1.00  0.00     0.118 C 
BRANCH   2   3
ATOM      3  N   UNL A   1      33.161  27.842  26.051  1.00  0.00    -0.352 N 
ATOM      4  C   UNL A   1      32.615  27.396  24.892  1.00  0.00     0.252 C 
ATOM      5  O   UNL A   1      33.500  27.098  24.072  1.00  0.00    -0.269 OA
ATOM      6  H   UNL A   1      34.136  27.704  26.042  1.00  0.00     0.163 HD
BRANCH   4   7
ATOM      7  C   UNL A   1      31.181  27.197  24.471  1.00  0.00     0.050 A 
ATOM      8  C   UNL A   1      30.264  26.145  24.647  1.00  0.00     0.030 A 
ATOM      9  C   UNL A   1      28.974  26.237  24.047  1.00  0.00     0.013 A 
ATOM     10  C   UNL A   1      28.562  27.345  23.313  1.00  0.00     0.001 A 
ATOM     11  C   UNL A   1      30.712  28.316  23.717  1.00  0.00     0.014 A 
ATOM     12  C   UNL A   1      29.435  28.398  23.156  1.00  0.00     0.001 A 
BRANCH   8  13
ATOM     13  C   UNL A   1      30.409  24.959  25.464  1.00  0.00     0.135 A 
ATOM     14  C   UNL A   1      31.023  22.829  25.749  1.00  0.00     0.128 A 
ATOM     15  C   UNL A   1      30.230  23.211  26.828  1.00  0.00     0.051 A 
ATOM     16  O   UNL A   1      31.146  23.943  24.935  1.00  0.00    -0.457 OA
ATOM     17  C   UNL A   1      29.758  24.522  26.593  1.00  0.00     0.051 A 
BRANCH  14  18
ATOM     18  C   UNL A   1      31.699  21.606  25.461  1.00  0.00     0.071 C 
ATOM     19  C   UNL A   1      36.128  23.304  26.203  1.00  0.00     0.301 C 
ATOM     20  N   UNL A   1      35.240  22.195  25.873  1.00  0.00    -0.189 N 
ATOM     21  C   UNL A   1      33.951  22.262  26.348  1.00  0.00     0.349 C 
ATOM     22  C   UNL A   1      35.654  21.054  25.231  1.00  0.00     0.318 C 
ATOM     23  O   UNL A   1      33.614  22.973  27.290  1.00  0.00    -0.240 OA
ATOM     24  C   UNL A   1      33.008  21.357  25.669  1.00  0.00     0.157 C 
ATOM     25  N   UNL A   1      34.900  20.063  24.911  1.00  0.00    -0.200 N 
ATOM     26  C   UNL A   1      33.555  20.088  25.141  1.00  0.00     0.347 C 
ATOM     27  H   UNL A   1      35.303  19.269  24.491  1.00  0.00     0.316 HD
ATOM     28  O   UNL A   1      32.824  19.139  24.887  1.00  0.00    -0.241 OA
BRANCH  22  29
ATOM     29  S   UNL A   1      37.347  20.899  24.827  1.00  0.00    -0.055 SA
ATOM     30  H   UNL A   1      37.794  22.064  24.288  1.00  0.00     0.116 HD
ENDBRANCH  22  29
ENDBRANCH  14  18
ENDBRANCH   8  13
ENDBRANCH   4   7
ENDBRANCH   2   3
ENDBRANCH   1   2
BRANCH   1  31
ATOM     31  C   UNL A   1      32.340  30.684  26.158  1.00  0.00     0.118 C 
BRANCH  31  32
ATOM     32  N   UNL A   1      32.201  32.039  26.682  1.00  0.00    -0.352 N 
ATOM     33  C   UNL A   1      33.016  32.780  27.504  1.00  0.00     0.251 C 
ATOM     34  H   UNL A   1      31.380  32.503  26.398  1.00  0.00     0.163 HD
ATOM     35  O   UNL A   1      32.609  33.868  27.908  1.00  0.00    -0.269 OA
BRANCH  33  36
ATOM     36  C   UNL A   1      34.329  32.264  27.959  1.00  0.00     0.039 A 
ATOM     37  C   UNL A   1      35.422  33.140  27.973  1.00  0.00     0.014 A 
ATOM     38  C   UNL A   1      34.501  30.950  28.388  1.00  0.00     0.014 A 
ATOM     39  C   UNL A   1      36.639  32.730  28.522  1.00  0.00     0.010 A 
ATOM     40  C   UNL A   1      35.673  30.581  29.041  1.00  0.00     0.010 A 
ATOM     41  C   UNL A   1      36.754  31.469  29.127  1.00  0.00    -0.014 A 
BRANCH  41  42
ATOM     42  C   UNL A   1      37.976  31.056  29.870  1.00  0.00     0.031 A 
ATOM     43  C   UNL A   1      38.915  30.042  29.271  1.00  0.00     0.074 A 
ATOM     44  C   UNL A   1      38.177  31.504  31.127  1.00  0.00     0.049 A 
ATOM     45  N   UNL A   1      39.919  29.412  29.825  1.00  0.00    -0.248 NA
ATOM     46  C   UNL A   1      38.659  29.653  27.876  1.00  0.00     0.031 C 
ATOM     47  C   UNL A   1      37.311  32.448  31.835  1.00  0.00     0.029 A 
ATOM     48  N   UNL A   1      39.158  31.211  32.043  1.00  0.00    -0.354 N 
ATOM     49  C   UNL A   1      40.389  28.527  28.859  1.00  0.00     0.074 A 
ATOM     50  C   UNL A   1      39.520  28.661  27.710  1.00  0.00     0.031 C 
ATOM     51  C   UNL A   1      37.808  32.674  33.060  1.00  0.00     0.029 A 
ATOM     52  C   UNL A   1      38.990  31.845  33.254  1.00  0.00     0.049 A 
ATOM     53  H   UNL A   1      39.910  30.605  31.851  1.00  0.00     0.167 HD
ATOM     54  C   UNL A   1      41.462  27.700  28.919  1.00  0.00     0.034 A 
ATOM     55  C   UNL A   1      39.690  31.747  34.402  1.00  0.00     0.034 A 
ATOM     56  C   UNL A   1      42.336  27.609  30.063  1.00  0.00     0.049 A 
ATOM     57  C   UNL A   1      40.868  30.810  34.450  1.00  0.00     0.074 A 
ATOM     58  C   UNL A   1      43.495  26.868  30.205  1.00  0.00     0.029 A 
ATOM     59  N   UNL A   1      42.144  28.280  31.265  1.00  0.00    -0.354 N 
ATOM     60  N   UNL A   1      41.331  30.016  33.511  1.00  0.00    -0.248 NA
ATOM     61  C   UNL A   1      41.620  30.753  35.710  1.00  0.00     0.031 C 
ATOM     62  C   UNL A   1      43.968  27.040  31.511  1.00  0.00     0.029 A 
ATOM     63  C   UNL A   1      43.145  27.945  32.163  1.00  0.00     0.049 A 
ATOM     64  H   UNL A   1      41.404  28.904  31.451  1.00  0.00     0.167 HD
ATOM     65  C   UNL A   1      42.441  29.385  34.061  1.00  0.00     0.074 A 
ATOM     66  C   UNL A   1      42.588  29.902  35.407  1.00  0.00     0.031 C 
ATOM     67  C   UNL A   1      43.268  28.464  33.505  1.00  0.00     0.034 A 
BRANCH  54  68
ATOM     68  C   UNL A   1      41.729  26.819  27.721  1.00  0.00     0.023 A 
ATOM     69  C   UNL A   1      41.311  25.477  27.683  1.00  0.00     0.031 A 
ATOM     70  C   UNL A   1      42.442  27.315  26.615  1.00  0.00     0.131 A 
ATOM     71  C   UNL A   1      41.681  24.656  26.608  1.00  0.00     0.055 A 
ATOM     72  C   UNL A   1      42.731  26.516  25.506  1.00  0.00     0.041 A 
ATOM     73  F   UNL A   1      42.886  28.581  26.599  1.00  0.00    -0.206 F 
ATOM     74  C   UNL A   1      42.366  25.172  25.506  1.00  0.00     0.022 A 
BRANCH  71  75
ATOM     75  S   UNL A   1      41.389  22.871  26.744  1.00  0.00     0.124 S 
ATOM     76  O   UNL A   1      42.138  22.362  25.596  1.00  0.00    -0.237 OA
ATOM     77  O   UNL A   1      41.942  22.560  28.056  1.00  0.00    -0.237 OA
ATOM     78  O   UNL A   1      39.936  22.751  26.632  1.00  0.00    -0.744 OA
ENDBRANCH  71  75
ENDBRANCH  54  68
BRANCH  55  79
ATOM     79  C   UNL A   1      39.289  32.534  35.604  1.00  0.00     0.023 A 
ATOM     80  C   UNL A   1      39.720  33.859  35.776  1.00  0.00     0.031 A 
ATOM     81  C   UNL A   1      38.496  31.963  36.616  1.00  0.00     0.131 A 
ATOM     82  C   UNL A   1      39.392  34.557  36.949  1.00  0.00     0.055 A 
ATOM     83  C   UNL A   1      38.126  32.679  37.756  1.00  0.00     0.041 A 
ATOM     84  F   UNL A   1      38.060  30.698  36.505  1.00  0.00    -0.206 F 
ATOM     85  C   UNL A   1      38.586  33.980  37.934  1.00  0.00     0.022 A 
BRANCH  82  86
ATOM     86  S   UNL A   1      40.111  36.201  37.211  1.00  0.00     0.124 S 
ATOM     87  O   UNL A   1      41.475  35.871  37.609  1.00  0.00    -0.237 OA
ATOM     88  O   UNL A   1      39.957  36.814  35.895  1.00  0.00    -0.237 OA
ATOM     89  O   UNL A   1      39.276  36.775  38.265  1.00  0.00    -0.744 OA
ENDBRANCH  82  86
ENDBRANCH  55  79
BRANCH  67  90
ATOM     90  C   UNL A   1      44.428  27.990  34.343  1.00  0.00     0.023 A 
ATOM     91  C   UNL A   1      44.337  26.841  35.146  1.00  0.00     0.031 A 
ATOM     92  C   UNL A   1      45.641  28.699  34.333  1.00  0.00     0.131 A 
ATOM     93  C   UNL A   1      45.427  26.457  35.939  1.00  0.00     0.055 A 
ATOM     94  C   UNL A   1      46.742  28.282  35.081  1.00  0.00     0.041 A 
ATOM     95  F   UNL A   1      45.780  29.806  33.584  1.00  0.00    -0.206 F 
ATOM     96  C   UNL A   1      46.636  27.159  35.898  1.00  0.00     0.022 A 
BRANCH  93  97
ATOM     97  S   UNL A   1      45.228  25.063  37.082  1.00  0.00     0.124 S 
ATOM     98  O   UNL A   1      46.208  25.378  38.117  1.00  0.00    -0.237 OA
ATOM     99  O   UNL A   1      43.827  25.177  37.474  1.00  0.00    -0.237 OA
ATOM    100  O   UNL A   1      45.547  23.897  36.260  1.00  0.00    -0.744 OA
ENDBRANCH  93  97
ENDBRANCH  67  90
ENDBRANCH  41  42
ENDBRANCH  33  36
ENDBRANCH  31  32
ENDBRANCH   1  31
TORSDOF 16
ENDMDL
MODEL 3
REMARK VINA RESULT:     -13.1      1.968      2.621
REMARK SMILES CN1C(=O)/C(=C\c2ccc(-c3ccccc3C(=O)NCCCNC(=O)c3ccc(-c4c5nc(c(-c6cc(S(=O)(=O)[O-])ccc6F)c6ccc([nH]6)c(-c6cc(S(=O)(=O)[O-])ccc6F)c6nc(c(-c7cc(S(=O)(=O)[O-])ccc7F)c7ccc4[nH]7)C=C6)C=C5)cc3)o2)C(=O)[NH+]=C1S
REMARK SMILES IDX 21 1 20 2 19 3 17 4 18 5 16 7 11 8 12 9 13 10 15 11 14 12
REMARK SMILES IDX 10 13 7 14 8 15 89 16 9 17 6 18 1 19 2 20 3 21 93 22 4 23
REMARK SMILES IDX 5 24 92 25 90 26 91 28 94 29 22 31 23 32 24 33 25 35 26 36
REMARK SMILES IDX 27 37 88 38 28 39 87 40 29 41 30 42 31 43 81 44 32 45 86 46
REMARK SMILES IDX 80 47 82 48 33 49 85 50 79 51 78 52 34 54 66 55 46 56 65 57
REMARK SMILES IDX 47 58 50 59 64 60 83 61 48 62 49 63 63 65 84 66 51 67 35 68
REMARK SMILES IDX 36 69 44 70 37 71 43 72 45 73 42 74 38 75 39 76 40 77 41 78
REMARK SMILES IDX 67 79 68 80 76 81 69 82 75 83 77 84 74 85 70 86 71 87 72 88
REMARK SMILES IDX 73 89 52 90 53 91 61 92 54 93 60 94 62 95 59 96 55 97 56 98
REMARK SMILES IDX 57 99 58 100
REMARK H PARENT 19 6 92 27 94 30 23 34 82 53 50 64
REMARK Flexibility Score: inf
ROOT
ATOM      1  C   UNL A   1      32.148  30.959  26.890  1.00  0.00     0.042 C 
ENDROOT
BRANCH   1   2
ATOM      2  C   UNL A   1      32.517  29.495  27.062  1.00  0.00     0.118 C 
BRANCH   2   3
ATOM      3  N   UNL A   1      32.977  28.892  25.838  1.00  0.00    -0.352 N 
ATOM      4  C   UNL A   1      32.494  28.491  24.635  1.00  0.00     0.252 C 
ATOM      5  O   UNL A   1      33.420  28.177  23.868  1.00  0.00    -0.269 OA
ATOM      6  H   UNL A   1      33.945  28.717  25.890  1.00  0.00     0.163 HD
BRANCH   4   7
ATOM      7  C   UNL A   1      31.084  28.356  24.116  1.00  0.00     0.050 A 
ATOM      8  C   UNL A   1      30.282  27.247  23.792  1.00  0.00     0.030 A 
ATOM      9  C   UNL A   1      28.985  27.463  23.240  1.00  0.00     0.013 A 
ATOM     10  C   UNL A   1      28.457  28.734  23.034  1.00  0.00     0.001 A 
ATOM     11  C   UNL A   1      30.498  29.639  23.894  1.00  0.00     0.014 A 
ATOM     12  C   UNL A   1      29.216  29.831  23.374  1.00  0.00     0.001 A 
BRANCH   8  13
ATOM     13  C   UNL A   1      30.553  25.845  24.030  1.00  0.00     0.135 A 
ATOM     14  C   UNL A   1      31.676  24.204  25.050  1.00  0.00     0.128 A 
ATOM     15  C   UNL A   1      30.977  23.663  23.975  1.00  0.00     0.051 A 
ATOM     16  O   UNL A   1      31.368  25.555  25.082  1.00  0.00    -0.457 OA
ATOM     17  C   UNL A   1      30.354  24.716  23.271  1.00  0.00     0.051 A 
BRANCH  14  18
ATOM     18  C   UNL A   1      32.504  23.597  26.041  1.00  0.00     0.071 C 
ATOM     19  C   UNL A   1      36.331  23.017  23.200  1.00  0.00     0.301 C 
ATOM     20  N   UNL A   1      35.699  22.890  24.509  1.00  0.00    -0.189 N 
ATOM     21  C   UNL A   1      34.675  23.762  24.798  1.00  0.00     0.349 C 
ATOM     22  C   UNL A   1      36.148  22.042  25.490  1.00  0.00     0.318 C 
ATOM     23  O   UNL A   1      34.507  24.826  24.208  1.00  0.00    -0.240 OA
ATOM     24  C   UNL A   1      33.823  23.343  25.924  1.00  0.00     0.157 C 
ATOM     25  N   UNL A   1      35.611  21.891  26.648  1.00  0.00    -0.200 N 
ATOM     26  C   UNL A   1      34.464  22.547  26.993  1.00  0.00     0.347 C 
ATOM     27  H   UNL A   1      36.036  21.289  27.301  1.00  0.00     0.316 HD
ATOM     28  O   UNL A   1      33.959  22.455  28.104  1.00  0.00    -0.241 OA
BRANCH  22  29
ATOM     29  S   UNL A   1      37.584  21.097  25.176  1.00  0.00    -0.055 SA
ATOM     30  H   UNL A   1      37.744  20.948  23.834  1.00  0.00     0.116 HD
ENDBRANCH  22  29
ENDBRANCH  14  18
ENDBRANCH   8  13
ENDBRANCH   4   7
ENDBRANCH   2   3
ENDBRANCH   1   2
BRANCH   1  31
ATOM     31  C   UNL A   1      33.283  31.901  27.273  1.00  0.00     0.118 C 
BRANCH  31  32
ATOM     32  N   UNL A   1      32.842  33.256  27.591  1.00  0.00    -0.352 N 
ATOM     33  C   UNL A   1      33.298  34.163  28.517  1.00  0.00     0.251 C 
ATOM     34  H   UNL A   1      32.085  33.575  27.048  1.00  0.00     0.163 HD
ATOM     35  O   UNL A   1      32.667  35.206  28.677  1.00  0.00    -0.269 OA
BRANCH  33  36
ATOM     36  C   UNL A   1      34.482  33.875  29.363  1.00  0.00     0.039 A 
ATOM     37  C   UNL A   1      34.306  33.103  30.517  1.00  0.00     0.014 A 
ATOM     38  C   UNL A   1      35.756  34.331  29.033  1.00  0.00     0.014 A 
ATOM     39  C   UNL A   1      35.416  32.697  31.262  1.00  0.00     0.010 A 
ATOM     40  C   UNL A   1      36.867  33.831  29.705  1.00  0.00     0.010 A 
ATOM     41  C   UNL A   1      36.713  32.999  30.822  1.00  0.00    -0.014 A 
BRANCH  41  42
ATOM     42  C   UNL A   1      37.925  32.447  31.489  1.00  0.00     0.031 A 
ATOM     43  C   UNL A   1      38.702  31.335  30.836  1.00  0.00     0.074 A 
ATOM     44  C   UNL A   1      38.253  32.865  32.729  1.00  0.00     0.049 A 
ATOM     45  N   UNL A   1      39.661  30.593  31.329  1.00  0.00    -0.248 NA
ATOM     46  C   UNL A   1      38.318  30.983  29.461  1.00  0.00     0.031 C 
ATOM     47  C   UNL A   1      37.546  33.899  33.486  1.00  0.00     0.029 A 
ATOM     48  N   UNL A   1      39.249  32.459  33.583  1.00  0.00    -0.354 N 
ATOM     49  C   UNL A   1      39.967  29.664  30.339  1.00  0.00     0.074 A 
ATOM     50  C   UNL A   1      39.048  29.900  29.245  1.00  0.00     0.031 C 
ATOM     51  C   UNL A   1      38.141  34.063  34.678  1.00  0.00     0.029 A 
ATOM     52  C   UNL A   1      39.231  33.105  34.800  1.00  0.00     0.049 A 
ATOM     53  H   UNL A   1      39.914  31.773  33.347  1.00  0.00     0.167 HD
ATOM     54  C   UNL A   1      40.940  28.720  30.334  1.00  0.00     0.034 A 
ATOM     55  C   UNL A   1      39.986  32.924  35.902  1.00  0.00     0.034 A 
ATOM     56  C   UNL A   1      41.868  28.527  31.423  1.00  0.00     0.049 A 
ATOM     57  C   UNL A   1      41.050  31.858  35.881  1.00  0.00     0.074 A 
ATOM     58  C   UNL A   1      42.942  27.659  31.494  1.00  0.00     0.029 A 
ATOM     59  N   UNL A   1      41.829  29.211  32.631  1.00  0.00    -0.354 N 
ATOM     60  N   UNL A   1      41.360  31.020  34.917  1.00  0.00    -0.248 NA
ATOM     61  C   UNL A   1      41.868  31.712  37.092  1.00  0.00     0.031 C 
ATOM     62  C   UNL A   1      43.512  27.771  32.768  1.00  0.00     0.029 A 
ATOM     63  C   UNL A   1      42.839  28.761  33.466  1.00  0.00     0.049 A 
ATOM     64  H   UNL A   1      41.178  29.914  32.861  1.00  0.00     0.167 HD
ATOM     65  C   UNL A   1      42.424  30.265  35.399  1.00  0.00     0.074 A 
ATOM     66  C   UNL A   1      42.712  30.757  36.731  1.00  0.00     0.031 C 
ATOM     67  C   UNL A   1      43.104  29.258  34.796  1.00  0.00     0.034 A 
BRANCH  54  68
ATOM     68  C   UNL A   1      41.031  27.818  29.126  1.00  0.00     0.023 A 
ATOM     69  C   UNL A   1      42.019  27.999  28.143  1.00  0.00     0.031 A 
ATOM     70  C   UNL A   1      40.097  26.784  28.934  1.00  0.00     0.131 A 
ATOM     71  C   UNL A   1      42.000  27.220  26.976  1.00  0.00     0.055 A 
ATOM     72  C   UNL A   1      40.137  25.954  27.812  1.00  0.00     0.041 A 
ATOM     73  F   UNL A   1      39.117  26.573  29.827  1.00  0.00    -0.206 F 
ATOM     74  C   UNL A   1      41.082  26.181  26.815  1.00  0.00     0.022 A 
BRANCH  71  75
ATOM     75  S   UNL A   1      43.095  27.688  25.607  1.00  0.00     0.124 S 
ATOM     76  O   UNL A   1      42.156  28.323  24.684  1.00  0.00    -0.237 OA
ATOM     77  O   UNL A   1      44.050  28.577  26.257  1.00  0.00    -0.237 OA
ATOM     78  O   UNL A   1      43.639  26.411  25.150  1.00  0.00    -0.744 OA
ENDBRANCH  71  75
ENDBRANCH  54  68
BRANCH  55  79
ATOM     79  C   UNL A   1      39.752  33.747  37.124  1.00  0.00     0.023 A 
ATOM     80  C   UNL A   1      39.033  33.233  38.214  1.00  0.00     0.031 A 
ATOM     81  C   UNL A   1      40.215  35.073  37.207  1.00  0.00     0.131 A 
ATOM     82  C   UNL A   1      38.761  34.049  39.323  1.00  0.00     0.055 A 
ATOM     83  C   UNL A   1      39.989  35.864  38.336  1.00  0.00     0.041 A 
ATOM     84  F   UNL A   1      40.903  35.617  36.191  1.00  0.00    -0.206 F 
ATOM     85  C   UNL A   1      39.247  35.357  39.397  1.00  0.00     0.022 A 
BRANCH  82  86
ATOM     86  S   UNL A   1      37.684  33.405  40.633  1.00  0.00     0.124 S 
ATOM     87  O   UNL A   1      37.459  34.594  41.447  1.00  0.00    -0.237 OA
ATOM     88  O   UNL A   1      36.535  32.921  39.872  1.00  0.00    -0.237 OA
ATOM     89  O   UNL A   1      38.494  32.363  41.260  1.00  0.00    -0.744 OA
ENDBRANCH  82  86
ENDBRANCH  55  79
BRANCH  67  90
ATOM     90  C   UNL A   1      44.252  28.653  35.562  1.00  0.00     0.023 A 
ATOM     91  C   UNL A   1      44.059  27.597  36.468  1.00  0.00     0.031 A 
ATOM     92  C   UNL A   1      45.558  29.140  35.377  1.00  0.00     0.131 A 
ATOM     93  C   UNL A   1      45.150  27.088  37.187  1.00  0.00     0.055 A 
ATOM     94  C   UNL A   1      46.648  28.594  36.054  1.00  0.00     0.041 A 
ATOM     95  F   UNL A   1      45.796  30.150  34.525  1.00  0.00    -0.206 F 
ATOM     96  C   UNL A   1      46.446  27.567  36.973  1.00  0.00     0.022 A 
BRANCH  93  97
ATOM     97  S   UNL A   1      44.847  25.834  38.462  1.00  0.00     0.124 S 
ATOM     98  O   UNL A   1      44.086  26.588  39.453  1.00  0.00    -0.237 OA
ATOM     99  O   UNL A   1      44.104  24.814  37.729  1.00  0.00    -0.237 OA
ATOM    100  O   UNL A   1      46.190  25.439  38.881  1.00  0.00    -0.744 OA
ENDBRANCH  93  97
ENDBRANCH  67  90
ENDBRANCH  41  42
ENDBRANCH  33  36
ENDBRANCH  31  32
ENDBRANCH   1  31
TORSDOF 16
ENDMDL
