MODEL 1
REMARK VINA RESULT:     -13.4      0.000      0.000
REMARK SMILES CC1(C)S[C@@H]2[C@H]([NH2+]Cn3nnc4ccccc43)C(=O)N2[C@@H]1C(=O)NCCCNC(=O)c1ccc(-c2c3nc(c(-c4cc(S(=O)(=O)[O-])ccc4F)c4ccc([nH]4)c(-c4cc(S(=O)(=O)[O-])ccc4F)c4nc(c(-c5cc(S(=O)(=O)[O-])ccc5F)c5ccc2[nH]5)C=C4)C=C3)cc1
REMARK SMILES IDX 26 1 25 2 24 3 22 4 23 5 21 7 1 8 2 9 3 10 4 11 5 12 20 13
REMARK SMILES IDX 6 14 18 15 19 16 7 17 8 20 9 21 10 22 17 23 11 24 12 25
REMARK SMILES IDX 16 26 13 27 15 28 14 29 27 30 28 31 29 32 30 34 31 35 32 36
REMARK SMILES IDX 93 37 33 38 92 39 34 40 35 41 36 42 86 43 37 44 91 45 85 46
REMARK SMILES IDX 87 47 38 48 90 49 84 50 83 51 39 53 71 54 51 55 70 56 52 57
REMARK SMILES IDX 55 58 69 59 88 60 53 61 54 62 68 64 89 65 56 66 40 67 41 68
REMARK SMILES IDX 49 69 42 70 48 71 50 72 47 73 43 74 44 75 45 76 46 77 72 78
REMARK SMILES IDX 73 79 81 80 74 81 80 82 82 83 79 84 75 85 76 86 77 87 78 88
REMARK SMILES IDX 57 89 58 90 66 91 59 92 65 93 67 94 64 95 60 96 61 97 62 98
REMARK SMILES IDX 63 99
REMARK H PARENT 24 6 7 18 7 19 28 33 87 52 55 63
REMARK Flexibility Score: inf
ROOT
ATOM      1  C   UNL A   1      32.390  29.401  26.811  1.00  0.00     0.042 C 
ENDROOT
BRANCH   1   2
ATOM      2  C   UNL A   1      32.134  28.177  27.709  1.00  0.00     0.117 C 
BRANCH   2   3
ATOM      3  N   UNL A   1      31.165  27.214  27.190  1.00  0.00    -0.354 N 
ATOM      4  C   UNL A   1      31.205  26.365  26.119  1.00  0.00     0.244 C 
ATOM      5  O   UNL A   1      30.416  25.408  26.155  1.00  0.00    -0.273 OA
ATOM      6  H   UNL A   1      30.328  27.168  27.709  1.00  0.00     0.163 HD
BRANCH   4   7
ATOM      7  C   UNL A   1      32.234  26.424  24.958  1.00  0.00     0.191 C 
ATOM      8  C   UNL A   1      30.211  27.376  23.579  1.00  0.00     0.026 C 
ATOM      9  C   UNL A   1      31.702  27.030  23.616  1.00  0.00     0.042 C 
ATOM     10  C   UNL A   1      32.518  28.252  23.162  1.00  0.00     0.026 C 
ATOM     11  S   UNL A   1      32.022  25.771  22.271  1.00  0.00    -0.121 SA
ATOM     12  C   UNL A   1      33.248  24.886  23.249  1.00  0.00     0.213 C 
ATOM     13  N   UNL A   1      32.784  25.149  24.595  1.00  0.00    -0.306 N 
ATOM     14  C   UNL A   1      33.259  23.378  23.648  1.00  0.00     0.307 C 
ATOM     15  C   UNL A   1      33.351  24.064  25.141  1.00  0.00     0.285 C 
ATOM     16  O   UNL A   1      33.608  23.795  26.284  1.00  0.00    -0.268 OA
BRANCH  14  17
ATOM     17  N   UNL A   1      32.005  22.594  23.520  1.00  0.00    -0.315 N 
ATOM     18  H   UNL A   1      31.342  23.146  22.976  1.00  0.00     0.348 HD
ATOM     19  H   UNL A   1      31.688  22.404  24.471  1.00  0.00     0.348 HD
BRANCH  17  20
ATOM     20  C   UNL A   1      32.156  21.296  22.870  1.00  0.00     0.415 C 
BRANCH  20  21
ATOM     21  N   UNL A   1      32.273  20.276  23.904  1.00  0.00    -0.194 N 
ATOM     22  N   UNL A   1      32.099  20.633  25.183  1.00  0.00    -0.061 NA
ATOM     23  C   UNL A   1      32.672  18.966  23.781  1.00  0.00     0.095 A 
ATOM     24  N   UNL A   1      32.426  19.587  25.922  1.00  0.00    -0.130 NA
ATOM     25  C   UNL A   1      32.729  18.542  25.102  1.00  0.00     0.113 A 
ATOM     26  C   UNL A   1      33.012  18.124  22.713  1.00  0.00     0.030 A 
ATOM     27  C   UNL A   1      33.084  17.218  25.395  1.00  0.00     0.032 A 
ATOM     28  C   UNL A   1      33.422  16.821  23.035  1.00  0.00     0.002 A 
ATOM     29  C   UNL A   1      33.447  16.367  24.352  1.00  0.00     0.002 A 
ENDBRANCH  20  21
ENDBRANCH  17  20
ENDBRANCH  14  17
ENDBRANCH   4   7
ENDBRANCH   2   3
ENDBRANCH   1   2
BRANCH   1  30
ATOM     30  C   UNL A   1      33.835  29.879  26.662  1.00  0.00     0.118 C 
BRANCH  30  31
ATOM     31  N   UNL A   1      34.123  31.155  27.292  1.00  0.00    -0.352 N 
ATOM     32  C   UNL A   1      35.272  31.775  27.712  1.00  0.00     0.251 C 
ATOM     33  H   UNL A   1      33.314  31.693  27.453  1.00  0.00     0.163 HD
ATOM     34  O   UNL A   1      35.249  33.009  27.634  1.00  0.00    -0.269 OA
BRANCH  32  35
ATOM     35  C   UNL A   1      36.442  31.124  28.377  1.00  0.00     0.039 A 
ATOM     36  C   UNL A   1      37.455  31.769  29.081  1.00  0.00     0.014 A 
ATOM     37  C   UNL A   1      36.600  29.746  28.099  1.00  0.00     0.014 A 
ATOM     38  C   UNL A   1      38.648  31.083  29.364  1.00  0.00     0.010 A 
ATOM     39  C   UNL A   1      37.801  29.076  28.342  1.00  0.00     0.010 A 
ATOM     40  C   UNL A   1      38.865  29.771  28.897  1.00  0.00    -0.014 A 
BRANCH  40  41
ATOM     41  C   UNL A   1      40.199  29.161  29.067  1.00  0.00     0.031 A 
ATOM     42  C   UNL A   1      40.504  28.782  30.471  1.00  0.00     0.074 A 
ATOM     43  C   UNL A   1      41.065  28.811  28.088  1.00  0.00     0.049 A 
ATOM     44  N   UNL A   1      41.471  29.185  31.230  1.00  0.00    -0.248 NA
ATOM     45  C   UNL A   1      39.520  27.924  31.146  1.00  0.00     0.031 C 
ATOM     46  C   UNL A   1      40.839  28.802  26.644  1.00  0.00     0.029 A 
ATOM     47  N   UNL A   1      42.324  28.273  28.185  1.00  0.00    -0.354 N 
ATOM     48  C   UNL A   1      41.309  28.510  32.438  1.00  0.00     0.074 A 
ATOM     49  C   UNL A   1      40.013  27.881  32.380  1.00  0.00     0.031 C 
ATOM     50  C   UNL A   1      41.801  28.079  26.029  1.00  0.00     0.029 A 
ATOM     51  C   UNL A   1      42.779  27.665  27.018  1.00  0.00     0.049 A 
ATOM     52  H   UNL A   1      42.859  28.313  29.011  1.00  0.00     0.167 HD
ATOM     53  C   UNL A   1      42.320  28.355  33.337  1.00  0.00     0.034 A 
ATOM     54  C   UNL A   1      43.812  26.791  26.882  1.00  0.00     0.034 A 
ATOM     55  C   UNL A   1      43.396  29.276  33.102  1.00  0.00     0.049 A 
ATOM     56  C   UNL A   1      44.690  26.915  28.068  1.00  0.00     0.074 A 
ATOM     57  C   UNL A   1      43.494  30.654  33.081  1.00  0.00     0.029 A 
ATOM     58  N   UNL A   1      44.534  28.815  32.484  1.00  0.00    -0.354 N 
ATOM     59  N   UNL A   1      45.462  27.935  28.312  1.00  0.00    -0.248 NA
ATOM     60  C   UNL A   1      44.372  26.076  29.213  1.00  0.00     0.031 C 
ATOM     61  C   UNL A   1      44.406  30.943  32.030  1.00  0.00     0.029 A 
ATOM     62  C   UNL A   1      44.858  29.728  31.513  1.00  0.00     0.049 A 
ATOM     63  H   UNL A   1      45.023  27.988  32.699  1.00  0.00     0.167 HD
ATOM     64  C   UNL A   1      45.328  28.140  29.676  1.00  0.00     0.074 A 
ATOM     65  C   UNL A   1      44.725  26.911  30.191  1.00  0.00     0.031 C 
ATOM     66  C   UNL A   1      45.440  29.382  30.232  1.00  0.00     0.034 A 
BRANCH  53  67
ATOM     67  C   UNL A   1      42.427  27.169  34.262  1.00  0.00     0.023 A 
ATOM     68  C   UNL A   1      43.206  26.039  33.947  1.00  0.00     0.031 A 
ATOM     69  C   UNL A   1      41.917  27.216  35.572  1.00  0.00     0.131 A 
ATOM     70  C   UNL A   1      43.402  24.998  34.860  1.00  0.00     0.055 A 
ATOM     71  C   UNL A   1      42.179  26.213  36.515  1.00  0.00     0.041 A 
ATOM     72  F   UNL A   1      41.188  28.262  35.993  1.00  0.00    -0.206 F 
ATOM     73  C   UNL A   1      42.919  25.091  36.158  1.00  0.00     0.022 A 
BRANCH  70  74
ATOM     74  S   UNL A   1      44.286  23.497  34.353  1.00  0.00     0.124 S 
ATOM     75  O   UNL A   1      44.217  22.685  35.563  1.00  0.00    -0.237 OA
ATOM     76  O   UNL A   1      43.469  23.036  33.233  1.00  0.00    -0.237 OA
ATOM     77  O   UNL A   1      45.611  23.988  33.987  1.00  0.00    -0.744 OA
ENDBRANCH  70  74
ENDBRANCH  53  67
BRANCH  54  78
ATOM     78  C   UNL A   1      43.774  25.532  26.087  1.00  0.00     0.023 A 
ATOM     79  C   UNL A   1      42.847  24.526  26.419  1.00  0.00     0.031 A 
ATOM     80  C   UNL A   1      44.830  25.168  25.231  1.00  0.00     0.131 A 
ATOM     81  C   UNL A   1      43.015  23.213  25.963  1.00  0.00     0.055 A 
ATOM     82  C   UNL A   1      44.989  23.856  24.762  1.00  0.00     0.041 A 
ATOM     83  F   UNL A   1      45.774  26.061  24.894  1.00  0.00    -0.206 F 
ATOM     84  C   UNL A   1      44.086  22.867  25.141  1.00  0.00     0.022 A 
BRANCH  81  85
ATOM     85  S   UNL A   1      41.874  21.916  26.517  1.00  0.00     0.124 S 
ATOM     86  O   UNL A   1      40.569  22.484  26.183  1.00  0.00    -0.237 OA
ATOM     87  O   UNL A   1      42.294  20.783  25.701  1.00  0.00    -0.237 OA
ATOM     88  O   UNL A   1      42.148  21.809  27.946  1.00  0.00    -0.744 OA
ENDBRANCH  81  85
ENDBRANCH  54  78
BRANCH  66  89
ATOM     89  C   UNL A   1      45.934  30.541  29.389  1.00  0.00     0.023 A 
ATOM     90  C   UNL A   1      45.008  31.137  28.511  1.00  0.00     0.031 A 
ATOM     91  C   UNL A   1      47.287  30.901  29.239  1.00  0.00     0.131 A 
ATOM     92  C   UNL A   1      45.441  32.006  27.503  1.00  0.00     0.055 A 
ATOM     93  C   UNL A   1      47.706  31.828  28.278  1.00  0.00     0.041 A 
ATOM     94  F   UNL A   1      48.257  30.309  29.949  1.00  0.00    -0.206 F 
ATOM     95  C   UNL A   1      46.784  32.371  27.391  1.00  0.00     0.022 A 
BRANCH  92  96
ATOM     96  S   UNL A   1      44.298  32.544  26.205  1.00  0.00     0.124 S 
ATOM     97  O   UNL A   1      45.204  32.847  25.100  1.00  0.00    -0.237 OA
ATOM     98  O   UNL A   1      43.458  31.361  26.018  1.00  0.00    -0.237 OA
ATOM     99  O   UNL A   1      43.616  33.697  26.786  1.00  0.00    -0.744 OA
ENDBRANCH  92  96
ENDBRANCH  66  89
ENDBRANCH  40  41
ENDBRANCH  32  35
ENDBRANCH  30  31
ENDBRANCH   1  30
TORSDOF 16
ENDMDL
MODEL 2
REMARK VINA RESULT:     -12.7      3.375      9.333
REMARK SMILES CC1(C)S[C@@H]2[C@H]([NH2+]Cn3nnc4ccccc43)C(=O)N2[C@@H]1C(=O)NCCCNC(=O)c1ccc(-c2c3nc(c(-c4cc(S(=O)(=O)[O-])ccc4F)c4ccc([nH]4)c(-c4cc(S(=O)(=O)[O-])ccc4F)c4nc(c(-c5cc(S(=O)(=O)[O-])ccc5F)c5ccc2[nH]5)C=C4)C=C3)cc1
REMARK SMILES IDX 26 1 25 2 24 3 22 4 23 5 21 7 1 8 2 9 3 10 4 11 5 12 20 13
REMARK SMILES IDX 6 14 18 15 19 16 7 17 8 20 9 21 10 22 17 23 11 24 12 25
REMARK SMILES IDX 16 26 13 27 15 28 14 29 27 30 28 31 29 32 30 34 31 35 32 36
REMARK SMILES IDX 93 37 33 38 92 39 34 40 35 41 36 42 86 43 37 44 91 45 85 46
REMARK SMILES IDX 87 47 38 48 90 49 84 50 83 51 39 53 71 54 51 55 70 56 52 57
REMARK SMILES IDX 55 58 69 59 88 60 53 61 54 62 68 64 89 65 56 66 40 67 41 68
REMARK SMILES IDX 49 69 42 70 48 71 50 72 47 73 43 74 44 75 45 76 46 77 72 78
REMARK SMILES IDX 73 79 81 80 74 81 80 82 82 83 79 84 75 85 76 86 77 87 78 88
REMARK SMILES IDX 57 89 58 90 66 91 59 92 65 93 67 94 64 95 60 96 61 97 62 98
REMARK SMILES IDX 63 99
REMARK H PARENT 24 6 7 18 7 19 28 33 87 52 55 63
REMARK Flexibility Score: inf
ROOT
ATOM      1  C   UNL A   1      37.011  22.427  24.347  1.00  0.00     0.042 C 
ENDROOT
BRANCH   1   2
ATOM      2  C   UNL A   1      35.581  21.866  24.231  1.00  0.00     0.117 C 
BRANCH   2   3
ATOM      3  N   UNL A   1      34.704  22.580  23.305  1.00  0.00    -0.354 N 
ATOM      4  C   UNL A   1      33.792  23.580  23.500  1.00  0.00     0.244 C 
ATOM      5  O   UNL A   1      33.490  24.243  22.495  1.00  0.00    -0.273 OA
ATOM      6  H   UNL A   1      34.786  22.287  22.368  1.00  0.00     0.163 HD
BRANCH   4   7
ATOM      7  C   UNL A   1      33.226  24.032  24.873  1.00  0.00     0.191 C 
ATOM      8  C   UNL A   1      31.960  21.731  24.798  1.00  0.00     0.026 C 
ATOM      9  C   UNL A   1      32.293  22.998  25.590  1.00  0.00     0.042 C 
ATOM     10  C   UNL A   1      32.816  22.606  26.982  1.00  0.00     0.026 C 
ATOM     11  S   UNL A   1      30.681  23.870  25.962  1.00  0.00    -0.121 SA
ATOM     12  C   UNL A   1      31.404  25.508  25.776  1.00  0.00     0.213 C 
ATOM     13  N   UNL A   1      32.464  25.246  24.825  1.00  0.00    -0.306 N 
ATOM     14  C   UNL A   1      30.958  26.658  24.821  1.00  0.00     0.307 C 
ATOM     15  C   UNL A   1      32.529  26.501  24.356  1.00  0.00     0.285 C 
ATOM     16  O   UNL A   1      33.387  27.071  23.737  1.00  0.00    -0.268 OA
BRANCH  14  17
ATOM     17  N   UNL A   1      30.053  26.338  23.689  1.00  0.00    -0.315 N 
ATOM     18  H   UNL A   1      29.762  25.365  23.783  1.00  0.00     0.348 HD
ATOM     19  H   UNL A   1      30.584  26.520  22.838  1.00  0.00     0.348 HD
BRANCH  17  20
ATOM     20  C   UNL A   1      28.853  27.164  23.609  1.00  0.00     0.415 C 
BRANCH  20  21
ATOM     21  N   UNL A   1      29.173  28.364  22.846  1.00  0.00    -0.194 N 
ATOM     22  N   UNL A   1      30.222  28.337  22.014  1.00  0.00    -0.061 NA
ATOM     23  C   UNL A   1      28.615  29.618  22.936  1.00  0.00     0.095 A 
ATOM     24  N   UNL A   1      30.403  29.574  21.584  1.00  0.00    -0.130 NA
ATOM     25  C   UNL A   1      29.415  30.367  22.085  1.00  0.00     0.113 A 
ATOM     26  C   UNL A   1      27.558  30.188  23.660  1.00  0.00     0.030 A 
ATOM     27  C   UNL A   1      29.140  31.727  21.886  1.00  0.00     0.032 A 
ATOM     28  C   UNL A   1      27.340  31.564  23.491  1.00  0.00     0.002 A 
ATOM     29  C   UNL A   1      28.108  32.322  22.610  1.00  0.00     0.002 A 
ENDBRANCH  20  21
ENDBRANCH  17  20
ENDBRANCH  14  17
ENDBRANCH   4   7
ENDBRANCH   2   3
ENDBRANCH   1   2
BRANCH   1  30
ATOM     30  C   UNL A   1      37.617  22.530  25.747  1.00  0.00     0.118 C 
BRANCH  30  31
ATOM     31  N   UNL A   1      38.983  22.051  25.855  1.00  0.00    -0.352 N 
ATOM     32  C   UNL A   1      40.061  22.404  26.628  1.00  0.00     0.251 C 
ATOM     33  H   UNL A   1      39.179  21.310  25.238  1.00  0.00     0.163 HD
ATOM     34  O   UNL A   1      40.822  21.470  26.906  1.00  0.00    -0.269 OA
BRANCH  32  35
ATOM     35  C   UNL A   1      40.462  23.791  27.016  1.00  0.00     0.039 A 
ATOM     36  C   UNL A   1      41.562  24.146  27.792  1.00  0.00     0.014 A 
ATOM     37  C   UNL A   1      39.521  24.799  26.697  1.00  0.00     0.014 A 
ATOM     38  C   UNL A   1      41.631  25.434  28.348  1.00  0.00     0.010 A 
ATOM     39  C   UNL A   1      39.568  26.066  27.282  1.00  0.00     0.010 A 
ATOM     40  C   UNL A   1      40.581  26.358  28.185  1.00  0.00    -0.014 A 
BRANCH  40  41
ATOM     41  C   UNL A   1      40.622  27.630  28.933  1.00  0.00     0.031 A 
ATOM     42  C   UNL A   1      41.635  28.589  28.421  1.00  0.00     0.074 A 
ATOM     43  C   UNL A   1      39.769  28.031  29.905  1.00  0.00     0.049 A 
ATOM     44  N   UNL A   1      42.643  29.114  29.039  1.00  0.00    -0.248 NA
ATOM     45  C   UNL A   1      41.571  28.905  26.987  1.00  0.00     0.031 C 
ATOM     46  C   UNL A   1      38.529  27.390  30.338  1.00  0.00     0.029 A 
ATOM     47  N   UNL A   1      39.776  29.181  30.654  1.00  0.00    -0.354 N 
ATOM     48  C   UNL A   1      43.257  29.954  28.114  1.00  0.00     0.074 A 
ATOM     49  C   UNL A   1      42.655  29.660  26.837  1.00  0.00     0.031 C 
ATOM     50  C   UNL A   1      37.796  28.252  31.077  1.00  0.00     0.029 A 
ATOM     51  C   UNL A   1      38.561  29.470  31.270  1.00  0.00     0.049 A 
ATOM     52  H   UNL A   1      40.572  29.753  30.748  1.00  0.00     0.167 HD
ATOM     53  C   UNL A   1      44.091  30.968  28.478  1.00  0.00     0.034 A 
ATOM     54  C   UNL A   1      38.157  30.656  31.799  1.00  0.00     0.034 A 
ATOM     55  C   UNL A   1      44.569  30.816  29.824  1.00  0.00     0.049 A 
ATOM     56  C   UNL A   1      39.354  31.491  32.048  1.00  0.00     0.074 A 
ATOM     57  C   UNL A   1      45.302  29.845  30.478  1.00  0.00     0.029 A 
ATOM     58  N   UNL A   1      44.003  31.583  30.813  1.00  0.00    -0.354 N 
ATOM     59  N   UNL A   1      40.231  31.264  32.985  1.00  0.00    -0.248 NA
ATOM     60  C   UNL A   1      39.803  32.341  30.956  1.00  0.00     0.031 C 
ATOM     61  C   UNL A   1      44.738  29.774  31.782  1.00  0.00     0.029 A 
ATOM     62  C   UNL A   1      43.738  30.743  31.866  1.00  0.00     0.049 A 
ATOM     63  H   UNL A   1      43.822  32.550  30.774  1.00  0.00     0.167 HD
ATOM     64  C   UNL A   1      41.448  31.526  32.377  1.00  0.00     0.074 A 
ATOM     65  C   UNL A   1      41.118  32.276  31.165  1.00  0.00     0.031 C 
ATOM     66  C   UNL A   1      42.590  30.871  32.740  1.00  0.00     0.034 A 
BRANCH  53  67
ATOM     67  C   UNL A   1      44.244  32.237  27.680  1.00  0.00     0.023 A 
ATOM     68  C   UNL A   1      43.609  33.439  28.050  1.00  0.00     0.031 A 
ATOM     69  C   UNL A   1      45.186  32.337  26.640  1.00  0.00     0.131 A 
ATOM     70  C   UNL A   1      43.853  34.642  27.379  1.00  0.00     0.055 A 
ATOM     71  C   UNL A   1      45.492  33.557  26.020  1.00  0.00     0.041 A 
ATOM     72  F   UNL A   1      45.875  31.262  26.226  1.00  0.00    -0.206 F 
ATOM     73  C   UNL A   1      44.817  34.717  26.383  1.00  0.00     0.022 A 
BRANCH  70  74
ATOM     74  S   UNL A   1      42.898  36.126  27.797  1.00  0.00     0.124 S 
ATOM     75  O   UNL A   1      43.938  37.021  28.296  1.00  0.00    -0.237 OA
ATOM     76  O   UNL A   1      42.324  36.483  26.502  1.00  0.00    -0.237 OA
ATOM     77  O   UNL A   1      41.937  35.649  28.786  1.00  0.00    -0.744 OA
ENDBRANCH  70  74
ENDBRANCH  53  67
BRANCH  54  78
ATOM     78  C   UNL A   1      36.820  31.280  31.591  1.00  0.00     0.023 A 
ATOM     79  C   UNL A   1      36.311  31.416  30.285  1.00  0.00     0.031 A 
ATOM     80  C   UNL A   1      36.189  32.027  32.602  1.00  0.00     0.131 A 
ATOM     81  C   UNL A   1      35.265  32.305  30.010  1.00  0.00     0.055 A 
ATOM     82  C   UNL A   1      35.132  32.908  32.327  1.00  0.00     0.041 A 
ATOM     83  F   UNL A   1      36.637  31.978  33.867  1.00  0.00    -0.206 F 
ATOM     84  C   UNL A   1      34.675  33.061  31.022  1.00  0.00     0.022 A 
BRANCH  81  85
ATOM     85  S   UNL A   1      34.722  32.551  28.296  1.00  0.00     0.124 S 
ATOM     86  O   UNL A   1      34.363  31.196  27.885  1.00  0.00    -0.237 OA
ATOM     87  O   UNL A   1      33.606  33.473  28.469  1.00  0.00    -0.237 OA
ATOM     88  O   UNL A   1      35.905  33.099  27.639  1.00  0.00    -0.744 OA
ENDBRANCH  81  85
ENDBRANCH  54  78
BRANCH  66  89
ATOM     89  C   UNL A   1      42.592  29.993  33.976  1.00  0.00     0.023 A 
ATOM     90  C   UNL A   1      43.410  30.395  35.049  1.00  0.00     0.031 A 
ATOM     91  C   UNL A   1      42.038  28.699  34.038  1.00  0.00     0.131 A 
ATOM     92  C   UNL A   1      43.695  29.513  36.097  1.00  0.00     0.055 A 
ATOM     93  C   UNL A   1      42.264  27.847  35.125  1.00  0.00     0.041 A 
ATOM     94  F   UNL A   1      41.338  28.182  33.020  1.00  0.00    -0.206 F 
ATOM     95  C   UNL A   1      43.112  28.245  36.152  1.00  0.00     0.022 A 
BRANCH  92  96
ATOM     96  S   UNL A   1      44.965  29.924  37.321  1.00  0.00     0.124 S 
ATOM     97  O   UNL A   1      44.829  31.373  37.435  1.00  0.00    -0.237 OA
ATOM     98  O   UNL A   1      44.529  29.161  38.490  1.00  0.00    -0.237 OA
ATOM     99  O   UNL A   1      46.209  29.460  36.713  1.00  0.00    -0.744 OA
ENDBRANCH  92  96
ENDBRANCH  66  89
ENDBRANCH  40  41
ENDBRANCH  32  35
ENDBRANCH  30  31
ENDBRANCH   1  30
TORSDOF 16
ENDMDL
MODEL 3
REMARK VINA RESULT:     -12.6      3.325      9.058
REMARK SMILES CC1(C)S[C@@H]2[C@H]([NH2+]Cn3nnc4ccccc43)C(=O)N2[C@@H]1C(=O)NCCCNC(=O)c1ccc(-c2c3nc(c(-c4cc(S(=O)(=O)[O-])ccc4F)c4ccc([nH]4)c(-c4cc(S(=O)(=O)[O-])ccc4F)c4nc(c(-c5cc(S(=O)(=O)[O-])ccc5F)c5ccc2[nH]5)C=C4)C=C3)cc1
REMARK SMILES IDX 26 1 25 2 24 3 22 4 23 5 21 7 1 8 2 9 3 10 4 11 5 12 20 13
REMARK SMILES IDX 6 14 18 15 19 16 7 17 8 20 9 21 10 22 17 23 11 24 12 25
REMARK SMILES IDX 16 26 13 27 15 28 14 29 27 30 28 31 29 32 30 34 31 35 32 36
REMARK SMILES IDX 93 37 33 38 92 39 34 40 35 41 36 42 86 43 37 44 91 45 85 46
REMARK SMILES IDX 87 47 38 48 90 49 84 50 83 51 39 53 71 54 51 55 70 56 52 57
REMARK SMILES IDX 55 58 69 59 88 60 53 61 54 62 68 64 89 65 56 66 40 67 41 68
REMARK SMILES IDX 49 69 42 70 48 71 50 72 47 73 43 74 44 75 45 76 46 77 72 78
REMARK SMILES IDX 73 79 81 80 74 81 80 82 82 83 79 84 75 85 76 86 77 87 78 88
REMARK SMILES IDX 57 89 58 90 66 91 59 92 65 93 67 94 64 95 60 96 61 97 62 98
REMARK SMILES IDX 63 99
REMARK H PARENT 24 6 7 18 7 19 28 33 87 52 55 63
REMARK Flexibility Score: inf
ROOT
ATOM      1  C   UNL A   1      37.961  20.894  24.934  1.00  0.00     0.042 C 
ENDROOT
BRANCH   1   2
ATOM      2  C   UNL A   1      36.597  20.276  25.293  1.00  0.00     0.117 C 
BRANCH   2   3
ATOM      3  N   UNL A   1      35.781  21.061  26.217  1.00  0.00    -0.354 N 
ATOM      4  C   UNL A   1      34.658  21.818  26.026  1.00  0.00     0.244 C 
ATOM      5  O   UNL A   1      33.975  22.043  27.038  1.00  0.00    -0.273 OA
ATOM      6  H   UNL A   1      36.098  21.041  27.149  1.00  0.00     0.163 HD
BRANCH   4   7
ATOM      7  C   UNL A   1      34.107  22.286  24.652  1.00  0.00     0.191 C 
ATOM      8  C   UNL A   1      35.894  24.196  24.896  1.00  0.00     0.026 C 
ATOM      9  C   UNL A   1      34.826  23.529  24.026  1.00  0.00     0.042 C 
ATOM     10  C   UNL A   1      35.417  23.225  22.639  1.00  0.00     0.026 C 
ATOM     11  S   UNL A   1      33.511  24.809  23.666  1.00  0.00    -0.121 SA
ATOM     12  C   UNL A   1      32.174  23.605  23.738  1.00  0.00     0.213 C 
ATOM     13  N   UNL A   1      32.715  22.631  24.662  1.00  0.00    -0.306 N 
ATOM     14  C   UNL A   1      30.906  23.624  24.645  1.00  0.00     0.307 C 
ATOM     15  C   UNL A   1      31.525  22.158  25.060  1.00  0.00     0.285 C 
ATOM     16  O   UNL A   1      31.227  21.134  25.616  1.00  0.00    -0.268 OA
BRANCH  14  17
ATOM     17  N   UNL A   1      30.883  24.524  25.825  1.00  0.00    -0.315 N 
ATOM     18  H   UNL A   1      31.803  24.955  25.912  1.00  0.00     0.348 HD
ATOM     19  H   UNL A   1      30.632  23.942  26.625  1.00  0.00     0.348 HD
BRANCH  17  20
ATOM     20  C   UNL A   1      29.887  25.590  25.766  1.00  0.00     0.415 C 
BRANCH  20  21
ATOM     21  N   UNL A   1      30.506  26.765  25.168  1.00  0.00    -0.194 N 
ATOM     22  N   UNL A   1      29.918  27.332  24.107  1.00  0.00    -0.061 NA
ATOM     23  C   UNL A   1      31.721  27.341  25.457  1.00  0.00     0.095 A 
ATOM     24  N   UNL A   1      30.751  28.252  23.651  1.00  0.00    -0.130 NA
ATOM     25  C   UNL A   1      31.832  28.319  24.477  1.00  0.00     0.113 A 
ATOM     26  C   UNL A   1      32.728  27.120  26.406  1.00  0.00     0.030 A 
ATOM     27  C   UNL A   1      32.955  29.158  24.454  1.00  0.00     0.032 A 
ATOM     28  C   UNL A   1      33.870  27.932  26.326  1.00  0.00     0.002 A 
ATOM     29  C   UNL A   1      33.980  28.944  25.374  1.00  0.00     0.002 A 
ENDBRANCH  20  21
ENDBRANCH  17  20
ENDBRANCH  14  17
ENDBRANCH   4   7
ENDBRANCH   2   3
ENDBRANCH   1   2
BRANCH   1  30
ATOM     30  C   UNL A   1      38.509  21.983  25.858  1.00  0.00     0.118 C 
BRANCH  30  31
ATOM     31  N   UNL A   1      39.766  21.656  26.505  1.00  0.00    -0.352 N 
ATOM     32  C   UNL A   1      40.513  22.244  27.495  1.00  0.00     0.251 C 
ATOM     33  H   UNL A   1      40.173  20.829  26.157  1.00  0.00     0.163 HD
ATOM     34  O   UNL A   1      41.152  21.451  28.197  1.00  0.00    -0.269 OA
BRANCH  32  35
ATOM     35  C   UNL A   1      40.733  23.709  27.691  1.00  0.00     0.039 A 
ATOM     36  C   UNL A   1      41.911  24.316  28.120  1.00  0.00     0.014 A 
ATOM     37  C   UNL A   1      39.571  24.510  27.592  1.00  0.00     0.014 A 
ATOM     38  C   UNL A   1      41.880  25.646  28.572  1.00  0.00     0.010 A 
ATOM     39  C   UNL A   1      39.531  25.818  28.080  1.00  0.00     0.010 A 
ATOM     40  C   UNL A   1      40.669  26.361  28.657  1.00  0.00    -0.014 A 
BRANCH  40  41
ATOM     41  C   UNL A   1      40.664  27.689  29.302  1.00  0.00     0.031 A 
ATOM     42  C   UNL A   1      41.646  28.639  28.717  1.00  0.00     0.074 A 
ATOM     43  C   UNL A   1      39.795  28.135  30.240  1.00  0.00     0.049 A 
ATOM     44  N   UNL A   1      42.633  29.245  29.293  1.00  0.00    -0.248 NA
ATOM     45  C   UNL A   1      41.576  28.838  27.263  1.00  0.00     0.031 C 
ATOM     46  C   UNL A   1      38.576  27.488  30.721  1.00  0.00     0.029 A 
ATOM     47  N   UNL A   1      39.761  29.340  30.896  1.00  0.00    -0.354 N 
ATOM     48  C   UNL A   1      43.221  30.031  28.304  1.00  0.00     0.074 A 
ATOM     49  C   UNL A   1      42.633  29.616  27.054  1.00  0.00     0.031 C 
ATOM     50  C   UNL A   1      37.813  28.380  31.390  1.00  0.00     0.029 A 
ATOM     51  C   UNL A   1      38.535  29.635  31.486  1.00  0.00     0.049 A 
ATOM     52  H   UNL A   1      40.536  29.945  30.945  1.00  0.00     0.167 HD
ATOM     53  C   UNL A   1      44.019  31.098  28.588  1.00  0.00     0.034 A 
ATOM     54  C   UNL A   1      38.088  30.844  31.920  1.00  0.00     0.034 A 
ATOM     55  C   UNL A   1      44.497  31.069  29.941  1.00  0.00     0.049 A 
ATOM     56  C   UNL A   1      39.255  31.736  32.103  1.00  0.00     0.074 A 
ATOM     57  C   UNL A   1      45.261  30.179  30.671  1.00  0.00     0.029 A 
ATOM     58  N   UNL A   1      43.902  31.891  30.867  1.00  0.00    -0.354 N 
ATOM     59  N   UNL A   1      40.136  31.615  33.055  1.00  0.00    -0.248 NA
ATOM     60  C   UNL A   1      39.678  32.514  30.948  1.00  0.00     0.031 C 
ATOM     61  C   UNL A   1      44.696  30.191  31.976  1.00  0.00     0.029 A 
ATOM     62  C   UNL A   1      43.663  31.129  31.983  1.00  0.00     0.049 A 
ATOM     63  H   UNL A   1      43.688  32.846  30.752  1.00  0.00     0.167 HD
ATOM     64  C   UNL A   1      41.346  31.870  32.429  1.00  0.00     0.074 A 
ATOM     65  C   UNL A   1      40.994  32.510  31.162  1.00  0.00     0.031 C 
ATOM     66  C   UNL A   1      42.508  31.285  32.844  1.00  0.00     0.034 A 
BRANCH  53  67
ATOM     67  C   UNL A   1      44.130  32.305  27.692  1.00  0.00     0.023 A 
ATOM     68  C   UNL A   1      43.563  33.549  28.032  1.00  0.00     0.031 A 
ATOM     69  C   UNL A   1      44.976  32.305  26.568  1.00  0.00     0.131 A 
ATOM     70  C   UNL A   1      43.775  34.695  27.260  1.00  0.00     0.055 A 
ATOM     71  C   UNL A   1      45.256  33.469  25.839  1.00  0.00     0.041 A 
ATOM     72  F   UNL A   1      45.597  31.183  26.170  1.00  0.00    -0.206 F 
ATOM     73  C   UNL A   1      44.646  34.672  26.179  1.00  0.00     0.022 A 
BRANCH  70  74
ATOM     74  S   UNL A   1      42.901  36.234  27.656  1.00  0.00     0.124 S 
ATOM     75  O   UNL A   1      43.601  37.201  26.817  1.00  0.00    -0.237 OA
ATOM     76  O   UNL A   1      41.535  35.912  27.247  1.00  0.00    -0.237 OA
ATOM     77  O   UNL A   1      43.094  36.377  29.096  1.00  0.00    -0.744 OA
ENDBRANCH  70  74
ENDBRANCH  53  67
BRANCH  54  78
ATOM     78  C   UNL A   1      36.731  31.404  31.663  1.00  0.00     0.023 A 
ATOM     79  C   UNL A   1      36.262  31.511  30.340  1.00  0.00     0.031 A 
ATOM     80  C   UNL A   1      36.031  32.124  32.648  1.00  0.00     0.131 A 
ATOM     81  C   UNL A   1      35.186  32.349  30.024  1.00  0.00     0.055 A 
ATOM     82  C   UNL A   1      34.944  32.952  32.333  1.00  0.00     0.041 A 
ATOM     83  F   UNL A   1      36.437  32.100  33.927  1.00  0.00    -0.206 F 
ATOM     84  C   UNL A   1      34.526  33.079  31.011  1.00  0.00     0.022 A 
BRANCH  81  85
ATOM     85  S   UNL A   1      34.691  32.562  28.292  1.00  0.00     0.124 S 
ATOM     86  O   UNL A   1      35.912  33.084  27.681  1.00  0.00    -0.237 OA
ATOM     87  O   UNL A   1      34.331  31.200  27.916  1.00  0.00    -0.237 OA
ATOM     88  O   UNL A   1      33.588  33.516  28.368  1.00  0.00    -0.744 OA
ENDBRANCH  81  85
ENDBRANCH  54  78
BRANCH  66  89
ATOM     89  C   UNL A   1      42.536  30.508  34.145  1.00  0.00     0.023 A 
ATOM     90  C   UNL A   1      43.176  31.114  35.242  1.00  0.00     0.031 A 
ATOM     91  C   UNL A   1      42.193  29.147  34.270  1.00  0.00     0.131 A 
ATOM     92  C   UNL A   1      43.501  30.367  36.380  1.00  0.00     0.055 A 
ATOM     93  C   UNL A   1      42.452  28.422  35.440  1.00  0.00     0.041 A 
ATOM     94  F   UNL A   1      41.683  28.451  33.246  1.00  0.00    -0.206 F 
ATOM     95  C   UNL A   1      43.126  29.026  36.494  1.00  0.00     0.022 A 
BRANCH  92  96
ATOM     96  S   UNL A   1      44.570  31.068  37.663  1.00  0.00     0.124 S 
ATOM     97  O   UNL A   1      44.258  30.230  38.817  1.00  0.00    -0.237 OA
ATOM     98  O   UNL A   1      45.904  30.877  37.095  1.00  0.00    -0.237 OA
ATOM     99  O   UNL A   1      44.138  32.459  37.766  1.00  0.00    -0.744 OA
ENDBRANCH  92  96
ENDBRANCH  66  89
ENDBRANCH  40  41
ENDBRANCH  32  35
ENDBRANCH  30  31
ENDBRANCH   1  30
TORSDOF 16
ENDMDL
