MODEL 1
REMARK VINA RESULT:     -11.2      0.000      0.000
REMARK SMILES CCC[C@@H]1SC[C@H](C(=O)NCCCNC(=O)c2ccc(-c3c4nc(c(-c5cc(S(=O)(=O)[O-])ccc5F)c5ccc([nH]5)c(-c5cc(S(=O)(=O)[O-])ccc5F)c5nc(c(-c6cc(S(=O)(=O)[O-])ccc6F)c6ccc3[nH]6)C=C5)C=C4)cc2)N1C(=O)C[NH+]1CCC([NH3+])CC1
REMARK SMILES IDX 11 1 10 2 8 3 9 4 7 6 4 7 5 8 80 9 6 10 3 11 2 12 1 13 81 14
REMARK SMILES IDX 82 15 83 16 84 17 85 18 90 19 86 21 89 22 87 23 88 24 12 28
REMARK SMILES IDX 13 29 14 30 15 31 16 33 17 34 18 35 79 36 19 37 78 38 20 39
REMARK SMILES IDX 21 40 22 41 72 42 23 43 77 44 71 45 73 46 24 47 76 48 70 49
REMARK SMILES IDX 69 50 25 52 57 53 37 54 56 55 38 56 41 57 55 58 74 59 39 60
REMARK SMILES IDX 40 61 54 63 75 64 42 65 26 66 27 67 35 68 28 69 34 70 36 71
REMARK SMILES IDX 33 72 29 73 30 74 31 75 32 76 58 77 59 78 67 79 60 80 66 81
REMARK SMILES IDX 68 82 65 83 61 84 62 85 63 86 64 87 43 88 44 89 52 90 45 91
REMARK SMILES IDX 51 92 53 93 50 94 46 95 47 96 48 97 49 98
REMARK H PARENT 10 5 84 20 88 25 88 26 88 27 14 32 73 51 41 62
REMARK Flexibility Score: inf
ROOT
ATOM      1  C   UNL A   1      33.748  27.924  25.377  1.00  0.00     0.117 C 
ENDROOT
BRANCH   1   2
ATOM      2  N   UNL A   1      33.666  26.694  26.145  1.00  0.00    -0.354 N 
ATOM      3  C   UNL A   1      33.561  25.415  25.669  1.00  0.00     0.243 C 
ATOM      4  O   UNL A   1      33.058  24.569  26.410  1.00  0.00    -0.273 OA
ATOM      5  H   UNL A   1      33.689  26.792  27.125  1.00  0.00     0.163 HD
BRANCH   3   6
ATOM      6  C   UNL A   1      34.107  25.085  24.265  1.00  0.00     0.185 C 
ATOM      7  C   UNL A   1      33.531  23.226  22.781  1.00  0.00     0.144 C 
ATOM      8  S   UNL A   1      34.683  22.515  23.986  1.00  0.00    -0.134 SA
ATOM      9  N   UNL A   1      33.125  24.563  23.271  1.00  0.00    -0.313 N 
ATOM     10  C   UNL A   1      35.289  24.124  24.459  1.00  0.00     0.107 C 
BRANCH   7  11
ATOM     11  C   UNL A   1      32.418  22.188  22.548  1.00  0.00     0.036 C 
BRANCH  11  12
ATOM     12  C   UNL A   1      32.483  21.030  23.569  1.00  0.00    -0.000 C 
ATOM     13  C   UNL A   1      32.253  19.664  22.948  1.00  0.00     0.004 C 
ENDBRANCH  11  12
ENDBRANCH   7  11
BRANCH   9  14
ATOM     14  C   UNL A   1      32.786  25.500  22.265  1.00  0.00     0.279 C 
ATOM     15  O   UNL A   1      33.651  25.859  21.459  1.00  0.00    -0.268 OA
BRANCH  14  16
ATOM     16  C   UNL A   1      31.358  26.143  22.269  1.00  0.00     0.363 C 
BRANCH  16  17
ATOM     17  N   UNL A   1      31.054  26.843  23.542  1.00  0.00    -0.327 N 
ATOM     18  C   UNL A   1      30.855  28.270  23.349  1.00  0.00     0.268 C 
ATOM     19  C   UNL A   1      29.916  26.312  24.313  1.00  0.00     0.268 C 
ATOM     20  H   UNL A   1      31.892  26.667  24.096  1.00  0.00     0.348 HD
ATOM     21  C   UNL A   1      29.578  28.603  22.579  1.00  0.00     0.126 C 
ATOM     22  C   UNL A   1      28.510  26.702  23.821  1.00  0.00     0.126 C 
ATOM     23  C   UNL A   1      28.390  28.182  23.428  1.00  0.00     0.192 C 
BRANCH  23  24
ATOM     24  N   UNL A   1      27.133  28.441  22.732  1.00  0.00    -0.355 N 
ATOM     25  H   UNL A   1      26.829  29.396  22.924  1.00  0.00     0.344 HD
ATOM     26  H   UNL A   1      26.422  27.786  23.060  1.00  0.00     0.344 HD
ATOM     27  H   UNL A   1      27.269  28.323  21.729  1.00  0.00     0.344 HD
ENDBRANCH  23  24
ENDBRANCH  16  17
ENDBRANCH  14  16
ENDBRANCH   9  14
ENDBRANCH   3   6
ENDBRANCH   1   2
BRANCH   1  28
ATOM     28  C   UNL A   1      34.387  29.006  26.234  1.00  0.00     0.042 C 
BRANCH  28  29
ATOM     29  C   UNL A   1      33.432  29.575  27.269  1.00  0.00     0.118 C 
BRANCH  29  30
ATOM     30  N   UNL A   1      33.569  31.018  27.367  1.00  0.00    -0.352 N 
ATOM     31  C   UNL A   1      34.477  31.757  28.088  1.00  0.00     0.251 C 
ATOM     32  H   UNL A   1      32.921  31.540  26.842  1.00  0.00     0.163 HD
ATOM     33  O   UNL A   1      34.249  32.944  28.292  1.00  0.00    -0.269 OA
BRANCH  31  34
ATOM     34  C   UNL A   1      35.703  31.120  28.624  1.00  0.00     0.039 A 
ATOM     35  C   UNL A   1      35.581  30.030  29.490  1.00  0.00     0.014 A 
ATOM     36  C   UNL A   1      36.971  31.615  28.306  1.00  0.00     0.014 A 
ATOM     37  C   UNL A   1      36.728  29.415  29.999  1.00  0.00     0.010 A 
ATOM     38  C   UNL A   1      38.110  30.940  28.730  1.00  0.00     0.010 A 
ATOM     39  C   UNL A   1      38.003  29.848  29.603  1.00  0.00    -0.014 A 
BRANCH  39  40
ATOM     40  C   UNL A   1      39.241  29.210  30.119  1.00  0.00     0.031 A 
ATOM     41  C   UNL A   1      39.872  29.718  31.390  1.00  0.00     0.074 A 
ATOM     42  C   UNL A   1      39.836  28.228  29.416  1.00  0.00     0.049 A 
ATOM     43  N   UNL A   1      40.997  29.368  31.959  1.00  0.00    -0.248 NA
ATOM     44  C   UNL A   1      39.156  30.795  32.090  1.00  0.00     0.031 C 
ATOM     45  C   UNL A   1      39.340  27.673  28.155  1.00  0.00     0.029 A 
ATOM     46  N   UNL A   1      40.988  27.524  29.659  1.00  0.00    -0.354 N 
ATOM     47  C   UNL A   1      41.136  30.200  33.066  1.00  0.00     0.074 A 
ATOM     48  C   UNL A   1      40.019  31.120  33.037  1.00  0.00     0.031 C 
ATOM     49  C   UNL A   1      40.161  26.687  27.757  1.00  0.00     0.029 A 
ATOM     50  C   UNL A   1      41.267  26.576  28.704  1.00  0.00     0.049 A 
ATOM     51  H   UNL A   1      41.560  27.684  30.444  1.00  0.00     0.167 HD
ATOM     52  C   UNL A   1      42.091  30.182  34.031  1.00  0.00     0.034 A 
ATOM     53  C   UNL A   1      42.300  25.717  28.599  1.00  0.00     0.034 A 
ATOM     54  C   UNL A   1      43.189  29.244  34.046  1.00  0.00     0.049 A 
ATOM     55  C   UNL A   1      43.371  25.736  29.658  1.00  0.00     0.074 A 
ATOM     56  C   UNL A   1      44.178  29.087  35.000  1.00  0.00     0.029 A 
ATOM     57  N   UNL A   1      43.450  28.310  33.048  1.00  0.00    -0.354 N 
ATOM     58  N   UNL A   1      43.468  26.495  30.726  1.00  0.00    -0.248 NA
ATOM     59  C   UNL A   1      44.472  24.778  29.497  1.00  0.00     0.031 C 
ATOM     60  C   UNL A   1      45.078  28.116  34.544  1.00  0.00     0.029 A 
ATOM     61  C   UNL A   1      44.607  27.603  33.346  1.00  0.00     0.049 A 
ATOM     62  H   UNL A   1      42.896  28.171  32.247  1.00  0.00     0.167 HD
ATOM     63  C   UNL A   1      44.622  26.079  31.384  1.00  0.00     0.074 A 
ATOM     64  C   UNL A   1      45.182  25.000  30.594  1.00  0.00     0.031 C 
ATOM     65  C   UNL A   1      45.165  26.540  32.541  1.00  0.00     0.034 A 
BRANCH  52  66
ATOM     66  C   UNL A   1      41.997  31.232  35.117  1.00  0.00     0.023 A 
ATOM     67  C   UNL A   1      40.907  31.283  36.006  1.00  0.00     0.031 A 
ATOM     68  C   UNL A   1      42.968  32.244  35.220  1.00  0.00     0.131 A 
ATOM     69  C   UNL A   1      40.753  32.379  36.869  1.00  0.00     0.055 A 
ATOM     70  C   UNL A   1      42.864  33.275  36.157  1.00  0.00     0.041 A 
ATOM     71  F   UNL A   1      44.024  32.266  34.391  1.00  0.00    -0.206 F 
ATOM     72  C   UNL A   1      41.739  33.361  36.971  1.00  0.00     0.022 A 
BRANCH  69  73
ATOM     73  S   UNL A   1      39.153  32.606  37.695  1.00  0.00     0.124 S 
ATOM     74  O   UNL A   1      39.563  32.792  39.085  1.00  0.00    -0.237 OA
ATOM     75  O   UNL A   1      38.616  33.783  37.023  1.00  0.00    -0.237 OA
ATOM     76  O   UNL A   1      38.448  31.355  37.426  1.00  0.00    -0.744 OA
ENDBRANCH  69  73
ENDBRANCH  52  66
BRANCH  53  77
ATOM     77  C   UNL A   1      42.363  24.757  27.463  1.00  0.00     0.023 A 
ATOM     78  C   UNL A   1      41.606  23.576  27.482  1.00  0.00     0.031 A 
ATOM     79  C   UNL A   1      43.182  25.001  26.346  1.00  0.00     0.131 A 
ATOM     80  C   UNL A   1      41.705  22.665  26.420  1.00  0.00     0.055 A 
ATOM     81  C   UNL A   1      43.240  24.114  25.270  1.00  0.00     0.041 A 
ATOM     82  F   UNL A   1      43.921  26.118  26.279  1.00  0.00    -0.206 F 
ATOM     83  C   UNL A   1      42.505  22.932  25.307  1.00  0.00     0.022 A 
BRANCH  80  84
ATOM     84  S   UNL A   1      40.808  21.092  26.540  1.00  0.00     0.124 S 
ATOM     85  O   UNL A   1      40.800  20.864  27.980  1.00  0.00    -0.237 OA
ATOM     86  O   UNL A   1      39.523  21.429  25.936  1.00  0.00    -0.237 OA
ATOM     87  O   UNL A   1      41.635  20.170  25.765  1.00  0.00    -0.744 OA
ENDBRANCH  80  84
ENDBRANCH  53  77
BRANCH  65  88
ATOM     88  C   UNL A   1      46.406  25.841  33.042  1.00  0.00     0.023 A 
ATOM     89  C   UNL A   1      46.337  24.682  33.834  1.00  0.00     0.031 A 
ATOM     90  C   UNL A   1      47.678  26.354  32.730  1.00  0.00     0.131 A 
ATOM     91  C   UNL A   1      47.517  24.107  34.334  1.00  0.00     0.055 A 
ATOM     92  C   UNL A   1      48.849  25.740  33.175  1.00  0.00     0.041 A 
ATOM     93  F   UNL A   1      47.804  27.462  31.981  1.00  0.00    -0.206 F 
ATOM     94  C   UNL A   1      48.772  24.617  33.994  1.00  0.00     0.022 A 
BRANCH  91  95
ATOM     95  S   UNL A   1      47.385  22.738  35.517  1.00  0.00     0.124 S 
ATOM     96  O   UNL A   1      48.680  22.792  36.188  1.00  0.00    -0.237 OA
ATOM     97  O   UNL A   1      46.234  23.131  36.323  1.00  0.00    -0.237 OA
ATOM     98  O   UNL A   1      47.175  21.568  34.667  1.00  0.00    -0.744 OA
ENDBRANCH  91  95
ENDBRANCH  65  88
ENDBRANCH  39  40
ENDBRANCH  31  34
ENDBRANCH  29  30
ENDBRANCH  28  29
ENDBRANCH   1  28
TORSDOF 19
ENDMDL
MODEL 2
REMARK VINA RESULT:     -11.0      2.372      2.766
REMARK SMILES CCC[C@@H]1SC[C@H](C(=O)NCCCNC(=O)c2ccc(-c3c4nc(c(-c5cc(S(=O)(=O)[O-])ccc5F)c5ccc([nH]5)c(-c5cc(S(=O)(=O)[O-])ccc5F)c5nc(c(-c6cc(S(=O)(=O)[O-])ccc6F)c6ccc3[nH]6)C=C5)C=C4)cc2)N1C(=O)C[NH+]1CCC([NH3+])CC1
REMARK SMILES IDX 11 1 10 2 8 3 9 4 7 6 4 7 5 8 80 9 6 10 3 11 2 12 1 13 81 14
REMARK SMILES IDX 82 15 83 16 84 17 85 18 90 19 86 21 89 22 87 23 88 24 12 28
REMARK SMILES IDX 13 29 14 30 15 31 16 33 17 34 18 35 79 36 19 37 78 38 20 39
REMARK SMILES IDX 21 40 22 41 72 42 23 43 77 44 71 45 73 46 24 47 76 48 70 49
REMARK SMILES IDX 69 50 25 52 57 53 37 54 56 55 38 56 41 57 55 58 74 59 39 60
REMARK SMILES IDX 40 61 54 63 75 64 42 65 26 66 27 67 35 68 28 69 34 70 36 71
REMARK SMILES IDX 33 72 29 73 30 74 31 75 32 76 58 77 59 78 67 79 60 80 66 81
REMARK SMILES IDX 68 82 65 83 61 84 62 85 63 86 64 87 43 88 44 89 52 90 45 91
REMARK SMILES IDX 51 92 53 93 50 94 46 95 47 96 48 97 49 98
REMARK H PARENT 10 5 84 20 88 25 88 26 88 27 14 32 73 51 41 62
REMARK Flexibility Score: inf
ROOT
ATOM      1  C   UNL A   1      31.951  26.747  26.135  1.00  0.00     0.117 C 
ENDROOT
BRANCH   1   2
ATOM      2  N   UNL A   1      31.470  25.665  26.975  1.00  0.00    -0.354 N 
ATOM      3  C   UNL A   1      31.539  24.319  26.729  1.00  0.00     0.243 C 
ATOM      4  O   UNL A   1      30.714  23.594  27.286  1.00  0.00    -0.273 OA
ATOM      5  H   UNL A   1      31.042  25.929  27.822  1.00  0.00     0.163 HD
BRANCH   3   6
ATOM      6  C   UNL A   1      32.656  23.776  25.815  1.00  0.00     0.185 C 
ATOM      7  C   UNL A   1      33.054  21.483  25.058  1.00  0.00     0.144 C 
ATOM      8  S   UNL A   1      33.717  21.534  26.744  1.00  0.00    -0.134 SA
ATOM      9  N   UNL A   1      32.265  22.717  24.839  1.00  0.00    -0.313 N 
ATOM     10  C   UNL A   1      33.799  23.315  26.731  1.00  0.00     0.107 C 
BRANCH   7  11
ATOM     11  C   UNL A   1      32.322  20.138  24.896  1.00  0.00     0.036 C 
BRANCH  11  12
ATOM     12  C   UNL A   1      33.217  19.069  24.229  1.00  0.00    -0.000 C 
ATOM     13  C   UNL A   1      32.509  18.280  23.142  1.00  0.00     0.004 C 
ENDBRANCH  11  12
ENDBRANCH   7  11
BRANCH   9  14
ATOM     14  C   UNL A   1      32.213  23.174  23.499  1.00  0.00     0.279 C 
ATOM     15  O   UNL A   1      32.752  22.504  22.612  1.00  0.00    -0.268 OA
BRANCH  14  16
ATOM     16  C   UNL A   1      31.574  24.571  23.194  1.00  0.00     0.363 C 
BRANCH  16  17
ATOM     17  N   UNL A   1      32.264  25.282  22.089  1.00  0.00    -0.327 N 
ATOM     18  C   UNL A   1      31.428  26.313  21.495  1.00  0.00     0.268 C 
ATOM     19  C   UNL A   1      33.571  25.874  22.422  1.00  0.00     0.268 C 
ATOM     20  H   UNL A   1      32.442  24.532  21.421  1.00  0.00     0.348 HD
ATOM     21  C   UNL A   1      31.177  27.497  22.425  1.00  0.00     0.126 C 
ATOM     22  C   UNL A   1      33.547  27.204  23.196  1.00  0.00     0.126 C 
ATOM     23  C   UNL A   1      32.503  28.199  22.667  1.00  0.00     0.192 C 
BRANCH  23  24
ATOM     24  N   UNL A   1      32.339  29.326  23.581  1.00  0.00    -0.355 N 
ATOM     25  H   UNL A   1      31.357  29.407  23.848  1.00  0.00     0.344 HD
ATOM     26  H   UNL A   1      32.637  30.185  23.118  1.00  0.00     0.344 HD
ATOM     27  H   UNL A   1      32.906  29.173  24.414  1.00  0.00     0.344 HD
ENDBRANCH  23  24
ENDBRANCH  16  17
ENDBRANCH  14  16
ENDBRANCH   9  14
ENDBRANCH   3   6
ENDBRANCH   1   2
BRANCH   1  28
ATOM     28  C   UNL A   1      32.212  27.971  26.999  1.00  0.00     0.042 C 
BRANCH  28  29
ATOM     29  C   UNL A   1      33.636  28.485  26.872  1.00  0.00     0.118 C 
BRANCH  29  30
ATOM     30  N   UNL A   1      33.674  29.935  26.944  1.00  0.00    -0.352 N 
ATOM     31  C   UNL A   1      34.533  30.748  27.647  1.00  0.00     0.251 C 
ATOM     32  H   UNL A   1      32.988  30.402  26.415  1.00  0.00     0.163 HD
ATOM     33  O   UNL A   1      34.225  31.920  27.832  1.00  0.00    -0.269 OA
BRANCH  31  34
ATOM     34  C   UNL A   1      35.803  30.206  28.185  1.00  0.00     0.039 A 
ATOM     35  C   UNL A   1      35.825  29.681  29.479  1.00  0.00     0.014 A 
ATOM     36  C   UNL A   1      36.981  30.248  27.434  1.00  0.00     0.014 A 
ATOM     37  C   UNL A   1      37.014  29.162  29.999  1.00  0.00     0.010 A 
ATOM     38  C   UNL A   1      38.136  29.640  27.912  1.00  0.00     0.010 A 
ATOM     39  C   UNL A   1      38.173  29.113  29.210  1.00  0.00    -0.014 A 
BRANCH  39  40
ATOM     40  C   UNL A   1      39.450  28.559  29.731  1.00  0.00     0.031 A 
ATOM     41  C   UNL A   1      40.096  29.179  30.943  1.00  0.00     0.074 A 
ATOM     42  C   UNL A   1      40.063  27.553  29.079  1.00  0.00     0.049 A 
ATOM     43  N   UNL A   1      41.251  28.912  31.499  1.00  0.00    -0.248 NA
ATOM     44  C   UNL A   1      39.359  30.274  31.588  1.00  0.00     0.031 C 
ATOM     45  C   UNL A   1      39.554  26.893  27.876  1.00  0.00     0.029 A 
ATOM     46  N   UNL A   1      41.248  26.912  29.333  1.00  0.00    -0.354 N 
ATOM     47  C   UNL A   1      41.388  29.825  32.540  1.00  0.00     0.074 A 
ATOM     48  C   UNL A   1      40.236  30.698  32.483  1.00  0.00     0.031 C 
ATOM     49  C   UNL A   1      40.401  25.912  27.521  1.00  0.00     0.029 A 
ATOM     50  C   UNL A   1      41.537  25.909  28.438  1.00  0.00     0.049 A 
ATOM     51  H   UNL A   1      41.836  27.148  30.087  1.00  0.00     0.167 HD
ATOM     52  C   UNL A   1      42.370  29.911  33.474  1.00  0.00     0.034 A 
ATOM     53  C   UNL A   1      42.600  25.085  28.361  1.00  0.00     0.034 A 
ATOM     54  C   UNL A   1      43.504  29.018  33.519  1.00  0.00     0.049 A 
ATOM     55  C   UNL A   1      43.700  25.219  29.381  1.00  0.00     0.074 A 
ATOM     56  C   UNL A   1      44.526  28.965  34.451  1.00  0.00     0.029 A 
ATOM     57  N   UNL A   1      43.774  28.027  32.581  1.00  0.00    -0.354 N 
ATOM     58  N   UNL A   1      43.797  26.054  30.391  1.00  0.00    -0.248 NA
ATOM     59  C   UNL A   1      44.833  24.294  29.253  1.00  0.00     0.031 C 
ATOM     60  C   UNL A   1      45.451  28.000  34.035  1.00  0.00     0.029 A 
ATOM     61  C   UNL A   1      44.965  27.386  32.891  1.00  0.00     0.049 A 
ATOM     62  H   UNL A   1      43.202  27.811  31.809  1.00  0.00     0.167 HD
ATOM     63  C   UNL A   1      44.985  25.730  31.039  1.00  0.00     0.074 A 
ATOM     64  C   UNL A   1      45.564  24.619  30.309  1.00  0.00     0.031 C 
ATOM     65  C   UNL A   1      45.542  26.291  32.144  1.00  0.00     0.034 A 
BRANCH  52  66
ATOM     66  C   UNL A   1      42.266  31.031  34.487  1.00  0.00     0.023 A 
ATOM     67  C   UNL A   1      42.814  32.304  34.242  1.00  0.00     0.031 A 
ATOM     68  C   UNL A   1      41.679  30.805  35.744  1.00  0.00     0.131 A 
ATOM     69  C   UNL A   1      42.871  33.254  35.273  1.00  0.00     0.055 A 
ATOM     70  C   UNL A   1      41.644  31.794  36.731  1.00  0.00     0.041 A 
ATOM     71  F   UNL A   1      41.154  29.608  36.050  1.00  0.00    -0.206 F 
ATOM     72  C   UNL A   1      42.265  33.019  36.508  1.00  0.00     0.022 A 
BRANCH  69  73
ATOM     73  S   UNL A   1      43.931  34.710  35.043  1.00  0.00     0.124 S 
ATOM     74  O   UNL A   1      44.864  34.237  34.023  1.00  0.00    -0.237 OA
ATOM     75  O   UNL A   1      42.979  35.729  34.616  1.00  0.00    -0.237 OA
ATOM     76  O   UNL A   1      44.520  34.917  36.364  1.00  0.00    -0.744 OA
ENDBRANCH  69  73
ENDBRANCH  52  66
BRANCH  53  77
ATOM     77  C   UNL A   1      42.669  24.050  27.292  1.00  0.00     0.023 A 
ATOM     78  C   UNL A   1      42.105  22.780  27.490  1.00  0.00     0.031 A 
ATOM     79  C   UNL A   1      43.300  24.311  26.063  1.00  0.00     0.131 A 
ATOM     80  C   UNL A   1      42.211  21.805  26.487  1.00  0.00     0.055 A 
ATOM     81  C   UNL A   1      43.360  23.353  25.050  1.00  0.00     0.041 A 
ATOM     82  F   UNL A   1      43.850  25.511  25.825  1.00  0.00    -0.206 F 
ATOM     83  C   UNL A   1      42.821  22.087  25.262  1.00  0.00     0.022 A 
BRANCH  80  84
ATOM     84  S   UNL A   1      41.581  20.138  26.828  1.00  0.00     0.124 S 
ATOM     85  O   UNL A   1      42.727  19.517  27.482  1.00  0.00    -0.237 OA
ATOM     86  O   UNL A   1      40.430  20.417  27.679  1.00  0.00    -0.237 OA
ATOM     87  O   UNL A   1      41.261  19.619  25.501  1.00  0.00    -0.744 OA
ENDBRANCH  80  84
ENDBRANCH  53  77
BRANCH  65  88
ATOM     88  C   UNL A   1      46.823  25.676  32.653  1.00  0.00     0.023 A 
ATOM     89  C   UNL A   1      48.068  25.952  32.061  1.00  0.00     0.031 A 
ATOM     90  C   UNL A   1      46.793  24.790  33.745  1.00  0.00     0.131 A 
ATOM     91  C   UNL A   1      49.223  25.303  32.527  1.00  0.00     0.055 A 
ATOM     92  C   UNL A   1      47.954  24.199  34.247  1.00  0.00     0.041 A 
ATOM     93  F   UNL A   1      45.632  24.486  34.347  1.00  0.00    -0.206 F 
ATOM     94  C   UNL A   1      49.176  24.444  33.627  1.00  0.00     0.022 A 
BRANCH  91  95
ATOM     95  S   UNL A   1      50.774  25.522  31.613  1.00  0.00     0.124 S 
ATOM     96  O   UNL A   1      51.613  24.474  32.185  1.00  0.00    -0.237 OA
ATOM     97  O   UNL A   1      50.353  25.317  30.231  1.00  0.00    -0.237 OA
ATOM     98  O   UNL A   1      51.177  26.888  31.942  1.00  0.00    -0.744 OA
ENDBRANCH  91  95
ENDBRANCH  65  88
ENDBRANCH  39  40
ENDBRANCH  31  34
ENDBRANCH  29  30
ENDBRANCH  28  29
ENDBRANCH   1  28
TORSDOF 19
ENDMDL
MODEL 3
REMARK VINA RESULT:     -10.9      2.417      3.958
REMARK SMILES CCC[C@@H]1SC[C@H](C(=O)NCCCNC(=O)c2ccc(-c3c4nc(c(-c5cc(S(=O)(=O)[O-])ccc5F)c5ccc([nH]5)c(-c5cc(S(=O)(=O)[O-])ccc5F)c5nc(c(-c6cc(S(=O)(=O)[O-])ccc6F)c6ccc3[nH]6)C=C5)C=C4)cc2)N1C(=O)C[NH+]1CCC([NH3+])CC1
REMARK SMILES IDX 11 1 10 2 8 3 9 4 7 6 4 7 5 8 80 9 6 10 3 11 2 12 1 13 81 14
REMARK SMILES IDX 82 15 83 16 84 17 85 18 90 19 86 21 89 22 87 23 88 24 12 28
REMARK SMILES IDX 13 29 14 30 15 31 16 33 17 34 18 35 79 36 19 37 78 38 20 39
REMARK SMILES IDX 21 40 22 41 72 42 23 43 77 44 71 45 73 46 24 47 76 48 70 49
REMARK SMILES IDX 69 50 25 52 57 53 37 54 56 55 38 56 41 57 55 58 74 59 39 60
REMARK SMILES IDX 40 61 54 63 75 64 42 65 26 66 27 67 35 68 28 69 34 70 36 71
REMARK SMILES IDX 33 72 29 73 30 74 31 75 32 76 58 77 59 78 67 79 60 80 66 81
REMARK SMILES IDX 68 82 65 83 61 84 62 85 63 86 64 87 43 88 44 89 52 90 45 91
REMARK SMILES IDX 51 92 53 93 50 94 46 95 47 96 48 97 49 98
REMARK H PARENT 10 5 84 20 88 25 88 26 88 27 14 32 73 51 41 62
REMARK Flexibility Score: inf
ROOT
ATOM      1  C   UNL A   1      31.786  30.725  26.849  1.00  0.00     0.117 C 
ENDROOT
BRANCH   1   2
ATOM      2  N   UNL A   1      32.552  30.408  25.657  1.00  0.00    -0.354 N 
ATOM      3  C   UNL A   1      32.447  29.296  24.864  1.00  0.00     0.243 C 
ATOM      4  O   UNL A   1      33.432  28.974  24.199  1.00  0.00    -0.273 OA
ATOM      5  H   UNL A   1      33.228  31.071  25.386  1.00  0.00     0.163 HD
BRANCH   3   6
ATOM      6  C   UNL A   1      31.107  28.535  24.807  1.00  0.00     0.185 C 
ATOM      7  C   UNL A   1      30.534  26.509  23.560  1.00  0.00     0.144 C 
ATOM      8  S   UNL A   1      30.445  27.844  22.337  1.00  0.00    -0.134 SA
ATOM      9  N   UNL A   1      31.185  27.045  24.776  1.00  0.00    -0.313 N 
ATOM     10  C   UNL A   1      30.327  29.090  23.607  1.00  0.00     0.107 C 
BRANCH   7  11
ATOM     11  C   UNL A   1      31.202  25.304  22.871  1.00  0.00     0.036 C 
BRANCH  11  12
ATOM     12  C   UNL A   1      32.220  25.743  21.795  1.00  0.00    -0.000 C 
ATOM     13  C   UNL A   1      33.633  25.899  22.328  1.00  0.00     0.004 C 
ENDBRANCH  11  12
ENDBRANCH   7  11
BRANCH   9  14
ATOM     14  C   UNL A   1      30.796  26.433  25.993  1.00  0.00     0.279 C 
ATOM     15  O   UNL A   1      30.893  27.071  27.046  1.00  0.00    -0.268 OA
BRANCH  14  16
ATOM     16  C   UNL A   1      30.360  24.929  25.986  1.00  0.00     0.363 C 
BRANCH  16  17
ATOM     17  N   UNL A   1      31.267  24.071  26.787  1.00  0.00    -0.327 N 
ATOM     18  C   UNL A   1      31.036  22.655  26.549  1.00  0.00     0.268 C 
ATOM     19  C   UNL A   1      32.707  24.340  26.637  1.00  0.00     0.268 C 
ATOM     20  H   UNL A   1      31.020  24.321  27.745  1.00  0.00     0.348 HD
ATOM     21  C   UNL A   1      31.448  22.203  25.150  1.00  0.00     0.126 C 
ATOM     22  C   UNL A   1      33.383  23.786  25.370  1.00  0.00     0.126 C 
ATOM     23  C   UNL A   1      32.956  22.350  25.030  1.00  0.00     0.192 C 
BRANCH  23  24
ATOM     24  N   UNL A   1      33.414  21.965  23.698  1.00  0.00    -0.355 N 
ATOM     25  H   UNL A   1      33.510  20.951  23.651  1.00  0.00     0.344 HD
ATOM     26  H   UNL A   1      34.318  22.401  23.511  1.00  0.00     0.344 HD
ATOM     27  H   UNL A   1      32.736  22.276  23.003  1.00  0.00     0.344 HD
ENDBRANCH  23  24
ENDBRANCH  16  17
ENDBRANCH  14  16
ENDBRANCH   9  14
ENDBRANCH   3   6
ENDBRANCH   1   2
BRANCH   1  28
ATOM     28  C   UNL A   1      31.583  32.230  26.927  1.00  0.00     0.042 C 
BRANCH  28  29
ATOM     29  C   UNL A   1      32.894  32.997  26.950  1.00  0.00     0.118 C 
BRANCH  29  30
ATOM     30  N   UNL A   1      32.756  34.241  27.688  1.00  0.00    -0.352 N 
ATOM     31  C   UNL A   1      33.322  34.608  28.886  1.00  0.00     0.251 C 
ATOM     32  H   UNL A   1      32.175  34.917  27.270  1.00  0.00     0.163 HD
ATOM     33  O   UNL A   1      32.854  35.561  29.498  1.00  0.00    -0.269 OA
BRANCH  31  34
ATOM     34  C   UNL A   1      34.473  33.851  29.433  1.00  0.00     0.039 A 
ATOM     35  C   UNL A   1      35.770  34.259  29.110  1.00  0.00     0.014 A 
ATOM     36  C   UNL A   1      34.280  32.721  30.230  1.00  0.00     0.014 A 
ATOM     37  C   UNL A   1      36.866  33.559  29.622  1.00  0.00     0.010 A 
ATOM     38  C   UNL A   1      35.368  32.088  30.821  1.00  0.00     0.010 A 
ATOM     39  C   UNL A   1      36.675  32.484  30.503  1.00  0.00    -0.014 A 
BRANCH  39  40
ATOM     40  C   UNL A   1      37.820  31.725  31.071  1.00  0.00     0.031 A 
ATOM     41  C   UNL A   1      38.269  31.995  32.484  1.00  0.00     0.074 A 
ATOM     42  C   UNL A   1      38.496  30.852  30.302  1.00  0.00     0.049 A 
ATOM     43  N   UNL A   1      39.299  31.516  33.136  1.00  0.00    -0.248 NA
ATOM     44  C   UNL A   1      37.475  32.967  33.249  1.00  0.00     0.031 C 
ATOM     45  C   UNL A   1      38.177  30.529  28.910  1.00  0.00     0.029 A 
ATOM     46  N   UNL A   1      39.593  30.077  30.580  1.00  0.00    -0.354 N 
ATOM     47  C   UNL A   1      39.289  32.151  34.375  1.00  0.00     0.074 A 
ATOM     48  C   UNL A   1      38.199  33.102  34.347  1.00  0.00     0.031 C 
ATOM     49  C   UNL A   1      39.034  29.594  28.469  1.00  0.00     0.029 A 
ATOM     50  C   UNL A   1      39.993  29.289  29.527  1.00  0.00     0.049 A 
ATOM     51  H   UNL A   1      40.050  30.085  31.452  1.00  0.00     0.167 HD
ATOM     52  C   UNL A   1      40.098  31.940  35.445  1.00  0.00     0.034 A 
ATOM     53  C   UNL A   1      41.020  28.423  29.424  1.00  0.00     0.034 A 
ATOM     54  C   UNL A   1      41.170  30.974  35.454  1.00  0.00     0.049 A 
ATOM     55  C   UNL A   1      41.931  28.230  30.608  1.00  0.00     0.074 A 
ATOM     56  C   UNL A   1      42.012  30.627  36.496  1.00  0.00     0.029 A 
ATOM     57  N   UNL A   1      41.559  30.208  34.360  1.00  0.00    -0.354 N 
ATOM     58  N   UNL A   1      41.884  28.798  31.792  1.00  0.00    -0.248 NA
ATOM     59  C   UNL A   1      43.031  27.272  30.442  1.00  0.00     0.031 C 
ATOM     60  C   UNL A   1      42.956  29.713  36.012  1.00  0.00     0.029 A 
ATOM     61  C   UNL A   1      42.653  29.421  34.692  1.00  0.00     0.049 A 
ATOM     62  H   UNL A   1      41.122  30.222  33.478  1.00  0.00     0.167 HD
ATOM     63  C   UNL A   1      42.928  28.240  32.523  1.00  0.00     0.074 A 
ATOM     64  C   UNL A   1      43.581  27.286  31.648  1.00  0.00     0.031 C 
ATOM     65  C   UNL A   1      43.307  28.485  33.804  1.00  0.00     0.034 A 
BRANCH  52  66
ATOM     66  C   UNL A   1      39.863  32.800  36.668  1.00  0.00     0.023 A 
ATOM     67  C   UNL A   1      39.057  32.365  37.737  1.00  0.00     0.031 A 
ATOM     68  C   UNL A   1      40.387  34.103  36.738  1.00  0.00     0.131 A 
ATOM     69  C   UNL A   1      38.703  33.258  38.760  1.00  0.00     0.055 A 
ATOM     70  C   UNL A   1      40.118  34.951  37.815  1.00  0.00     0.041 A 
ATOM     71  F   UNL A   1      41.149  34.589  35.744  1.00  0.00    -0.206 F 
ATOM     72  C   UNL A   1      39.250  34.540  38.822  1.00  0.00     0.022 A 
BRANCH  69  73
ATOM     73  S   UNL A   1      37.358  32.788  39.885  1.00  0.00     0.124 S 
ATOM     74  O   UNL A   1      36.215  32.748  38.976  1.00  0.00    -0.237 OA
ATOM     75  O   UNL A   1      37.811  31.501  40.399  1.00  0.00    -0.237 OA
ATOM     76  O   UNL A   1      37.330  33.877  40.859  1.00  0.00    -0.744 OA
ENDBRANCH  69  73
ENDBRANCH  52  66
BRANCH  53  77
ATOM     77  C   UNL A   1      41.232  27.660  28.162  1.00  0.00     0.023 A 
ATOM     78  C   UNL A   1      40.943  26.289  28.099  1.00  0.00     0.031 A 
ATOM     79  C   UNL A   1      41.729  28.287  27.006  1.00  0.00     0.131 A 
ATOM     80  C   UNL A   1      41.184  25.578  26.914  1.00  0.00     0.055 A 
ATOM     81  C   UNL A   1      41.920  27.585  25.814  1.00  0.00     0.041 A 
ATOM     82  F   UNL A   1      42.015  29.598  27.015  1.00  0.00    -0.206 F 
ATOM     83  C   UNL A   1      41.656  26.220  25.766  1.00  0.00     0.022 A 
BRANCH  80  84
ATOM     84  S   UNL A   1      40.917  23.784  26.909  1.00  0.00     0.124 S 
ATOM     85  O   UNL A   1      41.762  23.361  25.798  1.00  0.00    -0.237 OA
ATOM     86  O   UNL A   1      41.373  23.406  28.242  1.00  0.00    -0.237 OA
ATOM     87  O   UNL A   1      39.479  23.655  26.685  1.00  0.00    -0.744 OA
ENDBRANCH  80  84
ENDBRANCH  53  77
BRANCH  65  88
ATOM     88  C   UNL A   1      44.455  27.669  34.348  1.00  0.00     0.023 A 
ATOM     89  C   UNL A   1      44.269  26.378  34.871  1.00  0.00     0.031 A 
ATOM     90  C   UNL A   1      45.757  28.202  34.351  1.00  0.00     0.131 A 
ATOM     91  C   UNL A   1      45.356  25.686  35.427  1.00  0.00     0.055 A 
ATOM     92  C   UNL A   1      46.846  27.482  34.846  1.00  0.00     0.041 A 
ATOM     93  F   UNL A   1      45.994  29.432  33.869  1.00  0.00    -0.206 F 
ATOM     94  C   UNL A   1      46.645  26.221  35.401  1.00  0.00     0.022 A 
BRANCH  91  95
ATOM     95  S   UNL A   1      45.045  24.114  36.277  1.00  0.00     0.124 S 
ATOM     96  O   UNL A   1      46.203  23.320  35.879  1.00  0.00    -0.237 OA
ATOM     97  O   UNL A   1      45.001  24.519  37.678  1.00  0.00    -0.237 OA
ATOM     98  O   UNL A   1      43.768  23.670  35.721  1.00  0.00    -0.744 OA
ENDBRANCH  91  95
ENDBRANCH  65  88
ENDBRANCH  39  40
ENDBRANCH  31  34
ENDBRANCH  29  30
ENDBRANCH  28  29
ENDBRANCH   1  28
TORSDOF 19
ENDMDL
