MODEL 1
REMARK VINA RESULT:     -13.1      0.000      0.000
REMARK SMILES COc1cccc(-c2c(C(=O)NCCCNC(=O)c3ccc(-c4c5nc(c(-c6cc(S(=O)(=O)[O-])ccc6F)c6ccc([nH]6)c(-c6cc(S(=O)(=O)[O-])ccc6F)c6nc(c(-c7cc(S(=O)(=O)[O-])ccc7F)c7ccc4[nH]7)C=C6)C=C5)cc3)nnn2-c2ccc(OC(F)(F)F)cc2)c1
REMARK SMILES IDX 14 1 13 2 12 3 10 4 11 5 9 7 8 8 84 9 82 10 83 11 7 12 3 13
REMARK SMILES IDX 4 14 96 15 5 16 6 17 2 18 1 19 85 20 86 21 95 22 87 23 94 24
REMARK SMILES IDX 88 25 89 26 90 27 91 28 92 29 93 30 15 31 16 32 17 33 18 35
REMARK SMILES IDX 19 36 20 37 81 38 21 39 80 40 22 41 23 42 24 43 74 44 25 45
REMARK SMILES IDX 79 46 73 47 75 48 26 49 78 50 72 51 71 52 27 54 59 55 39 56
REMARK SMILES IDX 58 57 40 58 43 59 57 60 76 61 41 62 42 63 56 65 77 66 44 67
REMARK SMILES IDX 28 68 29 69 37 70 30 71 36 72 38 73 35 74 31 75 32 76 33 77
REMARK SMILES IDX 34 78 60 79 61 80 69 81 62 82 68 83 70 84 67 85 63 86 64 87
REMARK SMILES IDX 65 88 66 89 45 90 46 91 54 92 47 93 53 94 55 95 52 96 48 97
REMARK SMILES IDX 49 98 50 99 51 100
REMARK H PARENT 12 6 16 34 75 53 43 64
REMARK Flexibility Score: inf
ROOT
ATOM      1  C   UNL A   1      36.930  23.573  25.256  1.00  0.00     0.042 C 
ENDROOT
BRANCH   1   2
ATOM      2  C   UNL A   1      35.630  24.342  25.489  1.00  0.00     0.118 C 
BRANCH   2   3
ATOM      3  N   UNL A   1      34.577  23.527  26.029  1.00  0.00    -0.351 N 
ATOM      4  C   UNL A   1      33.239  23.418  25.777  1.00  0.00     0.274 C 
ATOM      5  O   UNL A   1      32.709  22.446  26.328  1.00  0.00    -0.267 OA
ATOM      6  H   UNL A   1      34.887  22.914  26.734  1.00  0.00     0.163 HD
BRANCH   4   7
ATOM      7  C   UNL A   1      32.419  24.328  24.963  1.00  0.00     0.178 A 
ATOM      8  C   UNL A   1      32.076  25.687  24.942  1.00  0.00     0.108 A 
ATOM      9  N   UNL A   1      31.188  25.776  23.864  1.00  0.00    -0.212 N 
ATOM     10  N   UNL A   1      31.700  23.701  23.952  1.00  0.00    -0.124 NA
ATOM     11  N   UNL A   1      30.893  24.564  23.376  1.00  0.00    -0.061 NA
BRANCH   8  12
ATOM     12  C   UNL A   1      32.265  26.839  25.831  1.00  0.00     0.006 A 
ATOM     13  C   UNL A   1      33.688  28.667  26.602  1.00  0.00     0.119 A 
ATOM     14  C   UNL A   1      32.700  29.038  27.515  1.00  0.00     0.046 A 
ATOM     15  C   UNL A   1      33.471  27.567  25.766  1.00  0.00     0.056 A 
ATOM     16  C   UNL A   1      31.519  28.303  27.618  1.00  0.00     0.005 A 
ATOM     17  C   UNL A   1      31.318  27.184  26.804  1.00  0.00     0.011 A 
BRANCH  13  18
ATOM     18  O   UNL A   1      34.821  29.430  26.623  1.00  0.00    -0.497 OA
ATOM     19  C   UNL A   1      35.705  29.205  27.716  1.00  0.00     0.278 C 
ENDBRANCH  13  18
ENDBRANCH   8  12
BRANCH   9  20
ATOM     20  C   UNL A   1      30.544  26.925  23.350  1.00  0.00     0.067 A 
ATOM     21  C   UNL A   1      29.179  27.103  23.579  1.00  0.00     0.032 A 
ATOM     22  C   UNL A   1      31.280  27.898  22.670  1.00  0.00     0.032 A 
ATOM     23  C   UNL A   1      28.579  28.306  23.202  1.00  0.00     0.049 A 
ATOM     24  C   UNL A   1      30.666  29.083  22.271  1.00  0.00     0.049 A 
ATOM     25  C   UNL A   1      29.318  29.306  22.558  1.00  0.00     0.129 A 
BRANCH  25  26
ATOM     26  O   UNL A   1      28.615  30.441  22.270  1.00  0.00    -0.406 OA
BRANCH  26  27
ATOM     27  C   UNL A   1      28.532  31.427  23.283  1.00  0.00     0.573 C 
ATOM     28  F   UNL A   1      28.789  32.660  22.797  1.00  0.00    -0.132 F 
ATOM     29  F   UNL A   1      27.314  31.419  23.871  1.00  0.00    -0.132 F 
ATOM     30  F   UNL A   1      29.454  31.152  24.233  1.00  0.00    -0.132 F 
ENDBRANCH  26  27
ENDBRANCH  25  26
ENDBRANCH   9  20
ENDBRANCH   4   7
ENDBRANCH   2   3
ENDBRANCH   1   2
BRANCH   1  31
ATOM     31  C   UNL A   1      37.990  23.967  26.259  1.00  0.00     0.118 C 
BRANCH  31  32
ATOM     32  N   UNL A   1      39.234  23.185  26.105  1.00  0.00    -0.352 N 
ATOM     33  C   UNL A   1      40.509  23.506  26.554  1.00  0.00     0.251 C 
ATOM     34  H   UNL A   1      39.149  22.330  25.624  1.00  0.00     0.163 HD
ATOM     35  O   UNL A   1      41.505  22.941  26.113  1.00  0.00    -0.269 OA
BRANCH  33  36
ATOM     36  C   UNL A   1      40.608  24.538  27.595  1.00  0.00     0.039 A 
ATOM     37  C   UNL A   1      41.691  24.666  28.471  1.00  0.00     0.014 A 
ATOM     38  C   UNL A   1      39.650  25.528  27.490  1.00  0.00     0.014 A 
ATOM     39  C   UNL A   1      41.849  25.875  29.153  1.00  0.00     0.010 A 
ATOM     40  C   UNL A   1      40.016  26.781  27.866  1.00  0.00     0.010 A 
ATOM     41  C   UNL A   1      41.014  26.947  28.813  1.00  0.00    -0.014 A 
BRANCH  41  42
ATOM     42  C   UNL A   1      41.156  28.307  29.321  1.00  0.00     0.031 A 
ATOM     43  C   UNL A   1      42.193  29.129  28.641  1.00  0.00     0.074 A 
ATOM     44  C   UNL A   1      40.180  28.849  30.096  1.00  0.00     0.049 A 
ATOM     45  N   UNL A   1      43.277  29.614  29.147  1.00  0.00    -0.248 NA
ATOM     46  C   UNL A   1      42.096  29.318  27.182  1.00  0.00     0.031 C 
ATOM     47  C   UNL A   1      38.927  28.226  30.563  1.00  0.00     0.029 A 
ATOM     48  N   UNL A   1      40.014  30.133  30.499  1.00  0.00    -0.354 N 
ATOM     49  C   UNL A   1      43.856  30.389  28.145  1.00  0.00     0.074 A 
ATOM     50  C   UNL A   1      43.229  29.974  26.919  1.00  0.00     0.031 C 
ATOM     51  C   UNL A   1      38.038  29.180  30.915  1.00  0.00     0.029 A 
ATOM     52  C   UNL A   1      38.721  30.458  30.910  1.00  0.00     0.049 A 
ATOM     53  H   UNL A   1      40.751  30.786  30.500  1.00  0.00     0.167 HD
ATOM     54  C   UNL A   1      44.602  31.490  28.445  1.00  0.00     0.034 A 
ATOM     55  C   UNL A   1      38.237  31.693  31.216  1.00  0.00     0.034 A 
ATOM     56  C   UNL A   1      44.956  31.505  29.848  1.00  0.00     0.049 A 
ATOM     57  C   UNL A   1      39.428  32.529  31.517  1.00  0.00     0.074 A 
ATOM     58  C   UNL A   1      45.634  30.636  30.683  1.00  0.00     0.029 A 
ATOM     59  N   UNL A   1      44.227  32.320  30.688  1.00  0.00    -0.354 N 
ATOM     60  N   UNL A   1      40.235  32.278  32.514  1.00  0.00    -0.248 NA
ATOM     61  C   UNL A   1      40.018  33.284  30.421  1.00  0.00     0.031 C 
ATOM     62  C   UNL A   1      44.865  30.621  31.887  1.00  0.00     0.029 A 
ATOM     63  C   UNL A   1      43.831  31.553  31.759  1.00  0.00     0.049 A 
ATOM     64  H   UNL A   1      44.025  33.273  30.547  1.00  0.00     0.167 HD
ATOM     65  C   UNL A   1      41.513  32.443  31.996  1.00  0.00     0.074 A 
ATOM     66  C   UNL A   1      41.314  33.152  30.729  1.00  0.00     0.031 C 
ATOM     67  C   UNL A   1      42.577  31.727  32.473  1.00  0.00     0.034 A 
BRANCH  54  68
ATOM     68  C   UNL A   1      44.705  32.734  27.589  1.00  0.00     0.023 A 
ATOM     69  C   UNL A   1      44.017  33.882  28.030  1.00  0.00     0.031 A 
ATOM     70  C   UNL A   1      45.187  32.783  26.261  1.00  0.00     0.131 A 
ATOM     71  C   UNL A   1      43.754  34.950  27.155  1.00  0.00     0.055 A 
ATOM     72  C   UNL A   1      44.984  33.878  25.415  1.00  0.00     0.041 A 
ATOM     73  F   UNL A   1      45.791  31.746  25.670  1.00  0.00    -0.206 F 
ATOM     74  C   UNL A   1      44.236  34.957  25.848  1.00  0.00     0.022 A 
BRANCH  71  75
ATOM     75  S   UNL A   1      42.612  36.248  27.697  1.00  0.00     0.124 S 
ATOM     76  O   UNL A   1      43.063  37.388  26.905  1.00  0.00    -0.237 OA
ATOM     77  O   UNL A   1      41.320  35.681  27.331  1.00  0.00    -0.237 OA
ATOM     78  O   UNL A   1      42.869  36.346  29.133  1.00  0.00    -0.744 OA
ENDBRANCH  71  75
ENDBRANCH  54  68
BRANCH  55  79
ATOM     79  C   UNL A   1      36.884  32.230  30.883  1.00  0.00     0.023 A 
ATOM     80  C   UNL A   1      35.996  32.762  31.845  1.00  0.00     0.031 A 
ATOM     81  C   UNL A   1      36.536  32.435  29.526  1.00  0.00     0.131 A 
ATOM     82  C   UNL A   1      34.826  33.453  31.434  1.00  0.00     0.055 A 
ATOM     83  C   UNL A   1      35.383  33.119  29.129  1.00  0.00     0.041 A 
ATOM     84  F   UNL A   1      37.354  32.043  28.536  1.00  0.00    -0.206 F 
ATOM     85  C   UNL A   1      34.527  33.639  30.083  1.00  0.00     0.022 A 
BRANCH  82  86
ATOM     86  S   UNL A   1      33.701  34.198  32.664  1.00  0.00     0.124 S 
ATOM     87  O   UNL A   1      32.830  35.019  31.832  1.00  0.00    -0.237 OA
ATOM     88  O   UNL A   1      33.091  33.025  33.281  1.00  0.00    -0.237 OA
ATOM     89  O   UNL A   1      34.599  34.950  33.541  1.00  0.00    -0.744 OA
ENDBRANCH  82  86
ENDBRANCH  55  79
BRANCH  67  90
ATOM     90  C   UNL A   1      42.383  30.891  33.730  1.00  0.00     0.023 A 
ATOM     91  C   UNL A   1      42.055  29.512  33.750  1.00  0.00     0.031 A 
ATOM     92  C   UNL A   1      42.686  31.498  34.960  1.00  0.00     0.131 A 
ATOM     93  C   UNL A   1      42.033  28.803  34.971  1.00  0.00     0.055 A 
ATOM     94  C   UNL A   1      42.683  30.790  36.162  1.00  0.00     0.041 A 
ATOM     95  F   UNL A   1      43.036  32.794  35.009  1.00  0.00    -0.206 F 
ATOM     96  C   UNL A   1      42.352  29.441  36.174  1.00  0.00     0.022 A 
BRANCH  93  97
ATOM     97  S   UNL A   1      41.582  27.034  35.020  1.00  0.00     0.124 S 
ATOM     98  O   UNL A   1      40.468  26.941  34.083  1.00  0.00    -0.237 OA
ATOM     99  O   UNL A   1      42.819  26.376  34.610  1.00  0.00    -0.237 OA
ATOM    100  O   UNL A   1      41.216  26.815  36.421  1.00  0.00    -0.744 OA
ENDBRANCH  93  97
ENDBRANCH  67  90
ENDBRANCH  41  42
ENDBRANCH  33  36
ENDBRANCH  31  32
ENDBRANCH   1  31
TORSDOF 18
ENDMDL
MODEL 2
REMARK VINA RESULT:     -13.0      3.336      7.498
REMARK SMILES COc1cccc(-c2c(C(=O)NCCCNC(=O)c3ccc(-c4c5nc(c(-c6cc(S(=O)(=O)[O-])ccc6F)c6ccc([nH]6)c(-c6cc(S(=O)(=O)[O-])ccc6F)c6nc(c(-c7cc(S(=O)(=O)[O-])ccc7F)c7ccc4[nH]7)C=C6)C=C5)cc3)nnn2-c2ccc(OC(F)(F)F)cc2)c1
REMARK SMILES IDX 14 1 13 2 12 3 10 4 11 5 9 7 8 8 84 9 82 10 83 11 7 12 3 13
REMARK SMILES IDX 4 14 96 15 5 16 6 17 2 18 1 19 85 20 86 21 95 22 87 23 94 24
REMARK SMILES IDX 88 25 89 26 90 27 91 28 92 29 93 30 15 31 16 32 17 33 18 35
REMARK SMILES IDX 19 36 20 37 81 38 21 39 80 40 22 41 23 42 24 43 74 44 25 45
REMARK SMILES IDX 79 46 73 47 75 48 26 49 78 50 72 51 71 52 27 54 59 55 39 56
REMARK SMILES IDX 58 57 40 58 43 59 57 60 76 61 41 62 42 63 56 65 77 66 44 67
REMARK SMILES IDX 28 68 29 69 37 70 30 71 36 72 38 73 35 74 31 75 32 76 33 77
REMARK SMILES IDX 34 78 60 79 61 80 69 81 62 82 68 83 70 84 67 85 63 86 64 87
REMARK SMILES IDX 65 88 66 89 45 90 46 91 54 92 47 93 53 94 55 95 52 96 48 97
REMARK SMILES IDX 49 98 50 99 51 100
REMARK H PARENT 12 6 16 34 75 53 43 64
REMARK Flexibility Score: inf
ROOT
ATOM      1  C   UNL A   1      35.922  21.135  24.656  1.00  0.00     0.042 C 
ENDROOT
BRANCH   1   2
ATOM      2  C   UNL A   1      35.103  22.424  24.711  1.00  0.00     0.118 C 
BRANCH   2   3
ATOM      3  N   UNL A   1      34.396  22.594  25.951  1.00  0.00    -0.351 N 
ATOM      4  C   UNL A   1      33.191  23.143  26.288  1.00  0.00     0.274 C 
ATOM      5  O   UNL A   1      32.853  22.917  27.455  1.00  0.00    -0.267 OA
ATOM      6  H   UNL A   1      34.887  22.237  26.726  1.00  0.00     0.163 HD
BRANCH   4   7
ATOM      7  C   UNL A   1      32.323  23.957  25.424  1.00  0.00     0.178 A 
ATOM      8  C   UNL A   1      31.964  25.303  25.276  1.00  0.00     0.108 A 
ATOM      9  N   UNL A   1      31.024  25.273  24.240  1.00  0.00    -0.212 N 
ATOM     10  N   UNL A   1      31.563  23.222  24.521  1.00  0.00    -0.124 NA
ATOM     11  N   UNL A   1      30.720  24.014  23.898  1.00  0.00    -0.061 NA
BRANCH   8  12
ATOM     12  C   UNL A   1      32.182  26.545  26.028  1.00  0.00     0.006 A 
ATOM     13  C   UNL A   1      33.670  28.383  26.632  1.00  0.00     0.119 A 
ATOM     14  C   UNL A   1      32.672  28.908  27.454  1.00  0.00     0.046 A 
ATOM     15  C   UNL A   1      33.426  27.201  25.925  1.00  0.00     0.056 A 
ATOM     16  C   UNL A   1      31.452  28.248  27.596  1.00  0.00     0.005 A 
ATOM     17  C   UNL A   1      31.221  27.050  26.915  1.00  0.00     0.011 A 
BRANCH  13  18
ATOM     18  O   UNL A   1      34.841  29.088  26.607  1.00  0.00    -0.497 OA
ATOM     19  C   UNL A   1      35.389  29.434  27.876  1.00  0.00     0.278 C 
ENDBRANCH  13  18
ENDBRANCH   8  12
BRANCH   9  20
ATOM     20  C   UNL A   1      30.343  26.357  23.639  1.00  0.00     0.067 A 
ATOM     21  C   UNL A   1      28.983  26.536  23.897  1.00  0.00     0.032 A 
ATOM     22  C   UNL A   1      31.039  27.270  22.844  1.00  0.00     0.032 A 
ATOM     23  C   UNL A   1      28.349  27.687  23.426  1.00  0.00     0.049 A 
ATOM     24  C   UNL A   1      30.390  28.401  22.353  1.00  0.00     0.049 A 
ATOM     25  C   UNL A   1      29.049  28.631  22.664  1.00  0.00     0.129 A 
BRANCH  25  26
ATOM     26  O   UNL A   1      28.316  29.722  22.292  1.00  0.00    -0.406 OA
BRANCH  26  27
ATOM     27  C   UNL A   1      28.594  30.945  22.950  1.00  0.00     0.573 C 
ATOM     28  F   UNL A   1      29.261  31.799  22.146  1.00  0.00    -0.132 F 
ATOM     29  F   UNL A   1      27.456  31.531  23.385  1.00  0.00    -0.132 F 
ATOM     30  F   UNL A   1      29.370  30.692  24.027  1.00  0.00    -0.132 F 
ENDBRANCH  26  27
ENDBRANCH  25  26
ENDBRANCH   9  20
ENDBRANCH   4   7
ENDBRANCH   2   3
ENDBRANCH   1   2
BRANCH   1  31
ATOM     31  C   UNL A   1      37.389  21.405  24.903  1.00  0.00     0.118 C 
BRANCH  31  32
ATOM     32  N   UNL A   1      38.184  20.164  25.007  1.00  0.00    -0.352 N 
ATOM     33  C   UNL A   1      39.404  19.977  25.646  1.00  0.00     0.251 C 
ATOM     34  H   UNL A   1      37.802  19.369  24.567  1.00  0.00     0.163 HD
ATOM     35  O   UNL A   1      40.107  19.000  25.412  1.00  0.00    -0.269 OA
BRANCH  33  36
ATOM     36  C   UNL A   1      39.802  20.994  26.629  1.00  0.00     0.039 A 
ATOM     37  C   UNL A   1      40.755  20.785  27.631  1.00  0.00     0.014 A 
ATOM     38  C   UNL A   1      39.331  22.261  26.342  1.00  0.00     0.014 A 
ATOM     39  C   UNL A   1      41.312  21.903  28.255  1.00  0.00     0.010 A 
ATOM     40  C   UNL A   1      40.124  23.306  26.688  1.00  0.00     0.010 A 
ATOM     41  C   UNL A   1      41.009  23.172  27.747  1.00  0.00    -0.014 A 
BRANCH  41  42
ATOM     42  C   UNL A   1      41.629  24.417  28.189  1.00  0.00     0.031 A 
ATOM     43  C   UNL A   1      40.695  25.563  28.350  1.00  0.00     0.074 A 
ATOM     44  C   UNL A   1      42.873  24.401  28.733  1.00  0.00     0.049 A 
ATOM     45  N   UNL A   1      40.676  26.669  27.685  1.00  0.00    -0.248 NA
ATOM     46  C   UNL A   1      39.545  25.412  29.261  1.00  0.00     0.031 C 
ATOM     47  C   UNL A   1      43.774  23.249  28.933  1.00  0.00     0.029 A 
ATOM     48  N   UNL A   1      43.543  25.386  29.381  1.00  0.00    -0.354 N 
ATOM     49  C   UNL A   1      39.688  27.455  28.274  1.00  0.00     0.074 A 
ATOM     50  C   UNL A   1      38.884  26.553  29.054  1.00  0.00     0.031 C 
ATOM     51  C   UNL A   1      44.696  23.540  29.875  1.00  0.00     0.029 A 
ATOM     52  C   UNL A   1      44.596  24.951  30.186  1.00  0.00     0.049 A 
ATOM     53  H   UNL A   1      43.302  26.337  29.290  1.00  0.00     0.167 HD
ATOM     54  C   UNL A   1      39.782  28.815  28.287  1.00  0.00     0.034 A 
ATOM     55  C   UNL A   1      45.333  25.695  31.056  1.00  0.00     0.034 A 
ATOM     56  C   UNL A   1      40.795  29.270  27.359  1.00  0.00     0.049 A 
ATOM     57  C   UNL A   1      45.155  27.107  30.631  1.00  0.00     0.074 A 
ATOM     58  C   UNL A   1      40.997  29.121  25.999  1.00  0.00     0.029 A 
ATOM     59  N   UNL A   1      42.024  29.626  27.871  1.00  0.00    -0.354 N 
ATOM     60  N   UNL A   1      45.548  27.550  29.465  1.00  0.00    -0.248 NA
ATOM     61  C   UNL A   1      44.078  27.868  31.248  1.00  0.00     0.031 C 
ATOM     62  C   UNL A   1      42.396  28.858  25.870  1.00  0.00     0.029 A 
ATOM     63  C   UNL A   1      42.980  28.965  27.135  1.00  0.00     0.049 A 
ATOM     64  H   UNL A   1      42.188  30.238  28.624  1.00  0.00     0.167 HD
ATOM     65  C   UNL A   1      44.505  28.346  29.009  1.00  0.00     0.074 A 
ATOM     66  C   UNL A   1      43.669  28.578  30.190  1.00  0.00     0.031 C 
ATOM     67  C   UNL A   1      44.242  28.485  27.674  1.00  0.00     0.034 A 
BRANCH  54  68
ATOM     68  C   UNL A   1      39.244  29.717  29.377  1.00  0.00     0.023 A 
ATOM     69  C   UNL A   1      38.421  30.790  28.982  1.00  0.00     0.031 A 
ATOM     70  C   UNL A   1      39.704  29.760  30.713  1.00  0.00     0.131 A 
ATOM     71  C   UNL A   1      38.172  31.870  29.847  1.00  0.00     0.055 A 
ATOM     72  C   UNL A   1      39.396  30.802  31.593  1.00  0.00     0.041 A 
ATOM     73  F   UNL A   1      40.555  28.858  31.216  1.00  0.00    -0.206 F 
ATOM     74  C   UNL A   1      38.653  31.882  31.154  1.00  0.00     0.022 A 
BRANCH  71  75
ATOM     75  S   UNL A   1      37.364  33.345  29.175  1.00  0.00     0.124 S 
ATOM     76  O   UNL A   1      36.544  33.774  30.304  1.00  0.00    -0.237 OA
ATOM     77  O   UNL A   1      38.507  34.191  28.851  1.00  0.00    -0.237 OA
ATOM     78  O   UNL A   1      36.621  32.831  28.026  1.00  0.00    -0.744 OA
ENDBRANCH  71  75
ENDBRANCH  54  68
BRANCH  55  79
ATOM     79  C   UNL A   1      45.828  25.268  32.399  1.00  0.00     0.023 A 
ATOM     80  C   UNL A   1      45.040  24.557  33.332  1.00  0.00     0.031 A 
ATOM     81  C   UNL A   1      47.209  25.369  32.691  1.00  0.00     0.131 A 
ATOM     82  C   UNL A   1      45.637  23.993  34.490  1.00  0.00     0.055 A 
ATOM     83  C   UNL A   1      47.791  24.810  33.833  1.00  0.00     0.041 A 
ATOM     84  F   UNL A   1      48.057  25.952  31.828  1.00  0.00    -0.206 F 
ATOM     85  C   UNL A   1      47.007  24.111  34.733  1.00  0.00     0.022 A 
BRANCH  82  86
ATOM     86  S   UNL A   1      44.644  23.019  35.673  1.00  0.00     0.124 S 
ATOM     87  O   UNL A   1      44.956  23.662  36.944  1.00  0.00    -0.237 OA
ATOM     88  O   UNL A   1      43.287  23.205  35.169  1.00  0.00    -0.237 OA
ATOM     89  O   UNL A   1      45.168  21.661  35.527  1.00  0.00    -0.744 OA
ENDBRANCH  82  86
ENDBRANCH  55  79
BRANCH  67  90
ATOM     90  C   UNL A   1      45.242  27.919  26.675  1.00  0.00     0.023 A 
ATOM     91  C   UNL A   1      45.362  26.551  26.327  1.00  0.00     0.031 A 
ATOM     92  C   UNL A   1      46.010  28.840  25.942  1.00  0.00     0.131 A 
ATOM     93  C   UNL A   1      46.231  26.154  25.288  1.00  0.00     0.055 A 
ATOM     94  C   UNL A   1      46.853  28.446  24.902  1.00  0.00     0.041 A 
ATOM     95  F   UNL A   1      45.919  30.155  26.198  1.00  0.00    -0.206 F 
ATOM     96  C   UNL A   1      46.971  27.102  24.573  1.00  0.00     0.022 A 
BRANCH  93  97
ATOM     97  S   UNL A   1      46.423  24.392  24.846  1.00  0.00     0.124 S 
ATOM     98  O   UNL A   1      45.090  24.008  24.395  1.00  0.00    -0.237 OA
ATOM     99  O   UNL A   1      47.459  24.431  23.818  1.00  0.00    -0.237 OA
ATOM    100  O   UNL A   1      46.841  23.770  26.104  1.00  0.00    -0.744 OA
ENDBRANCH  93  97
ENDBRANCH  67  90
ENDBRANCH  41  42
ENDBRANCH  33  36
ENDBRANCH  31  32
ENDBRANCH   1  31
TORSDOF 18
ENDMDL
MODEL 3
REMARK VINA RESULT:     -12.5      3.356      7.395
REMARK SMILES COc1cccc(-c2c(C(=O)NCCCNC(=O)c3ccc(-c4c5nc(c(-c6cc(S(=O)(=O)[O-])ccc6F)c6ccc([nH]6)c(-c6cc(S(=O)(=O)[O-])ccc6F)c6nc(c(-c7cc(S(=O)(=O)[O-])ccc7F)c7ccc4[nH]7)C=C6)C=C5)cc3)nnn2-c2ccc(OC(F)(F)F)cc2)c1
REMARK SMILES IDX 14 1 13 2 12 3 10 4 11 5 9 7 8 8 84 9 82 10 83 11 7 12 3 13
REMARK SMILES IDX 4 14 96 15 5 16 6 17 2 18 1 19 85 20 86 21 95 22 87 23 94 24
REMARK SMILES IDX 88 25 89 26 90 27 91 28 92 29 93 30 15 31 16 32 17 33 18 35
REMARK SMILES IDX 19 36 20 37 81 38 21 39 80 40 22 41 23 42 24 43 74 44 25 45
REMARK SMILES IDX 79 46 73 47 75 48 26 49 78 50 72 51 71 52 27 54 59 55 39 56
REMARK SMILES IDX 58 57 40 58 43 59 57 60 76 61 41 62 42 63 56 65 77 66 44 67
REMARK SMILES IDX 28 68 29 69 37 70 30 71 36 72 38 73 35 74 31 75 32 76 33 77
REMARK SMILES IDX 34 78 60 79 61 80 69 81 62 82 68 83 70 84 67 85 63 86 64 87
REMARK SMILES IDX 65 88 66 89 45 90 46 91 54 92 47 93 53 94 55 95 52 96 48 97
REMARK SMILES IDX 49 98 50 99 51 100
REMARK H PARENT 12 6 16 34 75 53 43 64
REMARK Flexibility Score: inf
ROOT
ATOM      1  C   UNL A   1      37.380  22.640  24.447  1.00  0.00     0.042 C 
ENDROOT
BRANCH   1   2
ATOM      2  C   UNL A   1      36.302  23.692  24.701  1.00  0.00     0.118 C 
BRANCH   2   3
ATOM      3  N   UNL A   1      35.478  23.397  25.841  1.00  0.00    -0.351 N 
ATOM      4  C   UNL A   1      34.141  23.510  26.099  1.00  0.00     0.274 C 
ATOM      5  O   UNL A   1      33.792  22.960  27.150  1.00  0.00    -0.267 OA
ATOM      6  H   UNL A   1      35.988  23.036  26.601  1.00  0.00     0.163 HD
BRANCH   4   7
ATOM      7  C   UNL A   1      33.143  24.216  25.281  1.00  0.00     0.178 A 
ATOM      8  C   UNL A   1      32.571  25.492  25.204  1.00  0.00     0.108 A 
ATOM      9  N   UNL A   1      31.636  25.362  24.171  1.00  0.00    -0.212 N 
ATOM     10  N   UNL A   1      32.501  23.413  24.345  1.00  0.00    -0.124 NA
ATOM     11  N   UNL A   1      31.534  24.089  23.766  1.00  0.00    -0.061 NA
BRANCH   8  12
ATOM     12  C   UNL A   1      32.595  26.714  26.018  1.00  0.00     0.006 A 
ATOM     13  C   UNL A   1      33.812  28.689  26.777  1.00  0.00     0.119 A 
ATOM     14  C   UNL A   1      32.717  29.048  27.565  1.00  0.00     0.046 A 
ATOM     15  C   UNL A   1      33.751  27.521  26.009  1.00  0.00     0.056 A 
ATOM     16  C   UNL A   1      31.583  28.237  27.613  1.00  0.00     0.005 A 
ATOM     17  C   UNL A   1      31.537  27.054  26.871  1.00  0.00     0.011 A 
BRANCH  13  18
ATOM     18  O   UNL A   1      34.885  29.533  26.845  1.00  0.00    -0.497 OA
ATOM     19  C   UNL A   1      34.716  30.695  27.650  1.00  0.00     0.278 C 
ENDBRANCH  13  18
ENDBRANCH   8  12
BRANCH   9  20
ATOM     20  C   UNL A   1      30.783  26.350  23.629  1.00  0.00     0.067 A 
ATOM     21  C   UNL A   1      29.431  26.353  23.980  1.00  0.00     0.032 A 
ATOM     22  C   UNL A   1      31.300  27.347  22.797  1.00  0.00     0.032 A 
ATOM     23  C   UNL A   1      28.626  27.414  23.564  1.00  0.00     0.049 A 
ATOM     24  C   UNL A   1      30.480  28.386  22.364  1.00  0.00     0.049 A 
ATOM     25  C   UNL A   1      29.145  28.442  22.767  1.00  0.00     0.129 A 
BRANCH  25  26
ATOM     26  O   UNL A   1      28.254  29.430  22.457  1.00  0.00    -0.406 OA
BRANCH  26  27
ATOM     27  C   UNL A   1      28.437  30.687  23.083  1.00  0.00     0.573 C 
ATOM     28  F   UNL A   1      28.788  31.638  22.192  1.00  0.00    -0.132 F 
ATOM     29  F   UNL A   1      27.316  31.071  23.735  1.00  0.00    -0.132 F 
ATOM     30  F   UNL A   1      29.430  30.578  23.993  1.00  0.00    -0.132 F 
ENDBRANCH  26  27
ENDBRANCH  25  26
ENDBRANCH   9  20
ENDBRANCH   4   7
ENDBRANCH   2   3
ENDBRANCH   1   2
BRANCH   1  31
ATOM     31  C   UNL A   1      38.162  22.338  25.705  1.00  0.00     0.118 C 
BRANCH  31  32
ATOM     32  N   UNL A   1      38.626  20.936  25.762  1.00  0.00    -0.352 N 
ATOM     33  C   UNL A   1      39.923  20.469  25.936  1.00  0.00     0.251 C 
ATOM     34  H   UNL A   1      37.929  20.247  25.662  1.00  0.00     0.163 HD
ATOM     35  O   UNL A   1      40.230  19.312  25.666  1.00  0.00    -0.269 OA
BRANCH  33  36
ATOM     36  C   UNL A   1      40.905  21.418  26.479  1.00  0.00     0.039 A 
ATOM     37  C   UNL A   1      41.627  22.329  25.701  1.00  0.00     0.014 A 
ATOM     38  C   UNL A   1      40.890  21.507  27.857  1.00  0.00     0.014 A 
ATOM     39  C   UNL A   1      42.239  23.406  26.344  1.00  0.00     0.010 A 
ATOM     40  C   UNL A   1      41.170  22.720  28.399  1.00  0.00     0.010 A 
ATOM     41  C   UNL A   1      41.972  23.611  27.704  1.00  0.00    -0.014 A 
BRANCH  41  42
ATOM     42  C   UNL A   1      42.409  24.772  28.473  1.00  0.00     0.031 A 
ATOM     43  C   UNL A   1      41.492  25.942  28.422  1.00  0.00     0.074 A 
ATOM     44  C   UNL A   1      43.378  24.637  29.416  1.00  0.00     0.049 A 
ATOM     45  N   UNL A   1      41.725  27.110  27.922  1.00  0.00    -0.248 NA
ATOM     46  C   UNL A   1      40.092  25.759  28.845  1.00  0.00     0.031 C 
ATOM     47  C   UNL A   1      44.134  23.427  29.790  1.00  0.00     0.029 A 
ATOM     48  N   UNL A   1      43.784  25.517  30.364  1.00  0.00    -0.354 N 
ATOM     49  C   UNL A   1      40.602  27.882  28.209  1.00  0.00     0.074 A 
ATOM     50  C   UNL A   1      39.562  26.948  28.549  1.00  0.00     0.031 C 
ATOM     51  C   UNL A   1      44.664  23.573  31.023  1.00  0.00     0.029 A 
ATOM     52  C   UNL A   1      44.477  24.950  31.435  1.00  0.00     0.049 A 
ATOM     53  H   UNL A   1      43.603  26.483  30.302  1.00  0.00     0.167 HD
ATOM     54  C   UNL A   1      40.701  29.227  28.407  1.00  0.00     0.034 A 
ATOM     55  C   UNL A   1      44.864  25.563  32.586  1.00  0.00     0.034 A 
ATOM     56  C   UNL A   1      41.983  29.721  27.953  1.00  0.00     0.049 A 
ATOM     57  C   UNL A   1      44.866  27.018  32.288  1.00  0.00     0.074 A 
ATOM     58  C   UNL A   1      42.655  29.699  26.745  1.00  0.00     0.029 A 
ATOM     59  N   UNL A   1      42.953  29.960  28.903  1.00  0.00    -0.354 N 
ATOM     60  N   UNL A   1      45.653  27.556  31.393  1.00  0.00    -0.248 NA
ATOM     61  C   UNL A   1      43.649  27.767  32.567  1.00  0.00     0.031 C 
ATOM     62  C   UNL A   1      44.004  29.380  27.089  1.00  0.00     0.029 A 
ATOM     63  C   UNL A   1      44.101  29.329  28.482  1.00  0.00     0.049 A 
ATOM     64  H   UNL A   1      42.845  30.484  29.729  1.00  0.00     0.167 HD
ATOM     65  C   UNL A   1      44.851  28.446  30.692  1.00  0.00     0.074 A 
ATOM     66  C   UNL A   1      43.652  28.600  31.519  1.00  0.00     0.031 C 
ATOM     67  C   UNL A   1      45.083  28.733  29.374  1.00  0.00     0.034 A 
BRANCH  54  68
ATOM     68  C   UNL A   1      39.821  30.041  29.332  1.00  0.00     0.023 A 
ATOM     69  C   UNL A   1      40.187  30.095  30.691  1.00  0.00     0.031 A 
ATOM     70  C   UNL A   1      38.525  30.518  29.028  1.00  0.00     0.131 A 
ATOM     71  C   UNL A   1      39.269  30.507  31.673  1.00  0.00     0.055 A 
ATOM     72  C   UNL A   1      37.641  30.994  30.001  1.00  0.00     0.041 A 
ATOM     73  F   UNL A   1      38.001  30.463  27.798  1.00  0.00    -0.206 F 
ATOM     74  C   UNL A   1      37.996  30.961  31.336  1.00  0.00     0.022 A 
BRANCH  71  75
ATOM     75  S   UNL A   1      39.704  30.266  33.415  1.00  0.00     0.124 S 
ATOM     76  O   UNL A   1      38.997  31.372  34.052  1.00  0.00    -0.237 OA
ATOM     77  O   UNL A   1      39.176  28.931  33.672  1.00  0.00    -0.237 OA
ATOM     78  O   UNL A   1      41.161  30.373  33.418  1.00  0.00    -0.744 OA
ENDBRANCH  71  75
ENDBRANCH  54  68
BRANCH  55  79
ATOM     79  C   UNL A   1      44.843  24.978  33.961  1.00  0.00     0.023 A 
ATOM     80  C   UNL A   1      46.004  24.564  34.651  1.00  0.00     0.031 A 
ATOM     81  C   UNL A   1      43.648  25.036  34.718  1.00  0.00     0.131 A 
ATOM     82  C   UNL A   1      45.935  24.226  36.028  1.00  0.00     0.055 A 
ATOM     83  C   UNL A   1      43.588  24.704  36.075  1.00  0.00     0.041 A 
ATOM     84  F   UNL A   1      42.508  25.497  34.178  1.00  0.00    -0.206 F 
ATOM     85  C   UNL A   1      44.735  24.306  36.738  1.00  0.00     0.022 A 
BRANCH  82  86
ATOM     86  S   UNL A   1      47.438  23.747  36.948  1.00  0.00     0.124 S 
ATOM     87  O   UNL A   1      46.973  23.759  38.330  1.00  0.00    -0.237 OA
ATOM     88  O   UNL A   1      47.749  22.439  36.380  1.00  0.00    -0.237 OA
ATOM     89  O   UNL A   1      48.397  24.800  36.614  1.00  0.00    -0.744 OA
ENDBRANCH  82  86
ENDBRANCH  55  79
BRANCH  67  90
ATOM     90  C   UNL A   1      46.366  28.220  28.735  1.00  0.00     0.023 A 
ATOM     91  C   UNL A   1      46.467  27.065  27.921  1.00  0.00     0.031 A 
ATOM     92  C   UNL A   1      47.508  29.030  28.847  1.00  0.00     0.131 A 
ATOM     93  C   UNL A   1      47.680  26.757  27.269  1.00  0.00     0.055 A 
ATOM     94  C   UNL A   1      48.700  28.734  28.185  1.00  0.00     0.041 A 
ATOM     95  F   UNL A   1      47.472  30.157  29.577  1.00  0.00    -0.206 F 
ATOM     96  C   UNL A   1      48.793  27.594  27.396  1.00  0.00     0.022 A 
BRANCH  93  97
ATOM     97  S   UNL A   1      47.839  25.255  26.242  1.00  0.00     0.124 S 
ATOM     98  O   UNL A   1      48.916  25.588  25.316  1.00  0.00    -0.237 OA
ATOM     99  O   UNL A   1      48.141  24.222  27.228  1.00  0.00    -0.237 OA
ATOM    100  O   UNL A   1      46.521  25.129  25.617  1.00  0.00    -0.744 OA
ENDBRANCH  93  97
ENDBRANCH  67  90
ENDBRANCH  41  42
ENDBRANCH  33  36
ENDBRANCH  31  32
ENDBRANCH   1  31
TORSDOF 18
ENDMDL
