MODEL 1
REMARK VINA RESULT:     -14.0      0.000      0.000
REMARK SMILES COc1cccc(-c2nn(-c3cc4c(cc3C(N)=O)OCO4)cc2C(=O)NCCCNC(=O)c2ccc(-c3c4nc(c(-c5cc(S(=O)(=O)[O-])ccc5F)c5ccc([nH]5)c(-c5cc(S(=O)(=O)[O-])ccc5F)c5nc(c(-c6cc(S(=O)(=O)[O-])ccc6F)c6ccc3[nH]6)C=C5)C=C4)cc2)c1
REMARK SMILES IDX 29 1 28 2 27 3 25 4 26 5 24 7 8 8 9 9 10 10 23 11 7 12 3 13
REMARK SMILES IDX 4 14 97 15 5 16 6 17 2 18 1 19 11 20 12 21 16 22 13 23 15 24
REMARK SMILES IDX 14 25 22 26 20 27 21 28 17 29 18 30 19 31 30 34 31 35 32 36
REMARK SMILES IDX 33 38 34 39 35 40 96 41 36 42 95 43 37 44 38 45 39 46 89 47
REMARK SMILES IDX 40 48 94 49 88 50 90 51 41 52 93 53 87 54 86 55 42 57 74 58
REMARK SMILES IDX 54 59 73 60 55 61 58 62 72 63 91 64 56 65 57 66 71 68 92 69
REMARK SMILES IDX 59 70 43 71 44 72 52 73 45 74 51 75 53 76 50 77 46 78 47 79
REMARK SMILES IDX 48 80 49 81 75 82 76 83 84 84 77 85 83 86 85 87 82 88 78 89
REMARK SMILES IDX 79 90 80 91 81 92 60 93 61 94 69 95 62 96 68 97 70 98 67 99
REMARK SMILES IDX 63 100 64 101 65 102 66 103
REMARK H PARENT 27 6 18 32 18 33 31 37 90 56 58 67
REMARK Flexibility Score: inf
ROOT
ATOM      1  C   UNL A   1      34.959  29.377  27.085  1.00  0.00     0.042 C 
ENDROOT
BRANCH   1   2
ATOM      2  C   UNL A   1      33.628  29.957  26.593  1.00  0.00     0.118 C 
BRANCH   2   3
ATOM      3  N   UNL A   1      32.482  29.397  27.288  1.00  0.00    -0.352 N 
ATOM      4  C   UNL A   1      31.875  28.160  27.229  1.00  0.00     0.255 C 
ATOM      5  O   UNL A   1      30.985  27.953  28.040  1.00  0.00    -0.269 OA
ATOM      6  H   UNL A   1      32.057  30.018  27.923  1.00  0.00     0.163 HD
BRANCH   4   7
ATOM      7  C   UNL A   1      32.309  27.150  26.268  1.00  0.00     0.086 A 
ATOM      8  C   UNL A   1      31.690  26.765  25.025  1.00  0.00     0.106 A 
ATOM      9  N   UNL A   1      32.320  25.705  24.466  1.00  0.00    -0.167 NA
ATOM     10  N   UNL A   1      33.201  25.330  25.417  1.00  0.00    -0.239 N 
ATOM     11  C   UNL A   1      33.419  26.341  26.315  1.00  0.00     0.129 A 
BRANCH   8  12
ATOM     12  C   UNL A   1      30.527  27.384  24.383  1.00  0.00     0.007 A 
ATOM     13  C   UNL A   1      29.511  29.233  23.179  1.00  0.00     0.119 A 
ATOM     14  C   UNL A   1      28.333  28.493  23.046  1.00  0.00     0.046 A 
ATOM     15  C   UNL A   1      30.605  28.683  23.856  1.00  0.00     0.056 A 
ATOM     16  C   UNL A   1      28.243  27.208  23.575  1.00  0.00     0.005 A 
ATOM     17  C   UNL A   1      29.334  26.660  24.251  1.00  0.00     0.011 A 
BRANCH  13  18
ATOM     18  O   UNL A   1      29.460  30.498  22.657  1.00  0.00    -0.497 OA
ATOM     19  C   UNL A   1      28.170  30.945  22.264  1.00  0.00     0.278 C 
ENDBRANCH  13  18
ENDBRANCH   8  12
BRANCH  10  20
ATOM     20  C   UNL A   1      33.936  24.120  25.392  1.00  0.00     0.081 A 
ATOM     21  C   UNL A   1      35.119  24.079  24.634  1.00  0.00     0.079 A 
ATOM     22  C   UNL A   1      33.548  23.016  26.212  1.00  0.00     0.069 A 
ATOM     23  C   UNL A   1      35.922  22.967  24.785  1.00  0.00     0.167 A 
ATOM     24  C   UNL A   1      34.453  21.964  26.414  1.00  0.00     0.066 A 
ATOM     25  C   UNL A   1      35.611  21.962  25.674  1.00  0.00     0.166 A 
ATOM     26  O   UNL A   1      37.083  22.711  24.125  1.00  0.00    -0.454 OA
ATOM     27  O   UNL A   1      36.533  20.961  25.679  1.00  0.00    -0.454 OA
ATOM     28  C   UNL A   1      37.333  21.353  24.546  1.00  0.00     0.468 C 
BRANCH  22  29
ATOM     29  C   UNL A   1      32.129  22.839  26.677  1.00  0.00     0.251 C 
ATOM     30  N   UNL A   1      31.318  21.961  26.014  1.00  0.00    -0.366 N 
ATOM     31  O   UNL A   1      31.623  23.512  27.568  1.00  0.00    -0.269 OA
ATOM     32  H   UNL A   1      31.684  21.401  25.292  1.00  0.00     0.159 HD
ATOM     33  H   UNL A   1      30.367  21.887  26.259  1.00  0.00     0.159 HD
ENDBRANCH  22  29
ENDBRANCH  10  20
ENDBRANCH   4   7
ENDBRANCH   2   3
ENDBRANCH   1   2
BRANCH   1  34
ATOM     34  C   UNL A   1      35.802  30.428  27.780  1.00  0.00     0.118 C 
BRANCH  34  35
ATOM     35  N   UNL A   1      35.804  30.275  29.244  1.00  0.00    -0.352 N 
ATOM     36  C   UNL A   1      36.631  29.497  30.045  1.00  0.00     0.251 C 
ATOM     37  H   UNL A   1      35.122  30.799  29.725  1.00  0.00     0.163 HD
ATOM     38  O   UNL A   1      36.283  29.190  31.178  1.00  0.00    -0.269 OA
BRANCH  36  39
ATOM     39  C   UNL A   1      37.930  29.060  29.499  1.00  0.00     0.039 A 
ATOM     40  C   UNL A   1      38.488  29.551  28.317  1.00  0.00     0.014 A 
ATOM     41  C   UNL A   1      38.631  28.150  30.272  1.00  0.00     0.014 A 
ATOM     42  C   UNL A   1      39.771  29.124  27.969  1.00  0.00     0.010 A 
ATOM     43  C   UNL A   1      39.976  28.060  30.131  1.00  0.00     0.010 A 
ATOM     44  C   UNL A   1      40.505  28.369  28.897  1.00  0.00    -0.014 A 
BRANCH  44  45
ATOM     45  C   UNL A   1      41.877  27.930  28.699  1.00  0.00     0.031 A 
ATOM     46  C   UNL A   1      41.962  26.671  27.931  1.00  0.00     0.074 A 
ATOM     47  C   UNL A   1      42.941  28.743  28.912  1.00  0.00     0.049 A 
ATOM     48  N   UNL A   1      42.180  25.486  28.391  1.00  0.00    -0.248 NA
ATOM     49  C   UNL A   1      41.505  26.687  26.529  1.00  0.00     0.031 C 
ATOM     50  C   UNL A   1      42.958  30.159  29.313  1.00  0.00     0.029 A 
ATOM     51  N   UNL A   1      44.262  28.494  28.711  1.00  0.00    -0.354 N 
ATOM     52  C   UNL A   1      42.190  24.659  27.275  1.00  0.00     0.074 A 
ATOM     53  C   UNL A   1      41.485  25.381  26.255  1.00  0.00     0.031 C 
ATOM     54  C   UNL A   1      44.189  30.684  29.108  1.00  0.00     0.029 A 
ATOM     55  C   UNL A   1      45.094  29.615  28.725  1.00  0.00     0.049 A 
ATOM     56  H   UNL A   1      44.609  27.584  28.564  1.00  0.00     0.167 HD
ATOM     57  C   UNL A   1      43.049  23.604  27.200  1.00  0.00     0.034 A 
ATOM     58  C   UNL A   1      46.425  29.658  28.425  1.00  0.00     0.034 A 
ATOM     59  C   UNL A   1      43.638  23.339  28.498  1.00  0.00     0.049 A 
ATOM     60  C   UNL A   1      46.917  28.258  28.545  1.00  0.00     0.074 A 
ATOM     61  C   UNL A   1      43.125  23.039  29.747  1.00  0.00     0.029 A 
ATOM     62  N   UNL A   1      44.915  23.807  28.728  1.00  0.00    -0.354 N 
ATOM     63  N   UNL A   1      46.925  27.601  29.676  1.00  0.00    -0.248 NA
ATOM     64  C   UNL A   1      46.876  27.426  27.350  1.00  0.00     0.031 C 
ATOM     65  C   UNL A   1      43.904  23.813  30.657  1.00  0.00     0.029 A 
ATOM     66  C   UNL A   1      44.919  24.453  29.940  1.00  0.00     0.049 A 
ATOM     67  H   UNL A   1      45.688  23.697  28.128  1.00  0.00     0.167 HD
ATOM     68  C   UNL A   1      46.463  26.329  29.361  1.00  0.00     0.074 A 
ATOM     69  C   UNL A   1      46.522  26.260  27.900  1.00  0.00     0.031 C 
ATOM     70  C   UNL A   1      45.792  25.567  30.277  1.00  0.00     0.034 A 
BRANCH  57  71
ATOM     71  C   UNL A   1      43.670  23.075  25.922  1.00  0.00     0.023 A 
ATOM     72  C   UNL A   1      43.639  21.680  25.738  1.00  0.00     0.031 A 
ATOM     73  C   UNL A   1      44.505  23.788  25.031  1.00  0.00     0.131 A 
ATOM     74  C   UNL A   1      44.484  21.053  24.810  1.00  0.00     0.055 A 
ATOM     75  C   UNL A   1      45.296  23.163  24.063  1.00  0.00     0.041 A 
ATOM     76  F   UNL A   1      44.680  25.111  25.088  1.00  0.00    -0.206 F 
ATOM     77  C   UNL A   1      45.317  21.785  23.971  1.00  0.00     0.022 A 
BRANCH  74  78
ATOM     78  S   UNL A   1      44.605  19.248  24.848  1.00  0.00     0.124 S 
ATOM     79  O   UNL A   1      44.530  18.920  23.428  1.00  0.00    -0.237 OA
ATOM     80  O   UNL A   1      45.899  19.048  25.490  1.00  0.00    -0.237 OA
ATOM     81  O   UNL A   1      43.444  18.850  25.642  1.00  0.00    -0.744 OA
ENDBRANCH  74  78
ENDBRANCH  57  71
BRANCH  58  82
ATOM     82  C   UNL A   1      47.149  30.733  27.673  1.00  0.00     0.023 A 
ATOM     83  C   UNL A   1      46.520  31.852  27.072  1.00  0.00     0.031 A 
ATOM     84  C   UNL A   1      48.560  30.776  27.742  1.00  0.00     0.131 A 
ATOM     85  C   UNL A   1      47.298  32.931  26.570  1.00  0.00     0.055 A 
ATOM     86  C   UNL A   1      49.320  31.839  27.248  1.00  0.00     0.041 A 
ATOM     87  F   UNL A   1      49.248  29.809  28.372  1.00  0.00    -0.206 F 
ATOM     88  C   UNL A   1      48.692  32.925  26.664  1.00  0.00     0.022 A 
BRANCH  85  89
ATOM     89  S   UNL A   1      46.509  34.401  25.821  1.00  0.00     0.124 S 
ATOM     90  O   UNL A   1      45.384  33.821  25.098  1.00  0.00    -0.237 OA
ATOM     91  O   UNL A   1      46.183  35.209  26.990  1.00  0.00    -0.237 OA
ATOM     92  O   UNL A   1      47.560  34.959  24.968  1.00  0.00    -0.744 OA
ENDBRANCH  85  89
ENDBRANCH  58  82
BRANCH  70  93
ATOM     93  C   UNL A   1      45.805  25.989  31.736  1.00  0.00     0.023 A 
ATOM     94  C   UNL A   1      44.722  26.566  32.443  1.00  0.00     0.031 A 
ATOM     95  C   UNL A   1      46.945  25.626  32.477  1.00  0.00     0.131 A 
ATOM     96  C   UNL A   1      44.813  26.747  33.841  1.00  0.00     0.055 A 
ATOM     97  C   UNL A   1      47.020  25.783  33.858  1.00  0.00     0.041 A 
ATOM     98  F   UNL A   1      47.996  25.054  31.865  1.00  0.00    -0.206 F 
ATOM     99  C   UNL A   1      45.954  26.347  34.546  1.00  0.00     0.022 A 
BRANCH  96 100
ATOM    100  S   UNL A   1      43.450  27.512  34.786  1.00  0.00     0.124 S 
ATOM    101  O   UNL A   1      43.479  26.796  36.058  1.00  0.00    -0.237 OA
ATOM    102  O   UNL A   1      43.843  28.917  34.833  1.00  0.00    -0.237 OA
ATOM    103  O   UNL A   1      42.269  27.241  33.964  1.00  0.00    -0.744 OA
ENDBRANCH  96 100
ENDBRANCH  70  93
ENDBRANCH  44  45
ENDBRANCH  36  39
ENDBRANCH  34  35
ENDBRANCH   1  34
TORSDOF 17
ENDMDL
MODEL 2
REMARK VINA RESULT:     -13.8      4.150      5.439
REMARK SMILES COc1cccc(-c2nn(-c3cc4c(cc3C(N)=O)OCO4)cc2C(=O)NCCCNC(=O)c2ccc(-c3c4nc(c(-c5cc(S(=O)(=O)[O-])ccc5F)c5ccc([nH]5)c(-c5cc(S(=O)(=O)[O-])ccc5F)c5nc(c(-c6cc(S(=O)(=O)[O-])ccc6F)c6ccc3[nH]6)C=C5)C=C4)cc2)c1
REMARK SMILES IDX 29 1 28 2 27 3 25 4 26 5 24 7 8 8 9 9 10 10 23 11 7 12 3 13
REMARK SMILES IDX 4 14 97 15 5 16 6 17 2 18 1 19 11 20 12 21 16 22 13 23 15 24
REMARK SMILES IDX 14 25 22 26 20 27 21 28 17 29 18 30 19 31 30 34 31 35 32 36
REMARK SMILES IDX 33 38 34 39 35 40 96 41 36 42 95 43 37 44 38 45 39 46 89 47
REMARK SMILES IDX 40 48 94 49 88 50 90 51 41 52 93 53 87 54 86 55 42 57 74 58
REMARK SMILES IDX 54 59 73 60 55 61 58 62 72 63 91 64 56 65 57 66 71 68 92 69
REMARK SMILES IDX 59 70 43 71 44 72 52 73 45 74 51 75 53 76 50 77 46 78 47 79
REMARK SMILES IDX 48 80 49 81 75 82 76 83 84 84 77 85 83 86 85 87 82 88 78 89
REMARK SMILES IDX 79 90 80 91 81 92 60 93 61 94 69 95 62 96 68 97 70 98 67 99
REMARK SMILES IDX 63 100 64 101 65 102 66 103
REMARK H PARENT 27 6 18 32 18 33 31 37 90 56 58 67
REMARK Flexibility Score: inf
ROOT
ATOM      1  C   UNL A   1      33.662  31.428  26.863  1.00  0.00     0.042 C 
ENDROOT
BRANCH   1   2
ATOM      2  C   UNL A   1      33.789  29.904  26.972  1.00  0.00     0.118 C 
BRANCH   2   3
ATOM      3  N   UNL A   1      32.589  29.279  27.504  1.00  0.00    -0.352 N 
ATOM      4  C   UNL A   1      31.952  28.093  27.208  1.00  0.00     0.255 C 
ATOM      5  O   UNL A   1      31.012  27.788  27.927  1.00  0.00    -0.269 OA
ATOM      6  H   UNL A   1      32.147  29.802  28.211  1.00  0.00     0.163 HD
BRANCH   4   7
ATOM      7  C   UNL A   1      32.411  27.240  26.115  1.00  0.00     0.086 A 
ATOM      8  C   UNL A   1      31.807  27.027  24.825  1.00  0.00     0.106 A 
ATOM      9  N   UNL A   1      32.461  26.070  24.124  1.00  0.00    -0.167 NA
ATOM     10  N   UNL A   1      33.343  25.578  25.019  1.00  0.00    -0.239 N 
ATOM     11  C   UNL A   1      33.536  26.453  26.055  1.00  0.00     0.129 A 
BRANCH   8  12
ATOM     12  C   UNL A   1      30.636  27.711  24.269  1.00  0.00     0.007 A 
ATOM     13  C   UNL A   1      29.545  29.732  23.477  1.00  0.00     0.119 A 
ATOM     14  C   UNL A   1      28.438  28.975  23.084  1.00  0.00     0.046 A 
ATOM     15  C   UNL A   1      30.640  29.102  24.079  1.00  0.00     0.056 A 
ATOM     16  C   UNL A   1      28.421  27.596  23.278  1.00  0.00     0.005 A 
ATOM     17  C   UNL A   1      29.513  26.968  23.879  1.00  0.00     0.011 A 
BRANCH  13  18
ATOM     18  O   UNL A   1      29.423  31.080  23.276  1.00  0.00    -0.497 OA
ATOM     19  C   UNL A   1      28.095  31.555  23.105  1.00  0.00     0.278 C 
ENDBRANCH  13  18
ENDBRANCH   8  12
BRANCH  10  20
ATOM     20  C   UNL A   1      34.102  24.399  24.825  1.00  0.00     0.081 A 
ATOM     21  C   UNL A   1      35.478  24.441  25.109  1.00  0.00     0.079 A 
ATOM     22  C   UNL A   1      33.460  23.171  24.470  1.00  0.00     0.069 A 
ATOM     23  C   UNL A   1      36.154  23.238  25.111  1.00  0.00     0.167 A 
ATOM     24  C   UNL A   1      34.170  21.969  24.597  1.00  0.00     0.066 A 
ATOM     25  C   UNL A   1      35.509  22.042  24.895  1.00  0.00     0.166 A 
ATOM     26  O   UNL A   1      37.486  23.059  25.324  1.00  0.00    -0.454 OA
ATOM     27  O   UNL A   1      36.351  20.973  24.946  1.00  0.00    -0.454 OA
ATOM     28  C   UNL A   1      37.619  21.658  25.004  1.00  0.00     0.468 C 
BRANCH  22  29
ATOM     29  C   UNL A   1      32.138  23.151  23.755  1.00  0.00     0.251 C 
ATOM     30  N   UNL A   1      32.103  23.416  22.414  1.00  0.00    -0.366 N 
ATOM     31  O   UNL A   1      31.065  23.001  24.328  1.00  0.00    -0.269 OA
ATOM     32  H   UNL A   1      32.943  23.544  21.917  1.00  0.00     0.159 HD
ATOM     33  H   UNL A   1      31.239  23.479  21.946  1.00  0.00     0.159 HD
ENDBRANCH  22  29
ENDBRANCH  10  20
ENDBRANCH   4   7
ENDBRANCH   2   3
ENDBRANCH   1   2
BRANCH   1  34
ATOM     34  C   UNL A   1      32.329  31.916  27.398  1.00  0.00     0.118 C 
BRANCH  34  35
ATOM     35  N   UNL A   1      32.262  33.382  27.496  1.00  0.00    -0.352 N 
ATOM     36  C   UNL A   1      32.990  34.244  28.307  1.00  0.00     0.251 C 
ATOM     37  H   UNL A   1      31.606  33.816  26.901  1.00  0.00     0.163 HD
ATOM     38  O   UNL A   1      32.573  35.371  28.543  1.00  0.00    -0.269 OA
BRANCH  36  39
ATOM     39  C   UNL A   1      34.268  33.769  28.868  1.00  0.00     0.039 A 
ATOM     40  C   UNL A   1      34.385  33.074  30.074  1.00  0.00     0.014 A 
ATOM     41  C   UNL A   1      35.389  33.996  28.087  1.00  0.00     0.014 A 
ATOM     42  C   UNL A   1      35.645  32.594  30.437  1.00  0.00     0.010 A 
ATOM     43  C   UNL A   1      36.481  33.209  28.253  1.00  0.00     0.010 A 
ATOM     44  C   UNL A   1      36.691  32.675  29.505  1.00  0.00    -0.014 A 
BRANCH  44  45
ATOM     45  C   UNL A   1      38.027  32.142  29.720  1.00  0.00     0.031 A 
ATOM     46  C   UNL A   1      38.152  30.738  29.278  1.00  0.00     0.074 A 
ATOM     47  C   UNL A   1      39.094  32.933  29.989  1.00  0.00     0.049 A 
ATOM     48  N   UNL A   1      38.156  29.681  30.016  1.00  0.00    -0.248 NA
ATOM     49  C   UNL A   1      38.003  30.453  27.839  1.00  0.00     0.031 C 
ATOM     50  C   UNL A   1      39.159  34.402  30.072  1.00  0.00     0.029 A 
ATOM     51  N   UNL A   1      40.399  32.587  30.148  1.00  0.00    -0.354 N 
ATOM     52  C   UNL A   1      38.323  28.621  29.134  1.00  0.00     0.074 A 
ATOM     53  C   UNL A   1      37.918  29.122  27.851  1.00  0.00     0.031 C 
ATOM     54  C   UNL A   1      40.450  34.810  30.042  1.00  0.00     0.029 A 
ATOM     55  C   UNL A   1      41.311  33.643  30.111  1.00  0.00     0.049 A 
ATOM     56  H   UNL A   1      40.681  31.653  30.281  1.00  0.00     0.167 HD
ATOM     57  C   UNL A   1      39.075  27.540  29.481  1.00  0.00     0.034 A 
ATOM     58  C   UNL A   1      42.673  33.556  30.116  1.00  0.00     0.034 A 
ATOM     59  C   UNL A   1      39.351  27.553  30.905  1.00  0.00     0.049 A 
ATOM     60  C   UNL A   1      42.995  32.200  30.640  1.00  0.00     0.074 A 
ATOM     61  C   UNL A   1      38.561  27.569  32.040  1.00  0.00     0.029 A 
ATOM     62  N   UNL A   1      40.590  28.003  31.311  1.00  0.00    -0.354 N 
ATOM     63  N   UNL A   1      42.704  31.820  31.857  1.00  0.00    -0.248 NA
ATOM     64  C   UNL A   1      43.127  31.120  29.672  1.00  0.00     0.031 C 
ATOM     65  C   UNL A   1      39.202  28.496  32.916  1.00  0.00     0.029 A 
ATOM     66  C   UNL A   1      40.400  28.909  32.327  1.00  0.00     0.049 A 
ATOM     67  H   UNL A   1      41.458  27.724  30.939  1.00  0.00     0.167 HD
ATOM     68  C   UNL A   1      42.201  30.532  31.725  1.00  0.00     0.074 A 
ATOM     69  C   UNL A   1      42.558  30.128  30.364  1.00  0.00     0.031 C 
ATOM     70  C   UNL A   1      41.284  30.030  32.606  1.00  0.00     0.034 A 
BRANCH  57  71
ATOM     71  C   UNL A   1      39.898  26.706  28.520  1.00  0.00     0.023 A 
ATOM     72  C   UNL A   1      41.010  27.337  27.931  1.00  0.00     0.031 A 
ATOM     73  C   UNL A   1      39.527  25.468  27.947  1.00  0.00     0.131 A 
ATOM     74  C   UNL A   1      41.613  26.813  26.776  1.00  0.00     0.055 A 
ATOM     75  C   UNL A   1      40.174  24.918  26.836  1.00  0.00     0.041 A 
ATOM     76  F   UNL A   1      38.476  24.753  28.358  1.00  0.00    -0.206 F 
ATOM     77  C   UNL A   1      41.201  25.607  26.221  1.00  0.00     0.022 A 
BRANCH  74  78
ATOM     78  S   UNL A   1      42.829  27.835  25.910  1.00  0.00     0.124 S 
ATOM     79  O   UNL A   1      43.792  26.831  25.468  1.00  0.00    -0.237 OA
ATOM     80  O   UNL A   1      42.015  28.452  24.869  1.00  0.00    -0.237 OA
ATOM     81  O   UNL A   1      43.308  28.744  26.950  1.00  0.00    -0.744 OA
ENDBRANCH  74  78
ENDBRANCH  57  71
BRANCH  58  82
ATOM     82  C   UNL A   1      43.636  34.398  29.335  1.00  0.00     0.023 A 
ATOM     83  C   UNL A   1      44.189  34.029  28.084  1.00  0.00     0.031 A 
ATOM     84  C   UNL A   1      43.848  35.736  29.739  1.00  0.00     0.131 A 
ATOM     85  C   UNL A   1      44.918  34.976  27.313  1.00  0.00     0.055 A 
ATOM     86  C   UNL A   1      44.565  36.663  28.977  1.00  0.00     0.041 A 
ATOM     87  F   UNL A   1      43.290  36.212  30.865  1.00  0.00    -0.206 F 
ATOM     88  C   UNL A   1      45.099  36.288  27.757  1.00  0.00     0.022 A 
BRANCH  85  89
ATOM     89  S   UNL A   1      45.614  34.534  25.680  1.00  0.00     0.124 S 
ATOM     90  O   UNL A   1      44.427  34.485  24.834  1.00  0.00    -0.237 OA
ATOM     91  O   UNL A   1      46.544  35.629  25.431  1.00  0.00    -0.237 OA
ATOM     92  O   UNL A   1      46.249  33.236  25.916  1.00  0.00    -0.744 OA
ENDBRANCH  85  89
ENDBRANCH  58  82
BRANCH  70  93
ATOM     93  C   UNL A   1      41.030  30.774  33.907  1.00  0.00     0.023 A 
ATOM     94  C   UNL A   1      39.961  31.669  34.156  1.00  0.00     0.031 A 
ATOM     95  C   UNL A   1      41.844  30.413  34.997  1.00  0.00     0.131 A 
ATOM     96  C   UNL A   1      39.743  32.154  35.464  1.00  0.00     0.055 A 
ATOM     97  C   UNL A   1      41.609  30.875  36.289  1.00  0.00     0.041 A 
ATOM     98  F   UNL A   1      42.859  29.551  34.827  1.00  0.00    -0.206 F 
ATOM     99  C   UNL A   1      40.558  31.750  36.528  1.00  0.00     0.022 A 
BRANCH  96 100
ATOM    100  S   UNL A   1      38.392  33.331  35.824  1.00  0.00     0.124 S 
ATOM    101  O   UNL A   1      37.954  33.756  34.499  1.00  0.00    -0.237 OA
ATOM    102  O   UNL A   1      37.448  32.511  36.578  1.00  0.00    -0.237 OA
ATOM    103  O   UNL A   1      39.049  34.377  36.611  1.00  0.00    -0.744 OA
ENDBRANCH  96 100
ENDBRANCH  70  93
ENDBRANCH  44  45
ENDBRANCH  36  39
ENDBRANCH  34  35
ENDBRANCH   1  34
TORSDOF 17
ENDMDL
MODEL 3
REMARK VINA RESULT:     -13.7      2.642      7.049
REMARK SMILES COc1cccc(-c2nn(-c3cc4c(cc3C(N)=O)OCO4)cc2C(=O)NCCCNC(=O)c2ccc(-c3c4nc(c(-c5cc(S(=O)(=O)[O-])ccc5F)c5ccc([nH]5)c(-c5cc(S(=O)(=O)[O-])ccc5F)c5nc(c(-c6cc(S(=O)(=O)[O-])ccc6F)c6ccc3[nH]6)C=C5)C=C4)cc2)c1
REMARK SMILES IDX 29 1 28 2 27 3 25 4 26 5 24 7 8 8 9 9 10 10 23 11 7 12 3 13
REMARK SMILES IDX 4 14 97 15 5 16 6 17 2 18 1 19 11 20 12 21 16 22 13 23 15 24
REMARK SMILES IDX 14 25 22 26 20 27 21 28 17 29 18 30 19 31 30 34 31 35 32 36
REMARK SMILES IDX 33 38 34 39 35 40 96 41 36 42 95 43 37 44 38 45 39 46 89 47
REMARK SMILES IDX 40 48 94 49 88 50 90 51 41 52 93 53 87 54 86 55 42 57 74 58
REMARK SMILES IDX 54 59 73 60 55 61 58 62 72 63 91 64 56 65 57 66 71 68 92 69
REMARK SMILES IDX 59 70 43 71 44 72 52 73 45 74 51 75 53 76 50 77 46 78 47 79
REMARK SMILES IDX 48 80 49 81 75 82 76 83 84 84 77 85 83 86 85 87 82 88 78 89
REMARK SMILES IDX 79 90 80 91 81 92 60 93 61 94 69 95 62 96 68 97 70 98 67 99
REMARK SMILES IDX 63 100 64 101 65 102 66 103
REMARK H PARENT 27 6 18 32 18 33 31 37 90 56 58 67
REMARK Flexibility Score: inf
ROOT
ATOM      1  C   UNL A   1      32.458  29.778  27.204  1.00  0.00     0.042 C 
ENDROOT
BRANCH   1   2
ATOM      2  C   UNL A   1      31.970  28.865  26.073  1.00  0.00     0.118 C 
BRANCH   2   3
ATOM      3  N   UNL A   1      32.733  29.035  24.848  1.00  0.00    -0.352 N 
ATOM      4  C   UNL A   1      32.778  28.310  23.676  1.00  0.00     0.255 C 
ATOM      5  O   UNL A   1      33.446  28.786  22.770  1.00  0.00    -0.269 OA
ATOM      6  H   UNL A   1      33.330  29.817  24.856  1.00  0.00     0.163 HD
BRANCH   4   7
ATOM      7  C   UNL A   1      32.034  27.062  23.528  1.00  0.00     0.086 A 
ATOM      8  C   UNL A   1      30.623  26.876  23.305  1.00  0.00     0.106 A 
ATOM      9  N   UNL A   1      30.285  25.565  23.343  1.00  0.00    -0.167 NA
ATOM     10  N   UNL A   1      31.423  24.963  23.747  1.00  0.00    -0.239 N 
ATOM     11  C   UNL A   1      32.509  25.773  23.549  1.00  0.00     0.129 A 
BRANCH   8  12
ATOM     12  C   UNL A   1      29.617  27.915  23.067  1.00  0.00     0.007 A 
ATOM     13  C   UNL A   1      28.973  30.058  22.123  1.00  0.00     0.119 A 
ATOM     14  C   UNL A   1      27.650  29.826  22.509  1.00  0.00     0.046 A 
ATOM     15  C   UNL A   1      29.959  29.108  22.411  1.00  0.00     0.056 A 
ATOM     16  C   UNL A   1      27.304  28.650  23.170  1.00  0.00     0.005 A 
ATOM     17  C   UNL A   1      28.287  27.703  23.458  1.00  0.00     0.011 A 
BRANCH  13  18
ATOM     18  O   UNL A   1      29.195  31.268  21.522  1.00  0.00    -0.497 OA
ATOM     19  C   UNL A   1      28.104  31.790  20.776  1.00  0.00     0.278 C 
ENDBRANCH  13  18
ENDBRANCH   8  12
BRANCH  10  20
ATOM     20  C   UNL A   1      31.507  23.609  24.155  1.00  0.00     0.081 A 
ATOM     21  C   UNL A   1      31.806  22.641  23.182  1.00  0.00     0.079 A 
ATOM     22  C   UNL A   1      31.411  23.260  25.539  1.00  0.00     0.069 A 
ATOM     23  C   UNL A   1      32.084  21.366  23.632  1.00  0.00     0.167 A 
ATOM     24  C   UNL A   1      31.812  21.980  25.948  1.00  0.00     0.066 A 
ATOM     25  C   UNL A   1      32.118  21.061  24.974  1.00  0.00     0.166 A 
ATOM     26  O   UNL A   1      32.362  20.279  22.863  1.00  0.00    -0.454 OA
ATOM     27  O   UNL A   1      32.418  19.754  25.208  1.00  0.00    -0.454 OA
ATOM     28  C   UNL A   1      32.356  19.239  23.863  1.00  0.00     0.468 C 
BRANCH  22  29
ATOM     29  C   UNL A   1      30.686  24.134  26.524  1.00  0.00     0.251 C 
ATOM     30  N   UNL A   1      29.437  23.770  26.942  1.00  0.00    -0.366 N 
ATOM     31  O   UNL A   1      31.118  25.215  26.910  1.00  0.00    -0.269 OA
ATOM     32  H   UNL A   1      29.054  22.910  26.655  1.00  0.00     0.159 HD
ATOM     33  H   UNL A   1      28.921  24.368  27.530  1.00  0.00     0.159 HD
ENDBRANCH  22  29
ENDBRANCH  10  20
ENDBRANCH   4   7
ENDBRANCH   2   3
ENDBRANCH   1   2
BRANCH   1  34
ATOM     34  C   UNL A   1      33.960  29.981  27.146  1.00  0.00     0.118 C 
BRANCH  34  35
ATOM     35  N   UNL A   1      34.347  31.390  27.323  1.00  0.00    -0.352 N 
ATOM     36  C   UNL A   1      35.402  31.928  28.049  1.00  0.00     0.251 C 
ATOM     37  H   UNL A   1      33.777  32.046  26.858  1.00  0.00     0.163 HD
ATOM     38  O   UNL A   1      35.376  33.100  28.400  1.00  0.00    -0.269 OA
BRANCH  36  39
ATOM     39  C   UNL A   1      36.544  31.055  28.381  1.00  0.00     0.039 A 
ATOM     40  C   UNL A   1      36.675  29.736  27.943  1.00  0.00     0.014 A 
ATOM     41  C   UNL A   1      37.553  31.643  29.125  1.00  0.00     0.014 A 
ATOM     42  C   UNL A   1      37.857  29.056  28.247  1.00  0.00     0.010 A 
ATOM     43  C   UNL A   1      38.805  31.124  29.068  1.00  0.00     0.010 A 
ATOM     44  C   UNL A   1      38.919  29.774  28.819  1.00  0.00    -0.014 A 
BRANCH  44  45
ATOM     45  C   UNL A   1      40.228  29.212  29.110  1.00  0.00     0.031 A 
ATOM     46  C   UNL A   1      40.462  29.049  30.559  1.00  0.00     0.074 A 
ATOM     47  C   UNL A   1      40.995  28.619  28.162  1.00  0.00     0.049 A 
ATOM     48  N   UNL A   1      41.170  29.803  31.329  1.00  0.00    -0.248 NA
ATOM     49  C   UNL A   1      39.616  28.087  31.290  1.00  0.00     0.031 C 
ATOM     50  C   UNL A   1      40.690  28.379  26.742  1.00  0.00     0.029 A 
ATOM     51  N   UNL A   1      42.198  28.001  28.297  1.00  0.00    -0.354 N 
ATOM     52  C   UNL A   1      41.096  29.214  32.584  1.00  0.00     0.074 A 
ATOM     53  C   UNL A   1      39.922  28.388  32.553  1.00  0.00     0.031 C 
ATOM     54  C   UNL A   1      41.568  27.489  26.225  1.00  0.00     0.029 A 
ATOM     55  C   UNL A   1      42.599  27.221  27.211  1.00  0.00     0.049 A 
ATOM     56  H   UNL A   1      42.749  28.098  29.108  1.00  0.00     0.167 HD
ATOM     57  C   UNL A   1      42.175  29.212  33.416  1.00  0.00     0.034 A 
ATOM     58  C   UNL A   1      43.689  26.403  27.143  1.00  0.00     0.034 A 
ATOM     59  C   UNL A   1      43.186  30.133  32.933  1.00  0.00     0.049 A 
ATOM     60  C   UNL A   1      44.607  26.850  28.226  1.00  0.00     0.074 A 
ATOM     61  C   UNL A   1      43.203  31.487  32.653  1.00  0.00     0.029 A 
ATOM     62  N   UNL A   1      44.258  29.601  32.247  1.00  0.00    -0.354 N 
ATOM     63  N   UNL A   1      45.168  28.032  28.241  1.00  0.00    -0.248 NA
ATOM     64  C   UNL A   1      44.462  26.220  29.532  1.00  0.00     0.031 C 
ATOM     65  C   UNL A   1      43.941  31.598  31.437  1.00  0.00     0.029 A 
ATOM     66  C   UNL A   1      44.432  30.334  31.098  1.00  0.00     0.049 A 
ATOM     67  H   UNL A   1      44.802  28.831  32.531  1.00  0.00     0.167 HD
ATOM     68  C   UNL A   1      45.053  28.472  29.554  1.00  0.00     0.074 A 
ATOM     69  C   UNL A   1      44.679  27.280  30.318  1.00  0.00     0.031 C 
ATOM     70  C   UNL A   1      44.971  29.803  29.856  1.00  0.00     0.034 A 
BRANCH  57  71
ATOM     71  C   UNL A   1      42.505  28.118  34.412  1.00  0.00     0.023 A 
ATOM     72  C   UNL A   1      43.441  27.151  33.997  1.00  0.00     0.031 A 
ATOM     73  C   UNL A   1      41.792  27.807  35.592  1.00  0.00     0.131 A 
ATOM     74  C   UNL A   1      43.548  25.917  34.657  1.00  0.00     0.055 A 
ATOM     75  C   UNL A   1      41.950  26.603  36.284  1.00  0.00     0.041 A 
ATOM     76  F   UNL A   1      40.842  28.594  36.105  1.00  0.00    -0.206 F 
ATOM     77  C   UNL A   1      42.807  25.634  35.799  1.00  0.00     0.022 A 
BRANCH  74  78
ATOM     78  S   UNL A   1      44.548  24.621  33.886  1.00  0.00     0.124 S 
ATOM     79  O   UNL A   1      44.428  23.541  34.861  1.00  0.00    -0.237 OA
ATOM     80  O   UNL A   1      43.855  24.425  32.618  1.00  0.00    -0.237 OA
ATOM     81  O   UNL A   1      45.872  25.230  33.788  1.00  0.00    -0.744 OA
ENDBRANCH  74  78
ENDBRANCH  57  71
BRANCH  58  82
ATOM     82  C   UNL A   1      43.771  25.059  26.484  1.00  0.00     0.023 A 
ATOM     83  C   UNL A   1      42.941  23.957  26.807  1.00  0.00     0.031 A 
ATOM     84  C   UNL A   1      44.561  24.923  25.319  1.00  0.00     0.131 A 
ATOM     85  C   UNL A   1      42.938  22.795  25.988  1.00  0.00     0.055 A 
ATOM     86  C   UNL A   1      44.553  23.778  24.517  1.00  0.00     0.041 A 
ATOM     87  F   UNL A   1      45.314  25.943  24.875  1.00  0.00    -0.206 F 
ATOM     88  C   UNL A   1      43.737  22.710  24.845  1.00  0.00     0.022 A 
BRANCH  85  89
ATOM     89  S   UNL A   1      41.851  21.373  26.364  1.00  0.00     0.124 S 
ATOM     90  O   UNL A   1      40.529  21.890  26.034  1.00  0.00    -0.237 OA
ATOM     91  O   UNL A   1      42.381  20.335  25.487  1.00  0.00    -0.237 OA
ATOM     92  O   UNL A   1      42.075  21.136  27.791  1.00  0.00    -0.744 OA
ENDBRANCH  85  89
ENDBRANCH  58  82
BRANCH  70  93
ATOM     93  C   UNL A   1      45.299  30.823  28.779  1.00  0.00     0.023 A 
ATOM     94  C   UNL A   1      46.596  31.264  28.422  1.00  0.00     0.031 A 
ATOM     95  C   UNL A   1      44.225  31.237  27.969  1.00  0.00     0.131 A 
ATOM     96  C   UNL A   1      46.771  32.082  27.283  1.00  0.00     0.055 A 
ATOM     97  C   UNL A   1      44.406  32.023  26.834  1.00  0.00     0.041 A 
ATOM     98  F   UNL A   1      42.974  30.833  28.245  1.00  0.00    -0.206 F 
ATOM     99  C   UNL A   1      45.680  32.451  26.488  1.00  0.00     0.022 A 
BRANCH  96 100
ATOM    100  S   UNL A   1      48.423  32.695  26.803  1.00  0.00     0.124 S 
ATOM    101  O   UNL A   1      49.144  31.478  26.445  1.00  0.00    -0.237 OA
ATOM    102  O   UNL A   1      48.119  33.606  25.704  1.00  0.00    -0.237 OA
ATOM    103  O   UNL A   1      48.911  33.353  28.017  1.00  0.00    -0.744 OA
ENDBRANCH  96 100
ENDBRANCH  70  93
ENDBRANCH  44  45
ENDBRANCH  36  39
ENDBRANCH  34  35
ENDBRANCH   1  34
TORSDOF 17
ENDMDL
