MODEL 1
REMARK VINA RESULT:     -12.6      0.000      0.000
REMARK SMILES C[C@H]1[C@H](C(=O)NCCCNC(=O)c2ccc(-c3c4nc(c(-c5cc(S(=O)(=O)[O-])ccc5F)c5ccc([nH]5)c(-c5cc(S(=O)(=O)[O-])ccc5F)c5nc(c(-c6cc(S(=O)(=O)[O-])ccc6F)c6ccc3[nH]6)C=C5)C=C4)cc2)CC[N@@H+]1Cc1ccc(Br)cc1F
REMARK SMILES IDX 8 1 7 2 6 3 4 4 5 5 3 7 1 8 2 9 78 10 76 11 77 12 79 14
REMARK SMILES IDX 80 15 81 16 86 17 82 18 85 19 87 20 83 21 84 22 9 23 10 24
REMARK SMILES IDX 11 25 12 27 13 28 14 29 75 30 15 31 74 32 16 33 17 34 18 35
REMARK SMILES IDX 68 36 19 37 73 38 67 39 69 40 20 41 72 42 66 43 65 44 21 46
REMARK SMILES IDX 53 47 33 48 52 49 34 50 37 51 51 52 70 53 35 54 36 55 50 57
REMARK SMILES IDX 71 58 38 59 22 60 23 61 31 62 24 63 30 64 32 65 29 66 25 67
REMARK SMILES IDX 26 68 27 69 28 70 54 71 55 72 63 73 56 74 62 75 64 76 61 77
REMARK SMILES IDX 57 78 58 79 59 80 60 81 39 82 40 83 48 84 41 85 47 86 49 87
REMARK SMILES IDX 46 88 42 89 43 90 44 91 45 92
REMARK H PARENT 6 6 78 13 10 26 69 45 37 56
REMARK Flexibility Score: inf
ROOT
ATOM      1  C   UNL A   1      33.130  28.842  23.397  1.00  0.00     0.042 C 
ENDROOT
BRANCH   1   2
ATOM      2  C   UNL A   1      32.159  27.723  23.034  1.00  0.00     0.117 C 
BRANCH   2   3
ATOM      3  N   UNL A   1      32.573  26.997  21.857  1.00  0.00    -0.356 N 
ATOM      4  C   UNL A   1      32.946  25.700  21.718  1.00  0.00     0.229 C 
ATOM      5  O   UNL A   1      33.190  25.318  20.567  1.00  0.00    -0.275 OA
ATOM      6  H   UNL A   1      32.586  27.524  21.026  1.00  0.00     0.163 HD
BRANCH   4   7
ATOM      7  C   UNL A   1      33.016  24.702  22.870  1.00  0.00     0.142 C 
ATOM      8  C   UNL A   1      30.969  24.276  24.259  1.00  0.00     0.076 C 
ATOM      9  C   UNL A   1      31.830  23.740  23.104  1.00  0.00     0.193 C 
ATOM     10  N   UNL A   1      32.431  22.463  23.535  1.00  0.00    -0.328 N 
ATOM     11  C   UNL A   1      34.245  23.804  22.872  1.00  0.00     0.081 C 
ATOM     12  C   UNL A   1      33.828  22.720  23.854  1.00  0.00     0.263 C 
ATOM     13  H   UNL A   1      31.932  22.167  24.374  1.00  0.00     0.348 HD
BRANCH  10  14
ATOM     14  C   UNL A   1      32.110  21.219  22.812  1.00  0.00     0.302 C 
BRANCH  14  15
ATOM     15  C   UNL A   1      32.368  19.853  23.433  1.00  0.00     0.042 A 
ATOM     16  C   UNL A   1      32.587  19.737  24.820  1.00  0.00     0.014 A 
ATOM     17  C   UNL A   1      32.470  18.672  22.686  1.00  0.00     0.133 A 
ATOM     18  C   UNL A   1      32.749  18.482  25.431  1.00  0.00     0.016 A 
ATOM     19  C   UNL A   1      32.596  17.420  23.281  1.00  0.00     0.055 A 
ATOM     20  F   UNL A   1      32.452  18.696  21.349  1.00  0.00    -0.206 F 
ATOM     21  C   UNL A   1      32.716  17.326  24.659  1.00  0.00     0.020 A 
ATOM     22  Br  UNL A   1      32.847  15.620  25.456  1.00  0.00    -0.051 Br
ENDBRANCH  14  15
ENDBRANCH  10  14
ENDBRANCH   4   7
ENDBRANCH   2   3
ENDBRANCH   1   2
BRANCH   1  23
ATOM     23  C   UNL A   1      33.392  28.960  24.893  1.00  0.00     0.118 C 
BRANCH  23  24
ATOM     24  N   UNL A   1      32.735  30.114  25.500  1.00  0.00    -0.352 N 
ATOM     25  C   UNL A   1      33.016  30.869  26.608  1.00  0.00     0.251 C 
ATOM     26  H   UNL A   1      31.930  30.409  25.015  1.00  0.00     0.163 HD
ATOM     27  O   UNL A   1      32.189  31.718  26.959  1.00  0.00    -0.269 OA
BRANCH  25  28
ATOM     28  C   UNL A   1      34.241  30.690  27.412  1.00  0.00     0.039 A 
ATOM     29  C   UNL A   1      35.063  31.802  27.641  1.00  0.00     0.014 A 
ATOM     30  C   UNL A   1      34.642  29.438  27.874  1.00  0.00     0.014 A 
ATOM     31  C   UNL A   1      36.251  31.664  28.365  1.00  0.00     0.010 A 
ATOM     32  C   UNL A   1      35.764  29.320  28.687  1.00  0.00     0.010 A 
ATOM     33  C   UNL A   1      36.596  30.424  28.920  1.00  0.00    -0.014 A 
BRANCH  33  34
ATOM     34  C   UNL A   1      37.855  30.225  29.683  1.00  0.00     0.031 A 
ATOM     35  C   UNL A   1      38.933  29.342  29.109  1.00  0.00     0.074 A 
ATOM     36  C   UNL A   1      37.991  30.759  30.912  1.00  0.00     0.049 A 
ATOM     37  N   UNL A   1      40.017  28.875  29.672  1.00  0.00    -0.248 NA
ATOM     38  C   UNL A   1      38.732  28.883  27.725  1.00  0.00     0.031 C 
ATOM     39  C   UNL A   1      37.002  31.607  31.580  1.00  0.00     0.029 A 
ATOM     40  N   UNL A   1      39.007  30.652  31.827  1.00  0.00    -0.354 N 
ATOM     41  C   UNL A   1      40.606  28.041  28.726  1.00  0.00     0.074 A 
ATOM     42  C   UNL A   1      39.720  28.013  27.584  1.00  0.00     0.031 C 
ATOM     43  C   UNL A   1      37.466  31.955  32.790  1.00  0.00     0.029 A 
ATOM     44  C   UNL A   1      38.758  31.312  33.008  1.00  0.00     0.049 A 
ATOM     45  H   UNL A   1      39.837  30.151  31.654  1.00  0.00     0.167 HD
ATOM     46  C   UNL A   1      41.789  27.380  28.796  1.00  0.00     0.034 A 
ATOM     47  C   UNL A   1      39.478  31.370  34.145  1.00  0.00     0.034 A 
ATOM     48  C   UNL A   1      42.669  27.452  29.939  1.00  0.00     0.049 A 
ATOM     49  C   UNL A   1      40.790  30.631  34.203  1.00  0.00     0.074 A 
ATOM     50  C   UNL A   1      43.910  26.867  30.113  1.00  0.00     0.029 A 
ATOM     51  N   UNL A   1      42.397  28.159  31.104  1.00  0.00    -0.354 N 
ATOM     52  N   UNL A   1      41.346  29.862  33.294  1.00  0.00    -0.248 NA
ATOM     53  C   UNL A   1      41.578  30.780  35.431  1.00  0.00     0.031 C 
ATOM     54  C   UNL A   1      44.360  27.170  31.403  1.00  0.00     0.029 A 
ATOM     55  C   UNL A   1      43.438  28.008  32.009  1.00  0.00     0.049 A 
ATOM     56  H   UNL A   1      41.584  28.690  31.266  1.00  0.00     0.167 HD
ATOM     57  C   UNL A   1      42.563  29.456  33.834  1.00  0.00     0.074 A 
ATOM     58  C   UNL A   1      42.666  30.087  35.135  1.00  0.00     0.031 C 
ATOM     59  C   UNL A   1      43.511  28.636  33.308  1.00  0.00     0.034 A 
BRANCH  46  60
ATOM     60  C   UNL A   1      42.174  26.515  27.617  1.00  0.00     0.023 A 
ATOM     61  C   UNL A   1      41.907  25.134  27.592  1.00  0.00     0.031 A 
ATOM     62  C   UNL A   1      42.863  27.065  26.520  1.00  0.00     0.131 A 
ATOM     63  C   UNL A   1      42.406  24.339  26.550  1.00  0.00     0.055 A 
ATOM     64  C   UNL A   1      43.275  26.283  25.439  1.00  0.00     0.041 A 
ATOM     65  F   UNL A   1      43.169  28.371  26.490  1.00  0.00    -0.206 F 
ATOM     66  C   UNL A   1      43.064  24.906  25.458  1.00  0.00     0.022 A 
BRANCH  63  67
ATOM     67  S   UNL A   1      42.329  22.535  26.727  1.00  0.00     0.124 S 
ATOM     68  O   UNL A   1      41.077  22.225  26.040  1.00  0.00    -0.237 OA
ATOM     69  O   UNL A   1      43.550  22.100  26.059  1.00  0.00    -0.237 OA
ATOM     70  O   UNL A   1      42.302  22.333  28.175  1.00  0.00    -0.744 OA
ENDBRANCH  63  67
ENDBRANCH  46  60
BRANCH  47  71
ATOM     71  C   UNL A   1      38.973  32.139  35.319  1.00  0.00     0.023 A 
ATOM     72  C   UNL A   1      38.400  31.483  36.421  1.00  0.00     0.031 A 
ATOM     73  C   UNL A   1      39.034  33.544  35.349  1.00  0.00     0.131 A 
ATOM     74  C   UNL A   1      37.874  32.231  37.486  1.00  0.00     0.055 A 
ATOM     75  C   UNL A   1      38.557  34.282  36.434  1.00  0.00     0.041 A 
ATOM     76  F   UNL A   1      39.579  34.221  34.326  1.00  0.00    -0.206 F 
ATOM     77  C   UNL A   1      37.961  33.625  37.506  1.00  0.00     0.022 A 
BRANCH  74  78
ATOM     78  S   UNL A   1      37.001  31.357  38.814  1.00  0.00     0.124 S 
ATOM     79  O   UNL A   1      36.913  30.006  38.273  1.00  0.00    -0.237 OA
ATOM     80  O   UNL A   1      37.909  31.539  39.941  1.00  0.00    -0.237 OA
ATOM     81  O   UNL A   1      35.732  32.074  38.917  1.00  0.00    -0.744 OA
ENDBRANCH  74  78
ENDBRANCH  47  71
BRANCH  59  82
ATOM     82  C   UNL A   1      44.752  28.415  34.137  1.00  0.00     0.023 A 
ATOM     83  C   UNL A   1      44.880  27.309  34.993  1.00  0.00     0.031 A 
ATOM     84  C   UNL A   1      45.809  29.342  34.091  1.00  0.00     0.131 A 
ATOM     85  C   UNL A   1      46.004  27.195  35.823  1.00  0.00     0.055 A 
ATOM     86  C   UNL A   1      46.957  29.185  34.866  1.00  0.00     0.041 A 
ATOM     87  F   UNL A   1      45.738  30.419  33.291  1.00  0.00    -0.206 F 
ATOM     88  C   UNL A   1      47.053  28.115  35.751  1.00  0.00     0.022 A 
BRANCH  85  89
ATOM     89  S   UNL A   1      46.024  25.890  37.083  1.00  0.00     0.124 S 
ATOM     90  O   UNL A   1      45.390  26.554  38.216  1.00  0.00    -0.237 OA
ATOM     91  O   UNL A   1      45.247  24.831  36.447  1.00  0.00    -0.237 OA
ATOM     92  O   UNL A   1      47.446  25.598  37.251  1.00  0.00    -0.744 OA
ENDBRANCH  85  89
ENDBRANCH  59  82
ENDBRANCH  33  34
ENDBRANCH  25  28
ENDBRANCH  23  24
ENDBRANCH   1  23
TORSDOF 15
ENDMDL
MODEL 2
REMARK VINA RESULT:     -12.3      2.657      3.719
REMARK SMILES C[C@H]1[C@H](C(=O)NCCCNC(=O)c2ccc(-c3c4nc(c(-c5cc(S(=O)(=O)[O-])ccc5F)c5ccc([nH]5)c(-c5cc(S(=O)(=O)[O-])ccc5F)c5nc(c(-c6cc(S(=O)(=O)[O-])ccc6F)c6ccc3[nH]6)C=C5)C=C4)cc2)CC[N@@H+]1Cc1ccc(Br)cc1F
REMARK SMILES IDX 8 1 7 2 6 3 4 4 5 5 3 7 1 8 2 9 78 10 76 11 77 12 79 14
REMARK SMILES IDX 80 15 81 16 86 17 82 18 85 19 87 20 83 21 84 22 9 23 10 24
REMARK SMILES IDX 11 25 12 27 13 28 14 29 75 30 15 31 74 32 16 33 17 34 18 35
REMARK SMILES IDX 68 36 19 37 73 38 67 39 69 40 20 41 72 42 66 43 65 44 21 46
REMARK SMILES IDX 53 47 33 48 52 49 34 50 37 51 51 52 70 53 35 54 36 55 50 57
REMARK SMILES IDX 71 58 38 59 22 60 23 61 31 62 24 63 30 64 32 65 29 66 25 67
REMARK SMILES IDX 26 68 27 69 28 70 54 71 55 72 63 73 56 74 62 75 64 76 61 77
REMARK SMILES IDX 57 78 58 79 59 80 60 81 39 82 40 83 48 84 41 85 47 86 49 87
REMARK SMILES IDX 46 88 42 89 43 90 44 91 45 92
REMARK H PARENT 6 6 78 13 10 26 69 45 37 56
REMARK Flexibility Score: inf
ROOT
ATOM      1  C   UNL A   1      31.506  31.752  26.858  1.00  0.00     0.042 C 
ENDROOT
BRANCH   1   2
ATOM      2  C   UNL A   1      31.625  30.641  25.819  1.00  0.00     0.117 C 
BRANCH   2   3
ATOM      3  N   UNL A   1      32.374  29.510  26.309  1.00  0.00    -0.356 N 
ATOM      4  C   UNL A   1      32.249  28.189  26.021  1.00  0.00     0.229 C 
ATOM      5  O   UNL A   1      33.077  27.432  26.540  1.00  0.00    -0.275 OA
ATOM      6  H   UNL A   1      33.087  29.728  26.952  1.00  0.00     0.163 HD
BRANCH   4   7
ATOM      7  C   UNL A   1      31.205  27.618  25.066  1.00  0.00     0.142 C 
ATOM      8  C   UNL A   1      30.786  28.759  22.869  1.00  0.00     0.076 C 
ATOM      9  C   UNL A   1      31.509  27.587  23.552  1.00  0.00     0.193 C 
ATOM     10  N   UNL A   1      30.917  26.331  23.052  1.00  0.00    -0.328 N 
ATOM     11  C   UNL A   1      30.734  26.208  25.392  1.00  0.00     0.081 C 
ATOM     12  C   UNL A   1      30.047  25.808  24.096  1.00  0.00     0.263 C 
ATOM     13  H   UNL A   1      30.365  26.569  22.227  1.00  0.00     0.348 HD
BRANCH  10  14
ATOM     14  C   UNL A   1      31.752  25.369  22.309  1.00  0.00     0.302 C 
BRANCH  14  15
ATOM     15  C   UNL A   1      32.614  24.344  23.032  1.00  0.00     0.042 A 
ATOM     16  C   UNL A   1      32.215  22.993  23.081  1.00  0.00     0.014 A 
ATOM     17  C   UNL A   1      33.782  24.674  23.732  1.00  0.00     0.133 A 
ATOM     18  C   UNL A   1      33.029  22.013  23.673  1.00  0.00     0.016 A 
ATOM     19  C   UNL A   1      34.614  23.708  24.293  1.00  0.00     0.055 A 
ATOM     20  F   UNL A   1      34.154  25.948  23.896  1.00  0.00    -0.206 F 
ATOM     21  C   UNL A   1      34.244  22.374  24.245  1.00  0.00     0.020 A 
ATOM     22  Br  UNL A   1      35.400  21.072  24.975  1.00  0.00    -0.051 Br
ENDBRANCH  14  15
ENDBRANCH  10  14
ENDBRANCH   4   7
ENDBRANCH   2   3
ENDBRANCH   1   2
BRANCH   1  23
ATOM     23  C   UNL A   1      32.783  32.565  27.030  1.00  0.00     0.118 C 
BRANCH  23  24
ATOM     24  N   UNL A   1      32.548  33.883  27.614  1.00  0.00    -0.352 N 
ATOM     25  C   UNL A   1      33.131  34.555  28.656  1.00  0.00     0.251 C 
ATOM     26  H   UNL A   1      31.828  34.388  27.171  1.00  0.00     0.163 HD
ATOM     27  O   UNL A   1      32.623  35.624  29.016  1.00  0.00    -0.269 OA
BRANCH  25  28
ATOM     28  C   UNL A   1      34.311  34.046  29.381  1.00  0.00     0.039 A 
ATOM     29  C   UNL A   1      35.587  34.423  28.938  1.00  0.00     0.014 A 
ATOM     30  C   UNL A   1      34.194  33.141  30.433  1.00  0.00     0.014 A 
ATOM     31  C   UNL A   1      36.729  33.931  29.574  1.00  0.00     0.010 A 
ATOM     32  C   UNL A   1      35.324  32.738  31.138  1.00  0.00     0.010 A 
ATOM     33  C   UNL A   1      36.605  33.105  30.701  1.00  0.00    -0.014 A 
BRANCH  33  34
ATOM     34  C   UNL A   1      37.789  32.545  31.402  1.00  0.00     0.031 A 
ATOM     35  C   UNL A   1      38.543  31.401  30.775  1.00  0.00     0.074 A 
ATOM     36  C   UNL A   1      38.129  33.000  32.623  1.00  0.00     0.049 A 
ATOM     37  N   UNL A   1      39.474  30.636  31.284  1.00  0.00    -0.248 NA
ATOM     38  C   UNL A   1      38.156  31.038  29.402  1.00  0.00     0.031 C 
ATOM     39  C   UNL A   1      37.455  34.085  33.339  1.00  0.00     0.029 A 
ATOM     40  N   UNL A   1      39.114  32.596  33.487  1.00  0.00    -0.354 N 
ATOM     41  C   UNL A   1      39.757  29.684  30.310  1.00  0.00     0.074 A 
ATOM     42  C   UNL A   1      38.847  29.925  29.212  1.00  0.00     0.031 C 
ATOM     43  C   UNL A   1      38.054  34.268  34.526  1.00  0.00     0.029 A 
ATOM     44  C   UNL A   1      39.118  33.281  34.680  1.00  0.00     0.049 A 
ATOM     45  H   UNL A   1      39.758  31.882  33.273  1.00  0.00     0.167 HD
ATOM     46  C   UNL A   1      40.705  28.712  30.321  1.00  0.00     0.034 A 
ATOM     47  C   UNL A   1      39.877  33.115  35.780  1.00  0.00     0.034 A 
ATOM     48  C   UNL A   1      41.620  28.514  31.420  1.00  0.00     0.049 A 
ATOM     49  C   UNL A   1      40.926  32.033  35.773  1.00  0.00     0.074 A 
ATOM     50  C   UNL A   1      42.651  27.598  31.532  1.00  0.00     0.029 A 
ATOM     51  N   UNL A   1      41.616  29.252  32.598  1.00  0.00    -0.354 N 
ATOM     52  N   UNL A   1      41.197  31.151  34.838  1.00  0.00    -0.248 NA
ATOM     53  C   UNL A   1      41.779  31.934  36.962  1.00  0.00     0.031 C 
ATOM     54  C   UNL A   1      43.229  27.742  32.799  1.00  0.00     0.029 A 
ATOM     55  C   UNL A   1      42.612  28.798  33.450  1.00  0.00     0.049 A 
ATOM     56  H   UNL A   1      40.996  29.990  32.799  1.00  0.00     0.167 HD
ATOM     57  C   UNL A   1      42.272  30.408  35.317  1.00  0.00     0.074 A 
ATOM     58  C   UNL A   1      42.611  30.964  36.613  1.00  0.00     0.031 C 
ATOM     59  C   UNL A   1      42.921  29.360  34.745  1.00  0.00     0.034 A 
BRANCH  46  60
ATOM     60  C   UNL A   1      40.772  27.791  29.124  1.00  0.00     0.023 A 
ATOM     61  C   UNL A   1      41.708  27.986  28.092  1.00  0.00     0.031 A 
ATOM     62  C   UNL A   1      39.858  26.732  28.983  1.00  0.00     0.131 A 
ATOM     63  C   UNL A   1      41.648  27.202  26.930  1.00  0.00     0.055 A 
ATOM     64  C   UNL A   1      39.864  25.894  27.865  1.00  0.00     0.041 A 
ATOM     65  F   UNL A   1      38.925  26.504  29.921  1.00  0.00    -0.206 F 
ATOM     66  C   UNL A   1      40.751  26.138  26.819  1.00  0.00     0.022 A 
BRANCH  63  67
ATOM     67  S   UNL A   1      42.645  27.702  25.498  1.00  0.00     0.124 S 
ATOM     68  O   UNL A   1      43.938  27.975  26.122  1.00  0.00    -0.237 OA
ATOM     69  O   UNL A   1      42.584  26.522  24.643  1.00  0.00    -0.237 OA
ATOM     70  O   UNL A   1      41.947  28.881  24.989  1.00  0.00    -0.744 OA
ENDBRANCH  63  67
ENDBRANCH  46  60
BRANCH  47  71
ATOM     71  C   UNL A   1      39.667  33.978  36.978  1.00  0.00     0.023 A 
ATOM     72  C   UNL A   1      39.049  33.474  38.134  1.00  0.00     0.031 A 
ATOM     73  C   UNL A   1      40.060  35.329  36.979  1.00  0.00     0.131 A 
ATOM     74  C   UNL A   1      38.805  34.323  39.225  1.00  0.00     0.055 A 
ATOM     75  C   UNL A   1      39.863  36.156  38.087  1.00  0.00     0.041 A 
ATOM     76  F   UNL A   1      40.663  35.861  35.904  1.00  0.00    -0.206 F 
ATOM     77  C   UNL A   1      39.220  35.656  39.215  1.00  0.00     0.022 A 
BRANCH  74  78
ATOM     78  S   UNL A   1      37.864  33.675  40.635  1.00  0.00     0.124 S 
ATOM     79  O   UNL A   1      36.708  33.082  39.974  1.00  0.00    -0.237 OA
ATOM     80  O   UNL A   1      38.815  32.741  41.228  1.00  0.00    -0.237 OA
ATOM     81  O   UNL A   1      37.586  34.867  41.434  1.00  0.00    -0.744 OA
ENDBRANCH  74  78
ENDBRANCH  47  71
BRANCH  59  82
ATOM     82  C   UNL A   1      44.085  28.783  35.512  1.00  0.00     0.023 A 
ATOM     83  C   UNL A   1      43.929  27.685  36.374  1.00  0.00     0.031 A 
ATOM     84  C   UNL A   1      45.363  29.361  35.401  1.00  0.00     0.131 A 
ATOM     85  C   UNL A   1      45.012  27.244  37.147  1.00  0.00     0.055 A 
ATOM     86  C   UNL A   1      46.454  28.872  36.118  1.00  0.00     0.041 A 
ATOM     87  F   UNL A   1      45.568  30.414  34.592  1.00  0.00    -0.206 F 
ATOM     88  C   UNL A   1      46.279  27.818  37.010  1.00  0.00     0.022 A 
BRANCH  85  89
ATOM     89  S   UNL A   1      44.716  25.987  38.419  1.00  0.00     0.124 S 
ATOM     90  O   UNL A   1      46.068  25.511  38.695  1.00  0.00    -0.237 OA
ATOM     91  O   UNL A   1      44.084  26.762  39.482  1.00  0.00    -0.237 OA
ATOM     92  O   UNL A   1      43.843  25.023  37.753  1.00  0.00    -0.744 OA
ENDBRANCH  85  89
ENDBRANCH  59  82
ENDBRANCH  33  34
ENDBRANCH  25  28
ENDBRANCH  23  24
ENDBRANCH   1  23
TORSDOF 15
ENDMDL
MODEL 3
REMARK VINA RESULT:     -12.3      5.638     10.570
REMARK SMILES C[C@H]1[C@H](C(=O)NCCCNC(=O)c2ccc(-c3c4nc(c(-c5cc(S(=O)(=O)[O-])ccc5F)c5ccc([nH]5)c(-c5cc(S(=O)(=O)[O-])ccc5F)c5nc(c(-c6cc(S(=O)(=O)[O-])ccc6F)c6ccc3[nH]6)C=C5)C=C4)cc2)CC[N@@H+]1Cc1ccc(Br)cc1F
REMARK SMILES IDX 8 1 7 2 6 3 4 4 5 5 3 7 1 8 2 9 78 10 76 11 77 12 79 14
REMARK SMILES IDX 80 15 81 16 86 17 82 18 85 19 87 20 83 21 84 22 9 23 10 24
REMARK SMILES IDX 11 25 12 27 13 28 14 29 75 30 15 31 74 32 16 33 17 34 18 35
REMARK SMILES IDX 68 36 19 37 73 38 67 39 69 40 20 41 72 42 66 43 65 44 21 46
REMARK SMILES IDX 53 47 33 48 52 49 34 50 37 51 51 52 70 53 35 54 36 55 50 57
REMARK SMILES IDX 71 58 38 59 22 60 23 61 31 62 24 63 30 64 32 65 29 66 25 67
REMARK SMILES IDX 26 68 27 69 28 70 54 71 55 72 63 73 56 74 62 75 64 76 61 77
REMARK SMILES IDX 57 78 58 79 59 80 60 81 39 82 40 83 48 84 41 85 47 86 49 87
REMARK SMILES IDX 46 88 42 89 43 90 44 91 45 92
REMARK H PARENT 6 6 78 13 10 26 69 45 37 56
REMARK Flexibility Score: inf
ROOT
ATOM      1  C   UNL A   1      34.749  21.697  26.973  1.00  0.00     0.042 C 
ENDROOT
BRANCH   1   2
ATOM      2  C   UNL A   1      33.446  21.287  26.292  1.00  0.00     0.117 C 
BRANCH   2   3
ATOM      3  N   UNL A   1      32.292  21.904  26.899  1.00  0.00    -0.356 N 
ATOM      4  C   UNL A   1      31.673  23.076  26.607  1.00  0.00     0.229 C 
ATOM      5  O   UNL A   1      30.649  23.333  27.251  1.00  0.00    -0.275 OA
ATOM      6  H   UNL A   1      31.889  21.396  27.640  1.00  0.00     0.163 HD
BRANCH   4   7
ATOM      7  C   UNL A   1      32.130  24.034  25.511  1.00  0.00     0.142 C 
ATOM      8  C   UNL A   1      30.651  24.426  23.520  1.00  0.00     0.076 C 
ATOM      9  C   UNL A   1      31.101  24.994  24.876  1.00  0.00     0.193 C 
ATOM     10  N   UNL A   1      31.831  26.252  24.625  1.00  0.00    -0.328 N 
ATOM     11  C   UNL A   1      33.309  24.922  25.880  1.00  0.00     0.081 C 
ATOM     12  C   UNL A   1      33.251  25.975  24.784  1.00  0.00     0.263 C 
ATOM     13  H   UNL A   1      31.636  26.523  23.661  1.00  0.00     0.348 HD
BRANCH  10  14
ATOM     14  C   UNL A   1      31.315  27.522  25.167  1.00  0.00     0.302 C 
BRANCH  14  15
ATOM     15  C   UNL A   1      30.588  28.524  24.281  1.00  0.00     0.042 A 
ATOM     16  C   UNL A   1      29.851  28.077  23.166  1.00  0.00     0.014 A 
ATOM     17  C   UNL A   1      30.656  29.911  24.467  1.00  0.00     0.133 A 
ATOM     18  C   UNL A   1      29.105  28.970  22.379  1.00  0.00     0.016 A 
ATOM     19  C   UNL A   1      29.896  30.804  23.715  1.00  0.00     0.055 A 
ATOM     20  F   UNL A   1      31.466  30.447  25.386  1.00  0.00    -0.206 F 
ATOM     21  C   UNL A   1      29.105  30.328  22.682  1.00  0.00     0.020 A 
ATOM     22  Br  UNL A   1      28.051  31.544  21.696  1.00  0.00    -0.051 Br
ENDBRANCH  14  15
ENDBRANCH  10  14
ENDBRANCH   4   7
ENDBRANCH   2   3
ENDBRANCH   1   2
BRANCH   1  23
ATOM     23  C   UNL A   1      35.821  22.173  26.001  1.00  0.00     0.118 C 
BRANCH  23  24
ATOM     24  N   UNL A   1      36.849  21.167  25.746  1.00  0.00    -0.352 N 
ATOM     25  C   UNL A   1      38.218  21.211  25.765  1.00  0.00     0.251 C 
ATOM     26  H   UNL A   1      36.485  20.282  25.515  1.00  0.00     0.163 HD
ATOM     27  O   UNL A   1      38.837  20.218  25.367  1.00  0.00    -0.269 OA
BRANCH  25  28
ATOM     28  C   UNL A   1      38.978  22.397  26.207  1.00  0.00     0.039 A 
ATOM     29  C   UNL A   1      38.579  23.660  25.749  1.00  0.00     0.014 A 
ATOM     30  C   UNL A   1      40.122  22.285  26.994  1.00  0.00     0.014 A 
ATOM     31  C   UNL A   1      39.297  24.802  26.115  1.00  0.00     0.010 A 
ATOM     32  C   UNL A   1      40.770  23.428  27.450  1.00  0.00     0.010 A 
ATOM     33  C   UNL A   1      40.384  24.697  26.995  1.00  0.00    -0.014 A 
BRANCH  33  34
ATOM     34  C   UNL A   1      41.186  25.880  27.400  1.00  0.00     0.031 A 
ATOM     35  C   UNL A   1      40.553  26.938  28.266  1.00  0.00     0.074 A 
ATOM     36  C   UNL A   1      42.436  26.042  26.926  1.00  0.00     0.049 A 
ATOM     37  N   UNL A   1      40.989  28.130  28.581  1.00  0.00    -0.248 NA
ATOM     38  C   UNL A   1      39.221  26.626  28.809  1.00  0.00     0.031 C 
ATOM     39  C   UNL A   1      43.141  25.097  26.058  1.00  0.00     0.029 A 
ATOM     40  N   UNL A   1      43.329  27.070  27.090  1.00  0.00    -0.354 N 
ATOM     41  C   UNL A   1      39.973  28.721  29.326  1.00  0.00     0.074 A 
ATOM     42  C   UNL A   1      38.874  27.782  29.353  1.00  0.00     0.031 C 
ATOM     43  C   UNL A   1      44.361  25.582  25.778  1.00  0.00     0.029 A 
ATOM     44  C   UNL A   1      44.506  26.895  26.399  1.00  0.00     0.049 A 
ATOM     45  H   UNL A   1      43.146  27.859  27.650  1.00  0.00     0.167 HD
ATOM     46  C   UNL A   1      39.969  29.926  29.950  1.00  0.00     0.034 A 
ATOM     47  C   UNL A   1      45.569  27.711  26.262  1.00  0.00     0.034 A 
ATOM     48  C   UNL A   1      41.094  30.830  29.932  1.00  0.00     0.049 A 
ATOM     49  C   UNL A   1      45.547  29.043  26.966  1.00  0.00     0.074 A 
ATOM     50  C   UNL A   1      41.229  32.055  30.561  1.00  0.00     0.029 A 
ATOM     51  N   UNL A   1      42.283  30.602  29.249  1.00  0.00    -0.354 N 
ATOM     52  N   UNL A   1      44.588  29.583  27.684  1.00  0.00    -0.248 NA
ATOM     53  C   UNL A   1      46.753  29.870  26.852  1.00  0.00     0.031 C 
ATOM     54  C   UNL A   1      42.473  32.593  30.209  1.00  0.00     0.029 A 
ATOM     55  C   UNL A   1      43.148  31.671  29.424  1.00  0.00     0.049 A 
ATOM     56  H   UNL A   1      42.483  29.798  28.717  1.00  0.00     0.167 HD
ATOM     57  C   UNL A   1      45.087  30.803  28.129  1.00  0.00     0.074 A 
ATOM     58  C   UNL A   1      46.440  30.904  27.617  1.00  0.00     0.031 C 
ATOM     59  C   UNL A   1      44.488  31.756  28.890  1.00  0.00     0.034 A 
BRANCH  46  60
ATOM     60  C   UNL A   1      38.705  30.329  30.677  1.00  0.00     0.023 A 
ATOM     61  C   UNL A   1      37.658  31.003  30.022  1.00  0.00     0.031 A 
ATOM     62  C   UNL A   1      38.561  30.082  32.054  1.00  0.00     0.131 A 
ATOM     63  C   UNL A   1      36.565  31.489  30.757  1.00  0.00     0.055 A 
ATOM     64  C   UNL A   1      37.426  30.485  32.762  1.00  0.00     0.041 A 
ATOM     65  F   UNL A   1      39.532  29.463  32.743  1.00  0.00    -0.206 F 
ATOM     66  C   UNL A   1      36.427  31.211  32.118  1.00  0.00     0.022 A 
BRANCH  63  67
ATOM     67  S   UNL A   1      35.416  32.632  29.941  1.00  0.00     0.124 S 
ATOM     68  O   UNL A   1      35.030  31.865  28.759  1.00  0.00    -0.237 OA
ATOM     69  O   UNL A   1      34.381  32.813  30.952  1.00  0.00    -0.237 OA
ATOM     70  O   UNL A   1      36.238  33.810  29.670  1.00  0.00    -0.744 OA
ENDBRANCH  63  67
ENDBRANCH  46  60
BRANCH  47  71
ATOM     71  C   UNL A   1      46.731  27.301  25.422  1.00  0.00     0.023 A 
ATOM     72  C   UNL A   1      46.906  27.819  24.128  1.00  0.00     0.031 A 
ATOM     73  C   UNL A   1      47.673  26.368  25.889  1.00  0.00     0.131 A 
ATOM     74  C   UNL A   1      47.971  27.371  23.332  1.00  0.00     0.055 A 
ATOM     75  C   UNL A   1      48.762  25.964  25.113  1.00  0.00     0.041 A 
ATOM     76  F   UNL A   1      47.560  25.847  27.122  1.00  0.00    -0.206 F 
ATOM     77  C   UNL A   1      48.908  26.458  23.821  1.00  0.00     0.022 A 
BRANCH  74  78
ATOM     78  S   UNL A   1      48.072  27.943  21.614  1.00  0.00     0.124 S 
ATOM     79  O   UNL A   1      48.281  26.692  20.895  1.00  0.00    -0.237 OA
ATOM     80  O   UNL A   1      46.771  28.579  21.431  1.00  0.00    -0.237 OA
ATOM     81  O   UNL A   1      49.212  28.857  21.626  1.00  0.00    -0.744 OA
ENDBRANCH  74  78
ENDBRANCH  47  71
BRANCH  59  82
ATOM     82  C   UNL A   1      45.318  32.968  29.237  1.00  0.00     0.023 A 
ATOM     83  C   UNL A   1      45.355  34.099  28.404  1.00  0.00     0.031 A 
ATOM     84  C   UNL A   1      46.105  32.978  30.402  1.00  0.00     0.131 A 
ATOM     85  C   UNL A   1      46.217  35.162  28.708  1.00  0.00     0.055 A 
ATOM     86  C   UNL A   1      46.906  34.069  30.737  1.00  0.00     0.041 A 
ATOM     87  F   UNL A   1      46.108  31.922  31.233  1.00  0.00    -0.206 F 
ATOM     88  C   UNL A   1      46.979  35.162  29.880  1.00  0.00     0.022 A 
BRANCH  85  89
ATOM     89  S   UNL A   1      46.418  36.492  27.492  1.00  0.00     0.124 S 
ATOM     90  O   UNL A   1      47.853  36.750  27.561  1.00  0.00    -0.237 OA
ATOM     91  O   UNL A   1      45.941  35.865  26.263  1.00  0.00    -0.237 OA
ATOM     92  O   UNL A   1      45.569  37.562  28.011  1.00  0.00    -0.744 OA
ENDBRANCH  85  89
ENDBRANCH  59  82
ENDBRANCH  33  34
ENDBRANCH  25  28
ENDBRANCH  23  24
ENDBRANCH   1  23
TORSDOF 15
ENDMDL
