MODEL 1
REMARK VINA RESULT:     -11.4      0.000      0.000
REMARK SMILES Cc1nc(C(C)C)[nH]c(=O)c1C(=O)N(C)CC(=O)NCCCNC(=O)c1ccc(-c2c3nc(c(-c4cc(S(=O)(=O)[O-])ccc4F)c4ccc([nH]4)c(-c4cc(S(=O)(=O)[O-])ccc4F)c4nc(c(-c5cc(S(=O)(=O)[O-])ccc5F)c5ccc2[nH]5)C=C4)C=C3)cc1
REMARK SMILES IDX 20 1 19 2 17 3 18 4 16 6 14 7 15 8 12 9 13 10 11 11 1 12
REMARK SMILES IDX 2 13 3 14 4 15 9 16 8 17 10 18 5 20 6 21 7 22 21 23 22 24
REMARK SMILES IDX 23 25 24 26 25 28 26 29 27 30 88 31 28 32 87 33 29 34 30 35
REMARK SMILES IDX 31 36 81 37 32 38 86 39 80 40 82 41 33 42 85 43 79 44 78 45
REMARK SMILES IDX 34 47 66 48 46 49 65 50 47 51 50 52 64 53 83 54 48 55 49 56
REMARK SMILES IDX 63 58 84 59 51 60 35 61 36 62 44 63 37 64 43 65 45 66 42 67
REMARK SMILES IDX 38 68 39 69 40 70 41 71 67 72 68 73 76 74 69 75 75 76 77 77
REMARK SMILES IDX 74 78 70 79 71 80 72 81 73 82 52 83 53 84 61 85 54 86 60 87
REMARK SMILES IDX 62 88 59 89 55 90 56 91 57 92 58 93
REMARK H PARENT 19 5 8 19 23 27 82 46 50 57
REMARK Flexibility Score: inf
ROOT
ATOM      1  C   UNL A   1      31.362  27.515  26.317  1.00  0.00     0.117 C 
ENDROOT
BRANCH   1   2
ATOM      2  N   UNL A   1      31.632  26.119  26.568  1.00  0.00    -0.354 N 
ATOM      3  C   UNL A   1      32.625  25.330  26.072  1.00  0.00     0.239 C 
ATOM      4  O   UNL A   1      32.816  24.246  26.636  1.00  0.00    -0.273 OA
ATOM      5  H   UNL A   1      31.009  25.673  27.186  1.00  0.00     0.163 HD
BRANCH   3   6
ATOM      6  C   UNL A   1      33.636  25.862  25.039  1.00  0.00     0.219 C 
BRANCH   6   7
ATOM      7  N   UNL A   1      33.631  25.399  23.637  1.00  0.00    -0.332 N 
ATOM      8  C   UNL A   1      33.826  23.971  23.458  1.00  0.00     0.147 C 
BRANCH   7   9
ATOM      9  C   UNL A   1      33.108  26.289  22.703  1.00  0.00     0.261 C 
ATOM     10  O   UNL A   1      33.652  26.369  21.595  1.00  0.00    -0.269 OA
BRANCH   9  11
ATOM     11  C   UNL A   1      31.900  27.163  22.932  1.00  0.00     0.126 A 
ATOM     12  C   UNL A   1      30.048  25.424  23.141  1.00  0.00     0.068 C 
ATOM     13  C   UNL A   1      30.599  26.824  23.099  1.00  0.00     0.058 A 
ATOM     14  N   UNL A   1      29.558  27.731  23.154  1.00  0.00    -0.239 NA
ATOM     15  C   UNL A   1      29.776  28.955  22.805  1.00  0.00     0.111 A 
ATOM     16  C   UNL A   1      32.126  28.639  22.757  1.00  0.00     0.264 A 
ATOM     17  N   UNL A   1      31.023  29.408  22.530  1.00  0.00    -0.310 N 
ATOM     18  O   UNL A   1      33.226  29.174  22.866  1.00  0.00    -0.269 OA
ATOM     19  H   UNL A   1      31.134  30.313  22.157  1.00  0.00     0.171 HD
BRANCH  15  20
ATOM     20  C   UNL A   1      28.616  29.936  22.710  1.00  0.00     0.049 C 
ATOM     21  C   UNL A   1      28.871  31.185  23.547  1.00  0.00     0.016 C 
ATOM     22  C   UNL A   1      28.320  30.295  21.256  1.00  0.00     0.016 C 
ENDBRANCH  15  20
ENDBRANCH   9  11
ENDBRANCH   7   9
ENDBRANCH   6   7
ENDBRANCH   3   6
ENDBRANCH   1   2
BRANCH   1  23
ATOM     23  C   UNL A   1      32.216  28.442  27.170  1.00  0.00     0.042 C 
BRANCH  23  24
ATOM     24  C   UNL A   1      33.161  29.332  26.372  1.00  0.00     0.118 C 
BRANCH  24  25
ATOM     25  N   UNL A   1      32.934  30.750  26.614  1.00  0.00    -0.352 N 
ATOM     26  C   UNL A   1      33.638  31.628  27.405  1.00  0.00     0.251 C 
ATOM     27  H   UNL A   1      32.162  31.137  26.141  1.00  0.00     0.163 HD
ATOM     28  O   UNL A   1      33.178  32.740  27.630  1.00  0.00    -0.269 OA
BRANCH  26  29
ATOM     29  C   UNL A   1      34.929  31.213  28.001  1.00  0.00     0.039 A 
ATOM     30  C   UNL A   1      35.999  32.111  27.997  1.00  0.00     0.014 A 
ATOM     31  C   UNL A   1      35.084  29.943  28.559  1.00  0.00     0.014 A 
ATOM     32  C   UNL A   1      37.202  31.759  28.615  1.00  0.00     0.010 A 
ATOM     33  C   UNL A   1      36.253  29.624  29.243  1.00  0.00     0.010 A 
ATOM     34  C   UNL A   1      37.327  30.528  29.278  1.00  0.00    -0.014 A 
BRANCH  34  35
ATOM     35  C   UNL A   1      38.573  30.140  29.991  1.00  0.00     0.031 A 
ATOM     36  C   UNL A   1      39.493  29.119  29.375  1.00  0.00     0.074 A 
ATOM     37  C   UNL A   1      38.841  30.645  31.211  1.00  0.00     0.049 A 
ATOM     38  N   UNL A   1      40.543  28.532  29.890  1.00  0.00    -0.248 NA
ATOM     39  C   UNL A   1      39.169  28.681  28.008  1.00  0.00     0.031 C 
ATOM     40  C   UNL A   1      38.022  31.634  31.917  1.00  0.00     0.029 A 
ATOM     41  N   UNL A   1      39.869  30.387  32.084  1.00  0.00    -0.354 N 
ATOM     42  C   UNL A   1      40.998  27.650  28.916  1.00  0.00     0.074 A 
ATOM     43  C   UNL A   1      40.071  27.732  27.807  1.00  0.00     0.031 C 
ATOM     44  C   UNL A   1      38.590  31.912  33.102  1.00  0.00     0.029 A 
ATOM     45  C   UNL A   1      39.778  31.080  33.272  1.00  0.00     0.049 A 
ATOM     46  H   UNL A   1      40.604  29.765  31.882  1.00  0.00     0.167 HD
ATOM     47  C   UNL A   1      42.102  26.863  28.932  1.00  0.00     0.034 A 
ATOM     48  C   UNL A   1      40.549  31.031  34.378  1.00  0.00     0.034 A 
ATOM     49  C   UNL A   1      43.022  26.798  30.039  1.00  0.00     0.049 A 
ATOM     50  C   UNL A   1      41.738  30.096  34.396  1.00  0.00     0.074 A 
ATOM     51  C   UNL A   1      44.179  26.045  30.154  1.00  0.00     0.029 A 
ATOM     52  N   UNL A   1      42.894  27.512  31.223  1.00  0.00    -0.354 N 
ATOM     53  N   UNL A   1      42.161  29.278  33.459  1.00  0.00    -0.248 NA
ATOM     54  C   UNL A   1      42.557  30.084  35.614  1.00  0.00     0.031 C 
ATOM     55  C   UNL A   1      44.712  26.254  31.430  1.00  0.00     0.029 A 
ATOM     56  C   UNL A   1      43.939  27.203  32.078  1.00  0.00     0.049 A 
ATOM     57  H   UNL A   1      42.167  28.145  31.425  1.00  0.00     0.167 HD
ATOM     58  C   UNL A   1      43.326  28.700  33.958  1.00  0.00     0.074 A 
ATOM     59  C   UNL A   1      43.540  29.264  35.273  1.00  0.00     0.031 C 
ATOM     60  C   UNL A   1      44.150  27.791  33.380  1.00  0.00     0.034 A 
BRANCH  47  61
ATOM     61  C   UNL A   1      42.364  26.004  27.719  1.00  0.00     0.023 A 
ATOM     62  C   UNL A   1      41.848  24.701  27.618  1.00  0.00     0.031 A 
ATOM     63  C   UNL A   1      43.142  26.489  26.653  1.00  0.00     0.131 A 
ATOM     64  C   UNL A   1      42.167  23.905  26.507  1.00  0.00     0.055 A 
ATOM     65  C   UNL A   1      43.387  25.722  25.512  1.00  0.00     0.041 A 
ATOM     66  F   UNL A   1      43.680  27.717  26.703  1.00  0.00    -0.206 F 
ATOM     67  C   UNL A   1      42.909  24.416  25.441  1.00  0.00     0.022 A 
BRANCH  64  68
ATOM     68  S   UNL A   1      41.705  22.153  26.538  1.00  0.00     0.124 S 
ATOM     69  O   UNL A   1      42.257  21.726  27.822  1.00  0.00    -0.237 OA
ATOM     70  O   UNL A   1      40.250  22.207  26.456  1.00  0.00    -0.237 OA
ATOM     71  O   UNL A   1      42.377  21.600  25.365  1.00  0.00    -0.744 OA
ENDBRANCH  64  68
ENDBRANCH  47  61
BRANCH  48  72
ATOM     72  C   UNL A   1      40.234  31.868  35.573  1.00  0.00     0.023 A 
ATOM     73  C   UNL A   1      39.257  31.461  36.496  1.00  0.00     0.031 A 
ATOM     74  C   UNL A   1      40.834  33.126  35.767  1.00  0.00     0.131 A 
ATOM     75  C   UNL A   1      38.850  32.332  37.518  1.00  0.00     0.055 A 
ATOM     76  C   UNL A   1      40.479  33.958  36.831  1.00  0.00     0.041 A 
ATOM     77  F   UNL A   1      41.775  33.570  34.918  1.00  0.00    -0.206 F 
ATOM     78  C   UNL A   1      39.466  33.571  37.701  1.00  0.00     0.022 A 
BRANCH  75  79
ATOM     79  S   UNL A   1      37.403  31.879  38.513  1.00  0.00     0.124 S 
ATOM     80  O   UNL A   1      37.925  32.008  39.867  1.00  0.00    -0.237 OA
ATOM     81  O   UNL A   1      36.427  32.882  38.101  1.00  0.00    -0.237 OA
ATOM     82  O   UNL A   1      37.111  30.512  38.082  1.00  0.00    -0.744 OA
ENDBRANCH  75  79
ENDBRANCH  48  72
BRANCH  60  83
ATOM     83  C   UNL A   1      45.408  27.416  34.126  1.00  0.00     0.023 A 
ATOM     84  C   UNL A   1      45.468  26.304  34.984  1.00  0.00     0.031 A 
ATOM     85  C   UNL A   1      46.573  28.188  33.962  1.00  0.00     0.131 A 
ATOM     86  C   UNL A   1      46.653  26.024  35.681  1.00  0.00     0.055 A 
ATOM     87  C   UNL A   1      47.766  27.867  34.608  1.00  0.00     0.041 A 
ATOM     88  F   UNL A   1      46.572  29.264  33.158  1.00  0.00    -0.206 F 
ATOM     89  C   UNL A   1      47.807  26.787  35.483  1.00  0.00     0.022 A 
BRANCH  86  90
ATOM     90  S   UNL A   1      46.645  24.696  36.916  1.00  0.00     0.124 S 
ATOM     91  O   UNL A   1      48.068  24.529  37.193  1.00  0.00    -0.237 OA
ATOM     92  O   UNL A   1      45.850  25.276  37.993  1.00  0.00    -0.237 OA
ATOM     93  O   UNL A   1      46.015  23.578  36.214  1.00  0.00    -0.744 OA
ENDBRANCH  86  90
ENDBRANCH  60  83
ENDBRANCH  34  35
ENDBRANCH  26  29
ENDBRANCH  24  25
ENDBRANCH  23  24
ENDBRANCH   1  23
TORSDOF 17
ENDMDL
MODEL 2
REMARK VINA RESULT:     -11.4      2.321      3.076
REMARK SMILES Cc1nc(C(C)C)[nH]c(=O)c1C(=O)N(C)CC(=O)NCCCNC(=O)c1ccc(-c2c3nc(c(-c4cc(S(=O)(=O)[O-])ccc4F)c4ccc([nH]4)c(-c4cc(S(=O)(=O)[O-])ccc4F)c4nc(c(-c5cc(S(=O)(=O)[O-])ccc5F)c5ccc2[nH]5)C=C4)C=C3)cc1
REMARK SMILES IDX 20 1 19 2 17 3 18 4 16 6 14 7 15 8 12 9 13 10 11 11 1 12
REMARK SMILES IDX 2 13 3 14 4 15 9 16 8 17 10 18 5 20 6 21 7 22 21 23 22 24
REMARK SMILES IDX 23 25 24 26 25 28 26 29 27 30 88 31 28 32 87 33 29 34 30 35
REMARK SMILES IDX 31 36 81 37 32 38 86 39 80 40 82 41 33 42 85 43 79 44 78 45
REMARK SMILES IDX 34 47 66 48 46 49 65 50 47 51 50 52 64 53 83 54 48 55 49 56
REMARK SMILES IDX 63 58 84 59 51 60 35 61 36 62 44 63 37 64 43 65 45 66 42 67
REMARK SMILES IDX 38 68 39 69 40 70 41 71 67 72 68 73 76 74 69 75 75 76 77 77
REMARK SMILES IDX 74 78 70 79 71 80 72 81 73 82 52 83 53 84 61 85 54 86 60 87
REMARK SMILES IDX 62 88 59 89 55 90 56 91 57 92 58 93
REMARK H PARENT 19 5 8 19 23 27 82 46 50 57
REMARK Flexibility Score: inf
ROOT
ATOM      1  C   UNL A   1      31.440  30.676  26.090  1.00  0.00     0.117 C 
ENDROOT
BRANCH   1   2
ATOM      2  N   UNL A   1      32.715  30.053  26.358  1.00  0.00    -0.354 N 
ATOM      3  C   UNL A   1      33.057  28.735  26.313  1.00  0.00     0.239 C 
ATOM      4  O   UNL A   1      34.264  28.468  26.316  1.00  0.00    -0.273 OA
ATOM      5  H   UNL A   1      33.441  30.668  26.609  1.00  0.00     0.163 HD
BRANCH   3   6
ATOM      6  C   UNL A   1      32.015  27.643  26.006  1.00  0.00     0.219 C 
BRANCH   6   7
ATOM      7  N   UNL A   1      32.380  26.395  25.306  1.00  0.00    -0.332 N 
ATOM      8  C   UNL A   1      32.891  25.337  26.160  1.00  0.00     0.147 C 
BRANCH   7   9
ATOM      9  C   UNL A   1      31.883  26.254  24.014  1.00  0.00     0.261 C 
ATOM     10  O   UNL A   1      32.232  25.270  23.352  1.00  0.00    -0.269 OA
BRANCH   9  11
ATOM     11  C   UNL A   1      30.922  27.211  23.354  1.00  0.00     0.126 A 
ATOM     12  C   UNL A   1      32.507  29.022  22.514  1.00  0.00     0.068 C 
ATOM     13  C   UNL A   1      31.158  28.393  22.734  1.00  0.00     0.058 A 
ATOM     14  N   UNL A   1      30.170  29.255  22.296  1.00  0.00    -0.239 NA
ATOM     15  C   UNL A   1      28.954  29.061  22.685  1.00  0.00     0.111 A 
ATOM     16  C   UNL A   1      29.464  26.925  23.580  1.00  0.00     0.264 A 
ATOM     17  N   UNL A   1      28.595  27.958  23.385  1.00  0.00    -0.310 N 
ATOM     18  O   UNL A   1      29.028  25.813  23.868  1.00  0.00    -0.269 OA
ATOM     19  H   UNL A   1      27.687  27.902  23.762  1.00  0.00     0.171 HD
BRANCH  15  20
ATOM     20  C   UNL A   1      27.876  30.080  22.343  1.00  0.00     0.049 C 
ATOM     21  C   UNL A   1      27.640  31.050  23.495  1.00  0.00     0.016 C 
ATOM     22  C   UNL A   1      28.214  30.823  21.054  1.00  0.00     0.016 C 
ENDBRANCH  15  20
ENDBRANCH   9  11
ENDBRANCH   7   9
ENDBRANCH   6   7
ENDBRANCH   3   6
ENDBRANCH   1   2
BRANCH   1  23
ATOM     23  C   UNL A   1      31.409  32.146  26.483  1.00  0.00     0.042 C 
BRANCH  23  24
ATOM     24  C   UNL A   1      32.680  32.637  27.165  1.00  0.00     0.118 C 
BRANCH  24  25
ATOM     25  N   UNL A   1      32.558  34.001  27.662  1.00  0.00    -0.352 N 
ATOM     26  C   UNL A   1      33.246  34.630  28.673  1.00  0.00     0.251 C 
ATOM     27  H   UNL A   1      31.882  34.554  27.208  1.00  0.00     0.163 HD
ATOM     28  O   UNL A   1      32.868  35.724  29.071  1.00  0.00    -0.269 OA
BRANCH  26  29
ATOM     29  C   UNL A   1      34.420  33.969  29.290  1.00  0.00     0.039 A 
ATOM     30  C   UNL A   1      35.697  34.259  28.803  1.00  0.00     0.014 A 
ATOM     31  C   UNL A   1      34.261  33.065  30.342  1.00  0.00     0.014 A 
ATOM     32  C   UNL A   1      36.818  33.695  29.418  1.00  0.00     0.010 A 
ATOM     33  C   UNL A   1      35.380  32.568  31.004  1.00  0.00     0.010 A 
ATOM     34  C   UNL A   1      36.672  32.876  30.548  1.00  0.00    -0.014 A 
BRANCH  34  35
ATOM     35  C   UNL A   1      37.844  32.300  31.261  1.00  0.00     0.031 A 
ATOM     36  C   UNL A   1      38.603  31.158  30.638  1.00  0.00     0.074 A 
ATOM     37  C   UNL A   1      38.179  32.749  32.486  1.00  0.00     0.049 A 
ATOM     38  N   UNL A   1      39.551  30.416  31.150  1.00  0.00    -0.248 NA
ATOM     39  C   UNL A   1      38.222  30.786  29.266  1.00  0.00     0.031 C 
ATOM     40  C   UNL A   1      37.515  33.843  33.199  1.00  0.00     0.029 A 
ATOM     41  N   UNL A   1      39.154  32.333  33.360  1.00  0.00    -0.354 N 
ATOM     42  C   UNL A   1      39.873  29.485  30.169  1.00  0.00     0.074 A 
ATOM     43  C   UNL A   1      38.973  29.714  29.059  1.00  0.00     0.031 C 
ATOM     44  C   UNL A   1      38.114  34.022  34.388  1.00  0.00     0.029 A 
ATOM     45  C   UNL A   1      39.163  33.021  34.553  1.00  0.00     0.049 A 
ATOM     46  H   UNL A   1      39.788  31.609  33.153  1.00  0.00     0.167 HD
ATOM     47  C   UNL A   1      40.847  28.542  30.181  1.00  0.00     0.034 A 
ATOM     48  C   UNL A   1      39.914  32.848  35.660  1.00  0.00     0.034 A 
ATOM     49  C   UNL A   1      41.742  28.330  31.289  1.00  0.00     0.049 A 
ATOM     50  C   UNL A   1      40.949  31.745  35.673  1.00  0.00     0.074 A 
ATOM     51  C   UNL A   1      42.774  27.412  31.401  1.00  0.00     0.029 A 
ATOM     52  N   UNL A   1      41.719  29.045  32.479  1.00  0.00    -0.354 N 
ATOM     53  N   UNL A   1      41.249  30.882  34.729  1.00  0.00    -0.248 NA
ATOM     54  C   UNL A   1      41.754  31.601  36.893  1.00  0.00     0.031 C 
ATOM     55  C   UNL A   1      43.328  27.528  32.679  1.00  0.00     0.029 A 
ATOM     56  C   UNL A   1      42.702  28.577  33.334  1.00  0.00     0.049 A 
ATOM     57  H   UNL A   1      41.094  29.778  32.685  1.00  0.00     0.167 HD
ATOM     58  C   UNL A   1      42.313  30.132  35.226  1.00  0.00     0.074 A 
ATOM     59  C   UNL A   1      42.604  30.646  36.546  1.00  0.00     0.031 C 
ATOM     60  C   UNL A   1      42.994  29.115  34.642  1.00  0.00     0.034 A 
BRANCH  47  61
ATOM     61  C   UNL A   1      40.982  27.663  28.961  1.00  0.00     0.023 A 
ATOM     62  C   UNL A   1      41.974  27.898  27.994  1.00  0.00     0.031 A 
ATOM     63  C   UNL A   1      40.109  26.580  28.759  1.00  0.00     0.131 A 
ATOM     64  C   UNL A   1      42.030  27.103  26.839  1.00  0.00     0.055 A 
ATOM     65  C   UNL A   1      40.222  25.741  27.648  1.00  0.00     0.041 A 
ATOM     66  F   UNL A   1      39.128  26.319  29.637  1.00  0.00    -0.206 F 
ATOM     67  C   UNL A   1      41.179  26.009  26.673  1.00  0.00     0.022 A 
BRANCH  64  68
ATOM     68  S   UNL A   1      43.146  27.601  25.500  1.00  0.00     0.124 S 
ATOM     69  O   UNL A   1      43.664  26.310  25.055  1.00  0.00    -0.237 OA
ATOM     70  O   UNL A   1      42.248  28.282  24.575  1.00  0.00    -0.237 OA
ATOM     71  O   UNL A   1      44.121  28.459  26.169  1.00  0.00    -0.744 OA
ENDBRANCH  64  68
ENDBRANCH  47  61
BRANCH  48  72
ATOM     72  C   UNL A   1      39.724  33.713  36.862  1.00  0.00     0.023 A 
ATOM     73  C   UNL A   1      39.122  33.202  38.024  1.00  0.00     0.031 A 
ATOM     74  C   UNL A   1      40.053  35.080  36.842  1.00  0.00     0.131 A 
ATOM     75  C   UNL A   1      38.795  34.064  39.082  1.00  0.00     0.055 A 
ATOM     76  C   UNL A   1      39.793  35.919  37.928  1.00  0.00     0.041 A 
ATOM     77  F   UNL A   1      40.631  35.626  35.760  1.00  0.00    -0.206 F 
ATOM     78  C   UNL A   1      39.140  35.416  39.048  1.00  0.00     0.022 A 
BRANCH  75  79
ATOM     79  S   UNL A   1      37.778  33.418  40.438  1.00  0.00     0.124 S 
ATOM     80  O   UNL A   1      36.570  33.012  39.732  1.00  0.00    -0.237 OA
ATOM     81  O   UNL A   1      38.615  32.340  40.955  1.00  0.00    -0.237 OA
ATOM     82  O   UNL A   1      37.628  34.570  41.326  1.00  0.00    -0.744 OA
ENDBRANCH  75  79
ENDBRANCH  48  72
BRANCH  60  83
ATOM     83  C   UNL A   1      44.179  28.550  35.387  1.00  0.00     0.023 A 
ATOM     84  C   UNL A   1      44.048  27.520  36.334  1.00  0.00     0.031 A 
ATOM     85  C   UNL A   1      45.469  29.052  35.131  1.00  0.00     0.131 A 
ATOM     86  C   UNL A   1      45.179  27.058  37.025  1.00  0.00     0.055 A 
ATOM     87  C   UNL A   1      46.598  28.545  35.774  1.00  0.00     0.041 A 
ATOM     88  F   UNL A   1      45.653  30.039  34.239  1.00  0.00    -0.206 F 
ATOM     89  C   UNL A   1      46.454  27.550  36.736  1.00  0.00     0.022 A 
BRANCH  86  90
ATOM     90  S   UNL A   1      44.952  25.860  38.368  1.00  0.00     0.124 S 
ATOM     91  O   UNL A   1      44.109  26.603  39.299  1.00  0.00    -0.237 OA
ATOM     92  O   UNL A   1      44.313  24.741  37.684  1.00  0.00    -0.237 OA
ATOM     93  O   UNL A   1      46.315  25.605  38.834  1.00  0.00    -0.744 OA
ENDBRANCH  86  90
ENDBRANCH  60  83
ENDBRANCH  34  35
ENDBRANCH  26  29
ENDBRANCH  24  25
ENDBRANCH  23  24
ENDBRANCH   1  23
TORSDOF 17
ENDMDL
MODEL 3
REMARK VINA RESULT:     -11.3      3.091      8.705
REMARK SMILES Cc1nc(C(C)C)[nH]c(=O)c1C(=O)N(C)CC(=O)NCCCNC(=O)c1ccc(-c2c3nc(c(-c4cc(S(=O)(=O)[O-])ccc4F)c4ccc([nH]4)c(-c4cc(S(=O)(=O)[O-])ccc4F)c4nc(c(-c5cc(S(=O)(=O)[O-])ccc5F)c5ccc2[nH]5)C=C4)C=C3)cc1
REMARK SMILES IDX 20 1 19 2 17 3 18 4 16 6 14 7 15 8 12 9 13 10 11 11 1 12
REMARK SMILES IDX 2 13 3 14 4 15 9 16 8 17 10 18 5 20 6 21 7 22 21 23 22 24
REMARK SMILES IDX 23 25 24 26 25 28 26 29 27 30 88 31 28 32 87 33 29 34 30 35
REMARK SMILES IDX 31 36 81 37 32 38 86 39 80 40 82 41 33 42 85 43 79 44 78 45
REMARK SMILES IDX 34 47 66 48 46 49 65 50 47 51 50 52 64 53 83 54 48 55 49 56
REMARK SMILES IDX 63 58 84 59 51 60 35 61 36 62 44 63 37 64 43 65 45 66 42 67
REMARK SMILES IDX 38 68 39 69 40 70 41 71 67 72 68 73 76 74 69 75 75 76 77 77
REMARK SMILES IDX 74 78 70 79 71 80 72 81 73 82 52 83 53 84 61 85 54 86 60 87
REMARK SMILES IDX 62 88 59 89 55 90 56 91 57 92 58 93
REMARK H PARENT 19 5 8 19 23 27 82 46 50 57
REMARK Flexibility Score: inf
ROOT
ATOM      1  C   UNL A   1      31.853  27.191  26.057  1.00  0.00     0.117 C 
ENDROOT
BRANCH   1   2
ATOM      2  N   UNL A   1      31.394  26.007  26.744  1.00  0.00    -0.354 N 
ATOM      3  C   UNL A   1      31.667  24.698  26.484  1.00  0.00     0.239 C 
ATOM      4  O   UNL A   1      31.385  23.879  27.365  1.00  0.00    -0.273 OA
ATOM      5  H   UNL A   1      30.800  26.168  27.512  1.00  0.00     0.163 HD
BRANCH   3   6
ATOM      6  C   UNL A   1      32.523  24.280  25.273  1.00  0.00     0.219 C 
BRANCH   6   7
ATOM      7  N   UNL A   1      33.957  23.959  25.409  1.00  0.00    -0.332 N 
ATOM      8  C   UNL A   1      34.861  25.078  25.208  1.00  0.00     0.147 C 
BRANCH   7   9
ATOM      9  C   UNL A   1      34.255  22.753  26.036  1.00  0.00     0.261 C 
ATOM     10  O   UNL A   1      34.539  22.767  27.239  1.00  0.00    -0.269 OA
BRANCH   9  11
ATOM     11  C   UNL A   1      34.240  21.406  25.357  1.00  0.00     0.126 A 
ATOM     12  C   UNL A   1      31.738  20.934  25.222  1.00  0.00     0.068 C 
ATOM     13  C   UNL A   1      33.195  20.611  25.022  1.00  0.00     0.058 A 
ATOM     14  N   UNL A   1      33.319  19.324  24.533  1.00  0.00    -0.239 NA
ATOM     15  C   UNL A   1      34.467  18.738  24.601  1.00  0.00     0.111 A 
ATOM     16  C   UNL A   1      35.581  20.745  25.198  1.00  0.00     0.264 A 
ATOM     17  N   UNL A   1      35.583  19.395  24.999  1.00  0.00    -0.310 N 
ATOM     18  O   UNL A   1      36.643  21.361  25.182  1.00  0.00    -0.269 OA
ATOM     19  H   UNL A   1      36.413  18.887  25.148  1.00  0.00     0.171 HD
BRANCH  15  20
ATOM     20  C   UNL A   1      34.595  17.271  24.212  1.00  0.00     0.049 C 
ATOM     21  C   UNL A   1      33.965  16.359  25.258  1.00  0.00     0.016 C 
ATOM     22  C   UNL A   1      34.004  17.018  22.828  1.00  0.00     0.016 C 
ENDBRANCH  15  20
ENDBRANCH   9  11
ENDBRANCH   7   9
ENDBRANCH   6   7
ENDBRANCH   3   6
ENDBRANCH   1   2
BRANCH   1  23
ATOM     23  C   UNL A   1      32.766  28.054  26.915  1.00  0.00     0.042 C 
BRANCH  23  24
ATOM     24  C   UNL A   1      33.702  28.956  26.119  1.00  0.00     0.118 C 
BRANCH  24  25
ATOM     25  N   UNL A   1      33.683  30.335  26.587  1.00  0.00    -0.352 N 
ATOM     26  C   UNL A   1      34.500  30.963  27.498  1.00  0.00     0.251 C 
ATOM     27  H   UNL A   1      32.981  30.901  26.193  1.00  0.00     0.163 HD
ATOM     28  O   UNL A   1      34.207  32.080  27.903  1.00  0.00    -0.269 OA
BRANCH  26  29
ATOM     29  C   UNL A   1      35.711  30.274  28.002  1.00  0.00     0.039 A 
ATOM     30  C   UNL A   1      36.870  30.280  27.222  1.00  0.00     0.014 A 
ATOM     31  C   UNL A   1      35.702  29.622  29.236  1.00  0.00     0.014 A 
ATOM     32  C   UNL A   1      38.040  29.692  27.714  1.00  0.00     0.010 A 
ATOM     33  C   UNL A   1      36.885  29.109  29.758  1.00  0.00     0.010 A 
ATOM     34  C   UNL A   1      38.068  29.136  29.002  1.00  0.00    -0.014 A 
BRANCH  34  35
ATOM     35  C   UNL A   1      39.306  28.548  29.579  1.00  0.00     0.031 A 
ATOM     36  C   UNL A   1      39.949  29.200  30.775  1.00  0.00     0.074 A 
ATOM     37  C   UNL A   1      39.888  27.484  28.992  1.00  0.00     0.049 A 
ATOM     38  N   UNL A   1      41.102  28.945  31.339  1.00  0.00    -0.248 NA
ATOM     39  C   UNL A   1      39.205  30.305  31.401  1.00  0.00     0.031 C 
ATOM     40  C   UNL A   1      39.367  26.771  27.823  1.00  0.00     0.029 A 
ATOM     41  N   UNL A   1      41.055  26.822  29.288  1.00  0.00    -0.354 N 
ATOM     42  C   UNL A   1      41.226  29.861  32.377  1.00  0.00     0.074 A 
ATOM     43  C   UNL A   1      40.063  30.720  32.322  1.00  0.00     0.031 C 
ATOM     44  C   UNL A   1      40.199  25.762  27.516  1.00  0.00     0.029 A 
ATOM     45  C   UNL A   1      41.343  25.790  28.422  1.00  0.00     0.049 A 
ATOM     46  H   UNL A   1      41.632  27.062  30.047  1.00  0.00     0.167 HD
ATOM     47  C   UNL A   1      42.207  29.961  33.307  1.00  0.00     0.034 A 
ATOM     48  C   UNL A   1      42.417  24.976  28.353  1.00  0.00     0.034 A 
ATOM     49  C   UNL A   1      43.356  29.093  33.356  1.00  0.00     0.049 A 
ATOM     50  C   UNL A   1      43.529  25.152  29.363  1.00  0.00     0.074 A 
ATOM     51  C   UNL A   1      44.402  29.098  34.264  1.00  0.00     0.029 A 
ATOM     52  N   UNL A   1      43.613  28.063  32.462  1.00  0.00    -0.354 N 
ATOM     53  N   UNL A   1      43.624  26.017  30.347  1.00  0.00    -0.248 NA
ATOM     54  C   UNL A   1      44.673  24.237  29.260  1.00  0.00     0.031 C 
ATOM     55  C   UNL A   1      45.320  28.117  33.880  1.00  0.00     0.029 A 
ATOM     56  C   UNL A   1      44.807  27.440  32.786  1.00  0.00     0.049 A 
ATOM     57  H   UNL A   1      43.031  27.811  31.708  1.00  0.00     0.167 HD
ATOM     58  C   UNL A   1      44.810  25.709  31.010  1.00  0.00     0.074 A 
ATOM     59  C   UNL A   1      45.393  24.581  30.317  1.00  0.00     0.031 C 
ATOM     60  C   UNL A   1      45.365  26.301  32.097  1.00  0.00     0.034 A 
BRANCH  47  61
ATOM     61  C   UNL A   1      42.081  31.056  34.339  1.00  0.00     0.023 A 
ATOM     62  C   UNL A   1      42.613  32.338  34.117  1.00  0.00     0.031 A 
ATOM     63  C   UNL A   1      41.426  30.817  35.559  1.00  0.00     0.131 A 
ATOM     64  C   UNL A   1      42.537  33.312  35.124  1.00  0.00     0.055 A 
ATOM     65  C   UNL A   1      41.280  31.816  36.524  1.00  0.00     0.041 A 
ATOM     66  F   UNL A   1      40.917  29.607  35.837  1.00  0.00    -0.206 F 
ATOM     67  C   UNL A   1      41.850  33.069  36.314  1.00  0.00     0.022 A 
BRANCH  64  68
ATOM     68  S   UNL A   1      43.461  34.856  34.904  1.00  0.00     0.124 S 
ATOM     69  O   UNL A   1      42.854  35.710  35.922  1.00  0.00    -0.237 OA
ATOM     70  O   UNL A   1      44.837  34.441  35.156  1.00  0.00    -0.237 OA
ATOM     71  O   UNL A   1      43.167  35.237  33.525  1.00  0.00    -0.744 OA
ENDBRANCH  64  68
ENDBRANCH  47  61
BRANCH  48  72
ATOM     72  C   UNL A   1      42.523  23.930  27.294  1.00  0.00     0.023 A 
ATOM     73  C   UNL A   1      41.886  22.688  27.446  1.00  0.00     0.031 A 
ATOM     74  C   UNL A   1      43.332  24.116  26.157  1.00  0.00     0.131 A 
ATOM     75  C   UNL A   1      42.131  21.656  26.528  1.00  0.00     0.055 A 
ATOM     76  C   UNL A   1      43.513  23.110  25.206  1.00  0.00     0.041 A 
ATOM     77  F   UNL A   1      43.967  25.282  25.956  1.00  0.00    -0.206 F 
ATOM     78  C   UNL A   1      42.928  21.863  25.400  1.00  0.00     0.022 A 
BRANCH  75  79
ATOM     79  S   UNL A   1      41.510  19.995  26.910  1.00  0.00     0.124 S 
ATOM     80  O   UNL A   1      42.749  19.235  27.017  1.00  0.00    -0.237 OA
ATOM     81  O   UNL A   1      40.785  20.223  28.155  1.00  0.00    -0.237 OA
ATOM     82  O   UNL A   1      40.676  19.671  25.754  1.00  0.00    -0.744 OA
ENDBRANCH  75  79
ENDBRANCH  48  72
BRANCH  60  83
ATOM     83  C   UNL A   1      46.622  25.682  32.661  1.00  0.00     0.023 A 
ATOM     84  C   UNL A   1      46.589  24.702  33.667  1.00  0.00     0.031 A 
ATOM     85  C   UNL A   1      47.878  26.081  32.167  1.00  0.00     0.131 A 
ATOM     86  C   UNL A   1      47.789  24.188  34.181  1.00  0.00     0.055 A 
ATOM     87  C   UNL A   1      49.066  25.520  32.637  1.00  0.00     0.041 A 
ATOM     88  F   UNL A   1      47.969  27.016  31.208  1.00  0.00    -0.206 F 
ATOM     89  C   UNL A   1      49.026  24.577  33.658  1.00  0.00     0.022 A 
BRANCH  86  90
ATOM     90  S   UNL A   1      47.719  23.064  35.602  1.00  0.00     0.124 S 
ATOM     91  O   UNL A   1      49.118  23.008  36.016  1.00  0.00    -0.237 OA
ATOM     92  O   UNL A   1      46.814  23.761  36.509  1.00  0.00    -0.237 OA
ATOM     93  O   UNL A   1      47.192  21.824  35.033  1.00  0.00    -0.744 OA
ENDBRANCH  86  90
ENDBRANCH  60  83
ENDBRANCH  34  35
ENDBRANCH  26  29
ENDBRANCH  24  25
ENDBRANCH  23  24
ENDBRANCH   1  23
TORSDOF 17
ENDMDL
