MODEL 1
REMARK VINA RESULT:     -12.7      0.000      0.000
REMARK SMILES Cc1cc(OC(F)(F)F)cc2c1O[C@H](C(F)(F)F)C(C(=O)NCCCNC(=O)c1ccc(-c3c4nc(c(-c5cc(S(=O)(=O)[O-])ccc5F)c5ccc([nH]5)c(-c5cc(S(=O)(=O)[O-])ccc5F)c5nc(c(-c6cc(S(=O)(=O)[O-])ccc6F)c6ccc3[nH]6)C=C5)C=C4)cc1)=C2
REMARK SMILES IDX 24 1 23 2 22 3 20 4 21 5 19 7 1 8 2 9 3 10 12 11 4 12 11 13
REMARK SMILES IDX 13 14 10 15 92 16 14 17 5 18 6 19 7 20 8 21 9 22 15 23 16 24
REMARK SMILES IDX 17 25 18 26 25 27 26 28 27 29 28 31 29 32 30 33 91 34 31 35
REMARK SMILES IDX 90 36 32 37 33 38 34 39 84 40 35 41 89 42 83 43 85 44 36 45
REMARK SMILES IDX 88 46 82 47 81 48 37 50 69 51 49 52 68 53 50 54 53 55 67 56
REMARK SMILES IDX 86 57 51 58 52 59 66 61 87 62 54 63 38 64 39 65 47 66 40 67
REMARK SMILES IDX 46 68 48 69 45 70 41 71 42 72 43 73 44 74 70 75 71 76 79 77
REMARK SMILES IDX 72 78 78 79 80 80 77 81 73 82 74 83 75 84 76 85 55 86 56 87
REMARK SMILES IDX 64 88 57 89 63 90 65 91 62 92 58 93 59 94 60 95 61 96
REMARK H PARENT 22 6 26 30 85 49 53 60
REMARK Flexibility Score: inf
ROOT
ATOM      1  C   UNL A   1      31.440  31.947  26.418  1.00  0.00     0.042 C 
ENDROOT
BRANCH   1   2
ATOM      2  C   UNL A   1      31.431  30.451  26.135  1.00  0.00     0.118 C 
BRANCH   2   3
ATOM      3  N   UNL A   1      32.294  30.103  25.015  1.00  0.00    -0.352 N 
ATOM      4  C   UNL A   1      32.785  28.974  24.453  1.00  0.00     0.251 C 
ATOM      5  O   UNL A   1      33.500  29.148  23.460  1.00  0.00    -0.270 OA
ATOM      6  H   UNL A   1      32.603  30.906  24.537  1.00  0.00     0.163 HD
BRANCH   4   7
ATOM      7  C   UNL A   1      32.511  27.589  24.932  1.00  0.00     0.067 C 
ATOM      8  C   UNL A   1      30.514  23.286  26.853  1.00  0.00     0.048 C 
ATOM      9  C   UNL A   1      31.892  23.721  26.440  1.00  0.00    -0.005 A 
ATOM     10  C   UNL A   1      32.960  22.812  26.458  1.00  0.00     0.054 A 
ATOM     11  C   UNL A   1      32.119  25.026  25.991  1.00  0.00     0.131 A 
ATOM     12  C   UNL A   1      34.239  23.210  26.058  1.00  0.00     0.130 A 
ATOM     13  C   UNL A   1      33.389  25.437  25.585  1.00  0.00     0.021 A 
ATOM     14  O   UNL A   1      31.054  25.880  26.010  1.00  0.00    -0.475 OA
ATOM     15  C   UNL A   1      34.446  24.525  25.623  1.00  0.00     0.058 A 
ATOM     16  C   UNL A   1      33.590  26.816  25.154  1.00  0.00     0.025 C 
ATOM     17  C   UNL A   1      31.132  27.029  25.130  1.00  0.00     0.314 C 
BRANCH  12  18
ATOM     18  O   UNL A   1      35.358  22.426  26.040  1.00  0.00    -0.406 OA
BRANCH  18  19
ATOM     19  C   UNL A   1      35.628  21.693  24.857  1.00  0.00     0.573 C 
ATOM     20  F   UNL A   1      34.510  21.507  24.126  1.00  0.00    -0.132 F 
ATOM     21  F   UNL A   1      36.564  22.311  24.104  1.00  0.00    -0.132 F 
ATOM     22  F   UNL A   1      36.111  20.477  25.200  1.00  0.00    -0.132 F 
ENDBRANCH  18  19
ENDBRANCH  12  18
BRANCH  17  23
ATOM     23  C   UNL A   1      30.438  26.685  23.798  1.00  0.00     0.429 C 
ATOM     24  F   UNL A   1      31.352  26.340  22.858  1.00  0.00    -0.167 F 
ATOM     25  F   UNL A   1      29.585  25.638  23.904  1.00  0.00    -0.167 F 
ATOM     26  F   UNL A   1      29.720  27.719  23.301  1.00  0.00    -0.167 F 
ENDBRANCH  17  23
ENDBRANCH   4   7
ENDBRANCH   2   3
ENDBRANCH   1   2
BRANCH   1  27
ATOM     27  C   UNL A   1      32.587  32.341  27.341  1.00  0.00     0.118 C 
BRANCH  27  28
ATOM     28  N   UNL A   1      32.558  33.770  27.644  1.00  0.00    -0.352 N 
ATOM     29  C   UNL A   1      33.227  34.464  28.620  1.00  0.00     0.251 C 
ATOM     30  H   UNL A   1      31.975  34.313  27.065  1.00  0.00     0.163 HD
ATOM     31  O   UNL A   1      32.858  35.594  28.936  1.00  0.00    -0.269 OA
BRANCH  29  32
ATOM     32  C   UNL A   1      34.393  33.847  29.278  1.00  0.00     0.039 A 
ATOM     33  C   UNL A   1      35.683  34.253  28.928  1.00  0.00     0.014 A 
ATOM     34  C   UNL A   1      34.196  32.847  30.233  1.00  0.00     0.014 A 
ATOM     35  C   UNL A   1      36.778  33.688  29.583  1.00  0.00     0.010 A 
ATOM     36  C   UNL A   1      35.279  32.347  30.941  1.00  0.00     0.010 A 
ATOM     37  C   UNL A   1      36.580  32.746  30.606  1.00  0.00    -0.014 A 
BRANCH  37  38
ATOM     38  C   UNL A   1      37.719  32.119  31.312  1.00  0.00     0.031 A 
ATOM     39  C   UNL A   1      38.442  30.968  30.671  1.00  0.00     0.074 A 
ATOM     40  C   UNL A   1      38.049  32.533  32.550  1.00  0.00     0.049 A 
ATOM     41  N   UNL A   1      39.426  30.250  31.143  1.00  0.00    -0.248 NA
ATOM     42  C   UNL A   1      37.978  30.549  29.337  1.00  0.00     0.031 C 
ATOM     43  C   UNL A   1      37.372  33.599  33.289  1.00  0.00     0.029 A 
ATOM     44  N   UNL A   1      39.023  32.096  33.412  1.00  0.00    -0.354 N 
ATOM     45  C   UNL A   1      39.691  29.294  30.171  1.00  0.00     0.074 A 
ATOM     46  C   UNL A   1      38.725  29.479  29.113  1.00  0.00     0.031 C 
ATOM     47  C   UNL A   1      37.961  33.744  34.486  1.00  0.00     0.029 A 
ATOM     48  C   UNL A   1      39.038  32.764  34.613  1.00  0.00     0.049 A 
ATOM     49  H   UNL A   1      39.652  31.371  33.191  1.00  0.00     0.167 HD
ATOM     50  C   UNL A   1      40.675  28.366  30.150  1.00  0.00     0.034 A 
ATOM     51  C   UNL A   1      39.832  32.606  35.691  1.00  0.00     0.034 A 
ATOM     52  C   UNL A   1      41.647  28.213  31.198  1.00  0.00     0.049 A 
ATOM     53  C   UNL A   1      40.938  31.583  35.636  1.00  0.00     0.074 A 
ATOM     54  C   UNL A   1      42.725  27.349  31.243  1.00  0.00     0.029 A 
ATOM     55  N   UNL A   1      41.665  28.944  32.377  1.00  0.00    -0.354 N 
ATOM     56  N   UNL A   1      41.243  30.753  34.666  1.00  0.00    -0.248 NA
ATOM     57  C   UNL A   1      41.821  31.484  36.807  1.00  0.00     0.031 C 
ATOM     58  C   UNL A   1      43.368  27.523  32.469  1.00  0.00     0.029 A 
ATOM     59  C   UNL A   1      42.727  28.539  33.164  1.00  0.00     0.049 A 
ATOM     60  H   UNL A   1      41.018  29.646  32.618  1.00  0.00     0.167 HD
ATOM     61  C   UNL A   1      42.369  30.058  35.095  1.00  0.00     0.074 A 
ATOM     62  C   UNL A   1      42.699  30.572  36.407  1.00  0.00     0.031 C 
ATOM     63  C   UNL A   1      43.063  29.081  34.458  1.00  0.00     0.034 A 
BRANCH  50  64
ATOM     64  C   UNL A   1      40.783  27.464  28.950  1.00  0.00     0.023 A 
ATOM     65  C   UNL A   1      41.732  27.733  27.949  1.00  0.00     0.031 A 
ATOM     66  C   UNL A   1      39.878  26.407  28.749  1.00  0.00     0.131 A 
ATOM     67  C   UNL A   1      41.735  26.971  26.774  1.00  0.00     0.055 A 
ATOM     68  C   UNL A   1      39.911  25.625  27.594  1.00  0.00     0.041 A 
ATOM     69  F   UNL A   1      38.958  26.109  29.681  1.00  0.00    -0.206 F 
ATOM     70  C   UNL A   1      40.835  25.914  26.595  1.00  0.00     0.022 A 
BRANCH  67  71
ATOM     71  S   UNL A   1      42.881  27.344  25.420  1.00  0.00     0.124 S 
ATOM     72  O   UNL A   1      42.169  28.401  24.705  1.00  0.00    -0.237 OA
ATOM     73  O   UNL A   1      44.075  27.773  26.143  1.00  0.00    -0.237 OA
ATOM     74  O   UNL A   1      42.995  26.080  24.700  1.00  0.00    -0.744 OA
ENDBRANCH  67  71
ENDBRANCH  50  64
BRANCH  51  75
ATOM     75  C   UNL A   1      39.645  33.503  36.867  1.00  0.00     0.023 A 
ATOM     76  C   UNL A   1      39.018  33.042  38.038  1.00  0.00     0.031 A 
ATOM     77  C   UNL A   1      39.994  34.861  36.791  1.00  0.00     0.131 A 
ATOM     78  C   UNL A   1      38.712  33.946  39.064  1.00  0.00     0.055 A 
ATOM     79  C   UNL A   1      39.742  35.746  37.840  1.00  0.00     0.041 A 
ATOM     80  F   UNL A   1      40.579  35.347  35.685  1.00  0.00    -0.206 F 
ATOM     81  C   UNL A   1      39.085  35.292  38.980  1.00  0.00     0.022 A 
BRANCH  78  82
ATOM     82  S   UNL A   1      37.732  33.427  40.499  1.00  0.00     0.124 S 
ATOM     83  O   UNL A   1      37.697  34.645  41.304  1.00  0.00    -0.237 OA
ATOM     84  O   UNL A   1      36.467  33.050  39.871  1.00  0.00    -0.237 OA
ATOM     85  O   UNL A   1      38.502  32.324  41.062  1.00  0.00    -0.744 OA
ENDBRANCH  78  82
ENDBRANCH  51  75
BRANCH  63  86
ATOM     86  C   UNL A   1      44.277  28.497  35.134  1.00  0.00     0.023 A 
ATOM     87  C   UNL A   1      44.115  27.515  36.129  1.00  0.00     0.031 A 
ATOM     88  C   UNL A   1      45.560  29.031  34.922  1.00  0.00     0.131 A 
ATOM     89  C   UNL A   1      45.211  27.130  36.910  1.00  0.00     0.055 A 
ATOM     90  C   UNL A   1      46.658  28.610  35.673  1.00  0.00     0.041 A 
ATOM     91  F   UNL A   1      45.758  29.978  33.992  1.00  0.00    -0.206 F 
ATOM     92  C   UNL A   1      46.483  27.666  36.683  1.00  0.00     0.022 A 
BRANCH  89  93
ATOM     93  S   UNL A   1      45.010  25.981  38.298  1.00  0.00     0.124 S 
ATOM     94  O   UNL A   1      46.386  25.826  38.766  1.00  0.00    -0.237 OA
ATOM     95  O   UNL A   1      44.129  26.729  39.190  1.00  0.00    -0.237 OA
ATOM     96  O   UNL A   1      44.425  24.791  37.690  1.00  0.00    -0.744 OA
ENDBRANCH  89  93
ENDBRANCH  63  86
ENDBRANCH  37  38
ENDBRANCH  29  32
ENDBRANCH  27  28
ENDBRANCH   1  27
TORSDOF 16
ENDMDL
MODEL 2
REMARK VINA RESULT:     -12.6      5.655      8.437
REMARK SMILES Cc1cc(OC(F)(F)F)cc2c1O[C@H](C(F)(F)F)C(C(=O)NCCCNC(=O)c1ccc(-c3c4nc(c(-c5cc(S(=O)(=O)[O-])ccc5F)c5ccc([nH]5)c(-c5cc(S(=O)(=O)[O-])ccc5F)c5nc(c(-c6cc(S(=O)(=O)[O-])ccc6F)c6ccc3[nH]6)C=C5)C=C4)cc1)=C2
REMARK SMILES IDX 24 1 23 2 22 3 20 4 21 5 19 7 1 8 2 9 3 10 12 11 4 12 11 13
REMARK SMILES IDX 13 14 10 15 92 16 14 17 5 18 6 19 7 20 8 21 9 22 15 23 16 24
REMARK SMILES IDX 17 25 18 26 25 27 26 28 27 29 28 31 29 32 30 33 91 34 31 35
REMARK SMILES IDX 90 36 32 37 33 38 34 39 84 40 35 41 89 42 83 43 85 44 36 45
REMARK SMILES IDX 88 46 82 47 81 48 37 50 69 51 49 52 68 53 50 54 53 55 67 56
REMARK SMILES IDX 86 57 51 58 52 59 66 61 87 62 54 63 38 64 39 65 47 66 40 67
REMARK SMILES IDX 46 68 48 69 45 70 41 71 42 72 43 73 44 74 70 75 71 76 79 77
REMARK SMILES IDX 72 78 78 79 80 80 77 81 73 82 74 83 75 84 76 85 55 86 56 87
REMARK SMILES IDX 64 88 57 89 63 90 65 91 62 92 58 93 59 94 60 95 61 96
REMARK H PARENT 22 6 26 30 85 49 53 60
REMARK Flexibility Score: inf
ROOT
ATOM      1  C   UNL A   1      35.323  22.215  26.413  1.00  0.00     0.042 C 
ENDROOT
BRANCH   1   2
ATOM      2  C   UNL A   1      34.388  21.478  25.466  1.00  0.00     0.118 C 
BRANCH   2   3
ATOM      3  N   UNL A   1      32.987  21.745  25.766  1.00  0.00    -0.352 N 
ATOM      4  C   UNL A   1      32.132  22.790  25.667  1.00  0.00     0.251 C 
ATOM      5  O   UNL A   1      30.977  22.561  26.040  1.00  0.00    -0.270 OA
ATOM      6  H   UNL A   1      32.542  20.951  26.141  1.00  0.00     0.163 HD
BRANCH   4   7
ATOM      7  C   UNL A   1      32.484  24.139  25.140  1.00  0.00     0.067 C 
ATOM      8  C   UNL A   1      33.694  28.215  22.290  1.00  0.00     0.048 C 
ATOM      9  C   UNL A   1      33.672  27.923  23.764  1.00  0.00    -0.005 A 
ATOM     10  C   UNL A   1      33.947  28.936  24.694  1.00  0.00     0.054 A 
ATOM     11  C   UNL A   1      33.333  26.648  24.230  1.00  0.00     0.131 A 
ATOM     12  C   UNL A   1      33.910  28.671  26.066  1.00  0.00     0.130 A 
ATOM     13  C   UNL A   1      33.289  26.369  25.596  1.00  0.00     0.021 A 
ATOM     14  O   UNL A   1      33.093  25.689  23.288  1.00  0.00    -0.475 OA
ATOM     15  C   UNL A   1      33.581  27.385  26.510  1.00  0.00     0.058 A 
ATOM     16  C   UNL A   1      32.964  25.019  26.040  1.00  0.00     0.025 C 
ATOM     17  C   UNL A   1      32.296  24.556  23.710  1.00  0.00     0.314 C 
BRANCH  12  18
ATOM     18  O   UNL A   1      34.168  29.565  27.067  1.00  0.00    -0.406 OA
BRANCH  18  19
ATOM     19  C   UNL A   1      35.479  29.589  27.605  1.00  0.00     0.573 C 
ATOM     20  F   UNL A   1      35.463  29.480  28.950  1.00  0.00    -0.132 F 
ATOM     21  F   UNL A   1      36.239  28.603  27.080  1.00  0.00    -0.132 F 
ATOM     22  F   UNL A   1      36.057  30.769  27.287  1.00  0.00    -0.132 F 
ENDBRANCH  18  19
ENDBRANCH  12  18
BRANCH  17  23
ATOM     23  C   UNL A   1      30.819  24.827  23.364  1.00  0.00     0.429 C 
ATOM     24  F   UNL A   1      30.173  25.371  24.425  1.00  0.00    -0.167 F 
ATOM     25  F   UNL A   1      30.671  25.699  22.338  1.00  0.00    -0.167 F 
ATOM     26  F   UNL A   1      30.149  23.704  23.017  1.00  0.00    -0.167 F 
ENDBRANCH  17  23
ENDBRANCH   4   7
ENDBRANCH   2   3
ENDBRANCH   1   2
BRANCH   1  27
ATOM     27  C   UNL A   1      36.651  22.554  25.747  1.00  0.00     0.118 C 
BRANCH  27  28
ATOM     28  N   UNL A   1      37.647  21.513  25.987  1.00  0.00    -0.352 N 
ATOM     29  C   UNL A   1      38.990  21.638  26.240  1.00  0.00     0.251 C 
ATOM     30  H   UNL A   1      37.307  20.589  25.965  1.00  0.00     0.163 HD
ATOM     31  O   UNL A   1      39.735  20.668  26.111  1.00  0.00    -0.269 OA
BRANCH  29  32
ATOM     32  C   UNL A   1      39.527  22.939  26.675  1.00  0.00     0.039 A 
ATOM     33  C   UNL A   1      40.421  22.999  27.747  1.00  0.00     0.014 A 
ATOM     34  C   UNL A   1      39.122  24.106  26.021  1.00  0.00     0.014 A 
ATOM     35  C   UNL A   1      40.950  24.233  28.127  1.00  0.00     0.010 A 
ATOM     36  C   UNL A   1      39.712  25.318  26.345  1.00  0.00     0.010 A 
ATOM     37  C   UNL A   1      40.614  25.396  27.415  1.00  0.00    -0.014 A 
BRANCH  37  38
ATOM     38  C   UNL A   1      41.148  26.721  27.799  1.00  0.00     0.031 A 
ATOM     39  C   UNL A   1      42.581  27.055  27.496  1.00  0.00     0.074 A 
ATOM     40  C   UNL A   1      40.371  27.584  28.480  1.00  0.00     0.049 A 
ATOM     41  N   UNL A   1      43.254  28.134  27.793  1.00  0.00    -0.248 NA
ATOM     42  C   UNL A   1      43.371  26.028  26.793  1.00  0.00     0.031 C 
ATOM     43  C   UNL A   1      38.986  27.334  28.880  1.00  0.00     0.029 A 
ATOM     44  N   UNL A   1      40.640  28.836  28.972  1.00  0.00    -0.354 N 
ATOM     45  C   UNL A   1      44.543  27.913  27.323  1.00  0.00     0.074 A 
ATOM     46  C   UNL A   1      44.577  26.575  26.781  1.00  0.00     0.031 C 
ATOM     47  C   UNL A   1      38.521  28.406  29.542  1.00  0.00     0.029 A 
ATOM     48  C   UNL A   1      39.583  29.406  29.639  1.00  0.00     0.049 A 
ATOM     49  H   UNL A   1      41.510  29.284  28.858  1.00  0.00     0.167 HD
ATOM     50  C   UNL A   1      45.593  28.765  27.317  1.00  0.00     0.034 A 
ATOM     51  C   UNL A   1      39.479  30.601  30.256  1.00  0.00     0.034 A 
ATOM     52  C   UNL A   1      45.534  30.104  27.834  1.00  0.00     0.049 A 
ATOM     53  C   UNL A   1      40.654  31.545  30.213  1.00  0.00     0.074 A 
ATOM     54  C   UNL A   1      46.522  31.071  27.814  1.00  0.00     0.029 A 
ATOM     55  N   UNL A   1      44.430  30.668  28.455  1.00  0.00    -0.354 N 
ATOM     56  N   UNL A   1      41.836  31.362  29.675  1.00  0.00    -0.248 NA
ATOM     57  C   UNL A   1      40.481  32.861  30.843  1.00  0.00     0.031 C 
ATOM     58  C   UNL A   1      46.032  32.204  28.466  1.00  0.00     0.029 A 
ATOM     59  C   UNL A   1      44.717  31.966  28.838  1.00  0.00     0.049 A 
ATOM     60  H   UNL A   1      43.569  30.213  28.603  1.00  0.00     0.167 HD
ATOM     61  C   UNL A   1      42.536  32.548  29.870  1.00  0.00     0.074 A 
ATOM     62  C   UNL A   1      41.640  33.447  30.567  1.00  0.00     0.031 C 
ATOM     63  C   UNL A   1      43.805  32.862  29.506  1.00  0.00     0.034 A 
BRANCH  50  64
ATOM     64  C   UNL A   1      46.887  28.302  26.703  1.00  0.00     0.023 A 
ATOM     65  C   UNL A   1      47.026  28.251  25.305  1.00  0.00     0.031 A 
ATOM     66  C   UNL A   1      47.937  27.811  27.499  1.00  0.00     0.131 A 
ATOM     67  C   UNL A   1      48.181  27.692  24.744  1.00  0.00     0.055 A 
ATOM     68  C   UNL A   1      49.102  27.291  26.935  1.00  0.00     0.041 A 
ATOM     69  F   UNL A   1      47.851  27.845  28.839  1.00  0.00    -0.206 F 
ATOM     70  C   UNL A   1      49.222  27.220  25.551  1.00  0.00     0.022 A 
BRANCH  67  71
ATOM     71  S   UNL A   1      48.360  27.523  22.948  1.00  0.00     0.124 S 
ATOM     72  O   UNL A   1      48.367  26.071  22.780  1.00  0.00    -0.237 OA
ATOM     73  O   UNL A   1      47.164  28.203  22.459  1.00  0.00    -0.237 OA
ATOM     74  O   UNL A   1      49.629  28.184  22.660  1.00  0.00    -0.744 OA
ENDBRANCH  67  71
ENDBRANCH  50  64
BRANCH  51  75
ATOM     75  C   UNL A   1      38.182  30.983  30.884  1.00  0.00     0.023 A 
ATOM     76  C   UNL A   1      37.211  31.701  30.163  1.00  0.00     0.031 A 
ATOM     77  C   UNL A   1      37.946  30.728  32.244  1.00  0.00     0.131 A 
ATOM     78  C   UNL A   1      36.074  32.185  30.823  1.00  0.00     0.055 A 
ATOM     79  C   UNL A   1      36.782  31.158  32.883  1.00  0.00     0.041 A 
ATOM     80  F   UNL A   1      38.853  30.060  32.974  1.00  0.00    -0.206 F 
ATOM     81  C   UNL A   1      35.844  31.903  32.174  1.00  0.00     0.022 A 
BRANCH  78  82
ATOM     82  S   UNL A   1      34.901  33.278  29.974  1.00  0.00     0.124 S 
ATOM     83  O   UNL A   1      35.791  34.209  29.287  1.00  0.00    -0.237 OA
ATOM     84  O   UNL A   1      34.188  32.335  29.115  1.00  0.00    -0.237 OA
ATOM     85  O   UNL A   1      34.113  33.848  31.061  1.00  0.00    -0.744 OA
ENDBRANCH  78  82
ENDBRANCH  51  75
BRANCH  63  86
ATOM     86  C   UNL A   1      44.328  34.240  29.816  1.00  0.00     0.023 A 
ATOM     87  C   UNL A   1      44.286  35.240  28.825  1.00  0.00     0.031 A 
ATOM     88  C   UNL A   1      45.017  34.510  31.010  1.00  0.00     0.131 A 
ATOM     89  C   UNL A   1      44.963  36.448  29.027  1.00  0.00     0.055 A 
ATOM     90  C   UNL A   1      45.653  35.734  31.225  1.00  0.00     0.041 A 
ATOM     91  F   UNL A   1      45.094  33.582  31.976  1.00  0.00    -0.206 F 
ATOM     92  C   UNL A   1      45.640  36.703  30.225  1.00  0.00     0.022 A 
BRANCH  89  93
ATOM     93  S   UNL A   1      45.057  37.696  27.716  1.00  0.00     0.124 S 
ATOM     94  O   UNL A   1      43.691  37.698  27.199  1.00  0.00    -0.237 OA
ATOM     95  O   UNL A   1      45.443  38.893  28.460  1.00  0.00    -0.237 OA
ATOM     96  O   UNL A   1      46.065  37.172  26.801  1.00  0.00    -0.744 OA
ENDBRANCH  89  93
ENDBRANCH  63  86
ENDBRANCH  37  38
ENDBRANCH  29  32
ENDBRANCH  27  28
ENDBRANCH   1  27
TORSDOF 16
ENDMDL
MODEL 3
REMARK VINA RESULT:     -12.5      6.124     11.288
REMARK SMILES Cc1cc(OC(F)(F)F)cc2c1O[C@H](C(F)(F)F)C(C(=O)NCCCNC(=O)c1ccc(-c3c4nc(c(-c5cc(S(=O)(=O)[O-])ccc5F)c5ccc([nH]5)c(-c5cc(S(=O)(=O)[O-])ccc5F)c5nc(c(-c6cc(S(=O)(=O)[O-])ccc6F)c6ccc3[nH]6)C=C5)C=C4)cc1)=C2
REMARK SMILES IDX 24 1 23 2 22 3 20 4 21 5 19 7 1 8 2 9 3 10 12 11 4 12 11 13
REMARK SMILES IDX 13 14 10 15 92 16 14 17 5 18 6 19 7 20 8 21 9 22 15 23 16 24
REMARK SMILES IDX 17 25 18 26 25 27 26 28 27 29 28 31 29 32 30 33 91 34 31 35
REMARK SMILES IDX 90 36 32 37 33 38 34 39 84 40 35 41 89 42 83 43 85 44 36 45
REMARK SMILES IDX 88 46 82 47 81 48 37 50 69 51 49 52 68 53 50 54 53 55 67 56
REMARK SMILES IDX 86 57 51 58 52 59 66 61 87 62 54 63 38 64 39 65 47 66 40 67
REMARK SMILES IDX 46 68 48 69 45 70 41 71 42 72 43 73 44 74 70 75 71 76 79 77
REMARK SMILES IDX 72 78 78 79 80 80 77 81 73 82 74 83 75 84 76 85 55 86 56 87
REMARK SMILES IDX 64 88 57 89 63 90 65 91 62 92 58 93 59 94 60 95 61 96
REMARK H PARENT 22 6 26 30 85 49 53 60
REMARK Flexibility Score: inf
ROOT
ATOM      1  C   UNL A   1      37.957  19.570  24.933  1.00  0.00     0.042 C 
ENDROOT
BRANCH   1   2
ATOM      2  C   UNL A   1      36.860  20.578  24.623  1.00  0.00     0.118 C 
BRANCH   2   3
ATOM      3  N   UNL A   1      35.925  20.722  25.730  1.00  0.00    -0.352 N 
ATOM      4  C   UNL A   1      34.908  21.548  26.071  1.00  0.00     0.251 C 
ATOM      5  O   UNL A   1      34.353  21.286  27.142  1.00  0.00    -0.270 OA
ATOM      6  H   UNL A   1      36.071  20.031  26.416  1.00  0.00     0.163 HD
BRANCH   4   7
ATOM      7  C   UNL A   1      34.429  22.699  25.253  1.00  0.00     0.067 C 
ATOM      8  C   UNL A   1      32.959  25.907  21.545  1.00  0.00     0.048 C 
ATOM      9  C   UNL A   1      33.264  26.051  23.009  1.00  0.00    -0.005 A 
ATOM     10  C   UNL A   1      33.067  27.277  23.660  1.00  0.00     0.054 A 
ATOM     11  C   UNL A   1      33.709  24.952  23.753  1.00  0.00     0.131 A 
ATOM     12  C   UNL A   1      33.335  27.409  25.026  1.00  0.00     0.130 A 
ATOM     13  C   UNL A   1      33.977  25.067  25.118  1.00  0.00     0.021 A 
ATOM     14  O   UNL A   1      33.906  23.785  23.073  1.00  0.00    -0.475 OA
ATOM     15  C   UNL A   1      33.791  26.299  25.748  1.00  0.00     0.058 A 
ATOM     16  C   UNL A   1      34.470  23.906  25.849  1.00  0.00     0.025 C 
ATOM     17  C   UNL A   1      33.885  22.568  23.860  1.00  0.00     0.314 C 
BRANCH  12  18
ATOM     18  O   UNL A   1      33.194  28.548  25.769  1.00  0.00    -0.406 OA
BRANCH  18  19
ATOM     19  C   UNL A   1      32.067  28.638  26.624  1.00  0.00     0.573 C 
ATOM     20  F   UNL A   1      32.361  28.224  27.874  1.00  0.00    -0.132 F 
ATOM     21  F   UNL A   1      31.588  29.901  26.666  1.00  0.00    -0.132 F 
ATOM     22  F   UNL A   1      31.088  27.841  26.138  1.00  0.00    -0.132 F 
ENDBRANCH  18  19
ENDBRANCH  12  18
BRANCH  17  23
ATOM     23  C   UNL A   1      32.460  21.982  23.836  1.00  0.00     0.429 C 
ATOM     24  F   UNL A   1      31.729  22.461  24.872  1.00  0.00    -0.167 F 
ATOM     25  F   UNL A   1      31.779  22.301  22.709  1.00  0.00    -0.167 F 
ATOM     26  F   UNL A   1      32.449  20.632  23.926  1.00  0.00    -0.167 F 
ENDBRANCH  17  23
ENDBRANCH   4   7
ENDBRANCH   2   3
ENDBRANCH   1   2
BRANCH   1  27
ATOM     27  C   UNL A   1      38.939  20.103  25.970  1.00  0.00     0.118 C 
BRANCH  27  28
ATOM     28  N   UNL A   1      40.107  19.233  26.091  1.00  0.00    -0.352 N 
ATOM     29  C   UNL A   1      41.437  19.568  26.140  1.00  0.00     0.251 C 
ATOM     30  H   UNL A   1      39.913  18.270  26.146  1.00  0.00     0.163 HD
ATOM     31  O   UNL A   1      42.296  18.714  25.931  1.00  0.00    -0.269 OA
BRANCH  29  32
ATOM     32  C   UNL A   1      41.823  20.955  26.453  1.00  0.00     0.039 A 
ATOM     33  C   UNL A   1      42.032  21.336  27.781  1.00  0.00     0.014 A 
ATOM     34  C   UNL A   1      41.959  21.883  25.417  1.00  0.00     0.014 A 
ATOM     35  C   UNL A   1      42.433  22.643  28.062  1.00  0.00     0.010 A 
ATOM     36  C   UNL A   1      42.437  23.156  25.691  1.00  0.00     0.010 A 
ATOM     37  C   UNL A   1      42.656  23.553  27.017  1.00  0.00    -0.014 A 
BRANCH  37  38
ATOM     38  C   UNL A   1      43.070  24.950  27.281  1.00  0.00     0.031 A 
ATOM     39  C   UNL A   1      42.098  25.898  27.922  1.00  0.00     0.074 A 
ATOM     40  C   UNL A   1      44.281  25.376  26.877  1.00  0.00     0.049 A 
ATOM     41  N   UNL A   1      42.244  27.168  28.191  1.00  0.00    -0.248 NA
ATOM     42  C   UNL A   1      40.776  25.357  28.283  1.00  0.00     0.031 C 
ATOM     43  C   UNL A   1      45.276  24.554  26.188  1.00  0.00     0.029 A 
ATOM     44  N   UNL A   1      44.874  26.610  26.971  1.00  0.00    -0.354 N 
ATOM     45  C   UNL A   1      41.036  27.577  28.741  1.00  0.00     0.074 A 
ATOM     46  C   UNL A   1      40.145  26.441  28.709  1.00  0.00     0.031 C 
ATOM     47  C   UNL A   1      46.363  25.301  25.936  1.00  0.00     0.029 A 
ATOM     48  C   UNL A   1      46.131  26.661  26.418  1.00  0.00     0.049 A 
ATOM     49  H   UNL A   1      44.439  27.385  27.394  1.00  0.00     0.167 HD
ATOM     50  C   UNL A   1      40.712  28.785  29.256  1.00  0.00     0.034 A 
ATOM     51  C   UNL A   1      47.000  27.688  26.315  1.00  0.00     0.034 A 
ATOM     52  C   UNL A   1      41.620  29.897  29.307  1.00  0.00     0.049 A 
ATOM     53  C   UNL A   1      46.628  29.018  26.919  1.00  0.00     0.074 A 
ATOM     54  C   UNL A   1      41.413  31.143  29.869  1.00  0.00     0.029 A 
ATOM     55  N   UNL A   1      42.905  29.898  28.785  1.00  0.00    -0.354 N 
ATOM     56  N   UNL A   1      45.518  29.362  27.529  1.00  0.00    -0.248 NA
ATOM     57  C   UNL A   1      47.625  30.094  26.841  1.00  0.00     0.031 C 
ATOM     58  C   UNL A   1      42.555  31.914  29.646  1.00  0.00     0.029 A 
ATOM     59  C   UNL A   1      43.498  31.130  28.999  1.00  0.00     0.049 A 
ATOM     60  H   UNL A   1      43.332  29.136  28.331  1.00  0.00     0.167 HD
ATOM     61  C   UNL A   1      45.696  30.681  27.936  1.00  0.00     0.074 A 
ATOM     62  C   UNL A   1      47.025  31.069  27.512  1.00  0.00     0.031 C 
ATOM     63  C   UNL A   1      44.835  31.494  28.598  1.00  0.00     0.034 A 
BRANCH  50  64
ATOM     64  C   UNL A   1      39.338  28.968  29.842  1.00  0.00     0.023 A 
ATOM     65  C   UNL A   1      38.363  29.697  29.139  1.00  0.00     0.031 A 
ATOM     66  C   UNL A   1      39.030  28.514  31.137  1.00  0.00     0.131 A 
ATOM     67  C   UNL A   1      37.134  29.977  29.749  1.00  0.00     0.055 A 
ATOM     68  C   UNL A   1      37.790  28.762  31.725  1.00  0.00     0.041 A 
ATOM     69  F   UNL A   1      39.928  27.808  31.843  1.00  0.00    -0.206 F 
ATOM     70  C   UNL A   1      36.840  29.507  31.034  1.00  0.00     0.022 A 
BRANCH  67  71
ATOM     71  S   UNL A   1      35.886  30.992  28.913  1.00  0.00     0.124 S 
ATOM     72  O   UNL A   1      36.715  31.938  28.168  1.00  0.00    -0.237 OA
ATOM     73  O   UNL A   1      35.184  30.002  28.101  1.00  0.00    -0.237 OA
ATOM     74  O   UNL A   1      35.118  31.574  30.009  1.00  0.00    -0.744 OA
ENDBRANCH  67  71
ENDBRANCH  50  64
BRANCH  51  75
ATOM     75  C   UNL A   1      48.329  27.452  25.684  1.00  0.00     0.023 A 
ATOM     76  C   UNL A   1      48.522  27.646  24.304  1.00  0.00     0.031 A 
ATOM     77  C   UNL A   1      49.393  26.926  26.435  1.00  0.00     0.131 A 
ATOM     78  C   UNL A   1      49.733  27.265  23.712  1.00  0.00     0.055 A 
ATOM     79  C   UNL A   1      50.619  26.604  25.852  1.00  0.00     0.041 A 
ATOM     80  F   UNL A   1      49.247  26.709  27.752  1.00  0.00    -0.206 F 
ATOM     81  C   UNL A   1      50.789  26.761  24.479  1.00  0.00     0.022 A 
BRANCH  78  82
ATOM     82  S   UNL A   1      49.945  27.317  21.911  1.00  0.00     0.124 S 
ATOM     83  O   UNL A   1      49.791  28.740  21.625  1.00  0.00    -0.237 OA
ATOM     84  O   UNL A   1      51.298  26.786  21.758  1.00  0.00    -0.237 OA
ATOM     85  O   UNL A   1      48.878  26.457  21.413  1.00  0.00    -0.744 OA
ENDBRANCH  78  82
ENDBRANCH  51  75
BRANCH  63  86
ATOM     86  C   UNL A   1      45.281  32.890  28.948  1.00  0.00     0.023 A 
ATOM     87  C   UNL A   1      44.922  33.965  28.114  1.00  0.00     0.031 A 
ATOM     88  C   UNL A   1      46.193  33.127  29.990  1.00  0.00     0.131 A 
ATOM     89  C   UNL A   1      45.510  35.221  28.306  1.00  0.00     0.055 A 
ATOM     90  C   UNL A   1      46.742  34.391  30.206  1.00  0.00     0.041 A 
ATOM     91  F   UNL A   1      46.574  32.128  30.802  1.00  0.00    -0.206 F 
ATOM     92  C   UNL A   1      46.412  35.442  29.352  1.00  0.00     0.022 A 
BRANCH  89  93
ATOM     93  S   UNL A   1      45.187  36.589  27.161  1.00  0.00     0.124 S 
ATOM     94  O   UNL A   1      46.379  36.567  26.317  1.00  0.00    -0.237 OA
ATOM     95  O   UNL A   1      43.953  36.157  26.509  1.00  0.00    -0.237 OA
ATOM     96  O   UNL A   1      45.064  37.755  28.029  1.00  0.00    -0.744 OA
ENDBRANCH  89  93
ENDBRANCH  63  86
ENDBRANCH  37  38
ENDBRANCH  29  32
ENDBRANCH  27  28
ENDBRANCH   1  27
TORSDOF 16
ENDMDL
