MODEL 1
REMARK VINA RESULT:     -10.0      0.000      0.000
REMARK SMILES NC(=O)CC[C@@H](C(=O)NCCCNC(=O)c1ccc(-c2c3nc(c(-c4cc(S(=O)(=O)[O-])ccc4F)c4ccc([nH]4)c(-c4cc(S(=O)(=O)[O-])ccc4F)c4nc(c(-c5cc(S(=O)(=O)[O-])ccc5F)c5ccc2[nH]5)C=C4)C=C3)cc1)N1C(=O)/C(=C\c2ccc(-c3ccc(Br)cc3)o2)SC1=S
REMARK SMILES IDX 11 1 10 2 9 3 7 4 8 5 6 7 5 8 4 9 2 10 1 11 3 14 79 15 80 16
REMARK SMILES IDX 97 17 81 18 82 19 96 20 98 21 83 22 84 23 85 24 95 25 86 26
REMARK SMILES IDX 87 27 88 28 89 29 94 30 90 31 93 32 91 33 92 34 12 35 13 36
REMARK SMILES IDX 14 37 15 39 16 40 17 41 78 42 18 43 77 44 19 45 20 46 21 47
REMARK SMILES IDX 71 48 22 49 76 50 70 51 72 52 23 53 75 54 69 55 68 56 24 58
REMARK SMILES IDX 56 59 36 60 55 61 37 62 40 63 54 64 73 65 38 66 39 67 53 69
REMARK SMILES IDX 74 70 41 71 25 72 26 73 34 74 27 75 33 76 35 77 32 78 28 79
REMARK SMILES IDX 29 80 30 81 31 82 57 83 58 84 66 85 59 86 65 87 67 88 64 89
REMARK SMILES IDX 60 90 61 91 62 92 63 93 42 94 43 95 51 96 44 97 50 98 52 99
REMARK SMILES IDX 49 100 45 101 46 102 47 103 48 104
REMARK H PARENT 9 6 1 12 1 13 13 38 72 57 40 68
REMARK Flexibility Score: inf
ROOT
ATOM      1  C   UNL A   1      37.764  31.926  34.458  1.00  0.00     0.042 C 
ENDROOT
BRANCH   1   2
ATOM      2  C   UNL A   1      36.812  33.114  34.370  1.00  0.00     0.117 C 
BRANCH   2   3
ATOM      3  N   UNL A   1      35.554  32.732  33.767  1.00  0.00    -0.354 N 
ATOM      4  C   UNL A   1      34.952  33.113  32.608  1.00  0.00     0.243 C 
ATOM      5  O   UNL A   1      33.896  32.529  32.342  1.00  0.00    -0.273 OA
ATOM      6  H   UNL A   1      35.038  32.077  34.291  1.00  0.00     0.163 HD
BRANCH   4   7
ATOM      7  C   UNL A   1      35.611  34.119  31.617  1.00  0.00     0.181 C 
BRANCH   7   8
ATOM      8  C   UNL A   1      35.273  35.624  31.747  1.00  0.00     0.045 C 
BRANCH   8   9
ATOM      9  C   UNL A   1      34.590  36.230  32.967  1.00  0.00     0.102 C 
BRANCH   9  10
ATOM     10  C   UNL A   1      33.666  37.422  32.841  1.00  0.00     0.217 C 
ATOM     11  N   UNL A   1      34.186  38.669  32.740  1.00  0.00    -0.370 N 
ATOM     12  H   UNL A   1      33.589  39.446  32.658  1.00  0.00     0.159 HD
ATOM     13  H   UNL A   1      35.163  38.796  32.749  1.00  0.00     0.159 HD
ATOM     14  O   UNL A   1      32.446  37.304  32.929  1.00  0.00    -0.275 OA
ENDBRANCH   9  10
ENDBRANCH   8   9
ENDBRANCH   7   8
BRANCH   7  15
ATOM     15  N   UNL A   1      35.200  33.633  30.257  1.00  0.00    -0.280 N 
ATOM     16  C   UNL A   1      36.024  32.742  29.588  1.00  0.00     0.267 C 
ATOM     17  C   UNL A   1      34.155  34.138  29.513  1.00  0.00     0.149 C 
ATOM     18  O   UNL A   1      37.143  32.395  29.940  1.00  0.00    -0.268 OA
ATOM     19  C   UNL A   1      35.374  32.269  28.340  1.00  0.00     0.084 C 
ATOM     20  S   UNL A   1      34.097  33.344  27.932  1.00  0.00    -0.054 SA
ATOM     21  S   UNL A   1      33.032  35.287  29.964  1.00  0.00    -0.052 S 
ATOM     22  C   UNL A   1      35.659  31.132  27.691  1.00  0.00     0.068 C 
BRANCH  22  23
ATOM     23  C   UNL A   1      36.539  30.162  28.246  1.00  0.00     0.128 A 
ATOM     24  C   UNL A   1      36.418  29.491  29.460  1.00  0.00     0.051 A 
ATOM     25  O   UNL A   1      37.700  29.733  27.643  1.00  0.00    -0.457 OA
ATOM     26  C   UNL A   1      37.551  28.666  29.614  1.00  0.00     0.051 A 
ATOM     27  C   UNL A   1      38.315  28.858  28.488  1.00  0.00     0.134 A 
BRANCH  27  28
ATOM     28  C   UNL A   1      39.600  28.325  28.072  1.00  0.00     0.017 A 
ATOM     29  C   UNL A   1      40.126  27.192  28.708  1.00  0.00     0.013 A 
ATOM     30  C   UNL A   1      40.368  28.979  27.099  1.00  0.00     0.013 A 
ATOM     31  C   UNL A   1      41.401  26.722  28.383  1.00  0.00     0.016 A 
ATOM     32  C   UNL A   1      41.649  28.518  26.781  1.00  0.00     0.016 A 
ATOM     33  C   UNL A   1      42.160  27.392  27.426  1.00  0.00     0.018 A 
ATOM     34  Br  UNL A   1      43.898  26.777  27.013  1.00  0.00    -0.051 Br
ENDBRANCH  27  28
ENDBRANCH  22  23
ENDBRANCH   7  15
ENDBRANCH   4   7
ENDBRANCH   2   3
ENDBRANCH   1   2
BRANCH   1  35
ATOM     35  C   UNL A   1      37.528  30.880  33.380  1.00  0.00     0.118 C 
BRANCH  35  36
ATOM     36  N   UNL A   1      38.194  29.623  33.691  1.00  0.00    -0.352 N 
ATOM     37  C   UNL A   1      39.389  29.117  33.235  1.00  0.00     0.251 C 
ATOM     38  H   UNL A   1      37.714  29.044  34.327  1.00  0.00     0.163 HD
ATOM     39  O   UNL A   1      39.653  27.935  33.442  1.00  0.00    -0.269 OA
BRANCH  37  40
ATOM     40  C   UNL A   1      40.332  29.973  32.479  1.00  0.00     0.039 A 
ATOM     41  C   UNL A   1      41.351  30.635  33.169  1.00  0.00     0.014 A 
ATOM     42  C   UNL A   1      40.218  30.129  31.095  1.00  0.00     0.014 A 
ATOM     43  C   UNL A   1      42.308  31.368  32.462  1.00  0.00     0.010 A 
ATOM     44  C   UNL A   1      41.223  30.779  30.384  1.00  0.00     0.010 A 
ATOM     45  C   UNL A   1      42.287  31.395  31.058  1.00  0.00    -0.014 A 
BRANCH  45  46
ATOM     46  C   UNL A   1      43.384  32.023  30.274  1.00  0.00     0.031 A 
ATOM     47  C   UNL A   1      44.644  31.256  29.982  1.00  0.00     0.074 A 
ATOM     48  C   UNL A   1      43.273  33.315  29.900  1.00  0.00     0.049 A 
ATOM     49  N   UNL A   1      45.751  31.667  29.418  1.00  0.00    -0.248 NA
ATOM     50  C   UNL A   1      44.673  29.846  30.402  1.00  0.00     0.031 C 
ATOM     51  C   UNL A   1      42.113  34.171  30.156  1.00  0.00     0.029 A 
ATOM     52  N   UNL A   1      44.151  34.140  29.240  1.00  0.00    -0.354 N 
ATOM     53  C   UNL A   1      46.610  30.574  29.424  1.00  0.00     0.074 A 
ATOM     54  C   UNL A   1      45.915  29.499  30.100  1.00  0.00     0.031 C 
ATOM     55  C   UNL A   1      42.339  35.388  29.639  1.00  0.00     0.029 A 
ATOM     56  C   UNL A   1      43.683  35.424  29.073  1.00  0.00     0.049 A 
ATOM     57  H   UNL A   1      45.031  33.841  28.917  1.00  0.00     0.167 HD
ATOM     58  C   UNL A   1      47.855  30.471  28.895  1.00  0.00     0.034 A 
ATOM     59  C   UNL A   1      44.278  36.516  28.550  1.00  0.00     0.034 A 
ATOM     60  C   UNL A   1      48.530  31.554  28.220  1.00  0.00     0.049 A 
ATOM     61  C   UNL A   1      45.689  36.392  28.031  1.00  0.00     0.074 A 
ATOM     62  C   UNL A   1      49.765  31.541  27.596  1.00  0.00     0.029 A 
ATOM     63  N   UNL A   1      48.036  32.846  28.095  1.00  0.00    -0.354 N 
ATOM     64  N   UNL A   1      46.464  35.333  27.991  1.00  0.00    -0.248 NA
ATOM     65  C   UNL A   1      46.305  37.609  27.487  1.00  0.00     0.031 C 
ATOM     66  C   UNL A   1      50.053  32.840  27.167  1.00  0.00     0.029 A 
ATOM     67  C   UNL A   1      48.963  33.649  27.448  1.00  0.00     0.049 A 
ATOM     68  H   UNL A   1      47.156  33.148  28.417  1.00  0.00     0.167 HD
ATOM     69  C   UNL A   1      47.651  35.754  27.400  1.00  0.00     0.074 A 
ATOM     70  C   UNL A   1      47.479  37.156  27.076  1.00  0.00     0.031 C 
ATOM     71  C   UNL A   1      48.784  35.050  27.150  1.00  0.00     0.034 A 
BRANCH  58  72
ATOM     72  C   UNL A   1      48.576  29.153  29.048  1.00  0.00     0.023 A 
ATOM     73  C   UNL A   1      48.413  28.111  28.120  1.00  0.00     0.031 A 
ATOM     74  C   UNL A   1      49.436  28.934  30.139  1.00  0.00     0.131 A 
ATOM     75  C   UNL A   1      49.045  26.875  28.334  1.00  0.00     0.055 A 
ATOM     76  C   UNL A   1      50.126  27.731  30.303  1.00  0.00     0.041 A 
ATOM     77  F   UNL A   1      49.614  29.883  31.071  1.00  0.00    -0.206 F 
ATOM     78  C   UNL A   1      49.923  26.688  29.405  1.00  0.00     0.022 A 
BRANCH  75  79
ATOM     79  S   UNL A   1      48.597  25.478  27.270  1.00  0.00     0.124 S 
ATOM     80  O   UNL A   1      47.259  25.153  27.758  1.00  0.00    -0.237 OA
ATOM     81  O   UNL A   1      48.665  26.062  25.936  1.00  0.00    -0.237 OA
ATOM     82  O   UNL A   1      49.621  24.478  27.568  1.00  0.00    -0.744 OA
ENDBRANCH  75  79
ENDBRANCH  58  72
BRANCH  59  83
ATOM     83  C   UNL A   1      43.570  37.829  28.522  1.00  0.00     0.023 A 
ATOM     84  C   UNL A   1      43.728  38.757  29.563  1.00  0.00     0.031 A 
ATOM     85  C   UNL A   1      42.681  38.156  27.481  1.00  0.00     0.131 A 
ATOM     86  C   UNL A   1      42.969  39.938  29.571  1.00  0.00     0.055 A 
ATOM     87  C   UNL A   1      41.977  39.361  27.460  1.00  0.00     0.041 A 
ATOM     88  F   UNL A   1      42.488  37.305  26.461  1.00  0.00    -0.206 F 
ATOM     89  C   UNL A   1      42.108  40.254  28.517  1.00  0.00     0.022 A 
BRANCH  86  90
ATOM     90  S   UNL A   1      43.044  41.007  31.034  1.00  0.00     0.124 S 
ATOM     91  O   UNL A   1      42.009  41.991  30.734  1.00  0.00    -0.237 OA
ATOM     92  O   UNL A   1      42.743  40.070  32.110  1.00  0.00    -0.237 OA
ATOM     93  O   UNL A   1      44.414  41.515  31.015  1.00  0.00    -0.744 OA
ENDBRANCH  86  90
ENDBRANCH  59  83
BRANCH  71  94
ATOM     94  C   UNL A   1      49.916  35.787  26.475  1.00  0.00     0.023 A 
ATOM     95  C   UNL A   1      50.931  36.414  27.220  1.00  0.00     0.031 A 
ATOM     96  C   UNL A   1      49.980  35.863  25.073  1.00  0.00     0.131 A 
ATOM     97  C   UNL A   1      51.940  37.130  26.560  1.00  0.00     0.055 A 
ATOM     98  C   UNL A   1      51.023  36.522  24.420  1.00  0.00     0.041 A 
ATOM     99  F   UNL A   1      49.036  35.287  24.312  1.00  0.00    -0.206 F 
ATOM    100  C   UNL A   1      52.004  37.171  25.165  1.00  0.00     0.022 A 
BRANCH  97 101
ATOM    101  S   UNL A   1      53.123  38.080  27.552  1.00  0.00     0.124 S 
ATOM    102  O   UNL A   1      52.650  39.448  27.360  1.00  0.00    -0.237 OA
ATOM    103  O   UNL A   1      52.933  37.522  28.888  1.00  0.00    -0.237 OA
ATOM    104  O   UNL A   1      54.412  37.777  26.934  1.00  0.00    -0.744 OA
ENDBRANCH  97 101
ENDBRANCH  71  94
ENDBRANCH  45  46
ENDBRANCH  37  40
ENDBRANCH  35  36
ENDBRANCH   1  35
TORSDOF 19
ENDMDL
MODEL 2
REMARK VINA RESULT:      -9.7      5.342     12.294
REMARK SMILES NC(=O)CC[C@@H](C(=O)NCCCNC(=O)c1ccc(-c2c3nc(c(-c4cc(S(=O)(=O)[O-])ccc4F)c4ccc([nH]4)c(-c4cc(S(=O)(=O)[O-])ccc4F)c4nc(c(-c5cc(S(=O)(=O)[O-])ccc5F)c5ccc2[nH]5)C=C4)C=C3)cc1)N1C(=O)/C(=C\c2ccc(-c3ccc(Br)cc3)o2)SC1=S
REMARK SMILES IDX 11 1 10 2 9 3 7 4 8 5 6 7 5 8 4 9 2 10 1 11 3 14 79 15 80 16
REMARK SMILES IDX 97 17 81 18 82 19 96 20 98 21 83 22 84 23 85 24 95 25 86 26
REMARK SMILES IDX 87 27 88 28 89 29 94 30 90 31 93 32 91 33 92 34 12 35 13 36
REMARK SMILES IDX 14 37 15 39 16 40 17 41 78 42 18 43 77 44 19 45 20 46 21 47
REMARK SMILES IDX 71 48 22 49 76 50 70 51 72 52 23 53 75 54 69 55 68 56 24 58
REMARK SMILES IDX 56 59 36 60 55 61 37 62 40 63 54 64 73 65 38 66 39 67 53 69
REMARK SMILES IDX 74 70 41 71 25 72 26 73 34 74 27 75 33 76 35 77 32 78 28 79
REMARK SMILES IDX 29 80 30 81 31 82 57 83 58 84 66 85 59 86 65 87 67 88 64 89
REMARK SMILES IDX 60 90 61 91 62 92 63 93 42 94 43 95 51 96 44 97 50 98 52 99
REMARK SMILES IDX 49 100 45 101 46 102 47 103 48 104
REMARK H PARENT 9 6 1 12 1 13 13 38 72 57 40 68
REMARK Flexibility Score: inf
ROOT
ATOM      1  C   UNL A   1      46.085  37.969  26.255  1.00  0.00     0.042 C 
ENDROOT
BRANCH   1   2
ATOM      2  C   UNL A   1      46.847  38.964  27.123  1.00  0.00     0.117 C 
BRANCH   2   3
ATOM      3  N   UNL A   1      47.126  40.184  26.398  1.00  0.00    -0.354 N 
ATOM      4  C   UNL A   1      46.336  41.238  26.061  1.00  0.00     0.243 C 
ATOM      5  O   UNL A   1      46.912  42.174  25.496  1.00  0.00    -0.273 OA
ATOM      6  H   UNL A   1      48.058  40.266  26.091  1.00  0.00     0.163 HD
BRANCH   4   7
ATOM      7  C   UNL A   1      44.836  41.324  26.475  1.00  0.00     0.181 C 
BRANCH   7   8
ATOM      8  C   UNL A   1      43.843  42.049  25.535  1.00  0.00     0.045 C 
BRANCH   8   9
ATOM      9  C   UNL A   1      42.572  41.403  24.996  1.00  0.00     0.102 C 
BRANCH   9  10
ATOM     10  C   UNL A   1      41.557  40.770  25.923  1.00  0.00     0.217 C 
ATOM     11  N   UNL A   1      40.424  41.442  26.239  1.00  0.00    -0.370 N 
ATOM     12  H   UNL A   1      39.762  41.034  26.842  1.00  0.00     0.159 HD
ATOM     13  H   UNL A   1      40.264  42.339  25.866  1.00  0.00     0.159 HD
ATOM     14  O   UNL A   1      41.776  39.699  26.484  1.00  0.00    -0.275 OA
ENDBRANCH   9  10
ENDBRANCH   8   9
ENDBRANCH   7   8
BRANCH   7  15
ATOM     15  N   UNL A   1      44.851  42.013  27.809  1.00  0.00    -0.280 N 
ATOM     16  C   UNL A   1      44.457  41.304  28.933  1.00  0.00     0.267 C 
ATOM     17  C   UNL A   1      45.044  43.364  28.006  1.00  0.00     0.149 C 
ATOM     18  O   UNL A   1      43.965  40.184  28.940  1.00  0.00    -0.268 OA
ATOM     19  C   UNL A   1      44.686  42.106  30.160  1.00  0.00     0.084 C 
ATOM     20  S   UNL A   1      44.876  43.757  29.723  1.00  0.00    -0.054 SA
ATOM     21  S   UNL A   1      45.429  44.524  26.869  1.00  0.00    -0.052 S 
ATOM     22  C   UNL A   1      44.831  41.618  31.400  1.00  0.00     0.068 C 
BRANCH  22  23
ATOM     23  C   UNL A   1      44.935  40.219  31.638  1.00  0.00     0.128 A 
ATOM     24  C   UNL A   1      43.977  39.370  32.183  1.00  0.00     0.051 A 
ATOM     25  O   UNL A   1      46.055  39.468  31.362  1.00  0.00    -0.457 OA
ATOM     26  C   UNL A   1      44.542  38.082  32.276  1.00  0.00     0.051 A 
ATOM     27  C   UNL A   1      45.819  38.191  31.778  1.00  0.00     0.134 A 
BRANCH  27  28
ATOM     28  C   UNL A   1      46.902  37.235  31.637  1.00  0.00     0.017 A 
ATOM     29  C   UNL A   1      47.645  36.849  32.761  1.00  0.00     0.013 A 
ATOM     30  C   UNL A   1      47.276  36.754  30.375  1.00  0.00     0.013 A 
ATOM     31  C   UNL A   1      48.748  36.002  32.628  1.00  0.00     0.016 A 
ATOM     32  C   UNL A   1      48.387  35.916  30.237  1.00  0.00     0.016 A 
ATOM     33  C   UNL A   1      49.118  35.545  31.365  1.00  0.00     0.018 A 
ATOM     34  Br  UNL A   1      50.631  34.428  31.182  1.00  0.00    -0.051 Br
ENDBRANCH  27  28
ENDBRANCH  22  23
ENDBRANCH   7  15
ENDBRANCH   4   7
ENDBRANCH   2   3
ENDBRANCH   1   2
BRANCH   1  35
ATOM     35  C   UNL A   1      46.531  36.528  26.452  1.00  0.00     0.118 C 
BRANCH  35  36
ATOM     36  N   UNL A   1      45.939  35.639  25.463  1.00  0.00    -0.352 N 
ATOM     37  C   UNL A   1      44.954  34.688  25.602  1.00  0.00     0.251 C 
ATOM     38  H   UNL A   1      46.300  35.731  24.551  1.00  0.00     0.163 HD
ATOM     39  O   UNL A   1      44.768  33.886  24.691  1.00  0.00    -0.269 OA
BRANCH  37  40
ATOM     40  C   UNL A   1      44.151  34.611  26.844  1.00  0.00     0.039 A 
ATOM     41  C   UNL A   1      44.153  33.424  27.582  1.00  0.00     0.014 A 
ATOM     42  C   UNL A   1      43.395  35.700  27.286  1.00  0.00     0.014 A 
ATOM     43  C   UNL A   1      43.482  33.365  28.806  1.00  0.00     0.010 A 
ATOM     44  C   UNL A   1      42.806  35.671  28.547  1.00  0.00     0.010 A 
ATOM     45  C   UNL A   1      42.854  34.508  29.329  1.00  0.00    -0.014 A 
BRANCH  45  46
ATOM     46  C   UNL A   1      42.278  34.523  30.699  1.00  0.00     0.031 A 
ATOM     47  C   UNL A   1      43.177  34.436  31.902  1.00  0.00     0.074 A 
ATOM     48  C   UNL A   1      40.938  34.530  30.853  1.00  0.00     0.049 A 
ATOM     49  N   UNL A   1      42.860  34.320  33.166  1.00  0.00    -0.248 NA
ATOM     50  C   UNL A   1      44.626  34.458  31.647  1.00  0.00     0.031 C 
ATOM     51  C   UNL A   1      39.963  34.580  29.761  1.00  0.00     0.029 A 
ATOM     52  N   UNL A   1      40.160  34.480  31.985  1.00  0.00    -0.354 N 
ATOM     53  C   UNL A   1      44.064  34.244  33.856  1.00  0.00     0.074 A 
ATOM     54  C   UNL A   1      45.117  34.271  32.863  1.00  0.00     0.031 C 
ATOM     55  C   UNL A   1      38.724  34.583  30.274  1.00  0.00     0.029 A 
ATOM     56  C   UNL A   1      38.808  34.469  31.726  1.00  0.00     0.049 A 
ATOM     57  H   UNL A   1      40.535  34.455  32.894  1.00  0.00     0.167 HD
ATOM     58  C   UNL A   1      44.272  34.181  35.195  1.00  0.00     0.034 A 
ATOM     59  C   UNL A   1      37.754  34.351  32.560  1.00  0.00     0.034 A 
ATOM     60  C   UNL A   1      43.208  34.161  36.170  1.00  0.00     0.049 A 
ATOM     61  C   UNL A   1      38.014  34.213  34.039  1.00  0.00     0.074 A 
ATOM     62  C   UNL A   1      43.307  34.158  37.550  1.00  0.00     0.029 A 
ATOM     63  N   UNL A   1      41.852  34.123  35.869  1.00  0.00    -0.354 N 
ATOM     64  N   UNL A   1      39.161  34.204  34.678  1.00  0.00    -0.248 NA
ATOM     65  C   UNL A   1      36.839  34.069  34.909  1.00  0.00     0.031 C 
ATOM     66  C   UNL A   1      42.019  34.036  38.081  1.00  0.00     0.029 A 
ATOM     67  C   UNL A   1      41.108  34.047  37.037  1.00  0.00     0.049 A 
ATOM     68  H   UNL A   1      41.474  34.148  34.960  1.00  0.00     0.167 HD
ATOM     69  C   UNL A   1      38.842  34.073  36.027  1.00  0.00     0.074 A 
ATOM     70  C   UNL A   1      37.396  34.034  36.110  1.00  0.00     0.031 C 
ATOM     71  C   UNL A   1      39.667  33.988  37.102  1.00  0.00     0.034 A 
BRANCH  58  72
ATOM     72  C   UNL A   1      45.699  34.103  35.680  1.00  0.00     0.023 A 
ATOM     73  C   UNL A   1      46.338  32.872  35.902  1.00  0.00     0.031 A 
ATOM     74  C   UNL A   1      46.432  35.278  35.928  1.00  0.00     0.131 A 
ATOM     75  C   UNL A   1      47.643  32.841  36.420  1.00  0.00     0.055 A 
ATOM     76  C   UNL A   1      47.758  35.241  36.365  1.00  0.00     0.041 A 
ATOM     77  F   UNL A   1      45.869  36.484  35.757  1.00  0.00    -0.206 F 
ATOM     78  C   UNL A   1      48.367  34.018  36.626  1.00  0.00     0.022 A 
BRANCH  75  79
ATOM     79  S   UNL A   1      48.328  31.247  36.945  1.00  0.00     0.124 S 
ATOM     80  O   UNL A   1      49.383  31.667  37.864  1.00  0.00    -0.237 OA
ATOM     81  O   UNL A   1      47.175  30.592  37.553  1.00  0.00    -0.237 OA
ATOM     82  O   UNL A   1      48.801  30.649  35.697  1.00  0.00    -0.744 OA
ENDBRANCH  75  79
ENDBRANCH  58  72
BRANCH  59  83
ATOM     83  C   UNL A   1      36.361  34.318  32.026  1.00  0.00     0.023 A 
ATOM     84  C   UNL A   1      35.498  35.412  32.193  1.00  0.00     0.031 A 
ATOM     85  C   UNL A   1      35.851  33.172  31.389  1.00  0.00     0.131 A 
ATOM     86  C   UNL A   1      34.160  35.319  31.780  1.00  0.00     0.055 A 
ATOM     87  C   UNL A   1      34.537  33.107  30.921  1.00  0.00     0.041 A 
ATOM     88  F   UNL A   1      36.630  32.094  31.205  1.00  0.00    -0.206 F 
ATOM     89  C   UNL A   1      33.678  34.181  31.130  1.00  0.00     0.022 A 
BRANCH  86  90
ATOM     90  S   UNL A   1      33.026  36.670  32.202  1.00  0.00     0.124 S 
ATOM     91  O   UNL A   1      31.792  35.944  32.484  1.00  0.00    -0.237 OA
ATOM     92  O   UNL A   1      33.689  37.275  33.352  1.00  0.00    -0.237 OA
ATOM     93  O   UNL A   1      33.006  37.489  30.993  1.00  0.00    -0.744 OA
ENDBRANCH  86  90
ENDBRANCH  59  83
BRANCH  71  94
ATOM     94  C   UNL A   1      39.017  33.864  38.458  1.00  0.00     0.023 A 
ATOM     95  C   UNL A   1      38.414  32.665  38.876  1.00  0.00     0.031 A 
ATOM     96  C   UNL A   1      39.002  34.957  39.342  1.00  0.00     0.131 A 
ATOM     97  C   UNL A   1      37.777  32.602  40.124  1.00  0.00     0.055 A 
ATOM     98  C   UNL A   1      38.424  34.868  40.610  1.00  0.00     0.041 A 
ATOM     99  F   UNL A   1      39.559  36.128  38.994  1.00  0.00    -0.206 F 
ATOM    100  C   UNL A   1      37.797  33.688  41.002  1.00  0.00     0.022 A 
BRANCH  97 101
ATOM    101  S   UNL A   1      36.850  31.104  40.553  1.00  0.00     0.124 S 
ATOM    102  O   UNL A   1      37.913  30.203  40.987  1.00  0.00    -0.237 OA
ATOM    103  O   UNL A   1      35.951  31.580  41.600  1.00  0.00    -0.237 OA
ATOM    104  O   UNL A   1      36.196  30.733  39.299  1.00  0.00    -0.744 OA
ENDBRANCH  97 101
ENDBRANCH  71  94
ENDBRANCH  45  46
ENDBRANCH  37  40
ENDBRANCH  35  36
ENDBRANCH   1  35
TORSDOF 19
ENDMDL
MODEL 3
REMARK VINA RESULT:      -9.6      6.518      9.691
REMARK SMILES NC(=O)CC[C@@H](C(=O)NCCCNC(=O)c1ccc(-c2c3nc(c(-c4cc(S(=O)(=O)[O-])ccc4F)c4ccc([nH]4)c(-c4cc(S(=O)(=O)[O-])ccc4F)c4nc(c(-c5cc(S(=O)(=O)[O-])ccc5F)c5ccc2[nH]5)C=C4)C=C3)cc1)N1C(=O)/C(=C\c2ccc(-c3ccc(Br)cc3)o2)SC1=S
REMARK SMILES IDX 11 1 10 2 9 3 7 4 8 5 6 7 5 8 4 9 2 10 1 11 3 14 79 15 80 16
REMARK SMILES IDX 97 17 81 18 82 19 96 20 98 21 83 22 84 23 85 24 95 25 86 26
REMARK SMILES IDX 87 27 88 28 89 29 94 30 90 31 93 32 91 33 92 34 12 35 13 36
REMARK SMILES IDX 14 37 15 39 16 40 17 41 78 42 18 43 77 44 19 45 20 46 21 47
REMARK SMILES IDX 71 48 22 49 76 50 70 51 72 52 23 53 75 54 69 55 68 56 24 58
REMARK SMILES IDX 56 59 36 60 55 61 37 62 40 63 54 64 73 65 38 66 39 67 53 69
REMARK SMILES IDX 74 70 41 71 25 72 26 73 34 74 27 75 33 76 35 77 32 78 28 79
REMARK SMILES IDX 29 80 30 81 31 82 57 83 58 84 66 85 59 86 65 87 67 88 64 89
REMARK SMILES IDX 60 90 61 91 62 92 63 93 42 94 43 95 51 96 44 97 50 98 52 99
REMARK SMILES IDX 49 100 45 101 46 102 47 103 48 104
REMARK H PARENT 9 6 1 12 1 13 13 38 72 57 40 68
REMARK Flexibility Score: inf
ROOT
ATOM      1  C   UNL A   1      33.533  28.596  27.351  1.00  0.00     0.042 C 
ENDROOT
BRANCH   1   2
ATOM      2  C   UNL A   1      32.091  28.943  27.709  1.00  0.00     0.117 C 
BRANCH   2   3
ATOM      3  N   UNL A   1      31.228  27.790  27.577  1.00  0.00    -0.354 N 
ATOM      4  C   UNL A   1      30.980  26.959  26.529  1.00  0.00     0.243 C 
ATOM      5  O   UNL A   1      30.234  26.004  26.774  1.00  0.00    -0.273 OA
ATOM      6  H   UNL A   1      30.727  27.566  28.395  1.00  0.00     0.163 HD
BRANCH   4   7
ATOM      7  C   UNL A   1      31.690  27.117  25.152  1.00  0.00     0.181 C 
BRANCH   7   8
ATOM      8  C   UNL A   1      31.214  28.234  24.191  1.00  0.00     0.045 C 
BRANCH   8   9
ATOM      9  C   UNL A   1      32.148  28.995  23.258  1.00  0.00     0.102 C 
BRANCH   9  10
ATOM     10  C   UNL A   1      33.459  28.396  22.797  1.00  0.00     0.217 C 
ATOM     11  N   UNL A   1      33.621  28.054  21.496  1.00  0.00    -0.370 N 
ATOM     12  H   UNL A   1      34.471  27.664  21.192  1.00  0.00     0.159 HD
ATOM     13  H   UNL A   1      32.887  28.195  20.856  1.00  0.00     0.159 HD
ATOM     14  O   UNL A   1      34.354  28.114  23.591  1.00  0.00    -0.275 OA
ENDBRANCH   9  10
ENDBRANCH   8   9
ENDBRANCH   7   8
BRANCH   7  15
ATOM     15  N   UNL A   1      31.523  25.783  24.485  1.00  0.00    -0.280 N 
ATOM     16  C   UNL A   1      32.581  24.887  24.505  1.00  0.00     0.267 C 
ATOM     17  C   UNL A   1      30.466  25.422  23.677  1.00  0.00     0.149 C 
ATOM     18  O   UNL A   1      33.712  25.120  24.909  1.00  0.00    -0.268 OA
ATOM     19  C   UNL A   1      32.169  23.582  23.932  1.00  0.00     0.084 C 
ATOM     20  S   UNL A   1      30.729  23.801  23.019  1.00  0.00    -0.054 SA
ATOM     21  S   UNL A   1      29.080  26.294  23.348  1.00  0.00    -0.052 S 
ATOM     22  C   UNL A   1      32.755  22.401  24.170  1.00  0.00     0.068 C 
BRANCH  22  23
ATOM     23  C   UNL A   1      33.772  22.265  25.155  1.00  0.00     0.128 A 
ATOM     24  C   UNL A   1      33.629  21.892  26.488  1.00  0.00     0.051 A 
ATOM     25  O   UNL A   1      35.109  22.505  24.927  1.00  0.00    -0.457 OA
ATOM     26  C   UNL A   1      34.902  21.945  27.092  1.00  0.00     0.051 A 
ATOM     27  C   UNL A   1      35.774  22.340  26.105  1.00  0.00     0.134 A 
BRANCH  27  28
ATOM     28  C   UNL A   1      37.201  22.606  26.106  1.00  0.00     0.017 A 
ATOM     29  C   UNL A   1      38.106  21.571  25.832  1.00  0.00     0.013 A 
ATOM     30  C   UNL A   1      37.696  23.868  26.463  1.00  0.00     0.013 A 
ATOM     31  C   UNL A   1      39.483  21.789  25.919  1.00  0.00     0.016 A 
ATOM     32  C   UNL A   1      39.073  24.085  26.564  1.00  0.00     0.016 A 
ATOM     33  C   UNL A   1      39.960  23.044  26.292  1.00  0.00     0.018 A 
ATOM     34  Br  UNL A   1      41.823  23.328  26.444  1.00  0.00    -0.051 Br
ENDBRANCH  27  28
ENDBRANCH  22  23
ENDBRANCH   7  15
ENDBRANCH   4   7
ENDBRANCH   2   3
ENDBRANCH   1   2
BRANCH   1  35
ATOM     35  C   UNL A   1      34.204  29.636  26.469  1.00  0.00     0.118 C 
BRANCH  35  36
ATOM     36  N   UNL A   1      33.795  30.989  26.821  1.00  0.00    -0.352 N 
ATOM     37  C   UNL A   1      34.331  31.868  27.734  1.00  0.00     0.251 C 
ATOM     38  H   UNL A   1      33.012  31.328  26.330  1.00  0.00     0.163 HD
ATOM     39  O   UNL A   1      33.691  32.869  28.043  1.00  0.00    -0.269 OA
BRANCH  37  40
ATOM     40  C   UNL A   1      35.646  31.597  28.359  1.00  0.00     0.039 A 
ATOM     41  C   UNL A   1      36.621  32.599  28.351  1.00  0.00     0.014 A 
ATOM     42  C   UNL A   1      35.926  30.364  28.952  1.00  0.00     0.014 A 
ATOM     43  C   UNL A   1      37.830  32.398  29.022  1.00  0.00     0.010 A 
ATOM     44  C   UNL A   1      37.090  30.199  29.698  1.00  0.00     0.010 A 
ATOM     45  C   UNL A   1      38.050  31.219  29.753  1.00  0.00    -0.014 A 
BRANCH  45  46
ATOM     46  C   UNL A   1      39.252  31.046  30.611  1.00  0.00     0.031 A 
ATOM     47  C   UNL A   1      40.455  30.307  30.094  1.00  0.00     0.074 A 
ATOM     48  C   UNL A   1      39.222  31.485  31.887  1.00  0.00     0.049 A 
ATOM     49  N   UNL A   1      41.546  29.956  30.726  1.00  0.00    -0.248 NA
ATOM     50  C   UNL A   1      40.416  29.885  28.685  1.00  0.00     0.031 C 
ATOM     51  C   UNL A   1      38.098  32.186  32.512  1.00  0.00     0.029 A 
ATOM     52  N   UNL A   1      40.152  31.394  32.894  1.00  0.00    -0.354 N 
ATOM     53  C   UNL A   1      42.317  29.264  29.800  1.00  0.00     0.074 A 
ATOM     54  C   UNL A   1      41.543  29.196  28.578  1.00  0.00     0.031 C 
ATOM     55  C   UNL A   1      38.413  32.483  33.782  1.00  0.00     0.029 A 
ATOM     56  C   UNL A   1      39.731  31.938  34.086  1.00  0.00     0.049 A 
ATOM     57  H   UNL A   1      41.037  30.979  32.773  1.00  0.00     0.167 HD
ATOM     58  C   UNL A   1      43.565  28.752  29.948  1.00  0.00     0.034 A 
ATOM     59  C   UNL A   1      40.325  31.970  35.297  1.00  0.00     0.034 A 
ATOM     60  C   UNL A   1      44.323  28.834  31.173  1.00  0.00     0.049 A 
ATOM     61  C   UNL A   1      41.684  31.333  35.453  1.00  0.00     0.074 A 
ATOM     62  C   UNL A   1      45.615  28.404  31.415  1.00  0.00     0.029 A 
ATOM     63  N   UNL A   1      43.853  29.368  32.367  1.00  0.00    -0.354 N 
ATOM     64  N   UNL A   1      42.424  30.735  34.547  1.00  0.00    -0.248 NA
ATOM     65  C   UNL A   1      42.286  31.374  36.792  1.00  0.00     0.031 C 
ATOM     66  C   UNL A   1      45.897  28.601  32.771  1.00  0.00     0.029 A 
ATOM     67  C   UNL A   1      44.812  29.231  33.360  1.00  0.00     0.049 A 
ATOM     68  H   UNL A   1      42.969  29.783  32.491  1.00  0.00     0.167 HD
ATOM     69  C   UNL A   1      43.588  30.347  35.206  1.00  0.00     0.074 A 
ATOM     70  C   UNL A   1      43.461  30.802  36.575  1.00  0.00     0.031 C 
ATOM     71  C   UNL A   1      44.663  29.672  34.725  1.00  0.00     0.034 A 
BRANCH  58  72
ATOM     72  C   UNL A   1      44.175  28.038  28.766  1.00  0.00     0.023 A 
ATOM     73  C   UNL A   1      45.062  28.685  27.890  1.00  0.00     0.031 A 
ATOM     74  C   UNL A   1      43.864  26.690  28.510  1.00  0.00     0.131 A 
ATOM     75  C   UNL A   1      45.554  28.008  26.762  1.00  0.00     0.055 A 
ATOM     76  C   UNL A   1      44.421  25.997  27.434  1.00  0.00     0.041 A 
ATOM     77  F   UNL A   1      43.006  26.024  29.299  1.00  0.00    -0.206 F 
ATOM     78  C   UNL A   1      45.261  26.659  26.544  1.00  0.00     0.022 A 
BRANCH  75  79
ATOM     79  S   UNL A   1      46.470  28.954  25.517  1.00  0.00     0.124 S 
ATOM     80  O   UNL A   1      46.134  28.232  24.292  1.00  0.00    -0.237 OA
ATOM     81  O   UNL A   1      45.899  30.289  25.649  1.00  0.00    -0.237 OA
ATOM     82  O   UNL A   1      47.863  28.824  25.944  1.00  0.00    -0.744 OA
ENDBRANCH  75  79
ENDBRANCH  58  72
BRANCH  59  83
ATOM     83  C   UNL A   1      39.636  32.587  36.468  1.00  0.00     0.023 A 
ATOM     84  C   UNL A   1      38.817  31.819  37.310  1.00  0.00     0.031 A 
ATOM     85  C   UNL A   1      39.740  33.965  36.732  1.00  0.00     0.131 A 
ATOM     86  C   UNL A   1      38.093  32.441  38.340  1.00  0.00     0.055 A 
ATOM     87  C   UNL A   1      39.068  34.568  37.796  1.00  0.00     0.041 A 
ATOM     88  F   UNL A   1      40.507  34.749  35.956  1.00  0.00    -0.206 F 
ATOM     89  C   UNL A   1      38.226  33.806  38.599  1.00  0.00     0.022 A 
BRANCH  86  90
ATOM     90  S   UNL A   1      36.887  31.454  39.269  1.00  0.00     0.124 S 
ATOM     91  O   UNL A   1      36.842  30.226  38.484  1.00  0.00    -0.237 OA
ATOM     92  O   UNL A   1      37.522  31.354  40.579  1.00  0.00    -0.237 OA
ATOM     93  O   UNL A   1      35.675  32.268  39.226  1.00  0.00    -0.744 OA
ENDBRANCH  86  90
ENDBRANCH  59  83
BRANCH  71  94
ATOM     94  C   UNL A   1      45.793  29.406  35.690  1.00  0.00     0.023 A 
ATOM     95  C   UNL A   1      45.850  28.221  36.445  1.00  0.00     0.031 A 
ATOM     96  C   UNL A   1      46.824  30.347  35.855  1.00  0.00     0.131 A 
ATOM     97  C   UNL A   1      46.890  28.030  37.366  1.00  0.00     0.055 A 
ATOM     98  C   UNL A   1      47.892  30.122  36.726  1.00  0.00     0.041 A 
ATOM     99  F   UNL A   1      46.819  31.498  35.163  1.00  0.00    -0.206 F 
ATOM    100  C   UNL A   1      47.922  28.963  37.497  1.00  0.00     0.022 A 
BRANCH  97 101
ATOM    101  S   UNL A   1      46.832  26.582  38.456  1.00  0.00     0.124 S 
ATOM    102  O   UNL A   1      47.024  25.485  37.511  1.00  0.00    -0.237 OA
ATOM    103  O   UNL A   1      47.939  26.834  39.373  1.00  0.00    -0.237 OA
ATOM    104  O   UNL A   1      45.502  26.657  39.057  1.00  0.00    -0.744 OA
ENDBRANCH  97 101
ENDBRANCH  71  94
ENDBRANCH  45  46
ENDBRANCH  37  40
ENDBRANCH  35  36
ENDBRANCH   1  35
TORSDOF 19
ENDMDL
