MODEL 1
REMARK VINA RESULT:     -13.0      0.000      0.000
REMARK SMILES Cc1c(CC(=O)NCCCNC(=O)c2ccc(-c3c4nc(c(-c5cc(S(=O)(=O)[O-])ccc5F)c5ccc([nH]5)c(-c5cc(S(=O)(=O)[O-])ccc5F)c5nc(c(-c6cc(S(=O)(=O)[O-])ccc6F)c6ccc3[nH]6)C=C5)C=C4)cc2)cccc1-c1ccn(C(F)F)c(=O)c1
REMARK SMILES IDX 9 1 8 2 7 3 5 4 6 5 4 7 3 8 1 9 2 10 80 11 77 12 79 13 78 14
REMARK SMILES IDX 81 15 82 16 90 17 83 18 88 19 84 20 89 21 85 22 86 23 87 24
REMARK SMILES IDX 10 25 11 26 12 27 13 29 14 30 15 31 76 32 16 33 75 34 17 35
REMARK SMILES IDX 18 36 19 37 69 38 20 39 74 40 68 41 70 42 21 43 73 44 67 45
REMARK SMILES IDX 66 46 22 48 54 49 34 50 53 51 35 52 38 53 52 54 71 55 36 56
REMARK SMILES IDX 37 57 51 59 72 60 39 61 23 62 24 63 32 64 25 65 31 66 33 67
REMARK SMILES IDX 30 68 26 69 27 70 28 71 29 72 55 73 56 74 64 75 57 76 63 77
REMARK SMILES IDX 65 78 62 79 58 80 59 81 60 82 61 83 40 84 41 85 49 86 42 87
REMARK SMILES IDX 48 88 50 89 47 90 43 91 44 92 45 93 46 94
REMARK H PARENT 7 6 11 28 70 47 38 58
REMARK Flexibility Score: inf
ROOT
ATOM      1  C   UNL A   1      40.919  22.279  26.089  1.00  0.00     0.042 C 
ENDROOT
BRANCH   1   2
ATOM      2  C   UNL A   1      39.453  21.865  26.214  1.00  0.00     0.117 C 
BRANCH   2   3
ATOM      3  N   UNL A   1      38.569  22.989  26.498  1.00  0.00    -0.356 N 
ATOM      4  C   UNL A   1      37.520  23.480  25.773  1.00  0.00     0.224 C 
ATOM      5  O   UNL A   1      36.879  24.437  26.214  1.00  0.00    -0.275 OA
ATOM      6  H   UNL A   1      38.755  23.465  27.339  1.00  0.00     0.163 HD
BRANCH   4   7
ATOM      7  C   UNL A   1      37.147  22.858  24.431  1.00  0.00     0.135 C 
BRANCH   7   8
ATOM      8  C   UNL A   1      35.706  22.378  24.362  1.00  0.00    -0.035 A 
ATOM      9  C   UNL A   1      36.315  20.047  25.179  1.00  0.00     0.045 C 
ATOM     10  C   UNL A   1      35.316  21.042  24.635  1.00  0.00    -0.040 A 
ATOM     11  C   UNL A   1      33.966  20.662  24.408  1.00  0.00    -0.015 A 
ATOM     12  C   UNL A   1      34.732  23.313  23.956  1.00  0.00     0.004 A 
ATOM     13  C   UNL A   1      33.027  21.618  23.984  1.00  0.00     0.009 A 
ATOM     14  C   UNL A   1      33.405  22.938  23.772  1.00  0.00     0.001 A 
BRANCH  11  15
ATOM     15  C   UNL A   1      33.512  19.257  24.532  1.00  0.00    -0.011 A 
ATOM     16  C   UNL A   1      32.672  18.787  25.616  1.00  0.00     0.027 A 
ATOM     17  C   UNL A   1      33.979  18.370  23.633  1.00  0.00     0.080 A 
ATOM     18  C   UNL A   1      32.451  17.478  25.781  1.00  0.00     0.095 A 
ATOM     19  C   UNL A   1      33.658  16.921  23.750  1.00  0.00     0.255 A 
ATOM     20  N   UNL A   1      32.958  16.551  24.888  1.00  0.00    -0.258 N 
ATOM     21  O   UNL A   1      34.028  16.158  22.866  1.00  0.00    -0.269 OA
BRANCH  20  22
ATOM     22  C   UNL A   1      32.739  15.144  25.088  1.00  0.00     0.451 C 
ATOM     23  F   UNL A   1      33.803  14.563  25.694  1.00  0.00    -0.185 F 
ATOM     24  F   UNL A   1      31.642  14.912  25.848  1.00  0.00    -0.185 F 
ENDBRANCH  20  22
ENDBRANCH  11  15
ENDBRANCH   7   8
ENDBRANCH   4   7
ENDBRANCH   2   3
ENDBRANCH   1   2
BRANCH   1  25
ATOM     25  C   UNL A   1      41.890  21.241  26.637  1.00  0.00     0.118 C 
BRANCH  25  26
ATOM     26  N   UNL A   1      42.660  20.551  25.605  1.00  0.00    -0.352 N 
ATOM     27  C   UNL A   1      43.756  21.013  24.895  1.00  0.00     0.251 C 
ATOM     28  H   UNL A   1      42.362  19.640  25.385  1.00  0.00     0.163 HD
ATOM     29  O   UNL A   1      44.303  20.335  24.040  1.00  0.00    -0.269 OA
BRANCH  27  30
ATOM     30  C   UNL A   1      44.345  22.311  25.294  1.00  0.00     0.039 A 
ATOM     31  C   UNL A   1      45.115  22.328  26.462  1.00  0.00     0.014 A 
ATOM     32  C   UNL A   1      43.928  23.497  24.696  1.00  0.00     0.014 A 
ATOM     33  C   UNL A   1      45.263  23.523  27.159  1.00  0.00     0.010 A 
ATOM     34  C   UNL A   1      43.997  24.665  25.432  1.00  0.00     0.010 A 
ATOM     35  C   UNL A   1      44.605  24.663  26.693  1.00  0.00    -0.014 A 
BRANCH  35  36
ATOM     36  C   UNL A   1      44.358  25.824  27.543  1.00  0.00     0.031 A 
ATOM     37  C   UNL A   1      43.052  26.511  27.551  1.00  0.00     0.074 A 
ATOM     38  C   UNL A   1      45.337  26.282  28.355  1.00  0.00     0.049 A 
ATOM     39  N   UNL A   1      42.898  27.766  27.812  1.00  0.00    -0.248 NA
ATOM     40  C   UNL A   1      41.805  25.833  27.223  1.00  0.00     0.031 C 
ATOM     41  C   UNL A   1      45.215  27.271  29.422  1.00  0.00     0.029 A 
ATOM     42  N   UNL A   1      46.709  26.112  28.198  1.00  0.00    -0.354 N 
ATOM     43  C   UNL A   1      41.553  27.994  27.978  1.00  0.00     0.074 A 
ATOM     44  C   UNL A   1      40.911  26.778  27.531  1.00  0.00     0.031 C 
ATOM     45  C   UNL A   1      46.421  27.812  29.653  1.00  0.00     0.029 A 
ATOM     46  C   UNL A   1      47.335  27.281  28.659  1.00  0.00     0.049 A 
ATOM     47  H   UNL A   1      47.158  25.316  27.830  1.00  0.00     0.167 HD
ATOM     48  C   UNL A   1      41.126  29.125  28.609  1.00  0.00     0.034 A 
ATOM     49  C   UNL A   1      48.140  28.021  27.843  1.00  0.00     0.034 A 
ATOM     50  C   UNL A   1      42.238  29.983  29.014  1.00  0.00     0.049 A 
ATOM     51  C   UNL A   1      47.658  29.442  27.649  1.00  0.00     0.074 A 
ATOM     52  C   UNL A   1      42.877  30.179  30.227  1.00  0.00     0.029 A 
ATOM     53  N   UNL A   1      43.030  30.597  28.051  1.00  0.00    -0.354 N 
ATOM     54  N   UNL A   1      46.461  29.857  27.962  1.00  0.00    -0.248 NA
ATOM     55  C   UNL A   1      48.477  30.502  27.071  1.00  0.00     0.031 C 
ATOM     56  C   UNL A   1      44.084  30.882  29.982  1.00  0.00     0.029 A 
ATOM     57  C   UNL A   1      44.167  31.135  28.624  1.00  0.00     0.049 A 
ATOM     58  H   UNL A   1      42.811  30.642  27.091  1.00  0.00     0.167 HD
ATOM     59  C   UNL A   1      46.325  31.182  27.627  1.00  0.00     0.074 A 
ATOM     60  C   UNL A   1      47.628  31.545  27.097  1.00  0.00     0.031 C 
ATOM     61  C   UNL A   1      45.145  31.851  27.814  1.00  0.00     0.034 A 
BRANCH  48  62
ATOM     62  C   UNL A   1      39.719  29.288  29.137  1.00  0.00     0.023 A 
ATOM     63  C   UNL A   1      39.498  29.345  30.529  1.00  0.00     0.031 A 
ATOM     64  C   UNL A   1      38.563  29.352  28.337  1.00  0.00     0.131 A 
ATOM     65  C   UNL A   1      38.197  29.337  31.067  1.00  0.00     0.055 A 
ATOM     66  C   UNL A   1      37.269  29.278  28.868  1.00  0.00     0.041 A 
ATOM     67  F   UNL A   1      38.643  29.532  27.010  1.00  0.00    -0.206 F 
ATOM     68  C   UNL A   1      37.080  29.252  30.242  1.00  0.00     0.022 A 
BRANCH  65  69
ATOM     69  S   UNL A   1      37.985  29.451  32.866  1.00  0.00     0.124 S 
ATOM     70  O   UNL A   1      39.350  29.675  33.329  1.00  0.00    -0.237 OA
ATOM     71  O   UNL A   1      37.065  30.576  32.996  1.00  0.00    -0.237 OA
ATOM     72  O   UNL A   1      37.420  28.150  33.223  1.00  0.00    -0.744 OA
ENDBRANCH  65  69
ENDBRANCH  48  62
BRANCH  49  73
ATOM     73  C   UNL A   1      48.878  27.197  26.844  1.00  0.00     0.023 A 
ATOM     74  C   UNL A   1      48.384  27.209  25.520  1.00  0.00     0.031 A 
ATOM     75  C   UNL A   1      50.198  26.776  27.048  1.00  0.00     0.131 A 
ATOM     76  C   UNL A   1      49.248  26.987  24.440  1.00  0.00     0.055 A 
ATOM     77  C   UNL A   1      51.038  26.479  25.966  1.00  0.00     0.041 A 
ATOM     78  F   UNL A   1      50.731  26.769  28.278  1.00  0.00    -0.206 F 
ATOM     79  C   UNL A   1      50.580  26.631  24.655  1.00  0.00     0.022 A 
BRANCH  76  80
ATOM     80  S   UNL A   1      48.696  27.450  22.769  1.00  0.00     0.124 S 
ATOM     81  O   UNL A   1      49.747  28.361  22.336  1.00  0.00    -0.237 OA
ATOM     82  O   UNL A   1      48.640  26.168  22.071  1.00  0.00    -0.237 OA
ATOM     83  O   UNL A   1      47.384  28.055  22.995  1.00  0.00    -0.744 OA
ENDBRANCH  76  80
ENDBRANCH  49  73
BRANCH  61  84
ATOM     84  C   UNL A   1      44.811  33.256  27.344  1.00  0.00     0.023 A 
ATOM     85  C   UNL A   1      45.153  34.420  28.048  1.00  0.00     0.031 A 
ATOM     86  C   UNL A   1      44.174  33.471  26.094  1.00  0.00     0.131 A 
ATOM     87  C   UNL A   1      44.807  35.698  27.564  1.00  0.00     0.055 A 
ATOM     88  C   UNL A   1      43.896  34.742  25.580  1.00  0.00     0.041 A 
ATOM     89  F   UNL A   1      43.798  32.454  25.305  1.00  0.00    -0.206 F 
ATOM     90  C   UNL A   1      44.199  35.869  26.324  1.00  0.00     0.022 A 
BRANCH  87  91
ATOM     91  S   UNL A   1      45.122  37.136  28.623  1.00  0.00     0.124 S 
ATOM     92  O   UNL A   1      44.357  38.180  27.947  1.00  0.00    -0.237 OA
ATOM     93  O   UNL A   1      44.595  36.698  29.911  1.00  0.00    -0.237 OA
ATOM     94  O   UNL A   1      46.574  37.295  28.567  1.00  0.00    -0.744 OA
ENDBRANCH  87  91
ENDBRANCH  61  84
ENDBRANCH  35  36
ENDBRANCH  27  30
ENDBRANCH  25  26
ENDBRANCH   1  25
TORSDOF 16
ENDMDL
MODEL 2
REMARK VINA RESULT:     -12.9      1.817      2.185
REMARK SMILES Cc1c(CC(=O)NCCCNC(=O)c2ccc(-c3c4nc(c(-c5cc(S(=O)(=O)[O-])ccc5F)c5ccc([nH]5)c(-c5cc(S(=O)(=O)[O-])ccc5F)c5nc(c(-c6cc(S(=O)(=O)[O-])ccc6F)c6ccc3[nH]6)C=C5)C=C4)cc2)cccc1-c1ccn(C(F)F)c(=O)c1
REMARK SMILES IDX 9 1 8 2 7 3 5 4 6 5 4 7 3 8 1 9 2 10 80 11 77 12 79 13 78 14
REMARK SMILES IDX 81 15 82 16 90 17 83 18 88 19 84 20 89 21 85 22 86 23 87 24
REMARK SMILES IDX 10 25 11 26 12 27 13 29 14 30 15 31 76 32 16 33 75 34 17 35
REMARK SMILES IDX 18 36 19 37 69 38 20 39 74 40 68 41 70 42 21 43 73 44 67 45
REMARK SMILES IDX 66 46 22 48 54 49 34 50 53 51 35 52 38 53 52 54 71 55 36 56
REMARK SMILES IDX 37 57 51 59 72 60 39 61 23 62 24 63 32 64 25 65 31 66 33 67
REMARK SMILES IDX 30 68 26 69 27 70 28 71 29 72 55 73 56 74 64 75 57 76 63 77
REMARK SMILES IDX 65 78 62 79 58 80 59 81 60 82 61 83 40 84 41 85 49 86 42 87
REMARK SMILES IDX 48 88 50 89 47 90 43 91 44 92 45 93 46 94
REMARK H PARENT 7 6 11 28 70 47 38 58
REMARK Flexibility Score: inf
ROOT
ATOM      1  C   UNL A   1      39.514  23.178  26.629  1.00  0.00     0.042 C 
ENDROOT
BRANCH   1   2
ATOM      2  C   UNL A   1      38.271  22.868  25.795  1.00  0.00     0.117 C 
BRANCH   2   3
ATOM      3  N   UNL A   1      37.136  23.718  26.131  1.00  0.00    -0.356 N 
ATOM      4  C   UNL A   1      36.028  24.027  25.394  1.00  0.00     0.224 C 
ATOM      5  O   UNL A   1      35.163  24.757  25.884  1.00  0.00    -0.275 OA
ATOM      6  H   UNL A   1      37.173  24.133  27.023  1.00  0.00     0.163 HD
BRANCH   4   7
ATOM      7  C   UNL A   1      35.862  23.482  23.978  1.00  0.00     0.135 C 
BRANCH   7   8
ATOM      8  C   UNL A   1      34.585  22.683  23.780  1.00  0.00    -0.035 A 
ATOM      9  C   UNL A   1      35.473  20.703  25.108  1.00  0.00     0.045 C 
ATOM     10  C   UNL A   1      34.421  21.350  24.238  1.00  0.00    -0.040 A 
ATOM     11  C   UNL A   1      33.241  20.643  23.881  1.00  0.00    -0.015 A 
ATOM     12  C   UNL A   1      33.542  23.298  23.058  1.00  0.00     0.004 A 
ATOM     13  C   UNL A   1      32.232  21.284  23.144  1.00  0.00     0.009 A 
ATOM     14  C   UNL A   1      32.376  22.607  22.746  1.00  0.00     0.001 A 
BRANCH  11  15
ATOM     15  C   UNL A   1      33.059  19.207  24.198  1.00  0.00    -0.011 A 
ATOM     16  C   UNL A   1      32.429  18.737  25.416  1.00  0.00     0.027 A 
ATOM     17  C   UNL A   1      33.581  18.309  23.342  1.00  0.00     0.080 A 
ATOM     18  C   UNL A   1      32.461  17.438  25.736  1.00  0.00     0.095 A 
ATOM     19  C   UNL A   1      33.536  16.851  23.640  1.00  0.00     0.255 A 
ATOM     20  N   UNL A   1      33.031  16.508  24.885  1.00  0.00    -0.258 N 
ATOM     21  O   UNL A   1      33.943  16.060  22.798  1.00  0.00    -0.269 OA
BRANCH  20  22
ATOM     22  C   UNL A   1      33.087  15.118  25.248  1.00  0.00     0.451 C 
ATOM     23  F   UNL A   1      34.353  14.739  25.548  1.00  0.00    -0.185 F 
ATOM     24  F   UNL A   1      32.301  14.850  26.320  1.00  0.00    -0.185 F 
ENDBRANCH  20  22
ENDBRANCH  11  15
ENDBRANCH   7   8
ENDBRANCH   4   7
ENDBRANCH   2   3
ENDBRANCH   1   2
BRANCH   1  25
ATOM     25  C   UNL A   1      40.116  21.949  27.299  1.00  0.00     0.118 C 
BRANCH  25  26
ATOM     26  N   UNL A   1      40.965  21.153  26.415  1.00  0.00    -0.352 N 
ATOM     27  C   UNL A   1      42.301  21.343  26.104  1.00  0.00     0.251 C 
ATOM     28  H   UNL A   1      40.532  20.380  25.987  1.00  0.00     0.163 HD
ATOM     29  O   UNL A   1      42.894  20.607  25.331  1.00  0.00    -0.269 OA
BRANCH  27  30
ATOM     30  C   UNL A   1      43.043  22.391  26.840  1.00  0.00     0.039 A 
ATOM     31  C   UNL A   1      43.068  22.290  28.235  1.00  0.00     0.014 A 
ATOM     32  C   UNL A   1      43.455  23.557  26.201  1.00  0.00     0.014 A 
ATOM     33  C   UNL A   1      43.278  23.438  28.993  1.00  0.00     0.010 A 
ATOM     34  C   UNL A   1      43.574  24.712  26.950  1.00  0.00     0.010 A 
ATOM     35  C   UNL A   1      43.418  24.663  28.340  1.00  0.00    -0.014 A 
BRANCH  35  36
ATOM     36  C   UNL A   1      43.230  25.939  29.025  1.00  0.00     0.031 A 
ATOM     37  C   UNL A   1      41.962  26.687  28.927  1.00  0.00     0.074 A 
ATOM     38  C   UNL A   1      44.229  26.451  29.777  1.00  0.00     0.049 A 
ATOM     39  N   UNL A   1      41.873  27.973  29.017  1.00  0.00    -0.248 NA
ATOM     40  C   UNL A   1      40.682  26.036  28.681  1.00  0.00     0.031 C 
ATOM     41  C   UNL A   1      44.156  27.579  30.701  1.00  0.00     0.029 A 
ATOM     42  N   UNL A   1      45.591  26.191  29.658  1.00  0.00    -0.354 N 
ATOM     43  C   UNL A   1      40.542  28.290  29.137  1.00  0.00     0.074 A 
ATOM     44  C   UNL A   1      39.837  27.060  28.851  1.00  0.00     0.031 C 
ATOM     45  C   UNL A   1      45.388  28.083  30.870  1.00  0.00     0.029 A 
ATOM     46  C   UNL A   1      46.276  27.377  29.964  1.00  0.00     0.049 A 
ATOM     47  H   UNL A   1      45.999  25.331  29.404  1.00  0.00     0.167 HD
ATOM     48  C   UNL A   1      40.172  29.515  29.608  1.00  0.00     0.034 A 
ATOM     49  C   UNL A   1      47.121  27.959  29.065  1.00  0.00     0.034 A 
ATOM     50  C   UNL A   1      41.327  30.361  29.905  1.00  0.00     0.049 A 
ATOM     51  C   UNL A   1      46.714  29.364  28.678  1.00  0.00     0.074 A 
ATOM     52  C   UNL A   1      41.971  30.685  31.088  1.00  0.00     0.029 A 
ATOM     53  N   UNL A   1      42.152  30.799  28.876  1.00  0.00    -0.354 N 
ATOM     54  N   UNL A   1      45.540  29.878  28.921  1.00  0.00    -0.248 NA
ATOM     55  C   UNL A   1      47.590  30.293  27.972  1.00  0.00     0.031 C 
ATOM     56  C   UNL A   1      43.215  31.286  30.763  1.00  0.00     0.029 A 
ATOM     57  C   UNL A   1      43.314  31.350  29.384  1.00  0.00     0.049 A 
ATOM     58  H   UNL A   1      41.939  30.727  27.917  1.00  0.00     0.167 HD
ATOM     59  C   UNL A   1      45.475  31.152  28.410  1.00  0.00     0.074 A 
ATOM     60  C   UNL A   1      46.796  31.372  27.850  1.00  0.00     0.031 C 
ATOM     61  C   UNL A   1      44.330  31.899  28.495  1.00  0.00     0.034 A 
BRANCH  48  62
ATOM     62  C   UNL A   1      38.775  29.820  30.096  1.00  0.00     0.023 A 
ATOM     63  C   UNL A   1      37.986  30.767  29.410  1.00  0.00     0.031 A 
ATOM     64  C   UNL A   1      38.181  29.249  31.237  1.00  0.00     0.131 A 
ATOM     65  C   UNL A   1      36.745  31.195  29.918  1.00  0.00     0.055 A 
ATOM     66  C   UNL A   1      36.978  29.720  31.781  1.00  0.00     0.041 A 
ATOM     67  F   UNL A   1      38.722  28.185  31.848  1.00  0.00    -0.206 F 
ATOM     68  C   UNL A   1      36.260  30.713  31.129  1.00  0.00     0.022 A 
BRANCH  65  69
ATOM     69  S   UNL A   1      35.765  32.389  28.964  1.00  0.00     0.124 S 
ATOM     70  O   UNL A   1      35.652  31.733  27.666  1.00  0.00    -0.237 OA
ATOM     71  O   UNL A   1      34.540  32.479  29.752  1.00  0.00    -0.237 OA
ATOM     72  O   UNL A   1      36.594  33.594  28.976  1.00  0.00    -0.744 OA
ENDBRANCH  65  69
ENDBRANCH  48  62
BRANCH  49  73
ATOM     73  C   UNL A   1      47.818  26.972  28.192  1.00  0.00     0.023 A 
ATOM     74  C   UNL A   1      47.393  26.901  26.847  1.00  0.00     0.031 A 
ATOM     75  C   UNL A   1      49.076  26.446  28.512  1.00  0.00     0.131 A 
ATOM     76  C   UNL A   1      48.281  26.489  25.844  1.00  0.00     0.055 A 
ATOM     77  C   UNL A   1      49.932  25.962  27.513  1.00  0.00     0.041 A 
ATOM     78  F   UNL A   1      49.545  26.508  29.766  1.00  0.00    -0.206 F 
ATOM     79  C   UNL A   1      49.556  26.028  26.169  1.00  0.00     0.022 A 
BRANCH  76  80
ATOM     80  S   UNL A   1      47.861  26.836  24.108  1.00  0.00     0.124 S 
ATOM     81  O   UNL A   1      46.476  27.278  24.205  1.00  0.00    -0.237 OA
ATOM     82  O   UNL A   1      48.830  27.863  23.731  1.00  0.00    -0.237 OA
ATOM     83  O   UNL A   1      48.073  25.553  23.439  1.00  0.00    -0.744 OA
ENDBRANCH  76  80
ENDBRANCH  49  73
BRANCH  61  84
ATOM     84  C   UNL A   1      44.072  33.245  27.838  1.00  0.00     0.023 A 
ATOM     85  C   UNL A   1      43.963  34.453  28.542  1.00  0.00     0.031 A 
ATOM     86  C   UNL A   1      43.991  33.358  26.425  1.00  0.00     0.131 A 
ATOM     87  C   UNL A   1      43.713  35.670  27.876  1.00  0.00     0.055 A 
ATOM     88  C   UNL A   1      43.815  34.577  25.760  1.00  0.00     0.041 A 
ATOM     89  F   UNL A   1      44.088  32.290  25.620  1.00  0.00    -0.206 F 
ATOM     90  C   UNL A   1      43.660  35.744  26.487  1.00  0.00     0.022 A 
BRANCH  87  91
ATOM     91  S   UNL A   1      43.405  37.151  28.873  1.00  0.00     0.124 S 
ATOM     92  O   UNL A   1      43.476  36.619  30.231  1.00  0.00    -0.237 OA
ATOM     93  O   UNL A   1      44.503  38.028  28.479  1.00  0.00    -0.237 OA
ATOM     94  O   UNL A   1      42.078  37.587  28.446  1.00  0.00    -0.744 OA
ENDBRANCH  87  91
ENDBRANCH  61  84
ENDBRANCH  35  36
ENDBRANCH  27  30
ENDBRANCH  25  26
ENDBRANCH   1  25
TORSDOF 16
ENDMDL
MODEL 3
REMARK VINA RESULT:     -12.7      3.577      4.943
REMARK SMILES Cc1c(CC(=O)NCCCNC(=O)c2ccc(-c3c4nc(c(-c5cc(S(=O)(=O)[O-])ccc5F)c5ccc([nH]5)c(-c5cc(S(=O)(=O)[O-])ccc5F)c5nc(c(-c6cc(S(=O)(=O)[O-])ccc6F)c6ccc3[nH]6)C=C5)C=C4)cc2)cccc1-c1ccn(C(F)F)c(=O)c1
REMARK SMILES IDX 9 1 8 2 7 3 5 4 6 5 4 7 3 8 1 9 2 10 80 11 77 12 79 13 78 14
REMARK SMILES IDX 81 15 82 16 90 17 83 18 88 19 84 20 89 21 85 22 86 23 87 24
REMARK SMILES IDX 10 25 11 26 12 27 13 29 14 30 15 31 76 32 16 33 75 34 17 35
REMARK SMILES IDX 18 36 19 37 69 38 20 39 74 40 68 41 70 42 21 43 73 44 67 45
REMARK SMILES IDX 66 46 22 48 54 49 34 50 53 51 35 52 38 53 52 54 71 55 36 56
REMARK SMILES IDX 37 57 51 59 72 60 39 61 23 62 24 63 32 64 25 65 31 66 33 67
REMARK SMILES IDX 30 68 26 69 27 70 28 71 29 72 55 73 56 74 64 75 57 76 63 77
REMARK SMILES IDX 65 78 62 79 58 80 59 81 60 82 61 83 40 84 41 85 49 86 42 87
REMARK SMILES IDX 48 88 50 89 47 90 43 91 44 92 45 93 46 94
REMARK H PARENT 7 6 11 28 70 47 38 58
REMARK Flexibility Score: inf
ROOT
ATOM      1  C   UNL A   1      39.265  23.545  26.260  1.00  0.00     0.042 C 
ENDROOT
BRANCH   1   2
ATOM      2  C   UNL A   1      37.765  23.721  26.023  1.00  0.00     0.117 C 
BRANCH   2   3
ATOM      3  N   UNL A   1      37.051  22.453  25.942  1.00  0.00    -0.356 N 
ATOM      4  C   UNL A   1      35.942  22.120  25.217  1.00  0.00     0.224 C 
ATOM      5  O   UNL A   1      35.510  20.966  25.275  1.00  0.00    -0.275 OA
ATOM      6  H   UNL A   1      37.424  21.727  26.492  1.00  0.00     0.163 HD
BRANCH   4   7
ATOM      7  C   UNL A   1      35.242  23.161  24.350  1.00  0.00     0.135 C 
BRANCH   7   8
ATOM      8  C   UNL A   1      33.971  23.715  24.973  1.00  0.00    -0.035 A 
ATOM      9  C   UNL A   1      33.580  25.325  23.041  1.00  0.00     0.045 C 
ATOM     10  C   UNL A   1      33.227  24.783  24.407  1.00  0.00    -0.040 A 
ATOM     11  C   UNL A   1      32.133  25.319  25.138  1.00  0.00    -0.015 A 
ATOM     12  C   UNL A   1      33.556  23.159  26.200  1.00  0.00     0.004 A 
ATOM     13  C   UNL A   1      31.762  24.750  26.368  1.00  0.00     0.009 A 
ATOM     14  C   UNL A   1      32.461  23.669  26.890  1.00  0.00     0.001 A 
BRANCH  11  15
ATOM     15  C   UNL A   1      31.398  26.522  24.685  1.00  0.00    -0.011 A 
ATOM     16  C   UNL A   1      30.319  26.475  23.718  1.00  0.00     0.027 A 
ATOM     17  C   UNL A   1      31.819  27.718  25.138  1.00  0.00     0.080 A 
ATOM     18  C   UNL A   1      29.820  27.606  23.205  1.00  0.00     0.095 A 
ATOM     19  C   UNL A   1      31.205  28.982  24.648  1.00  0.00     0.255 A 
ATOM     20  N   UNL A   1      30.272  28.842  23.632  1.00  0.00    -0.258 N 
ATOM     21  O   UNL A   1      31.554  30.045  25.148  1.00  0.00    -0.269 OA
BRANCH  20  22
ATOM     22  C   UNL A   1      29.751  30.052  23.056  1.00  0.00     0.451 C 
ATOM     23  F   UNL A   1      29.769  29.999  21.703  1.00  0.00    -0.185 F 
ATOM     24  F   UNL A   1      28.476  30.286  23.453  1.00  0.00    -0.185 F 
ENDBRANCH  20  22
ENDBRANCH  11  15
ENDBRANCH   7   8
ENDBRANCH   4   7
ENDBRANCH   2   3
ENDBRANCH   1   2
BRANCH   1  25
ATOM     25  C   UNL A   1      39.612  22.274  27.025  1.00  0.00     0.118 C 
BRANCH  25  26
ATOM     26  N   UNL A   1      40.468  21.353  26.279  1.00  0.00    -0.352 N 
ATOM     27  C   UNL A   1      41.843  21.394  26.119  1.00  0.00     0.251 C 
ATOM     28  H   UNL A   1      40.008  20.606  25.834  1.00  0.00     0.163 HD
ATOM     29  O   UNL A   1      42.439  20.564  25.451  1.00  0.00    -0.269 OA
BRANCH  27  30
ATOM     30  C   UNL A   1      42.603  22.400  26.895  1.00  0.00     0.039 A 
ATOM     31  C   UNL A   1      42.549  22.301  28.289  1.00  0.00     0.014 A 
ATOM     32  C   UNL A   1      43.113  23.540  26.279  1.00  0.00     0.014 A 
ATOM     33  C   UNL A   1      42.782  23.437  29.058  1.00  0.00     0.010 A 
ATOM     34  C   UNL A   1      43.256  24.688  27.035  1.00  0.00     0.010 A 
ATOM     35  C   UNL A   1      43.025  24.651  28.415  1.00  0.00    -0.014 A 
BRANCH  35  36
ATOM     36  C   UNL A   1      42.873  25.936  29.090  1.00  0.00     0.031 A 
ATOM     37  C   UNL A   1      41.632  26.727  28.974  1.00  0.00     0.074 A 
ATOM     38  C   UNL A   1      43.881  26.419  29.850  1.00  0.00     0.049 A 
ATOM     39  N   UNL A   1      41.585  28.015  29.056  1.00  0.00    -0.248 NA
ATOM     40  C   UNL A   1      40.333  26.118  28.718  1.00  0.00     0.031 C 
ATOM     41  C   UNL A   1      43.836  27.555  30.767  1.00  0.00     0.029 A 
ATOM     42  N   UNL A   1      45.234  26.112  29.747  1.00  0.00    -0.354 N 
ATOM     43  C   UNL A   1      40.265  28.377  29.159  1.00  0.00     0.074 A 
ATOM     44  C   UNL A   1      39.522  27.170  28.873  1.00  0.00     0.031 C 
ATOM     45  C   UNL A   1      45.082  28.017  30.946  1.00  0.00     0.029 A 
ATOM     46  C   UNL A   1      45.956  27.276  30.054  1.00  0.00     0.049 A 
ATOM     47  H   UNL A   1      45.616  25.238  29.503  1.00  0.00     0.167 HD
ATOM     48  C   UNL A   1      39.932  29.617  29.619  1.00  0.00     0.034 A 
ATOM     49  C   UNL A   1      46.829  27.824  29.161  1.00  0.00     0.034 A 
ATOM     50  C   UNL A   1      41.111  30.426  29.923  1.00  0.00     0.049 A 
ATOM     51  C   UNL A   1      46.475  29.239  28.762  1.00  0.00     0.074 A 
ATOM     52  C   UNL A   1      41.753  30.735  31.111  1.00  0.00     0.029 A 
ATOM     53  N   UNL A   1      41.962  30.829  28.901  1.00  0.00    -0.354 N 
ATOM     54  N   UNL A   1      45.316  29.794  28.988  1.00  0.00    -0.248 NA
ATOM     55  C   UNL A   1      47.388  30.134  28.059  1.00  0.00     0.031 C 
ATOM     56  C   UNL A   1      43.020  31.291  30.797  1.00  0.00     0.029 A 
ATOM     57  C   UNL A   1      43.136  31.343  29.419  1.00  0.00     0.049 A 
ATOM     58  H   UNL A   1      41.756  30.758  27.941  1.00  0.00     0.167 HD
ATOM     59  C   UNL A   1      45.299  31.066  28.470  1.00  0.00     0.074 A 
ATOM     60  C   UNL A   1      46.634  31.239  27.922  1.00  0.00     0.031 C 
ATOM     61  C   UNL A   1      44.180  31.853  28.538  1.00  0.00     0.034 A 
BRANCH  48  62
ATOM     62  C   UNL A   1      38.540  29.972  30.090  1.00  0.00     0.023 A 
ATOM     63  C   UNL A   1      37.692  30.730  29.256  1.00  0.00     0.031 A 
ATOM     64  C   UNL A   1      38.007  29.633  31.348  1.00  0.00     0.131 A 
ATOM     65  C   UNL A   1      36.453  31.215  29.714  1.00  0.00     0.055 A 
ATOM     66  C   UNL A   1      36.806  30.168  31.830  1.00  0.00     0.041 A 
ATOM     67  F   UNL A   1      38.611  28.737  32.143  1.00  0.00    -0.206 F 
ATOM     68  C   UNL A   1      36.028  30.980  31.017  1.00  0.00     0.022 A 
BRANCH  65  69
ATOM     69  S   UNL A   1      35.395  32.152  28.575  1.00  0.00     0.124 S 
ATOM     70  O   UNL A   1      34.380  32.698  29.468  1.00  0.00    -0.237 OA
ATOM     71  O   UNL A   1      36.335  33.110  28.001  1.00  0.00    -0.237 OA
ATOM     72  O   UNL A   1      34.913  31.131  27.644  1.00  0.00    -0.744 OA
ENDBRANCH  65  69
ENDBRANCH  48  62
BRANCH  49  73
ATOM     73  C   UNL A   1      47.502  26.808  28.302  1.00  0.00     0.023 A 
ATOM     74  C   UNL A   1      47.169  26.816  26.929  1.00  0.00     0.031 A 
ATOM     75  C   UNL A   1      48.686  26.167  28.686  1.00  0.00     0.131 A 
ATOM     76  C   UNL A   1      48.088  26.361  25.974  1.00  0.00     0.055 A 
ATOM     77  C   UNL A   1      49.567  25.642  27.731  1.00  0.00     0.041 A 
ATOM     78  F   UNL A   1      49.069  26.150  29.971  1.00  0.00    -0.206 F 
ATOM     79  C   UNL A   1      49.295  25.782  26.368  1.00  0.00     0.022 A 
BRANCH  76  80
ATOM     80  S   UNL A   1      47.823  26.797  24.227  1.00  0.00     0.124 S 
ATOM     81  O   UNL A   1      48.865  27.787  23.992  1.00  0.00    -0.237 OA
ATOM     82  O   UNL A   1      47.993  25.520  23.538  1.00  0.00    -0.237 OA
ATOM     83  O   UNL A   1      46.450  27.300  24.203  1.00  0.00    -0.744 OA
ENDBRANCH  76  80
ENDBRANCH  49  73
BRANCH  61  84
ATOM     84  C   UNL A   1      43.974  33.202  27.870  1.00  0.00     0.023 A 
ATOM     85  C   UNL A   1      43.888  34.416  28.566  1.00  0.00     0.031 A 
ATOM     86  C   UNL A   1      43.924  33.311  26.456  1.00  0.00     0.131 A 
ATOM     87  C   UNL A   1      43.687  35.637  27.890  1.00  0.00     0.055 A 
ATOM     88  C   UNL A   1      43.798  34.531  25.782  1.00  0.00     0.041 A 
ATOM     89  F   UNL A   1      44.005  32.237  25.657  1.00  0.00    -0.206 F 
ATOM     90  C   UNL A   1      43.663  35.706  26.500  1.00  0.00     0.022 A 
BRANCH  87  91
ATOM     91  S   UNL A   1      43.404  37.132  28.875  1.00  0.00     0.124 S 
ATOM     92  O   UNL A   1      42.115  37.589  28.363  1.00  0.00    -0.237 OA
ATOM     93  O   UNL A   1      43.394  36.611  30.239  1.00  0.00    -0.237 OA
ATOM     94  O   UNL A   1      44.542  37.986  28.545  1.00  0.00    -0.744 OA
ENDBRANCH  87  91
ENDBRANCH  61  84
ENDBRANCH  35  36
ENDBRANCH  27  30
ENDBRANCH  25  26
ENDBRANCH   1  25
TORSDOF 16
ENDMDL
