MODEL 1
REMARK VINA RESULT:     -12.1      0.000      0.000
REMARK SMILES CN1CCN(C(=O)N2CC[C@@H](CC(=O)NCCCNC(=O)c3ccc(-c4c5nc(c(-c6cc(S(=O)(=O)[O-])ccc6F)c6ccc([nH]6)c(-c6cc(S(=O)(=O)[O-])ccc6F)c6nc(c(-c7cc(S(=O)(=O)[O-])ccc7F)c7ccc4[nH]7)C=C6)C=C5)cc3)C2)C(C)(C)C1=O
REMARK SMILES IDX 17 1 16 2 15 3 13 4 14 5 12 7 11 8 8 9 9 10 85 11 10 12 6 13
REMARK SMILES IDX 7 14 5 15 1 16 2 17 3 18 89 19 4 20 86 21 90 22 87 23 88 24
REMARK SMILES IDX 18 25 19 26 20 27 21 29 22 30 23 31 84 32 24 33 83 34 25 35
REMARK SMILES IDX 26 36 27 37 77 38 28 39 82 40 76 41 78 42 29 43 81 44 75 45
REMARK SMILES IDX 74 46 30 48 62 49 42 50 61 51 43 52 46 53 60 54 79 55 44 56
REMARK SMILES IDX 45 57 59 59 80 60 47 61 31 62 32 63 40 64 33 65 39 66 41 67
REMARK SMILES IDX 38 68 34 69 35 70 36 71 37 72 63 73 64 74 72 75 65 76 71 77
REMARK SMILES IDX 73 78 70 79 66 80 67 81 68 82 69 83 48 84 49 85 57 86 50 87
REMARK SMILES IDX 56 88 58 89 55 90 51 91 52 92 53 93 54 94
REMARK H PARENT 15 6 19 28 78 47 46 58
REMARK Flexibility Score: inf
ROOT
ATOM      1  C   UNL A   1      30.989  31.349  25.686  1.00  0.00     0.042 C 
ENDROOT
BRANCH   1   2
ATOM      2  C   UNL A   1      31.064  29.968  25.012  1.00  0.00     0.117 C 
BRANCH   2   3
ATOM      3  N   UNL A   1      30.864  29.918  23.571  1.00  0.00    -0.356 N 
ATOM      4  C   UNL A   1      30.095  29.106  22.788  1.00  0.00     0.220 C 
ATOM      5  O   UNL A   1      29.978  29.391  21.593  1.00  0.00    -0.275 OA
ATOM      6  H   UNL A   1      31.379  30.591  23.069  1.00  0.00     0.163 HD
BRANCH   4   7
ATOM      7  C   UNL A   1      29.464  27.840  23.339  1.00  0.00     0.105 C 
BRANCH   7   8
ATOM      8  C   UNL A   1      30.461  26.854  23.960  1.00  0.00     0.020 C 
ATOM      9  N   UNL A   1      30.687  24.764  24.999  1.00  0.00    -0.324 N 
ATOM     10  C   UNL A   1      30.780  24.452  23.600  1.00  0.00     0.122 C 
ATOM     11  C   UNL A   1      29.950  26.010  25.154  1.00  0.00     0.125 C 
ATOM     12  C   UNL A   1      31.053  25.804  22.992  1.00  0.00     0.027 C 
BRANCH   9  13
ATOM     13  C   UNL A   1      31.227  24.036  26.031  1.00  0.00     0.320 C 
ATOM     14  O   UNL A   1      30.951  24.257  27.208  1.00  0.00    -0.248 OA
BRANCH  13  15
ATOM     15  N   UNL A   1      32.067  22.996  25.643  1.00  0.00    -0.309 N 
ATOM     16  C   UNL A   1      34.518  19.614  24.582  1.00  0.00     0.146 C 
ATOM     17  N   UNL A   1      33.716  20.762  24.968  1.00  0.00    -0.342 N 
ATOM     18  C   UNL A   1      32.269  20.603  25.019  1.00  0.00     0.140 C 
ATOM     19  C   UNL A   1      34.295  22.026  24.985  1.00  0.00     0.247 C 
ATOM     20  C   UNL A   1      31.539  21.653  25.856  1.00  0.00     0.144 C 
ATOM     21  C   UNL A   1      33.552  23.104  25.834  1.00  0.00     0.118 C 
ATOM     22  O   UNL A   1      35.420  22.233  24.527  1.00  0.00    -0.272 OA
ATOM     23  C   UNL A   1      33.930  22.844  27.309  1.00  0.00     0.045 C 
ATOM     24  C   UNL A   1      34.173  24.459  25.458  1.00  0.00     0.045 C 
ENDBRANCH  13  15
ENDBRANCH   9  13
ENDBRANCH   7   8
ENDBRANCH   4   7
ENDBRANCH   2   3
ENDBRANCH   1   2
BRANCH   1  25
ATOM     25  C   UNL A   1      32.045  31.689  26.746  1.00  0.00     0.118 C 
BRANCH  25  26
ATOM     26  N   UNL A   1      32.129  33.116  27.000  1.00  0.00    -0.352 N 
ATOM     27  C   UNL A   1      32.960  33.830  27.834  1.00  0.00     0.251 C 
ATOM     28  H   UNL A   1      31.485  33.663  26.494  1.00  0.00     0.163 HD
ATOM     29  O   UNL A   1      32.656  34.995  28.089  1.00  0.00    -0.269 OA
BRANCH  27  30
ATOM     30  C   UNL A   1      34.193  33.251  28.434  1.00  0.00     0.039 A 
ATOM     31  C   UNL A   1      34.070  32.090  29.209  1.00  0.00     0.014 A 
ATOM     32  C   UNL A   1      35.438  33.884  28.356  1.00  0.00     0.014 A 
ATOM     33  C   UNL A   1      35.182  31.554  29.875  1.00  0.00     0.010 A 
ATOM     34  C   UNL A   1      36.560  33.322  28.986  1.00  0.00     0.010 A 
ATOM     35  C   UNL A   1      36.444  32.157  29.763  1.00  0.00    -0.014 A 
BRANCH  35  36
ATOM     36  C   UNL A   1      37.634  31.574  30.455  1.00  0.00     0.031 A 
ATOM     37  C   UNL A   1      38.505  30.550  29.773  1.00  0.00     0.074 A 
ATOM     38  C   UNL A   1      37.920  31.941  31.720  1.00  0.00     0.049 A 
ATOM     39  N   UNL A   1      39.555  29.913  30.230  1.00  0.00    -0.248 NA
ATOM     40  C   UNL A   1      38.134  30.184  28.400  1.00  0.00     0.031 C 
ATOM     41  C   UNL A   1      37.144  32.896  32.512  1.00  0.00     0.029 A 
ATOM     42  N   UNL A   1      38.928  31.548  32.568  1.00  0.00    -0.354 N 
ATOM     43  C   UNL A   1      39.962  29.058  29.211  1.00  0.00     0.074 A 
ATOM     44  C   UNL A   1      39.012  29.231  28.129  1.00  0.00     0.031 C 
ATOM     45  C   UNL A   1      37.704  33.016  33.726  1.00  0.00     0.029 A 
ATOM     46  C   UNL A   1      38.854  32.120  33.816  1.00  0.00     0.049 A 
ATOM     47  H   UNL A   1      39.636  30.916  32.306  1.00  0.00     0.167 HD
ATOM     48  C   UNL A   1      41.031  28.219  29.171  1.00  0.00     0.034 A 
ATOM     49  C   UNL A   1      39.605  31.933  34.920  1.00  0.00     0.034 A 
ATOM     50  C   UNL A   1      41.972  28.056  30.258  1.00  0.00     0.049 A 
ATOM     51  C   UNL A   1      40.771  30.979  34.870  1.00  0.00     0.074 A 
ATOM     52  C   UNL A   1      43.126  27.289  30.291  1.00  0.00     0.029 A 
ATOM     53  N   UNL A   1      41.860  28.649  31.510  1.00  0.00    -0.354 N 
ATOM     54  N   UNL A   1      41.178  30.225  33.877  1.00  0.00    -0.248 NA
ATOM     55  C   UNL A   1      41.583  30.861  36.088  1.00  0.00     0.031 C 
ATOM     56  C   UNL A   1      43.665  27.357  31.583  1.00  0.00     0.029 A 
ATOM     57  C   UNL A   1      42.896  28.229  32.334  1.00  0.00     0.049 A 
ATOM     58  H   UNL A   1      41.148  29.275  31.774  1.00  0.00     0.167 HD
ATOM     59  C   UNL A   1      42.307  29.558  34.345  1.00  0.00     0.074 A 
ATOM     60  C   UNL A   1      42.524  30.010  35.704  1.00  0.00     0.031 C 
ATOM     61  C   UNL A   1      43.095  28.656  33.701  1.00  0.00     0.034 A 
BRANCH  48  62
ATOM     62  C   UNL A   1      41.210  27.381  27.924  1.00  0.00     0.023 A 
ATOM     63  C   UNL A   1      40.887  26.012  27.895  1.00  0.00     0.031 A 
ATOM     64  C   UNL A   1      41.748  27.949  26.755  1.00  0.00     0.131 A 
ATOM     65  C   UNL A   1      41.192  25.242  26.762  1.00  0.00     0.055 A 
ATOM     66  C   UNL A   1      41.965  27.195  25.599  1.00  0.00     0.041 A 
ATOM     67  F   UNL A   1      42.090  29.247  26.720  1.00  0.00    -0.206 F 
ATOM     68  C   UNL A   1      41.707  25.828  25.605  1.00  0.00     0.022 A 
BRANCH  65  69
ATOM     69  S   UNL A   1      41.068  23.435  26.886  1.00  0.00     0.124 S 
ATOM     70  O   UNL A   1      39.634  23.224  26.713  1.00  0.00    -0.237 OA
ATOM     71  O   UNL A   1      41.920  22.985  25.795  1.00  0.00    -0.237 OA
ATOM     72  O   UNL A   1      41.572  23.150  28.231  1.00  0.00    -0.744 OA
ENDBRANCH  65  69
ENDBRANCH  48  62
BRANCH  49  73
ATOM     73  C   UNL A   1      39.260  32.649  36.181  1.00  0.00     0.023 A 
ATOM     74  C   UNL A   1      38.382  32.090  37.122  1.00  0.00     0.031 A 
ATOM     75  C   UNL A   1      39.808  33.914  36.457  1.00  0.00     0.131 A 
ATOM     76  C   UNL A   1      38.059  32.805  38.286  1.00  0.00     0.055 A 
ATOM     77  C   UNL A   1      39.520  34.601  37.637  1.00  0.00     0.041 A 
ATOM     78  F   UNL A   1      40.655  34.492  35.590  1.00  0.00    -0.206 F 
ATOM     79  C   UNL A   1      38.634  34.049  38.557  1.00  0.00     0.022 A 
BRANCH  76  80
ATOM     80  S   UNL A   1      36.836  32.106  39.429  1.00  0.00     0.124 S 
ATOM     81  O   UNL A   1      37.025  30.674  39.228  1.00  0.00    -0.237 OA
ATOM     82  O   UNL A   1      37.279  32.638  40.712  1.00  0.00    -0.237 OA
ATOM     83  O   UNL A   1      35.567  32.644  38.940  1.00  0.00    -0.744 OA
ENDBRANCH  76  80
ENDBRANCH  49  73
BRANCH  61  84
ATOM     84  C   UNL A   1      44.288  28.121  34.460  1.00  0.00     0.023 A 
ATOM     85  C   UNL A   1      44.225  26.921  35.191  1.00  0.00     0.031 A 
ATOM     86  C   UNL A   1      45.502  28.831  34.464  1.00  0.00     0.131 A 
ATOM     87  C   UNL A   1      45.337  26.492  35.934  1.00  0.00     0.055 A 
ATOM     88  C   UNL A   1      46.623  28.370  35.157  1.00  0.00     0.041 A 
ATOM     89  F   UNL A   1      45.620  29.986  33.790  1.00  0.00    -0.206 F 
ATOM     90  C   UNL A   1      46.540  27.202  35.909  1.00  0.00     0.022 A 
BRANCH  87  91
ATOM     91  S   UNL A   1      45.164  25.041  37.010  1.00  0.00     0.124 S 
ATOM     92  O   UNL A   1      44.250  24.201  36.243  1.00  0.00    -0.237 OA
ATOM     93  O   UNL A   1      46.538  24.562  37.111  1.00  0.00    -0.237 OA
ATOM     94  O   UNL A   1      44.609  25.594  38.244  1.00  0.00    -0.744 OA
ENDBRANCH  87  91
ENDBRANCH  61  84
ENDBRANCH  35  36
ENDBRANCH  27  30
ENDBRANCH  25  26
ENDBRANCH   1  25
TORSDOF 16
ENDMDL
MODEL 2
REMARK VINA RESULT:     -12.1      5.226     10.546
REMARK SMILES CN1CCN(C(=O)N2CC[C@@H](CC(=O)NCCCNC(=O)c3ccc(-c4c5nc(c(-c6cc(S(=O)(=O)[O-])ccc6F)c6ccc([nH]6)c(-c6cc(S(=O)(=O)[O-])ccc6F)c6nc(c(-c7cc(S(=O)(=O)[O-])ccc7F)c7ccc4[nH]7)C=C6)C=C5)cc3)C2)C(C)(C)C1=O
REMARK SMILES IDX 17 1 16 2 15 3 13 4 14 5 12 7 11 8 8 9 9 10 85 11 10 12 6 13
REMARK SMILES IDX 7 14 5 15 1 16 2 17 3 18 89 19 4 20 86 21 90 22 87 23 88 24
REMARK SMILES IDX 18 25 19 26 20 27 21 29 22 30 23 31 84 32 24 33 83 34 25 35
REMARK SMILES IDX 26 36 27 37 77 38 28 39 82 40 76 41 78 42 29 43 81 44 75 45
REMARK SMILES IDX 74 46 30 48 62 49 42 50 61 51 43 52 46 53 60 54 79 55 44 56
REMARK SMILES IDX 45 57 59 59 80 60 47 61 31 62 32 63 40 64 33 65 39 66 41 67
REMARK SMILES IDX 38 68 34 69 35 70 36 71 37 72 63 73 64 74 72 75 65 76 71 77
REMARK SMILES IDX 73 78 70 79 66 80 67 81 68 82 69 83 48 84 49 85 57 86 50 87
REMARK SMILES IDX 56 88 58 89 55 90 51 91 52 92 53 93 54 94
REMARK H PARENT 15 6 19 28 78 47 46 58
REMARK Flexibility Score: inf
ROOT
ATOM      1  C   UNL A   1      35.244  22.272  26.551  1.00  0.00     0.042 C 
ENDROOT
BRANCH   1   2
ATOM      2  C   UNL A   1      33.802  21.745  26.644  1.00  0.00     0.117 C 
BRANCH   2   3
ATOM      3  N   UNL A   1      32.786  22.665  27.135  1.00  0.00    -0.356 N 
ATOM      4  C   UNL A   1      31.497  22.888  26.744  1.00  0.00     0.220 C 
ATOM      5  O   UNL A   1      30.793  23.616  27.449  1.00  0.00    -0.275 OA
ATOM      6  H   UNL A   1      33.082  23.228  27.886  1.00  0.00     0.163 HD
BRANCH   4   7
ATOM      7  C   UNL A   1      30.958  22.334  25.437  1.00  0.00     0.105 C 
BRANCH   7   8
ATOM      8  C   UNL A   1      31.369  23.131  24.193  1.00  0.00     0.020 C 
ATOM      9  N   UNL A   1      32.899  24.693  23.344  1.00  0.00    -0.324 N 
ATOM     10  C   UNL A   1      33.555  23.433  23.130  1.00  0.00     0.122 C 
ATOM     11  C   UNL A   1      31.949  24.547  24.436  1.00  0.00     0.125 C 
ATOM     12  C   UNL A   1      32.420  22.454  23.283  1.00  0.00     0.027 C 
BRANCH   9  13
ATOM     13  C   UNL A   1      33.098  25.844  22.623  1.00  0.00     0.320 C 
ATOM     14  O   UNL A   1      33.924  25.920  21.716  1.00  0.00    -0.248 OA
BRANCH  13  15
ATOM     15  N   UNL A   1      32.257  26.903  22.957  1.00  0.00    -0.309 N 
ATOM     16  C   UNL A   1      29.587  30.194  23.741  1.00  0.00     0.146 C 
ATOM     17  N   UNL A   1      30.516  29.109  23.474  1.00  0.00    -0.342 N 
ATOM     18  C   UNL A   1      30.112  28.075  22.532  1.00  0.00     0.140 C 
ATOM     19  C   UNL A   1      31.605  28.918  24.317  1.00  0.00     0.247 C 
ATOM     20  C   UNL A   1      31.263  27.254  21.950  1.00  0.00     0.144 C 
ATOM     21  C   UNL A   1      32.781  28.077  23.732  1.00  0.00     0.118 C 
ATOM     22  O   UNL A   1      31.722  29.533  25.379  1.00  0.00    -0.272 OA
ATOM     23  C   UNL A   1      33.583  29.021  22.809  1.00  0.00     0.045 C 
ATOM     24  C   UNL A   1      33.704  27.735  24.912  1.00  0.00     0.045 C 
ENDBRANCH  13  15
ENDBRANCH   9  13
ENDBRANCH   7   8
ENDBRANCH   4   7
ENDBRANCH   2   3
ENDBRANCH   1   2
BRANCH   1  25
ATOM     25  C   UNL A   1      36.033  21.985  25.267  1.00  0.00     0.118 C 
BRANCH  25  26
ATOM     26  N   UNL A   1      36.977  20.895  25.434  1.00  0.00    -0.352 N 
ATOM     27  C   UNL A   1      38.328  20.914  25.700  1.00  0.00     0.251 C 
ATOM     28  H   UNL A   1      36.589  19.996  25.339  1.00  0.00     0.163 HD
ATOM     29  O   UNL A   1      38.964  19.876  25.519  1.00  0.00    -0.269 OA
BRANCH  27  30
ATOM     30  C   UNL A   1      39.038  22.128  26.189  1.00  0.00     0.039 A 
ATOM     31  C   UNL A   1      38.592  23.380  25.745  1.00  0.00     0.014 A 
ATOM     32  C   UNL A   1      40.197  22.060  26.968  1.00  0.00     0.014 A 
ATOM     33  C   UNL A   1      39.280  24.550  26.096  1.00  0.00     0.010 A 
ATOM     34  C   UNL A   1      40.860  23.236  27.357  1.00  0.00     0.010 A 
ATOM     35  C   UNL A   1      40.416  24.494  26.917  1.00  0.00    -0.014 A 
BRANCH  35  36
ATOM     36  C   UNL A   1      41.137  25.743  27.310  1.00  0.00     0.031 A 
ATOM     37  C   UNL A   1      40.456  26.807  28.133  1.00  0.00     0.074 A 
ATOM     38  C   UNL A   1      42.406  25.943  26.899  1.00  0.00     0.049 A 
ATOM     39  N   UNL A   1      40.913  27.967  28.538  1.00  0.00    -0.248 NA
ATOM     40  C   UNL A   1      39.071  26.535  28.539  1.00  0.00     0.031 C 
ATOM     41  C   UNL A   1      43.175  25.014  26.072  1.00  0.00     0.029 A 
ATOM     42  N   UNL A   1      43.266  26.994  27.108  1.00  0.00    -0.354 N 
ATOM     43  C   UNL A   1      39.870  28.572  29.232  1.00  0.00     0.074 A 
ATOM     44  C   UNL A   1      38.743  27.664  29.149  1.00  0.00     0.031 C 
ATOM     45  C   UNL A   1      44.392  25.533  25.845  1.00  0.00     0.029 A 
ATOM     46  C   UNL A   1      44.478  26.848  26.474  1.00  0.00     0.049 A 
ATOM     47  H   UNL A   1      43.037  27.778  27.657  1.00  0.00     0.167 HD
ATOM     48  C   UNL A   1      39.853  29.764  29.886  1.00  0.00     0.034 A 
ATOM     49  C   UNL A   1      45.535  27.681  26.385  1.00  0.00     0.034 A 
ATOM     50  C   UNL A   1      40.985  30.661  29.961  1.00  0.00     0.049 A 
ATOM     51  C   UNL A   1      45.492  29.011  27.094  1.00  0.00     0.074 A 
ATOM     52  C   UNL A   1      41.095  31.854  30.659  1.00  0.00     0.029 A 
ATOM     53  N   UNL A   1      42.195  30.481  29.301  1.00  0.00    -0.354 N 
ATOM     54  N   UNL A   1      44.520  29.540  27.797  1.00  0.00    -0.248 NA
ATOM     55  C   UNL A   1      46.695  29.848  27.003  1.00  0.00     0.031 C 
ATOM     56  C   UNL A   1      42.336  32.429  30.357  1.00  0.00     0.029 A 
ATOM     57  C   UNL A   1      43.037  31.560  29.538  1.00  0.00     0.049 A 
ATOM     58  H   UNL A   1      42.422  29.701  28.746  1.00  0.00     0.167 HD
ATOM     59  C   UNL A   1      45.002  30.765  28.250  1.00  0.00     0.074 A 
ATOM     60  C   UNL A   1      46.356  30.888  27.752  1.00  0.00     0.031 C 
ATOM     61  C   UNL A   1      44.378  31.699  29.016  1.00  0.00     0.034 A 
BRANCH  48  62
ATOM     62  C   UNL A   1      38.552  30.181  30.536  1.00  0.00     0.023 A 
ATOM     63  C   UNL A   1      37.563  30.892  29.832  1.00  0.00     0.031 A 
ATOM     64  C   UNL A   1      38.310  29.897  31.893  1.00  0.00     0.131 A 
ATOM     65  C   UNL A   1      36.431  31.375  30.506  1.00  0.00     0.055 A 
ATOM     66  C   UNL A   1      37.138  30.303  32.535  1.00  0.00     0.041 A 
ATOM     67  F   UNL A   1      39.218  29.233  32.625  1.00  0.00    -0.206 F 
ATOM     68  C   UNL A   1      36.199  31.065  31.847  1.00  0.00     0.022 A 
BRANCH  65  69
ATOM     69  S   UNL A   1      35.355  32.559  29.648  1.00  0.00     0.124 S 
ATOM     70  O   UNL A   1      36.309  33.590  29.248  1.00  0.00    -0.237 OA
ATOM     71  O   UNL A   1      34.792  31.754  28.574  1.00  0.00    -0.237 OA
ATOM     72  O   UNL A   1      34.406  32.971  30.685  1.00  0.00    -0.744 OA
ENDBRANCH  65  69
ENDBRANCH  48  62
BRANCH  49  73
ATOM     73  C   UNL A   1      46.719  27.291  25.568  1.00  0.00     0.023 A 
ATOM     74  C   UNL A   1      46.882  27.750  24.252  1.00  0.00     0.031 A 
ATOM     75  C   UNL A   1      47.707  26.443  26.100  1.00  0.00     0.131 A 
ATOM     76  C   UNL A   1      47.996  27.340  23.503  1.00  0.00     0.055 A 
ATOM     77  C   UNL A   1      48.836  26.076  25.368  1.00  0.00     0.041 A 
ATOM     78  F   UNL A   1      47.599  25.978  27.355  1.00  0.00    -0.206 F 
ATOM     79  C   UNL A   1      48.981  26.519  24.057  1.00  0.00     0.022 A 
BRANCH  76  80
ATOM     80  S   UNL A   1      48.121  27.859  21.769  1.00  0.00     0.124 S 
ATOM     81  O   UNL A   1      46.814  28.465  21.545  1.00  0.00    -0.237 OA
ATOM     82  O   UNL A   1      49.255  28.776  21.807  1.00  0.00    -0.237 OA
ATOM     83  O   UNL A   1      48.361  26.607  21.055  1.00  0.00    -0.744 OA
ENDBRANCH  76  80
ENDBRANCH  49  73
BRANCH  61  84
ATOM     84  C   UNL A   1      45.174  32.930  29.384  1.00  0.00     0.023 A 
ATOM     85  C   UNL A   1      45.156  34.091  28.591  1.00  0.00     0.031 A 
ATOM     86  C   UNL A   1      45.976  32.934  30.541  1.00  0.00     0.131 A 
ATOM     87  C   UNL A   1      45.961  35.188  28.936  1.00  0.00     0.055 A 
ATOM     88  C   UNL A   1      46.729  34.050  30.910  1.00  0.00     0.041 A 
ATOM     89  F   UNL A   1      46.038  31.853  31.334  1.00  0.00    -0.206 F 
ATOM     90  C   UNL A   1      46.736  35.181  30.099  1.00  0.00     0.022 A 
BRANCH  87  91
ATOM     91  S   UNL A   1      46.056  36.596  27.795  1.00  0.00     0.124 S 
ATOM     92  O   UNL A   1      44.669  37.049  27.754  1.00  0.00    -0.237 OA
ATOM     93  O   UNL A   1      46.997  37.483  28.470  1.00  0.00    -0.237 OA
ATOM     94  O   UNL A   1      46.548  36.000  26.554  1.00  0.00    -0.744 OA
ENDBRANCH  87  91
ENDBRANCH  61  84
ENDBRANCH  35  36
ENDBRANCH  27  30
ENDBRANCH  25  26
ENDBRANCH   1  25
TORSDOF 16
ENDMDL
MODEL 3
REMARK VINA RESULT:     -12.1      5.935     11.347
REMARK SMILES CN1CCN(C(=O)N2CC[C@@H](CC(=O)NCCCNC(=O)c3ccc(-c4c5nc(c(-c6cc(S(=O)(=O)[O-])ccc6F)c6ccc([nH]6)c(-c6cc(S(=O)(=O)[O-])ccc6F)c6nc(c(-c7cc(S(=O)(=O)[O-])ccc7F)c7ccc4[nH]7)C=C6)C=C5)cc3)C2)C(C)(C)C1=O
REMARK SMILES IDX 17 1 16 2 15 3 13 4 14 5 12 7 11 8 8 9 9 10 85 11 10 12 6 13
REMARK SMILES IDX 7 14 5 15 1 16 2 17 3 18 89 19 4 20 86 21 90 22 87 23 88 24
REMARK SMILES IDX 18 25 19 26 20 27 21 29 22 30 23 31 84 32 24 33 83 34 25 35
REMARK SMILES IDX 26 36 27 37 77 38 28 39 82 40 76 41 78 42 29 43 81 44 75 45
REMARK SMILES IDX 74 46 30 48 62 49 42 50 61 51 43 52 46 53 60 54 79 55 44 56
REMARK SMILES IDX 45 57 59 59 80 60 47 61 31 62 32 63 40 64 33 65 39 66 41 67
REMARK SMILES IDX 38 68 34 69 35 70 36 71 37 72 63 73 64 74 72 75 65 76 71 77
REMARK SMILES IDX 73 78 70 79 66 80 67 81 68 82 69 83 48 84 49 85 57 86 50 87
REMARK SMILES IDX 56 88 58 89 55 90 51 91 52 92 53 93 54 94
REMARK H PARENT 15 6 19 28 78 47 46 58
REMARK Flexibility Score: inf
ROOT
ATOM      1  C   UNL A   1      37.949  19.838  25.134  1.00  0.00     0.042 C 
ENDROOT
BRANCH   1   2
ATOM      2  C   UNL A   1      36.822  20.786  24.690  1.00  0.00     0.117 C 
BRANCH   2   3
ATOM      3  N   UNL A   1      35.479  20.499  25.173  1.00  0.00    -0.356 N 
ATOM      4  C   UNL A   1      34.589  21.251  25.884  1.00  0.00     0.220 C 
ATOM      5  O   UNL A   1      33.440  20.820  26.017  1.00  0.00    -0.275 OA
ATOM      6  H   UNL A   1      35.154  19.598  24.946  1.00  0.00     0.163 HD
BRANCH   4   7
ATOM      7  C   UNL A   1      35.008  22.540  26.568  1.00  0.00     0.105 C 
BRANCH   7   8
ATOM      8  C   UNL A   1      34.516  23.815  25.872  1.00  0.00     0.020 C 
ATOM      9  N   UNL A   1      33.370  24.653  24.005  1.00  0.00    -0.324 N 
ATOM     10  C   UNL A   1      32.322  24.398  24.953  1.00  0.00     0.122 C 
ATOM     11  C   UNL A   1      34.507  23.801  24.323  1.00  0.00     0.125 C 
ATOM     12  C   UNL A   1      33.087  24.271  26.245  1.00  0.00     0.027 C 
BRANCH   9  13
ATOM     13  C   UNL A   1      33.336  25.569  22.983  1.00  0.00     0.320 C 
ATOM     14  O   UNL A   1      33.995  25.435  21.955  1.00  0.00    -0.248 OA
BRANCH  13  15
ATOM     15  N   UNL A   1      32.458  26.633  23.174  1.00  0.00    -0.309 N 
ATOM     16  C   UNL A   1      29.675  29.907  23.514  1.00  0.00     0.146 C 
ATOM     17  N   UNL A   1      30.642  28.828  23.394  1.00  0.00    -0.342 N 
ATOM     18  C   UNL A   1      30.278  27.667  22.593  1.00  0.00     0.140 C 
ATOM     19  C   UNL A   1      31.730  28.786  24.257  1.00  0.00     0.247 C 
ATOM     20  C   UNL A   1      31.460  26.816  22.127  1.00  0.00     0.144 C 
ATOM     21  C   UNL A   1      32.938  27.916  23.790  1.00  0.00     0.118 C 
ATOM     22  O   UNL A   1      31.819  29.538  25.229  1.00  0.00    -0.272 OA
ATOM     23  C   UNL A   1      33.715  28.757  22.753  1.00  0.00     0.045 C 
ATOM     24  C   UNL A   1      33.863  27.763  25.007  1.00  0.00     0.045 C 
ENDBRANCH  13  15
ENDBRANCH   9  13
ENDBRANCH   7   8
ENDBRANCH   4   7
ENDBRANCH   2   3
ENDBRANCH   1   2
BRANCH   1  25
ATOM     25  C   UNL A   1      39.099  20.427  25.962  1.00  0.00     0.118 C 
BRANCH  25  26
ATOM     26  N   UNL A   1      40.206  19.498  26.102  1.00  0.00    -0.352 N 
ATOM     27  C   UNL A   1      41.563  19.724  26.149  1.00  0.00     0.251 C 
ATOM     28  H   UNL A   1      39.943  18.552  26.175  1.00  0.00     0.163 HD
ATOM     29  O   UNL A   1      42.312  18.759  25.991  1.00  0.00    -0.269 OA
BRANCH  27  30
ATOM     30  C   UNL A   1      42.151  21.073  26.377  1.00  0.00     0.039 A 
ATOM     31  C   UNL A   1      42.490  21.434  27.688  1.00  0.00     0.014 A 
ATOM     32  C   UNL A   1      42.260  22.028  25.362  1.00  0.00     0.014 A 
ATOM     33  C   UNL A   1      42.958  22.724  27.975  1.00  0.00     0.010 A 
ATOM     34  C   UNL A   1      42.772  23.306  25.643  1.00  0.00     0.010 A 
ATOM     35  C   UNL A   1      43.116  23.673  26.954  1.00  0.00    -0.014 A 
BRANCH  35  36
ATOM     36  C   UNL A   1      43.635  25.042  27.256  1.00  0.00     0.031 A 
ATOM     37  C   UNL A   1      42.740  26.097  27.856  1.00  0.00     0.074 A 
ATOM     38  C   UNL A   1      44.914  25.354  26.964  1.00  0.00     0.049 A 
ATOM     39  N   UNL A   1      43.008  27.346  28.152  1.00  0.00    -0.248 NA
ATOM     40  C   UNL A   1      41.356  25.697  28.140  1.00  0.00     0.031 C 
ATOM     41  C   UNL A   1      45.881  24.443  26.352  1.00  0.00     0.029 A 
ATOM     42  N   UNL A   1      45.616  26.525  27.125  1.00  0.00    -0.354 N 
ATOM     43  C   UNL A   1      41.824  27.887  28.644  1.00  0.00     0.074 A 
ATOM     44  C   UNL A   1      40.828  26.837  28.559  1.00  0.00     0.031 C 
ATOM     45  C   UNL A   1      47.049  25.085  26.193  1.00  0.00     0.029 A 
ATOM     46  C   UNL A   1      46.906  26.464  26.652  1.00  0.00     0.049 A 
ATOM     47  H   UNL A   1      45.232  27.331  27.540  1.00  0.00     0.167 HD
ATOM     48  C   UNL A   1      41.590  29.134  29.132  1.00  0.00     0.034 A 
ATOM     49  C   UNL A   1      47.863  27.411  26.570  1.00  0.00     0.034 A 
ATOM     50  C   UNL A   1      42.594  30.173  29.212  1.00  0.00     0.049 A 
ATOM     51  C   UNL A   1      47.581  28.797  27.090  1.00  0.00     0.074 A 
ATOM     52  C   UNL A   1      42.479  31.443  29.756  1.00  0.00     0.029 A 
ATOM     53  N   UNL A   1      43.889  30.075  28.717  1.00  0.00    -0.354 N 
ATOM     54  N   UNL A   1      46.474  29.274  27.609  1.00  0.00    -0.248 NA
ATOM     55  C   UNL A   1      48.681  29.766  27.023  1.00  0.00     0.031 C 
ATOM     56  C   UNL A   1      43.674  32.135  29.519  1.00  0.00     0.029 A 
ATOM     57  C   UNL A   1      44.565  31.274  28.901  1.00  0.00     0.049 A 
ATOM     58  H   UNL A   1      44.270  29.272  28.295  1.00  0.00     0.167 HD
ATOM     59  C   UNL A   1      46.753  30.595  27.948  1.00  0.00     0.074 A 
ATOM     60  C   UNL A   1      48.135  30.834  27.589  1.00  0.00     0.031 C 
ATOM     61  C   UNL A   1      45.936  31.523  28.514  1.00  0.00     0.034 A 
BRANCH  48  62
ATOM     62  C   UNL A   1      40.180  29.453  29.577  1.00  0.00     0.023 A 
ATOM     63  C   UNL A   1      39.837  29.569  30.937  1.00  0.00     0.031 A 
ATOM     64  C   UNL A   1      39.151  29.606  28.629  1.00  0.00     0.131 A 
ATOM     65  C   UNL A   1      38.494  29.734  31.311  1.00  0.00     0.055 A 
ATOM     66  C   UNL A   1      37.830  29.860  29.007  1.00  0.00     0.041 A 
ATOM     67  F   UNL A   1      39.408  29.494  27.317  1.00  0.00    -0.206 F 
ATOM     68  C   UNL A   1      37.491  29.904  30.355  1.00  0.00     0.022 A 
BRANCH  65  69
ATOM     69  S   UNL A   1      38.057  29.547  33.063  1.00  0.00     0.124 S 
ATOM     70  O   UNL A   1      37.221  28.350  33.033  1.00  0.00    -0.237 OA
ATOM     71  O   UNL A   1      39.358  29.405  33.699  1.00  0.00    -0.237 OA
ATOM     72  O   UNL A   1      37.342  30.787  33.370  1.00  0.00    -0.744 OA
ENDBRANCH  65  69
ENDBRANCH  48  62
BRANCH  49  73
ATOM     73  C   UNL A   1      49.175  27.084  25.944  1.00  0.00     0.023 A 
ATOM     74  C   UNL A   1      49.443  27.396  24.602  1.00  0.00     0.031 A 
ATOM     75  C   UNL A   1      50.184  26.448  26.689  1.00  0.00     0.131 A 
ATOM     76  C   UNL A   1      50.680  27.049  24.039  1.00  0.00     0.055 A 
ATOM     77  C   UNL A   1      51.430  26.147  26.138  1.00  0.00     0.041 A 
ATOM     78  F   UNL A   1      49.979  26.130  27.978  1.00  0.00    -0.206 F 
ATOM     79  C   UNL A   1      51.681  26.441  24.801  1.00  0.00     0.022 A 
BRANCH  76  80
ATOM     80  S   UNL A   1      50.955  27.363  22.273  1.00  0.00     0.124 S 
ATOM     81  O   UNL A   1      50.977  28.821  22.230  1.00  0.00    -0.237 OA
ATOM     82  O   UNL A   1      52.230  26.695  22.039  1.00  0.00    -0.237 OA
ATOM     83  O   UNL A   1      49.800  26.736  21.632  1.00  0.00    -0.744 OA
ENDBRANCH  76  80
ENDBRANCH  49  73
BRANCH  61  84
ATOM     84  C   UNL A   1      46.535  32.881  28.803  1.00  0.00     0.023 A 
ATOM     85  C   UNL A   1      46.468  33.935  27.874  1.00  0.00     0.031 A 
ATOM     86  C   UNL A   1      47.195  33.118  30.022  1.00  0.00     0.131 A 
ATOM     87  C   UNL A   1      47.093  35.160  28.157  1.00  0.00     0.055 A 
ATOM     88  C   UNL A   1      47.765  34.357  30.322  1.00  0.00     0.041 A 
ATOM     89  F   UNL A   1      47.297  32.148  30.945  1.00  0.00    -0.206 F 
ATOM     90  C   UNL A   1      47.728  35.382  29.382  1.00  0.00     0.022 A 
BRANCH  87  91
ATOM     91  S   UNL A   1      47.147  36.433  26.865  1.00  0.00     0.124 S 
ATOM     92  O   UNL A   1      45.741  36.550  26.494  1.00  0.00    -0.237 OA
ATOM     93  O   UNL A   1      47.715  37.574  27.575  1.00  0.00    -0.237 OA
ATOM     94  O   UNL A   1      48.011  35.848  25.842  1.00  0.00    -0.744 OA
ENDBRANCH  87  91
ENDBRANCH  61  84
ENDBRANCH  35  36
ENDBRANCH  27  30
ENDBRANCH  25  26
ENDBRANCH   1  25
TORSDOF 16
ENDMDL
