MODEL 1
REMARK VINA RESULT:     -11.8      0.000      0.000
REMARK SMILES Cc1ccc(N2C(=O)/C(=C\c3ccccc3O[C@H](C)C(=O)NCCCNC(=O)c3ccc(-c4c5nc(c(-c6cc(S(=O)(=O)[O-])ccc6F)c6ccc([nH]6)c(-c6cc(S(=O)(=O)[O-])ccc6F)c6nc(c(-c7cc(S(=O)(=O)[O-])ccc7F)c7ccc4[nH]7)C=C6)C=C5)cc3)SC2=S)c(C)c1
REMARK SMILES IDX 23 1 22 2 20 3 21 4 18 6 19 7 17 8 16 9 11 10 12 11 13 12
REMARK SMILES IDX 15 13 14 14 10 15 6 16 7 17 93 18 8 19 9 20 92 21 94 22 5 23
REMARK SMILES IDX 1 24 2 25 3 26 97 27 4 28 95 29 96 30 24 31 25 32 26 33
REMARK SMILES IDX 27 34 28 36 29 37 30 38 91 39 31 40 90 41 32 42 33 43 34 44
REMARK SMILES IDX 84 45 35 46 89 47 83 48 85 49 36 50 88 51 82 52 81 53 37 55
REMARK SMILES IDX 69 56 49 57 68 58 50 59 53 60 67 61 86 62 51 63 52 64 66 66
REMARK SMILES IDX 87 67 54 68 38 69 39 70 47 71 40 72 46 73 48 74 45 75 41 76
REMARK SMILES IDX 42 77 43 78 44 79 70 80 71 81 79 82 72 83 78 84 80 85 77 86
REMARK SMILES IDX 73 87 74 88 75 89 76 90 55 91 56 92 64 93 57 94 63 95 65 96
REMARK SMILES IDX 62 97 58 98 59 99 60 100 61 101
REMARK H PARENT 22 5 26 35 85 54 53 65
REMARK Flexibility Score: inf
ROOT
ATOM      1  C   UNL A   1      31.500  30.283  25.683  1.00  0.00     0.118 C 
ENDROOT
BRANCH   1   2
ATOM      2  N   UNL A   1      30.648  30.094  24.516  1.00  0.00    -0.353 N 
ATOM      3  C   UNL A   1      30.805  29.253  23.441  1.00  0.00     0.260 C 
ATOM      4  O   UNL A   1      29.893  29.207  22.610  1.00  0.00    -0.271 OA
ATOM      5  H   UNL A   1      29.839  30.652  24.494  1.00  0.00     0.163 HD
BRANCH   3   6
ATOM      6  C   UNL A   1      32.093  28.429  23.267  1.00  0.00     0.258 C 
ATOM      7  C   UNL A   1      33.001  28.697  24.461  1.00  0.00     0.064 C 
BRANCH   6   8
ATOM      8  O   UNL A   1      31.607  27.105  23.085  1.00  0.00    -0.480 OA
BRANCH   8   9
ATOM      9  C   UNL A   1      31.953  26.256  22.084  1.00  0.00     0.127 A 
ATOM     10  C   UNL A   1      32.087  24.907  22.486  1.00  0.00     0.018 A 
ATOM     11  C   UNL A   1      32.567  23.952  21.584  1.00  0.00     0.012 A 
ATOM     12  C   UNL A   1      32.864  24.321  20.274  1.00  0.00     0.001 A 
ATOM     13  C   UNL A   1      32.198  26.601  20.760  1.00  0.00     0.047 A 
ATOM     14  C   UNL A   1      32.662  25.637  19.860  1.00  0.00     0.004 A 
BRANCH  10  15
ATOM     15  C   UNL A   1      31.720  24.470  23.845  1.00  0.00     0.033 C 
ATOM     16  N   UNL A   1      34.585  23.133  25.701  1.00  0.00    -0.261 N 
ATOM     17  C   UNL A   1      34.058  23.790  24.592  1.00  0.00     0.270 C 
ATOM     18  C   UNL A   1      33.699  22.835  26.722  1.00  0.00     0.152 C 
ATOM     19  O   UNL A   1      34.689  24.187  23.619  1.00  0.00    -0.268 OA
ATOM     20  C   UNL A   1      32.581  23.963  24.744  1.00  0.00     0.081 C 
ATOM     21  S   UNL A   1      32.076  23.365  26.278  1.00  0.00    -0.054 SA
ATOM     22  S   UNL A   1      33.998  22.188  28.238  1.00  0.00    -0.051 S 
BRANCH  16  23
ATOM     23  C   UNL A   1      35.966  22.763  25.701  1.00  0.00     0.054 A 
ATOM     24  C   UNL A   1      40.133  21.689  26.151  1.00  0.00     0.044 C 
ATOM     25  C   UNL A   1      38.698  22.083  25.970  1.00  0.00    -0.051 A 
ATOM     26  C   UNL A   1      38.269  23.385  26.225  1.00  0.00     0.005 A 
ATOM     27  C   UNL A   1      37.759  21.129  25.563  1.00  0.00     0.009 A 
ATOM     28  C   UNL A   1      36.918  23.720  26.096  1.00  0.00     0.027 A 
ATOM     29  C   UNL A   1      36.398  21.454  25.405  1.00  0.00    -0.027 A 
ATOM     30  C   UNL A   1      35.484  20.358  24.927  1.00  0.00     0.046 C 
ENDBRANCH  16  23
ENDBRANCH  10  15
ENDBRANCH   8   9
ENDBRANCH   6   8
ENDBRANCH   3   6
ENDBRANCH   1   2
BRANCH   1  31
ATOM     31  C   UNL A   1      31.396  31.678  26.283  1.00  0.00     0.042 C 
BRANCH  31  32
ATOM     32  C   UNL A   1      32.687  32.178  26.918  1.00  0.00     0.118 C 
BRANCH  32  33
ATOM     33  N   UNL A   1      32.574  33.545  27.405  1.00  0.00    -0.352 N 
ATOM     34  C   UNL A   1      33.243  34.194  28.415  1.00  0.00     0.251 C 
ATOM     35  H   UNL A   1      31.909  34.097  26.934  1.00  0.00     0.163 HD
ATOM     36  O   UNL A   1      32.832  35.288  28.790  1.00  0.00    -0.269 OA
BRANCH  34  37
ATOM     37  C   UNL A   1      34.428  33.584  29.063  1.00  0.00     0.039 A 
ATOM     38  C   UNL A   1      35.685  34.157  28.843  1.00  0.00     0.014 A 
ATOM     39  C   UNL A   1      34.321  32.433  29.848  1.00  0.00     0.014 A 
ATOM     40  C   UNL A   1      36.817  33.618  29.463  1.00  0.00     0.010 A 
ATOM     41  C   UNL A   1      35.434  31.948  30.531  1.00  0.00     0.010 A 
ATOM     42  C   UNL A   1      36.696  32.532  30.343  1.00  0.00    -0.014 A 
BRANCH  42  43
ATOM     43  C   UNL A   1      37.874  31.983  31.067  1.00  0.00     0.031 A 
ATOM     44  C   UNL A   1      38.689  30.875  30.452  1.00  0.00     0.074 A 
ATOM     45  C   UNL A   1      38.164  32.430  32.305  1.00  0.00     0.049 A 
ATOM     46  N   UNL A   1      39.684  30.198  30.963  1.00  0.00    -0.248 NA
ATOM     47  C   UNL A   1      38.311  30.456  29.094  1.00  0.00     0.031 C 
ATOM     48  C   UNL A   1      37.428  33.473  33.023  1.00  0.00     0.029 A 
ATOM     49  N   UNL A   1      39.148  32.056  33.187  1.00  0.00    -0.354 N 
ATOM     50  C   UNL A   1      40.035  29.255  30.002  1.00  0.00     0.074 A 
ATOM     51  C   UNL A   1      39.111  29.419  28.899  1.00  0.00     0.031 C 
ATOM     52  C   UNL A   1      38.000  33.672  34.220  1.00  0.00     0.029 A 
ATOM     53  C   UNL A   1      39.112  32.740  34.380  1.00  0.00     0.049 A 
ATOM     54  H   UNL A   1      39.817  31.364  32.984  1.00  0.00     0.167 HD
ATOM     55  C   UNL A   1      41.045  28.349  30.030  1.00  0.00     0.034 A 
ATOM     56  C   UNL A   1      39.878  32.622  35.482  1.00  0.00     0.034 A 
ATOM     57  C   UNL A   1      41.976  28.220  31.124  1.00  0.00     0.049 A 
ATOM     58  C   UNL A   1      40.987  31.600  35.492  1.00  0.00     0.074 A 
ATOM     59  C   UNL A   1      43.080  27.390  31.223  1.00  0.00     0.029 A 
ATOM     60  N   UNL A   1      41.910  28.934  32.313  1.00  0.00    -0.354 N 
ATOM     61  N   UNL A   1      41.337  30.752  34.553  1.00  0.00    -0.248 NA
ATOM     62  C   UNL A   1      41.807  31.527  36.708  1.00  0.00     0.031 C 
ATOM     63  C   UNL A   1      43.642  27.555  32.493  1.00  0.00     0.029 A 
ATOM     64  C   UNL A   1      42.934  28.540  33.162  1.00  0.00     0.049 A 
ATOM     65  H   UNL A   1      41.236  29.619  32.524  1.00  0.00     0.167 HD
ATOM     66  C   UNL A   1      42.443  30.069  35.054  1.00  0.00     0.074 A 
ATOM     67  C   UNL A   1      42.704  30.612  36.371  1.00  0.00     0.031 C 
ATOM     68  C   UNL A   1      43.179  29.086  34.475  1.00  0.00     0.034 A 
BRANCH  55  69
ATOM     69  C   UNL A   1      41.174  27.412  28.852  1.00  0.00     0.023 A 
ATOM     70  C   UNL A   1      42.169  27.584  27.874  1.00  0.00     0.031 A 
ATOM     71  C   UNL A   1      40.278  26.340  28.698  1.00  0.00     0.131 A 
ATOM     72  C   UNL A   1      42.198  26.744  26.750  1.00  0.00     0.055 A 
ATOM     73  C   UNL A   1      40.362  25.459  27.618  1.00  0.00     0.041 A 
ATOM     74  F   UNL A   1      39.295  26.137  29.590  1.00  0.00    -0.206 F 
ATOM     75  C   UNL A   1      41.317  25.667  26.627  1.00  0.00     0.022 A 
BRANCH  72  76
ATOM     76  S   UNL A   1      43.317  27.161  25.385  1.00  0.00     0.124 S 
ATOM     77  O   UNL A   1      43.634  25.838  24.850  1.00  0.00    -0.237 OA
ATOM     78  O   UNL A   1      42.483  28.008  24.541  1.00  0.00    -0.237 OA
ATOM     79  O   UNL A   1      44.428  27.840  26.048  1.00  0.00    -0.744 OA
ENDBRANCH  72  76
ENDBRANCH  55  69
BRANCH  56  80
ATOM     80  C   UNL A   1      39.630  33.480  36.676  1.00  0.00     0.023 A 
ATOM     81  C   UNL A   1      38.977  32.967  37.808  1.00  0.00     0.031 A 
ATOM     82  C   UNL A   1      39.995  34.838  36.684  1.00  0.00     0.131 A 
ATOM     83  C   UNL A   1      38.663  33.815  38.880  1.00  0.00     0.055 A 
ATOM     84  C   UNL A   1      39.726  35.666  37.775  1.00  0.00     0.041 A 
ATOM     85  F   UNL A   1      40.626  35.378  35.629  1.00  0.00    -0.206 F 
ATOM     86  C   UNL A   1      39.043  35.159  38.876  1.00  0.00     0.022 A 
BRANCH  83  87
ATOM     87  S   UNL A   1      37.668  33.156  40.245  1.00  0.00     0.124 S 
ATOM     88  O   UNL A   1      36.443  32.763  39.557  1.00  0.00    -0.237 OA
ATOM     89  O   UNL A   1      38.507  32.069  40.733  1.00  0.00    -0.237 OA
ATOM     90  O   UNL A   1      37.536  34.295  41.151  1.00  0.00    -0.744 OA
ENDBRANCH  83  87
ENDBRANCH  56  80
BRANCH  68  91
ATOM     91  C   UNL A   1      44.368  28.577  35.251  1.00  0.00     0.023 A 
ATOM     92  C   UNL A   1      44.246  27.556  36.209  1.00  0.00     0.031 A 
ATOM     93  C   UNL A   1      45.641  29.137  35.038  1.00  0.00     0.131 A 
ATOM     94  C   UNL A   1      45.365  27.163  36.958  1.00  0.00     0.055 A 
ATOM     95  C   UNL A   1      46.762  28.701  35.744  1.00  0.00     0.041 A 
ATOM     96  F   UNL A   1      45.813  30.117  34.136  1.00  0.00    -0.206 F 
ATOM     97  C   UNL A   1      46.626  27.718  36.720  1.00  0.00     0.022 A 
BRANCH  94  98
ATOM     98  S   UNL A   1      45.138  25.976  38.310  1.00  0.00     0.124 S 
ATOM     99  O   UNL A   1      43.959  26.509  38.987  1.00  0.00    -0.237 OA
ATOM    100  O   UNL A   1      44.945  24.719  37.593  1.00  0.00    -0.237 OA
ATOM    101  O   UNL A   1      46.384  26.072  39.066  1.00  0.00    -0.744 OA
ENDBRANCH  94  98
ENDBRANCH  68  91
ENDBRANCH  42  43
ENDBRANCH  34  37
ENDBRANCH  32  33
ENDBRANCH  31  32
ENDBRANCH   1  31
TORSDOF 17
ENDMDL
MODEL 2
REMARK VINA RESULT:     -11.7      5.681     10.318
REMARK SMILES Cc1ccc(N2C(=O)/C(=C\c3ccccc3O[C@H](C)C(=O)NCCCNC(=O)c3ccc(-c4c5nc(c(-c6cc(S(=O)(=O)[O-])ccc6F)c6ccc([nH]6)c(-c6cc(S(=O)(=O)[O-])ccc6F)c6nc(c(-c7cc(S(=O)(=O)[O-])ccc7F)c7ccc4[nH]7)C=C6)C=C5)cc3)SC2=S)c(C)c1
REMARK SMILES IDX 23 1 22 2 20 3 21 4 18 6 19 7 17 8 16 9 11 10 12 11 13 12
REMARK SMILES IDX 15 13 14 14 10 15 6 16 7 17 93 18 8 19 9 20 92 21 94 22 5 23
REMARK SMILES IDX 1 24 2 25 3 26 97 27 4 28 95 29 96 30 24 31 25 32 26 33
REMARK SMILES IDX 27 34 28 36 29 37 30 38 91 39 31 40 90 41 32 42 33 43 34 44
REMARK SMILES IDX 84 45 35 46 89 47 83 48 85 49 36 50 88 51 82 52 81 53 37 55
REMARK SMILES IDX 69 56 49 57 68 58 50 59 53 60 67 61 86 62 51 63 52 64 66 66
REMARK SMILES IDX 87 67 54 68 38 69 39 70 47 71 40 72 46 73 48 74 45 75 41 76
REMARK SMILES IDX 42 77 43 78 44 79 70 80 71 81 79 82 72 83 78 84 80 85 77 86
REMARK SMILES IDX 73 87 74 88 75 89 76 90 55 91 56 92 64 93 57 94 63 95 65 96
REMARK SMILES IDX 62 97 58 98 59 99 60 100 61 101
REMARK H PARENT 22 5 26 35 85 54 53 65
REMARK Flexibility Score: inf
ROOT
ATOM      1  C   UNL A   1      44.168  32.413  26.283  1.00  0.00     0.118 C 
ENDROOT
BRANCH   1   2
ATOM      2  N   UNL A   1      45.175  31.434  25.893  1.00  0.00    -0.353 N 
ATOM      3  C   UNL A   1      45.304  30.115  26.255  1.00  0.00     0.260 C 
ATOM      4  O   UNL A   1      46.200  29.457  25.719  1.00  0.00    -0.271 OA
ATOM      5  H   UNL A   1      45.867  31.767  25.279  1.00  0.00     0.163 HD
BRANCH   3   6
ATOM      6  C   UNL A   1      44.383  29.497  27.322  1.00  0.00     0.258 C 
ATOM      7  C   UNL A   1      42.984  29.366  26.732  1.00  0.00     0.064 C 
BRANCH   6   8
ATOM      8  O   UNL A   1      45.065  28.303  27.685  1.00  0.00    -0.480 OA
BRANCH   8   9
ATOM      9  C   UNL A   1      44.555  27.046  27.643  1.00  0.00     0.127 A 
ATOM     10  C   UNL A   1      44.206  26.517  28.907  1.00  0.00     0.018 A 
ATOM     11  C   UNL A   1      43.793  25.185  29.018  1.00  0.00     0.012 A 
ATOM     12  C   UNL A   1      43.678  24.395  27.876  1.00  0.00     0.001 A 
ATOM     13  C   UNL A   1      44.380  26.266  26.505  1.00  0.00     0.047 A 
ATOM     14  C   UNL A   1      43.953  24.941  26.624  1.00  0.00     0.004 A 
BRANCH  10  15
ATOM     15  C   UNL A   1      44.254  27.344  30.126  1.00  0.00     0.033 C 
ATOM     16  N   UNL A   1      41.070  29.036  30.787  1.00  0.00    -0.261 N 
ATOM     17  C   UNL A   1      41.825  28.109  30.073  1.00  0.00     0.270 C 
ATOM     18  C   UNL A   1      41.698  29.657  31.854  1.00  0.00     0.152 C 
ATOM     19  O   UNL A   1      41.431  27.420  29.140  1.00  0.00    -0.268 OA
ATOM     20  C   UNL A   1      43.220  28.053  30.610  1.00  0.00     0.081 C 
ATOM     21  S   UNL A   1      43.365  29.092  31.976  1.00  0.00    -0.054 SA
ATOM     22  S   UNL A   1      41.068  30.702  33.001  1.00  0.00    -0.051 S 
BRANCH  16  23
ATOM     23  C   UNL A   1      39.738  29.330  30.356  1.00  0.00     0.054 A 
ATOM     24  C   UNL A   1      35.817  30.014  28.661  1.00  0.00     0.044 C 
ATOM     25  C   UNL A   1      37.177  29.810  29.258  1.00  0.00    -0.051 A 
ATOM     26  C   UNL A   1      38.292  30.482  28.761  1.00  0.00     0.005 A 
ATOM     27  C   UNL A   1      37.345  28.912  30.318  1.00  0.00     0.009 A 
ATOM     28  C   UNL A   1      39.559  30.241  29.301  1.00  0.00     0.027 A 
ATOM     29  C   UNL A   1      38.610  28.674  30.890  1.00  0.00    -0.027 A 
ATOM     30  C   UNL A   1      38.667  27.715  32.049  1.00  0.00     0.046 C 
ENDBRANCH  16  23
ENDBRANCH  10  15
ENDBRANCH   8   9
ENDBRANCH   6   8
ENDBRANCH   3   6
ENDBRANCH   1   2
BRANCH   1  31
ATOM     31  C   UNL A   1      43.869  33.432  25.193  1.00  0.00     0.042 C 
BRANCH  31  32
ATOM     32  C   UNL A   1      43.675  34.852  25.708  1.00  0.00     0.118 C 
BRANCH  32  33
ATOM     33  N   UNL A   1      44.913  35.441  26.196  1.00  0.00    -0.352 N 
ATOM     34  C   UNL A   1      45.276  35.845  27.459  1.00  0.00     0.251 C 
ATOM     35  H   UNL A   1      45.605  35.573  25.509  1.00  0.00     0.163 HD
ATOM     36  O   UNL A   1      46.298  36.512  27.596  1.00  0.00    -0.269 OA
BRANCH  34  37
ATOM     37  C   UNL A   1      44.447  35.505  28.638  1.00  0.00     0.039 A 
ATOM     38  C   UNL A   1      44.343  34.166  29.025  1.00  0.00     0.014 A 
ATOM     39  C   UNL A   1      43.739  36.484  29.341  1.00  0.00     0.014 A 
ATOM     40  C   UNL A   1      43.589  33.819  30.151  1.00  0.00     0.010 A 
ATOM     41  C   UNL A   1      43.057  36.150  30.508  1.00  0.00     0.010 A 
ATOM     42  C   UNL A   1      42.970  34.813  30.925  1.00  0.00    -0.014 A 
BRANCH  42  43
ATOM     43  C   UNL A   1      42.219  34.477  32.164  1.00  0.00     0.031 A 
ATOM     44  C   UNL A   1      40.713  34.427  32.143  1.00  0.00     0.074 A 
ATOM     45  C   UNL A   1      42.887  34.291  33.320  1.00  0.00     0.049 A 
ATOM     46  N   UNL A   1      39.877  34.254  33.134  1.00  0.00    -0.248 NA
ATOM     47  C   UNL A   1      40.065  34.630  30.839  1.00  0.00     0.031 C 
ATOM     48  C   UNL A   1      44.342  34.349  33.475  1.00  0.00     0.029 A 
ATOM     49  N   UNL A   1      42.431  34.026  34.588  1.00  0.00    -0.354 N 
ATOM     50  C   UNL A   1      38.605  34.353  32.580  1.00  0.00     0.074 A 
ATOM     51  C   UNL A   1      38.785  34.651  31.174  1.00  0.00     0.031 C 
ATOM     52  C   UNL A   1      44.659  34.103  34.756  1.00  0.00     0.029 A 
ATOM     53  C   UNL A   1      43.432  33.917  35.525  1.00  0.00     0.049 A 
ATOM     54  H   UNL A   1      41.477  33.923  34.806  1.00  0.00     0.167 HD
ATOM     55  C   UNL A   1      37.401  34.193  33.183  1.00  0.00     0.034 A 
ATOM     56  C   UNL A   1      43.369  33.706  36.855  1.00  0.00     0.034 A 
ATOM     57  C   UNL A   1      37.240  33.866  34.579  1.00  0.00     0.049 A 
ATOM     58  C   UNL A   1      42.018  33.542  37.503  1.00  0.00     0.074 A 
ATOM     59  C   UNL A   1      36.071  33.606  35.274  1.00  0.00     0.029 A 
ATOM     60  N   UNL A   1      38.278  33.759  35.495  1.00  0.00    -0.354 N 
ATOM     61  N   UNL A   1      40.827  33.587  36.953  1.00  0.00    -0.248 NA
ATOM     62  C   UNL A   1      42.005  33.290  38.950  1.00  0.00     0.031 C 
ATOM     63  C   UNL A   1      36.395  33.406  36.620  1.00  0.00     0.029 A 
ATOM     64  C   UNL A   1      37.773  33.469  36.754  1.00  0.00     0.049 A 
ATOM     65  H   UNL A   1      39.232  33.872  35.283  1.00  0.00     0.167 HD
ATOM     66  C   UNL A   1      39.925  33.334  37.983  1.00  0.00     0.074 A 
ATOM     67  C   UNL A   1      40.711  33.127  39.182  1.00  0.00     0.031 C 
ATOM     68  C   UNL A   1      38.569  33.272  37.942  1.00  0.00     0.034 A 
BRANCH  55  69
ATOM     69  C   UNL A   1      36.164  34.397  32.339  1.00  0.00     0.023 A 
ATOM     70  C   UNL A   1      35.358  35.541  32.470  1.00  0.00     0.031 A 
ATOM     71  C   UNL A   1      35.777  33.423  31.402  1.00  0.00     0.131 A 
ATOM     72  C   UNL A   1      34.170  35.649  31.730  1.00  0.00     0.055 A 
ATOM     73  C   UNL A   1      34.636  33.573  30.612  1.00  0.00     0.041 A 
ATOM     74  F   UNL A   1      36.497  32.300  31.247  1.00  0.00    -0.206 F 
ATOM     75  C   UNL A   1      33.816  34.685  30.784  1.00  0.00     0.022 A 
BRANCH  72  76
ATOM     76  S   UNL A   1      33.025  37.000  32.121  1.00  0.00     0.124 S 
ATOM     77  O   UNL A   1      33.678  37.613  33.276  1.00  0.00    -0.237 OA
ATOM     78  O   UNL A   1      33.033  37.785  30.892  1.00  0.00    -0.237 OA
ATOM     79  O   UNL A   1      31.770  36.313  32.415  1.00  0.00    -0.744 OA
ENDBRANCH  72  76
ENDBRANCH  55  69
BRANCH  56  80
ATOM     80  C   UNL A   1      44.614  33.642  37.673  1.00  0.00     0.023 A 
ATOM     81  C   UNL A   1      45.298  32.429  37.847  1.00  0.00     0.031 A 
ATOM     82  C   UNL A   1      45.109  34.780  38.334  1.00  0.00     0.131 A 
ATOM     83  C   UNL A   1      46.409  32.367  38.702  1.00  0.00     0.055 A 
ATOM     84  C   UNL A   1      46.247  34.725  39.143  1.00  0.00     0.041 A 
ATOM     85  F   UNL A   1      44.496  35.966  38.197  1.00  0.00    -0.206 F 
ATOM     86  C   UNL A   1      46.895  33.510  39.342  1.00  0.00     0.022 A 
BRANCH  83  87
ATOM     87  S   UNL A   1      47.158  30.750  39.037  1.00  0.00     0.124 S 
ATOM     88  O   UNL A   1      48.567  31.100  39.185  1.00  0.00    -0.237 OA
ATOM     89  O   UNL A   1      46.466  30.344  40.255  1.00  0.00    -0.237 OA
ATOM     90  O   UNL A   1      46.830  29.970  37.846  1.00  0.00    -0.744 OA
ENDBRANCH  83  87
ENDBRANCH  56  80
BRANCH  68  91
ATOM     91  C   UNL A   1      37.862  32.916  39.226  1.00  0.00     0.023 A 
ATOM     92  C   UNL A   1      37.832  33.794  40.323  1.00  0.00     0.031 A 
ATOM     93  C   UNL A   1      37.223  31.670  39.356  1.00  0.00     0.131 A 
ATOM     94  C   UNL A   1      37.224  33.392  41.522  1.00  0.00     0.055 A 
ATOM     95  C   UNL A   1      36.570  31.299  40.532  1.00  0.00     0.041 A 
ATOM     96  F   UNL A   1      37.225  30.792  38.340  1.00  0.00    -0.206 F 
ATOM     97  C   UNL A   1      36.578  32.157  41.628  1.00  0.00     0.022 A 
BRANCH  94  98
ATOM     98  S   UNL A   1      37.361  34.472  42.973  1.00  0.00     0.124 S 
ATOM     99  O   UNL A   1      37.951  35.677  42.399  1.00  0.00    -0.237 OA
ATOM    100  O   UNL A   1      35.973  34.588  43.408  1.00  0.00    -0.237 OA
ATOM    101  O   UNL A   1      38.232  33.724  43.877  1.00  0.00    -0.744 OA
ENDBRANCH  94  98
ENDBRANCH  68  91
ENDBRANCH  42  43
ENDBRANCH  34  37
ENDBRANCH  32  33
ENDBRANCH  31  32
ENDBRANCH   1  31
TORSDOF 17
ENDMDL
MODEL 3
REMARK VINA RESULT:     -11.7      5.388     10.007
REMARK SMILES Cc1ccc(N2C(=O)/C(=C\c3ccccc3O[C@H](C)C(=O)NCCCNC(=O)c3ccc(-c4c5nc(c(-c6cc(S(=O)(=O)[O-])ccc6F)c6ccc([nH]6)c(-c6cc(S(=O)(=O)[O-])ccc6F)c6nc(c(-c7cc(S(=O)(=O)[O-])ccc7F)c7ccc4[nH]7)C=C6)C=C5)cc3)SC2=S)c(C)c1
REMARK SMILES IDX 23 1 22 2 20 3 21 4 18 6 19 7 17 8 16 9 11 10 12 11 13 12
REMARK SMILES IDX 15 13 14 14 10 15 6 16 7 17 93 18 8 19 9 20 92 21 94 22 5 23
REMARK SMILES IDX 1 24 2 25 3 26 97 27 4 28 95 29 96 30 24 31 25 32 26 33
REMARK SMILES IDX 27 34 28 36 29 37 30 38 91 39 31 40 90 41 32 42 33 43 34 44
REMARK SMILES IDX 84 45 35 46 89 47 83 48 85 49 36 50 88 51 82 52 81 53 37 55
REMARK SMILES IDX 69 56 49 57 68 58 50 59 53 60 67 61 86 62 51 63 52 64 66 66
REMARK SMILES IDX 87 67 54 68 38 69 39 70 47 71 40 72 46 73 48 74 45 75 41 76
REMARK SMILES IDX 42 77 43 78 44 79 70 80 71 81 79 82 72 83 78 84 80 85 77 86
REMARK SMILES IDX 73 87 74 88 75 89 76 90 55 91 56 92 64 93 57 94 63 95 65 96
REMARK SMILES IDX 62 97 58 98 59 99 60 100 61 101
REMARK H PARENT 22 5 26 35 85 54 53 65
REMARK Flexibility Score: inf
ROOT
ATOM      1  C   UNL A   1      45.724  28.360  26.339  1.00  0.00     0.118 C 
ENDROOT
BRANCH   1   2
ATOM      2  N   UNL A   1      44.457  28.332  25.619  1.00  0.00    -0.353 N 
ATOM      3  C   UNL A   1      43.732  27.260  25.159  1.00  0.00     0.260 C 
ATOM      4  O   UNL A   1      42.631  27.486  24.649  1.00  0.00    -0.271 OA
ATOM      5  H   UNL A   1      44.061  29.213  25.434  1.00  0.00     0.163 HD
BRANCH   3   6
ATOM      6  C   UNL A   1      44.298  25.831  25.244  1.00  0.00     0.258 C 
ATOM      7  C   UNL A   1      45.797  25.890  24.971  1.00  0.00     0.064 C 
BRANCH   6   8
ATOM      8  O   UNL A   1      43.874  25.392  26.529  1.00  0.00    -0.480 OA
BRANCH   8   9
ATOM      9  C   UNL A   1      42.993  24.391  26.781  1.00  0.00     0.127 A 
ATOM     10  C   UNL A   1      42.760  24.155  28.156  1.00  0.00     0.018 A 
ATOM     11  C   UNL A   1      41.976  23.068  28.556  1.00  0.00     0.012 A 
ATOM     12  C   UNL A   1      41.385  22.247  27.598  1.00  0.00     0.001 A 
ATOM     13  C   UNL A   1      42.350  23.601  25.835  1.00  0.00     0.047 A 
ATOM     14  C   UNL A   1      41.557  22.525  26.244  1.00  0.00     0.004 A 
BRANCH  10  15
ATOM     15  C   UNL A   1      43.317  25.042  29.193  1.00  0.00     0.033 C 
ATOM     16  N   UNL A   1      41.055  27.803  30.028  1.00  0.00    -0.261 N 
ATOM     17  C   UNL A   1      41.309  26.598  29.378  1.00  0.00     0.270 C 
ATOM     18  C   UNL A   1      42.051  28.277  30.865  1.00  0.00     0.152 C 
ATOM     19  O   UNL A   1      40.534  25.992  28.648  1.00  0.00    -0.268 OA
ATOM     20  C   UNL A   1      42.688  26.116  29.699  1.00  0.00     0.081 C 
ATOM     21  S   UNL A   1      43.433  27.182  30.828  1.00  0.00    -0.054 SA
ATOM     22  S   UNL A   1      42.037  29.597  31.897  1.00  0.00    -0.051 S 
BRANCH  16  23
ATOM     23  C   UNL A   1      39.833  28.494  29.759  1.00  0.00     0.054 A 
ATOM     24  C   UNL A   1      36.090  30.320  28.583  1.00  0.00     0.044 C 
ATOM     25  C   UNL A   1      37.400  29.718  28.994  1.00  0.00    -0.051 A 
ATOM     26  C   UNL A   1      38.552  29.905  28.232  1.00  0.00     0.005 A 
ATOM     27  C   UNL A   1      37.474  28.933  30.150  1.00  0.00     0.009 A 
ATOM     28  C   UNL A   1      39.753  29.296  28.607  1.00  0.00     0.027 A 
ATOM     29  C   UNL A   1      38.681  28.331  30.557  1.00  0.00    -0.027 A 
ATOM     30  C   UNL A   1      38.653  27.538  31.836  1.00  0.00     0.046 C 
ENDBRANCH  16  23
ENDBRANCH  10  15
ENDBRANCH   8   9
ENDBRANCH   6   8
ENDBRANCH   3   6
ENDBRANCH   1   2
BRANCH   1  31
ATOM     31  C   UNL A   1      46.665  29.455  25.855  1.00  0.00     0.042 C 
BRANCH  31  32
ATOM     32  C   UNL A   1      46.467  30.795  26.549  1.00  0.00     0.118 C 
BRANCH  32  33
ATOM     33  N   UNL A   1      45.774  31.760  25.709  1.00  0.00    -0.352 N 
ATOM     34  C   UNL A   1      44.684  32.555  25.971  1.00  0.00     0.251 C 
ATOM     35  H   UNL A   1      46.146  31.860  24.804  1.00  0.00     0.163 HD
ATOM     36  O   UNL A   1      44.140  33.139  25.038  1.00  0.00    -0.269 OA
BRANCH  34  37
ATOM     37  C   UNL A   1      44.153  32.696  27.347  1.00  0.00     0.039 A 
ATOM     38  C   UNL A   1      44.013  33.979  27.886  1.00  0.00     0.014 A 
ATOM     39  C   UNL A   1      43.831  31.581  28.124  1.00  0.00     0.014 A 
ATOM     40  C   UNL A   1      43.489  34.143  29.172  1.00  0.00     0.010 A 
ATOM     41  C   UNL A   1      43.232  31.748  29.371  1.00  0.00     0.010 A 
ATOM     42  C   UNL A   1      43.058  33.031  29.912  1.00  0.00    -0.014 A 
BRANCH  42  43
ATOM     43  C   UNL A   1      42.436  33.183  31.254  1.00  0.00     0.031 A 
ATOM     44  C   UNL A   1      43.288  33.106  32.494  1.00  0.00     0.074 A 
ATOM     45  C   UNL A   1      41.098  33.316  31.358  1.00  0.00     0.049 A 
ATOM     46  N   UNL A   1      42.923  33.114  33.750  1.00  0.00    -0.248 NA
ATOM     47  C   UNL A   1      44.738  32.972  32.290  1.00  0.00     0.031 C 
ATOM     48  C   UNL A   1      40.162  33.368  30.233  1.00  0.00     0.029 A 
ATOM     49  N   UNL A   1      40.290  33.421  32.463  1.00  0.00    -0.354 N 
ATOM     50  C   UNL A   1      44.094  32.959  34.486  1.00  0.00     0.074 A 
ATOM     51  C   UNL A   1      45.171  32.811  33.530  1.00  0.00     0.031 C 
ATOM     52  C   UNL A   1      38.915  33.519  30.703  1.00  0.00     0.029 A 
ATOM     53  C   UNL A   1      38.951  33.527  32.163  1.00  0.00     0.049 A 
ATOM     54  H   UNL A   1      40.636  33.422  33.384  1.00  0.00     0.167 HD
ATOM     55  C   UNL A   1      44.257  32.959  35.833  1.00  0.00     0.034 A 
ATOM     56  C   UNL A   1      37.875  33.606  32.969  1.00  0.00     0.034 A 
ATOM     57  C   UNL A   1      43.176  33.139  36.771  1.00  0.00     0.049 A 
ATOM     58  C   UNL A   1      38.082  33.593  34.463  1.00  0.00     0.074 A 
ATOM     59  C   UNL A   1      43.239  33.232  38.152  1.00  0.00     0.029 A 
ATOM     60  N   UNL A   1      41.834  33.247  36.429  1.00  0.00    -0.354 N 
ATOM     61  N   UNL A   1      39.202  33.498  35.141  1.00  0.00    -0.248 NA
ATOM     62  C   UNL A   1      36.879  33.705  35.298  1.00  0.00     0.031 C 
ATOM     63  C   UNL A   1      41.934  33.331  38.646  1.00  0.00     0.029 A 
ATOM     64  C   UNL A   1      41.060  33.373  37.572  1.00  0.00     0.049 A 
ATOM     65  H   UNL A   1      41.484  33.236  35.509  1.00  0.00     0.167 HD
ATOM     66  C   UNL A   1      38.839  33.575  36.483  1.00  0.00     0.074 A 
ATOM     67  C   UNL A   1      37.400  33.735  36.515  1.00  0.00     0.031 C 
ATOM     68  C   UNL A   1      39.625  33.525  37.589  1.00  0.00     0.034 A 
BRANCH  55  69
ATOM     69  C   UNL A   1      45.651  32.730  36.368  1.00  0.00     0.023 A 
ATOM     70  C   UNL A   1      46.542  33.794  36.594  1.00  0.00     0.031 A 
ATOM     71  C   UNL A   1      46.102  31.426  36.637  1.00  0.00     0.131 A 
ATOM     72  C   UNL A   1      47.857  33.530  37.007  1.00  0.00     0.055 A 
ATOM     73  C   UNL A   1      47.386  31.176  37.124  1.00  0.00     0.041 A 
ATOM     74  F   UNL A   1      45.302  30.369  36.422  1.00  0.00    -0.206 F 
ATOM     75  C   UNL A   1      48.278  32.230  37.297  1.00  0.00     0.022 A 
BRANCH  72  76
ATOM     76  S   UNL A   1      49.049  34.896  37.028  1.00  0.00     0.124 S 
ATOM     77  O   UNL A   1      50.060  34.419  36.087  1.00  0.00    -0.237 OA
ATOM     78  O   UNL A   1      48.243  36.025  36.582  1.00  0.00    -0.237 OA
ATOM     79  O   UNL A   1      49.483  34.951  38.423  1.00  0.00    -0.744 OA
ENDBRANCH  72  76
ENDBRANCH  55  69
BRANCH  56  80
ATOM     80  C   UNL A   1      36.502  33.698  32.397  1.00  0.00     0.023 A 
ATOM     81  C   UNL A   1      35.814  34.922  32.371  1.00  0.00     0.031 A 
ATOM     82  C   UNL A   1      35.836  32.558  31.914  1.00  0.00     0.131 A 
ATOM     83  C   UNL A   1      34.486  34.971  31.922  1.00  0.00     0.055 A 
ATOM     84  C   UNL A   1      34.532  32.621  31.419  1.00  0.00     0.041 A 
ATOM     85  F   UNL A   1      36.450  31.364  31.910  1.00  0.00    -0.206 F 
ATOM     86  C   UNL A   1      33.844  33.830  31.435  1.00  0.00     0.022 A 
BRANCH  83  87
ATOM     87  S   UNL A   1      33.577  36.533  32.067  1.00  0.00     0.124 S 
ATOM     88  O   UNL A   1      34.518  37.355  32.821  1.00  0.00    -0.237 OA
ATOM     89  O   UNL A   1      33.381  36.900  30.670  1.00  0.00    -0.237 OA
ATOM     90  O   UNL A   1      32.364  36.155  32.788  1.00  0.00    -0.744 OA
ENDBRANCH  83  87
ENDBRANCH  56  80
BRANCH  68  91
ATOM     91  C   UNL A   1      38.939  33.698  38.922  1.00  0.00     0.023 A 
ATOM     92  C   UNL A   1      38.296  32.628  39.568  1.00  0.00     0.031 A 
ATOM     93  C   UNL A   1      38.918  34.958  39.545  1.00  0.00     0.131 A 
ATOM     94  C   UNL A   1      37.610  32.850  40.772  1.00  0.00     0.055 A 
ATOM     95  C   UNL A   1      38.284  35.160  40.771  1.00  0.00     0.041 A 
ATOM     96  F   UNL A   1      39.514  36.015  38.970  1.00  0.00    -0.206 F 
ATOM     97  C   UNL A   1      37.614  34.106  41.386  1.00  0.00     0.022 A 
BRANCH  94  98
ATOM     98  S   UNL A   1      36.639  31.495  41.485  1.00  0.00     0.124 S 
ATOM     99  O   UNL A   1      35.570  31.340  40.504  1.00  0.00    -0.237 OA
ATOM    100  O   UNL A   1      37.613  30.409  41.542  1.00  0.00    -0.237 OA
ATOM    101  O   UNL A   1      36.219  32.019  42.783  1.00  0.00    -0.744 OA
ENDBRANCH  94  98
ENDBRANCH  68  91
ENDBRANCH  42  43
ENDBRANCH  34  37
ENDBRANCH  32  33
ENDBRANCH  31  32
ENDBRANCH   1  31
TORSDOF 17
ENDMDL
