MODEL 1
REMARK VINA RESULT:     -12.7      0.000      0.000
REMARK SMILES C[C@@](CC(=O)Nc1ccc(NC(=O)c2ccco2)cc1)(C(=O)NCCCNC(=O)c1ccc(-c2c3nc(c(-c4cc(S(=O)(=O)[O-])ccc4F)c4ccc([nH]4)c(-c4cc(S(=O)(=O)[O-])ccc4F)c4nc(c(-c5cc(S(=O)(=O)[O-])ccc5F)c5ccc2[nH]5)C=C4)C=C3)cc1)c1ccccc1
REMARK SMILES IDX 24 1 23 2 21 3 22 4 2 6 1 7 3 8 4 9 5 10 6 11 7 13 8 14
REMARK SMILES IDX 20 15 9 16 19 17 10 18 11 19 12 20 13 22 14 23 15 24 18 25
REMARK SMILES IDX 16 26 17 27 93 28 94 29 98 30 95 31 97 32 96 33 25 34 26 35
REMARK SMILES IDX 27 36 28 37 29 39 30 40 31 41 92 42 32 43 91 44 33 45 34 46
REMARK SMILES IDX 35 47 85 48 36 49 90 50 84 51 86 52 37 53 89 54 83 55 82 56
REMARK SMILES IDX 38 58 70 59 50 60 69 61 51 62 54 63 68 64 87 65 52 66 53 67
REMARK SMILES IDX 67 69 88 70 55 71 39 72 40 73 48 74 41 75 47 76 49 77 46 78
REMARK SMILES IDX 42 79 43 80 44 81 45 82 71 83 72 84 80 85 73 86 79 87 81 88
REMARK SMILES IDX 78 89 74 90 75 91 76 92 77 93 56 94 57 95 65 96 58 97 64 98
REMARK SMILES IDX 66 99 63 100 59 101 60 102 61 103 62 104
REMARK H PARENT 23 5 6 12 11 21 27 38 86 57 54 68
REMARK Flexibility Score: inf
ROOT
ATOM      1  C   UNL A   1      34.014  26.207  25.768  1.00  0.00     0.117 C 
ENDROOT
BRANCH   1   2
ATOM      2  N   UNL A   1      34.276  25.633  24.462  1.00  0.00    -0.355 N 
ATOM      3  C   UNL A   1      34.477  24.331  24.075  1.00  0.00     0.230 C 
ATOM      4  O   UNL A   1      34.368  24.108  22.865  1.00  0.00    -0.274 OA
ATOM      5  H   UNL A   1      34.316  26.288  23.728  1.00  0.00     0.163 HD
BRANCH   3   6
ATOM      6  C   UNL A   1      34.883  23.210  25.089  1.00  0.00     0.080 C 
ATOM      7  C   UNL A   1      36.426  23.116  25.038  1.00  0.00     0.027 C 
BRANCH   6   8
ATOM      8  C   UNL A   1      34.252  23.447  26.506  1.00  0.00     0.121 C 
BRANCH   8   9
ATOM      9  C   UNL A   1      33.017  22.761  27.040  1.00  0.00     0.225 C 
ATOM     10  O   UNL A   1      33.156  21.796  27.805  1.00  0.00    -0.275 OA
ATOM     11  N   UNL A   1      31.738  23.103  26.744  1.00  0.00    -0.326 N 
ATOM     12  H   UNL A   1      31.080  22.519  27.185  1.00  0.00     0.169 HD
BRANCH  11  13
ATOM     13  C   UNL A   1      31.133  24.091  25.959  1.00  0.00     0.041 A 
ATOM     14  C   UNL A   1      30.930  23.773  24.611  1.00  0.00     0.028 A 
ATOM     15  C   UNL A   1      30.760  25.352  26.405  1.00  0.00     0.028 A 
ATOM     16  C   UNL A   1      30.399  24.716  23.727  1.00  0.00     0.028 A 
ATOM     17  C   UNL A   1      30.284  26.317  25.513  1.00  0.00     0.028 A 
ATOM     18  C   UNL A   1      30.056  25.988  24.183  1.00  0.00     0.041 A 
BRANCH  18  19
ATOM     19  N   UNL A   1      29.476  26.972  23.370  1.00  0.00    -0.319 N 
ATOM     20  C   UNL A   1      30.078  28.009  22.684  1.00  0.00     0.291 C 
ATOM     21  H   UNL A   1      28.498  26.916  23.275  1.00  0.00     0.170 HD
ATOM     22  O   UNL A   1      29.346  28.879  22.207  1.00  0.00    -0.265 OA
BRANCH  20  23
ATOM     23  C   UNL A   1      31.508  27.954  22.452  1.00  0.00     0.191 A 
ATOM     24  C   UNL A   1      32.320  27.003  21.854  1.00  0.00     0.056 A 
ATOM     25  O   UNL A   1      32.279  28.999  22.876  1.00  0.00    -0.459 OA
ATOM     26  C   UNL A   1      33.651  27.462  21.983  1.00  0.00     0.043 A 
ATOM     27  C   UNL A   1      33.571  28.683  22.608  1.00  0.00     0.196 A 
ENDBRANCH  20  23
ENDBRANCH  18  19
ENDBRANCH  11  13
ENDBRANCH   8   9
ENDBRANCH   6   8
BRANCH   6  28
ATOM     28  C   UNL A   1      34.292  21.812  24.607  1.00  0.00    -0.032 A 
ATOM     29  C   UNL A   1      33.108  21.747  23.839  1.00  0.00     0.005 A 
ATOM     30  C   UNL A   1      34.864  20.578  24.977  1.00  0.00     0.005 A 
ATOM     31  C   UNL A   1      32.455  20.537  23.583  1.00  0.00     0.000 A 
ATOM     32  C   UNL A   1      34.217  19.364  24.710  1.00  0.00     0.000 A 
ATOM     33  C   UNL A   1      32.999  19.346  24.040  1.00  0.00     0.000 A 
ENDBRANCH   6  28
ENDBRANCH   3   6
ENDBRANCH   1   2
BRANCH   1  34
ATOM     34  C   UNL A   1      33.946  27.722  25.842  1.00  0.00     0.042 C 
BRANCH  34  35
ATOM     35  C   UNL A   1      33.232  28.283  27.057  1.00  0.00     0.118 C 
BRANCH  35  36
ATOM     36  N   UNL A   1      33.260  29.737  27.123  1.00  0.00    -0.352 N 
ATOM     37  C   UNL A   1      34.188  30.627  27.607  1.00  0.00     0.251 C 
ATOM     38  H   UNL A   1      32.459  30.167  26.746  1.00  0.00     0.163 HD
ATOM     39  O   UNL A   1      33.876  31.816  27.648  1.00  0.00    -0.269 OA
BRANCH  37  40
ATOM     40  C   UNL A   1      35.519  30.198  28.103  1.00  0.00     0.039 A 
ATOM     41  C   UNL A   1      35.619  29.742  29.424  1.00  0.00     0.014 A 
ATOM     42  C   UNL A   1      36.673  30.275  27.324  1.00  0.00     0.014 A 
ATOM     43  C   UNL A   1      36.850  29.312  29.928  1.00  0.00     0.010 A 
ATOM     44  C   UNL A   1      37.871  29.736  27.785  1.00  0.00     0.010 A 
ATOM     45  C   UNL A   1      37.982  29.267  29.100  1.00  0.00    -0.014 A 
BRANCH  45  46
ATOM     46  C   UNL A   1      39.288  28.765  29.603  1.00  0.00     0.031 A 
ATOM     47  C   UNL A   1      39.949  29.421  30.788  1.00  0.00     0.074 A 
ATOM     48  C   UNL A   1      39.903  27.754  28.958  1.00  0.00     0.049 A 
ATOM     49  N   UNL A   1      41.105  29.158  31.344  1.00  0.00    -0.248 NA
ATOM     50  C   UNL A   1      39.236  30.552  31.401  1.00  0.00     0.031 C 
ATOM     51  C   UNL A   1      39.400  27.087  27.754  1.00  0.00     0.029 A 
ATOM     52  N   UNL A   1      41.084  27.109  29.223  1.00  0.00    -0.354 N 
ATOM     53  C   UNL A   1      41.268  30.106  32.350  1.00  0.00     0.074 A 
ATOM     54  C   UNL A   1      40.126  30.991  32.278  1.00  0.00     0.031 C 
ATOM     55  C   UNL A   1      40.245  26.102  27.409  1.00  0.00     0.029 A 
ATOM     56  C   UNL A   1      41.364  26.087  28.345  1.00  0.00     0.049 A 
ATOM     57  H   UNL A   1      41.676  27.355  29.969  1.00  0.00     0.167 HD
ATOM     58  C   UNL A   1      42.261  30.212  33.269  1.00  0.00     0.034 A 
ATOM     59  C   UNL A   1      42.402  25.230  28.305  1.00  0.00     0.034 A 
ATOM     60  C   UNL A   1      43.376  29.299  33.348  1.00  0.00     0.049 A 
ATOM     61  C   UNL A   1      43.460  25.324  29.372  1.00  0.00     0.074 A 
ATOM     62  C   UNL A   1      44.411  29.273  34.267  1.00  0.00     0.029 A 
ATOM     63  N   UNL A   1      43.596  28.241  32.474  1.00  0.00    -0.354 N 
ATOM     64  N   UNL A   1      43.570  26.192  30.351  1.00  0.00    -0.248 NA
ATOM     65  C   UNL A   1      44.515  24.307  29.343  1.00  0.00     0.031 C 
ATOM     66  C   UNL A   1      45.280  28.230  33.922  1.00  0.00     0.029 A 
ATOM     67  C   UNL A   1      44.755  27.565  32.825  1.00  0.00     0.049 A 
ATOM     68  H   UNL A   1      43.015  28.005  31.716  1.00  0.00     0.167 HD
ATOM     69  C   UNL A   1      44.700  25.809  31.069  1.00  0.00     0.074 A 
ATOM     70  C   UNL A   1      45.215  24.617  30.423  1.00  0.00     0.031 C 
ATOM     71  C   UNL A   1      45.262  26.388  32.161  1.00  0.00     0.034 A 
BRANCH  58  72
ATOM     72  C   UNL A   1      42.184  31.367  34.241  1.00  0.00     0.023 A 
ATOM     73  C   UNL A   1      41.294  31.355  35.331  1.00  0.00     0.031 A 
ATOM     74  C   UNL A   1      42.972  32.515  34.053  1.00  0.00     0.131 A 
ATOM     75  C   UNL A   1      41.147  32.499  36.131  1.00  0.00     0.055 A 
ATOM     76  C   UNL A   1      42.885  33.618  34.906  1.00  0.00     0.041 A 
ATOM     77  F   UNL A   1      43.827  32.596  33.021  1.00  0.00    -0.206 F 
ATOM     78  C   UNL A   1      41.955  33.622  35.942  1.00  0.00     0.022 A 
BRANCH  75  79
ATOM     79  S   UNL A   1      39.777  32.553  37.318  1.00  0.00     0.124 S 
ATOM     80  O   UNL A   1      39.034  31.346  36.965  1.00  0.00    -0.237 OA
ATOM     81  O   UNL A   1      40.469  32.524  38.602  1.00  0.00    -0.237 OA
ATOM     82  O   UNL A   1      39.098  33.808  37.002  1.00  0.00    -0.744 OA
ENDBRANCH  75  79
ENDBRANCH  58  72
BRANCH  59  83
ATOM     83  C   UNL A   1      42.481  24.192  27.239  1.00  0.00     0.023 A 
ATOM     84  C   UNL A   1      41.672  23.046  27.289  1.00  0.00     0.031 A 
ATOM     85  C   UNL A   1      43.385  24.319  26.171  1.00  0.00     0.131 A 
ATOM     86  C   UNL A   1      41.814  22.047  26.313  1.00  0.00     0.055 A 
ATOM     87  C   UNL A   1      43.492  23.344  25.178  1.00  0.00     0.041 A 
ATOM     88  F   UNL A   1      44.169  25.405  26.070  1.00  0.00    -0.206 F 
ATOM     89  C   UNL A   1      42.712  22.193  25.253  1.00  0.00     0.022 A 
BRANCH  86  90
ATOM     90  S   UNL A   1      40.852  20.519  26.489  1.00  0.00     0.124 S 
ATOM     91  O   UNL A   1      41.606  19.593  25.651  1.00  0.00    -0.237 OA
ATOM     92  O   UNL A   1      40.920  20.285  27.927  1.00  0.00    -0.237 OA
ATOM     93  O   UNL A   1      39.533  20.888  25.981  1.00  0.00    -0.744 OA
ENDBRANCH  86  90
ENDBRANCH  59  83
BRANCH  71  94
ATOM     94  C   UNL A   1      46.479  25.705  32.733  1.00  0.00     0.023 A 
ATOM     95  C   UNL A   1      46.367  24.698  33.708  1.00  0.00     0.031 A 
ATOM     96  C   UNL A   1      47.766  26.100  32.332  1.00  0.00     0.131 A 
ATOM     97  C   UNL A   1      47.522  24.173  34.304  1.00  0.00     0.055 A 
ATOM     98  C   UNL A   1      48.914  25.530  32.885  1.00  0.00     0.041 A 
ATOM     99  F   UNL A   1      47.930  27.058  31.405  1.00  0.00    -0.206 F 
ATOM    100  C   UNL A   1      48.795  24.574  33.890  1.00  0.00     0.022 A 
BRANCH  97 101
ATOM    101  S   UNL A   1      47.336  23.049  35.716  1.00  0.00     0.124 S 
ATOM    102  O   UNL A   1      46.004  22.498  35.495  1.00  0.00    -0.237 OA
ATOM    103  O   UNL A   1      48.450  22.124  35.525  1.00  0.00    -0.237 OA
ATOM    104  O   UNL A   1      47.457  23.933  36.875  1.00  0.00    -0.744 OA
ENDBRANCH  97 101
ENDBRANCH  71  94
ENDBRANCH  45  46
ENDBRANCH  37  40
ENDBRANCH  35  36
ENDBRANCH  34  35
ENDBRANCH   1  34
TORSDOF 19
ENDMDL
MODEL 2
REMARK VINA RESULT:     -12.7      1.747      2.770
REMARK SMILES C[C@@](CC(=O)Nc1ccc(NC(=O)c2ccco2)cc1)(C(=O)NCCCNC(=O)c1ccc(-c2c3nc(c(-c4cc(S(=O)(=O)[O-])ccc4F)c4ccc([nH]4)c(-c4cc(S(=O)(=O)[O-])ccc4F)c4nc(c(-c5cc(S(=O)(=O)[O-])ccc5F)c5ccc2[nH]5)C=C4)C=C3)cc1)c1ccccc1
REMARK SMILES IDX 24 1 23 2 21 3 22 4 2 6 1 7 3 8 4 9 5 10 6 11 7 13 8 14
REMARK SMILES IDX 20 15 9 16 19 17 10 18 11 19 12 20 13 22 14 23 15 24 18 25
REMARK SMILES IDX 16 26 17 27 93 28 94 29 98 30 95 31 97 32 96 33 25 34 26 35
REMARK SMILES IDX 27 36 28 37 29 39 30 40 31 41 92 42 32 43 91 44 33 45 34 46
REMARK SMILES IDX 35 47 85 48 36 49 90 50 84 51 86 52 37 53 89 54 83 55 82 56
REMARK SMILES IDX 38 58 70 59 50 60 69 61 51 62 54 63 68 64 87 65 52 66 53 67
REMARK SMILES IDX 67 69 88 70 55 71 39 72 40 73 48 74 41 75 47 76 49 77 46 78
REMARK SMILES IDX 42 79 43 80 44 81 45 82 71 83 72 84 80 85 73 86 79 87 81 88
REMARK SMILES IDX 78 89 74 90 75 91 76 92 77 93 56 94 57 95 65 96 58 97 64 98
REMARK SMILES IDX 66 99 63 100 59 101 60 102 61 103 62 104
REMARK H PARENT 23 5 6 12 11 21 27 38 86 57 54 68
REMARK Flexibility Score: inf
ROOT
ATOM      1  C   UNL A   1      33.929  26.210  25.676  1.00  0.00     0.117 C 
ENDROOT
BRANCH   1   2
ATOM      2  N   UNL A   1      33.225  25.027  26.131  1.00  0.00    -0.355 N 
ATOM      3  C   UNL A   1      33.414  23.699  25.839  1.00  0.00     0.230 C 
ATOM      4  O   UNL A   1      32.872  22.898  26.607  1.00  0.00    -0.274 OA
ATOM      5  H   UNL A   1      32.486  25.206  26.757  1.00  0.00     0.163 HD
BRANCH   3   6
ATOM      6  C   UNL A   1      34.210  23.224  24.577  1.00  0.00     0.080 C 
ATOM      7  C   UNL A   1      33.671  21.817  24.228  1.00  0.00     0.027 C 
BRANCH   6   8
ATOM      8  C   UNL A   1      34.166  24.288  23.425  1.00  0.00     0.121 C 
BRANCH   8   9
ATOM      9  C   UNL A   1      33.206  24.276  22.258  1.00  0.00     0.225 C 
ATOM     10  O   UNL A   1      33.292  23.362  21.426  1.00  0.00    -0.275 OA
ATOM     11  N   UNL A   1      32.244  25.203  22.022  1.00  0.00    -0.326 N 
ATOM     12  H   UNL A   1      31.737  25.019  21.199  1.00  0.00     0.169 HD
BRANCH  11  13
ATOM     13  C   UNL A   1      31.803  26.360  22.674  1.00  0.00     0.041 A 
ATOM     14  C   UNL A   1      32.412  27.560  22.289  1.00  0.00     0.028 A 
ATOM     15  C   UNL A   1      30.847  26.397  23.682  1.00  0.00     0.028 A 
ATOM     16  C   UNL A   1      32.093  28.761  22.929  1.00  0.00     0.028 A 
ATOM     17  C   UNL A   1      30.569  27.585  24.363  1.00  0.00     0.028 A 
ATOM     18  C   UNL A   1      31.154  28.778  23.958  1.00  0.00     0.041 A 
BRANCH  18  19
ATOM     19  N   UNL A   1      30.746  29.947  24.616  1.00  0.00    -0.319 N 
ATOM     20  C   UNL A   1      29.961  30.984  24.152  1.00  0.00     0.291 C 
ATOM     21  H   UNL A   1      31.065  30.041  25.542  1.00  0.00     0.170 HD
ATOM     22  O   UNL A   1      29.910  32.011  24.834  1.00  0.00    -0.265 OA
BRANCH  20  23
ATOM     23  C   UNL A   1      29.148  30.770  22.972  1.00  0.00     0.191 A 
ATOM     24  C   UNL A   1      29.020  31.475  21.786  1.00  0.00     0.056 A 
ATOM     25  O   UNL A   1      28.314  29.687  22.941  1.00  0.00    -0.459 OA
ATOM     26  C   UNL A   1      28.014  30.830  21.031  1.00  0.00     0.043 A 
ATOM     27  C   UNL A   1      27.620  29.745  21.777  1.00  0.00     0.196 A 
ENDBRANCH  20  23
ENDBRANCH  18  19
ENDBRANCH  11  13
ENDBRANCH   8   9
ENDBRANCH   6   8
BRANCH   6  28
ATOM     28  C   UNL A   1      35.754  23.080  24.940  1.00  0.00    -0.032 A 
ATOM     29  C   UNL A   1      36.494  21.944  24.539  1.00  0.00     0.005 A 
ATOM     30  C   UNL A   1      36.439  24.022  25.733  1.00  0.00     0.005 A 
ATOM     31  C   UNL A   1      37.783  21.692  25.019  1.00  0.00     0.000 A 
ATOM     32  C   UNL A   1      37.735  23.776  26.204  1.00  0.00     0.000 A 
ATOM     33  C   UNL A   1      38.395  22.598  25.872  1.00  0.00     0.000 A 
ENDBRANCH   6  28
ENDBRANCH   3   6
ENDBRANCH   1   2
BRANCH   1  34
ATOM     34  C   UNL A   1      33.596  27.512  26.382  1.00  0.00     0.042 C 
BRANCH  34  35
ATOM     35  C   UNL A   1      34.204  28.759  25.770  1.00  0.00     0.118 C 
BRANCH  35  36
ATOM     36  N   UNL A   1      33.896  29.975  26.509  1.00  0.00    -0.352 N 
ATOM     37  C   UNL A   1      34.525  30.614  27.549  1.00  0.00     0.251 C 
ATOM     38  H   UNL A   1      33.078  30.429  26.201  1.00  0.00     0.163 HD
ATOM     39  O   UNL A   1      33.952  31.573  28.065  1.00  0.00    -0.269 OA
BRANCH  37  40
ATOM     40  C   UNL A   1      35.837  30.169  28.079  1.00  0.00     0.039 A 
ATOM     41  C   UNL A   1      35.869  29.547  29.334  1.00  0.00     0.014 A 
ATOM     42  C   UNL A   1      37.036  30.387  27.401  1.00  0.00     0.014 A 
ATOM     43  C   UNL A   1      37.081  29.097  29.866  1.00  0.00     0.010 A 
ATOM     44  C   UNL A   1      38.223  29.833  27.874  1.00  0.00     0.010 A 
ATOM     45  C   UNL A   1      38.266  29.200  29.122  1.00  0.00    -0.014 A 
BRANCH  45  46
ATOM     46  C   UNL A   1      39.556  28.680  29.648  1.00  0.00     0.031 A 
ATOM     47  C   UNL A   1      40.211  29.335  30.838  1.00  0.00     0.074 A 
ATOM     48  C   UNL A   1      40.164  27.654  29.020  1.00  0.00     0.049 A 
ATOM     49  N   UNL A   1      41.353  29.058  31.413  1.00  0.00    -0.248 NA
ATOM     50  C   UNL A   1      39.507  30.482  31.431  1.00  0.00     0.031 C 
ATOM     51  C   UNL A   1      39.668  26.986  27.814  1.00  0.00     0.029 A 
ATOM     52  N   UNL A   1      41.330  26.992  29.308  1.00  0.00    -0.354 N 
ATOM     53  C   UNL A   1      41.517  30.012  32.413  1.00  0.00     0.074 A 
ATOM     54  C   UNL A   1      40.391  30.914  32.318  1.00  0.00     0.031 C 
ATOM     55  C   UNL A   1      40.502  25.985  27.490  1.00  0.00     0.029 A 
ATOM     56  C   UNL A   1      41.607  25.959  28.442  1.00  0.00     0.049 A 
ATOM     57  H   UNL A   1      41.915  27.234  30.061  1.00  0.00     0.167 HD
ATOM     58  C   UNL A   1      42.499  30.109  33.346  1.00  0.00     0.034 A 
ATOM     59  C   UNL A   1      42.631  25.085  28.425  1.00  0.00     0.034 A 
ATOM     60  C   UNL A   1      43.597  29.178  33.449  1.00  0.00     0.049 A 
ATOM     61  C   UNL A   1      43.674  25.170  29.506  1.00  0.00     0.074 A 
ATOM     62  C   UNL A   1      44.617  29.143  34.384  1.00  0.00     0.029 A 
ATOM     63  N   UNL A   1      43.813  28.110  32.588  1.00  0.00    -0.354 N 
ATOM     64  N   UNL A   1      43.784  26.045  30.480  1.00  0.00    -0.248 NA
ATOM     65  C   UNL A   1      44.713  24.136  29.501  1.00  0.00     0.031 C 
ATOM     66  C   UNL A   1      45.475  28.083  34.060  1.00  0.00     0.029 A 
ATOM     67  C   UNL A   1      44.955  27.418  32.961  1.00  0.00     0.049 A 
ATOM     68  H   UNL A   1      43.238  27.877  31.822  1.00  0.00     0.167 HD
ATOM     69  C   UNL A   1      44.897  25.649  31.218  1.00  0.00     0.074 A 
ATOM     70  C   UNL A   1      45.402  24.444  30.589  1.00  0.00     0.031 C 
ATOM     71  C   UNL A   1      45.452  26.227  32.313  1.00  0.00     0.034 A 
BRANCH  58  72
ATOM     72  C   UNL A   1      42.425  31.272  34.309  1.00  0.00     0.023 A 
ATOM     73  C   UNL A   1      41.448  31.334  35.318  1.00  0.00     0.031 A 
ATOM     74  C   UNL A   1      43.311  32.357  34.188  1.00  0.00     0.131 A 
ATOM     75  C   UNL A   1      41.320  32.491  36.103  1.00  0.00     0.055 A 
ATOM     76  C   UNL A   1      43.234  33.469  35.030  1.00  0.00     0.041 A 
ATOM     77  F   UNL A   1      44.254  32.367  33.233  1.00  0.00    -0.206 F 
ATOM     78  C   UNL A   1      42.223  33.549  35.983  1.00  0.00     0.022 A 
BRANCH  75  79
ATOM     79  S   UNL A   1      39.862  32.655  37.169  1.00  0.00     0.124 S 
ATOM     80  O   UNL A   1      39.099  31.462  36.810  1.00  0.00    -0.237 OA
ATOM     81  O   UNL A   1      40.446  32.662  38.505  1.00  0.00    -0.237 OA
ATOM     82  O   UNL A   1      39.265  33.919  36.742  1.00  0.00    -0.744 OA
ENDBRANCH  75  79
ENDBRANCH  58  72
BRANCH  59  83
ATOM     83  C   UNL A   1      42.709  24.037  27.368  1.00  0.00     0.023 A 
ATOM     84  C   UNL A   1      42.104  22.783  27.552  1.00  0.00     0.031 A 
ATOM     85  C   UNL A   1      43.411  24.265  26.172  1.00  0.00     0.131 A 
ATOM     86  C   UNL A   1      42.252  21.787  26.575  1.00  0.00     0.055 A 
ATOM     87  C   UNL A   1      43.517  23.286  25.183  1.00  0.00     0.041 A 
ATOM     88  F   UNL A   1      43.992  25.454  25.943  1.00  0.00    -0.206 F 
ATOM     89  C   UNL A   1      42.946  22.033  25.387  1.00  0.00     0.022 A 
BRANCH  86  90
ATOM     90  S   UNL A   1      41.576  20.137  26.909  1.00  0.00     0.124 S 
ATOM     91  O   UNL A   1      42.670  19.510  27.643  1.00  0.00    -0.237 OA
ATOM     92  O   UNL A   1      40.381  20.453  27.685  1.00  0.00    -0.237 OA
ATOM     93  O   UNL A   1      41.327  19.595  25.576  1.00  0.00    -0.744 OA
ENDBRANCH  86  90
ENDBRANCH  59  83
BRANCH  71  94
ATOM     94  C   UNL A   1      46.649  25.529  32.909  1.00  0.00     0.023 A 
ATOM     95  C   UNL A   1      47.942  25.715  32.391  1.00  0.00     0.031 A 
ATOM     96  C   UNL A   1      46.485  24.633  33.979  1.00  0.00     0.131 A 
ATOM     97  C   UNL A   1      49.010  24.957  32.893  1.00  0.00     0.055 A 
ATOM     98  C   UNL A   1      47.562  23.926  34.516  1.00  0.00     0.041 A 
ATOM     99  F   UNL A   1      45.271  24.418  34.512  1.00  0.00    -0.206 F 
ATOM    100  C   UNL A   1      48.830  24.073  33.960  1.00  0.00     0.022 A 
BRANCH  97 101
ATOM    101  S   UNL A   1      50.613  25.051  32.049  1.00  0.00     0.124 S 
ATOM    102  O   UNL A   1      51.263  23.821  32.489  1.00  0.00    -0.237 OA
ATOM    103  O   UNL A   1      50.221  25.098  30.644  1.00  0.00    -0.237 OA
ATOM    104  O   UNL A   1      51.203  26.283  32.570  1.00  0.00    -0.744 OA
ENDBRANCH  97 101
ENDBRANCH  71  94
ENDBRANCH  45  46
ENDBRANCH  37  40
ENDBRANCH  35  36
ENDBRANCH  34  35
ENDBRANCH   1  34
TORSDOF 19
ENDMDL
MODEL 3
REMARK VINA RESULT:     -12.6      1.840      4.295
REMARK SMILES C[C@@](CC(=O)Nc1ccc(NC(=O)c2ccco2)cc1)(C(=O)NCCCNC(=O)c1ccc(-c2c3nc(c(-c4cc(S(=O)(=O)[O-])ccc4F)c4ccc([nH]4)c(-c4cc(S(=O)(=O)[O-])ccc4F)c4nc(c(-c5cc(S(=O)(=O)[O-])ccc5F)c5ccc2[nH]5)C=C4)C=C3)cc1)c1ccccc1
REMARK SMILES IDX 24 1 23 2 21 3 22 4 2 6 1 7 3 8 4 9 5 10 6 11 7 13 8 14
REMARK SMILES IDX 20 15 9 16 19 17 10 18 11 19 12 20 13 22 14 23 15 24 18 25
REMARK SMILES IDX 16 26 17 27 93 28 94 29 98 30 95 31 97 32 96 33 25 34 26 35
REMARK SMILES IDX 27 36 28 37 29 39 30 40 31 41 92 42 32 43 91 44 33 45 34 46
REMARK SMILES IDX 35 47 85 48 36 49 90 50 84 51 86 52 37 53 89 54 83 55 82 56
REMARK SMILES IDX 38 58 70 59 50 60 69 61 51 62 54 63 68 64 87 65 52 66 53 67
REMARK SMILES IDX 67 69 88 70 55 71 39 72 40 73 48 74 41 75 47 76 49 77 46 78
REMARK SMILES IDX 42 79 43 80 44 81 45 82 71 83 72 84 80 85 73 86 79 87 81 88
REMARK SMILES IDX 78 89 74 90 75 91 76 92 77 93 56 94 57 95 65 96 58 97 64 98
REMARK SMILES IDX 66 99 63 100 59 101 60 102 61 103 62 104
REMARK H PARENT 23 5 6 12 11 21 27 38 86 57 54 68
REMARK Flexibility Score: inf
ROOT
ATOM      1  C   UNL A   1      32.034  28.242  24.910  1.00  0.00     0.117 C 
ENDROOT
BRANCH   1   2
ATOM      2  N   UNL A   1      30.719  27.891  24.406  1.00  0.00    -0.355 N 
ATOM      3  C   UNL A   1      30.168  26.671  24.105  1.00  0.00     0.230 C 
ATOM      4  O   UNL A   1      28.938  26.651  23.993  1.00  0.00    -0.274 OA
ATOM      5  H   UNL A   1      30.122  28.659  24.255  1.00  0.00     0.163 HD
BRANCH   3   6
ATOM      6  C   UNL A   1      31.041  25.396  23.855  1.00  0.00     0.080 C 
ATOM      7  C   UNL A   1      30.187  24.450  22.979  1.00  0.00     0.027 C 
BRANCH   6   8
ATOM      8  C   UNL A   1      32.461  25.761  23.297  1.00  0.00     0.121 C 
BRANCH   8   9
ATOM      9  C   UNL A   1      33.174  25.042  22.176  1.00  0.00     0.225 C 
ATOM     10  O   UNL A   1      33.422  25.663  21.133  1.00  0.00    -0.275 OA
ATOM     11  N   UNL A   1      33.566  23.744  22.200  1.00  0.00    -0.326 N 
ATOM     12  H   UNL A   1      34.000  23.466  21.362  1.00  0.00     0.169 HD
BRANCH  11  13
ATOM     13  C   UNL A   1      33.497  22.705  23.136  1.00  0.00     0.041 A 
ATOM     14  C   UNL A   1      32.301  21.981  23.173  1.00  0.00     0.028 A 
ATOM     15  C   UNL A   1      34.501  22.372  24.037  1.00  0.00     0.028 A 
ATOM     16  C   UNL A   1      32.105  20.972  24.120  1.00  0.00     0.028 A 
ATOM     17  C   UNL A   1      34.288  21.404  25.023  1.00  0.00     0.028 A 
ATOM     18  C   UNL A   1      33.109  20.668  25.037  1.00  0.00     0.041 A 
BRANCH  18  19
ATOM     19  N   UNL A   1      33.008  19.640  25.984  1.00  0.00    -0.319 N 
ATOM     20  C   UNL A   1      32.904  18.276  25.789  1.00  0.00     0.291 C 
ATOM     21  H   UNL A   1      33.012  19.932  26.924  1.00  0.00     0.170 HD
ATOM     22  O   UNL A   1      32.611  17.580  26.765  1.00  0.00    -0.265 OA
BRANCH  20  23
ATOM     23  C   UNL A   1      33.265  17.727  24.498  1.00  0.00     0.191 A 
ATOM     24  C   UNL A   1      34.383  17.036  24.058  1.00  0.00     0.056 A 
ATOM     25  O   UNL A   1      32.393  17.878  23.457  1.00  0.00    -0.459 OA
ATOM     26  C   UNL A   1      34.211  16.819  22.672  1.00  0.00     0.043 A 
ATOM     27  C   UNL A   1      32.982  17.347  22.356  1.00  0.00     0.196 A 
ENDBRANCH  20  23
ENDBRANCH  18  19
ENDBRANCH  11  13
ENDBRANCH   8   9
ENDBRANCH   6   8
BRANCH   6  28
ATOM     28  C   UNL A   1      31.323  24.659  25.238  1.00  0.00    -0.032 A 
ATOM     29  C   UNL A   1      32.561  24.807  25.903  1.00  0.00     0.005 A 
ATOM     30  C   UNL A   1      30.400  23.773  25.828  1.00  0.00     0.005 A 
ATOM     31  C   UNL A   1      32.913  24.013  27.000  1.00  0.00     0.000 A 
ATOM     32  C   UNL A   1      30.747  22.987  26.935  1.00  0.00     0.000 A 
ATOM     33  C   UNL A   1      32.013  23.085  27.502  1.00  0.00     0.000 A 
ENDBRANCH   6  28
ENDBRANCH   3   6
ENDBRANCH   1   2
BRANCH   1  34
ATOM     34  C   UNL A   1      32.258  29.702  25.261  1.00  0.00     0.042 C 
BRANCH  34  35
ATOM     35  C   UNL A   1      32.955  29.954  26.584  1.00  0.00     0.118 C 
BRANCH  35  36
ATOM     36  N   UNL A   1      33.017  31.362  26.947  1.00  0.00    -0.352 N 
ATOM     37  C   UNL A   1      33.896  32.086  27.713  1.00  0.00     0.251 C 
ATOM     38  H   UNL A   1      32.286  31.901  26.566  1.00  0.00     0.163 HD
ATOM     39  O   UNL A   1      33.617  33.260  27.954  1.00  0.00    -0.269 OA
BRANCH  37  40
ATOM     40  C   UNL A   1      35.135  31.495  28.276  1.00  0.00     0.039 A 
ATOM     41  C   UNL A   1      36.301  32.272  28.274  1.00  0.00     0.014 A 
ATOM     42  C   UNL A   1      35.193  30.188  28.760  1.00  0.00     0.014 A 
ATOM     43  C   UNL A   1      37.487  31.762  28.809  1.00  0.00     0.010 A 
ATOM     44  C   UNL A   1      36.340  29.724  29.399  1.00  0.00     0.010 A 
ATOM     45  C   UNL A   1      37.508  30.496  29.414  1.00  0.00    -0.014 A 
BRANCH  45  46
ATOM     46  C   UNL A   1      38.748  29.957  30.034  1.00  0.00     0.031 A 
ATOM     47  C   UNL A   1      39.170  30.410  31.408  1.00  0.00     0.074 A 
ATOM     48  C   UNL A   1      39.521  29.102  29.335  1.00  0.00     0.049 A 
ATOM     49  N   UNL A   1      40.237  30.091  32.095  1.00  0.00    -0.248 NA
ATOM     50  C   UNL A   1      38.299  31.386  32.079  1.00  0.00     0.031 C 
ATOM     51  C   UNL A   1      39.258  28.647  27.967  1.00  0.00     0.029 A 
ATOM     52  N   UNL A   1      40.684  28.460  29.678  1.00  0.00    -0.354 N 
ATOM     53  C   UNL A   1      40.179  30.847  33.262  1.00  0.00     0.074 A 
ATOM     54  C   UNL A   1      39.008  31.689  33.155  1.00  0.00     0.031 C 
ATOM     55  C   UNL A   1      40.208  27.770  27.604  1.00  0.00     0.029 A 
ATOM     56  C   UNL A   1      41.164  27.625  28.696  1.00  0.00     0.049 A 
ATOM     57  H   UNL A   1      41.133  28.587  30.544  1.00  0.00     0.167 HD
ATOM     58  C   UNL A   1      41.006  30.819  34.339  1.00  0.00     0.034 A 
ATOM     59  C   UNL A   1      42.247  26.825  28.683  1.00  0.00     0.034 A 
ATOM     60  C   UNL A   1      42.150  29.946  34.444  1.00  0.00     0.049 A 
ATOM     61  C   UNL A   1      43.115  26.761  29.911  1.00  0.00     0.074 A 
ATOM     62  C   UNL A   1      43.026  29.789  35.505  1.00  0.00     0.029 A 
ATOM     63  N   UNL A   1      42.573  29.072  33.450  1.00  0.00    -0.354 N 
ATOM     64  N   UNL A   1      43.014  27.441  31.030  1.00  0.00    -0.248 NA
ATOM     65  C   UNL A   1      44.225  25.803  29.883  1.00  0.00     0.031 C 
ATOM     66  C   UNL A   1      44.004  28.857  35.134  1.00  0.00     0.029 A 
ATOM     67  C   UNL A   1      43.702  28.384  33.867  1.00  0.00     0.049 A 
ATOM     68  H   UNL A   1      42.134  28.957  32.576  1.00  0.00     0.167 HD
ATOM     69  C   UNL A   1      44.038  26.974  31.849  1.00  0.00     0.074 A 
ATOM     70  C   UNL A   1      44.723  25.937  31.102  1.00  0.00     0.031 C 
ATOM     71  C   UNL A   1      44.382  27.364  33.103  1.00  0.00     0.034 A 
BRANCH  58  72
ATOM     72  C   UNL A   1      40.701  31.775  35.470  1.00  0.00     0.023 A 
ATOM     73  C   UNL A   1      39.599  31.582  36.322  1.00  0.00     0.031 A 
ATOM     74  C   UNL A   1      41.492  32.919  35.671  1.00  0.00     0.131 A 
ATOM     75  C   UNL A   1      39.265  32.561  37.270  1.00  0.00     0.055 A 
ATOM     76  C   UNL A   1      41.205  33.847  36.675  1.00  0.00     0.041 A 
ATOM     77  F   UNL A   1      42.547  33.170  34.879  1.00  0.00    -0.206 F 
ATOM     78  C   UNL A   1      40.075  33.680  37.471  1.00  0.00     0.022 A 
BRANCH  75  79
ATOM     79  S   UNL A   1      37.672  32.427  38.127  1.00  0.00     0.124 S 
ATOM     80  O   UNL A   1      37.980  33.035  39.419  1.00  0.00    -0.237 OA
ATOM     81  O   UNL A   1      36.780  33.187  37.259  1.00  0.00    -0.237 OA
ATOM     82  O   UNL A   1      37.425  30.986  38.168  1.00  0.00    -0.744 OA
ENDBRANCH  75  79
ENDBRANCH  58  72
BRANCH  59  83
ATOM     83  C   UNL A   1      42.561  26.001  27.481  1.00  0.00     0.023 A 
ATOM     84  C   UNL A   1      42.141  24.664  27.397  1.00  0.00     0.031 A 
ATOM     85  C   UNL A   1      43.306  26.530  26.414  1.00  0.00     0.131 A 
ATOM     86  C   UNL A   1      42.509  23.885  26.289  1.00  0.00     0.055 A 
ATOM     87  C   UNL A   1      43.631  25.765  25.293  1.00  0.00     0.041 A 
ATOM     88  F   UNL A   1      43.715  27.809  26.441  1.00  0.00    -0.206 F 
ATOM     89  C   UNL A   1      43.243  24.429  25.233  1.00  0.00     0.022 A 
BRANCH  86  90
ATOM     90  S   UNL A   1      42.068  22.125  26.281  1.00  0.00     0.124 S 
ATOM     91  O   UNL A   1      42.570  21.686  27.578  1.00  0.00    -0.237 OA
ATOM     92  O   UNL A   1      40.617  22.179  26.139  1.00  0.00    -0.237 OA
ATOM     93  O   UNL A   1      42.787  21.600  25.123  1.00  0.00    -0.744 OA
ENDBRANCH  86  90
ENDBRANCH  59  83
BRANCH  71  94
ATOM     94  C   UNL A   1      45.534  26.632  33.744  1.00  0.00     0.023 A 
ATOM     95  C   UNL A   1      45.325  25.522  34.582  1.00  0.00     0.031 A 
ATOM     96  C   UNL A   1      46.852  27.079  33.551  1.00  0.00     0.131 A 
ATOM     97  C   UNL A   1      46.410  24.943  35.256  1.00  0.00     0.055 A 
ATOM     98  C   UNL A   1      47.935  26.460  34.176  1.00  0.00     0.041 A 
ATOM     99  F   UNL A   1      47.108  28.135  32.762  1.00  0.00    -0.206 F 
ATOM    100  C   UNL A   1      47.715  25.398  35.049  1.00  0.00     0.022 A 
BRANCH  97 101
ATOM    101  S   UNL A   1      46.077  23.668  36.502  1.00  0.00     0.124 S 
ATOM    102  O   UNL A   1      46.129  24.434  37.743  1.00  0.00    -0.237 OA
ATOM    103  O   UNL A   1      44.758  23.184  36.106  1.00  0.00    -0.237 OA
ATOM    104  O   UNL A   1      47.170  22.714  36.316  1.00  0.00    -0.744 OA
ENDBRANCH  97 101
ENDBRANCH  71  94
ENDBRANCH  45  46
ENDBRANCH  37  40
ENDBRANCH  35  36
ENDBRANCH  34  35
ENDBRANCH   1  34
TORSDOF 19
ENDMDL
