MODEL 1
REMARK VINA RESULT:     -11.4      0.000      0.000
REMARK SMILES C[C@H](CC(=O)NCCCNC(=O)c1ccc(-c2c3nc(c(-c4cc(S(=O)(=O)[O-])ccc4F)c4ccc([nH]4)c(-c4cc(S(=O)(=O)[O-])ccc4F)c4nc(c(-c5cc(S(=O)(=O)[O-])ccc5F)c5ccc2[nH]5)C=C4)C=C3)cc1)NC(=O)Cc1cn2ccsc2n1
REMARK SMILES IDX 7 1 6 2 4 3 5 4 3 6 2 7 1 8 76 9 77 10 78 12 79 13 80 14
REMARK SMILES IDX 81 15 87 16 82 17 86 18 83 19 85 20 84 21 8 22 9 23 10 24
REMARK SMILES IDX 11 25 12 27 13 28 14 29 75 30 15 31 74 32 16 33 17 34 18 35
REMARK SMILES IDX 68 36 19 37 73 38 67 39 69 40 20 41 72 42 66 43 65 44 21 46
REMARK SMILES IDX 53 47 33 48 52 49 34 50 37 51 51 52 70 53 35 54 36 55 50 57
REMARK SMILES IDX 71 58 38 59 22 60 23 61 31 62 24 63 30 64 32 65 29 66 25 67
REMARK SMILES IDX 26 68 27 69 28 70 54 71 55 72 63 73 56 74 62 75 64 76 61 77
REMARK SMILES IDX 57 78 58 79 59 80 60 81 39 82 40 83 48 84 41 85 47 86 49 87
REMARK SMILES IDX 46 88 42 89 43 90 44 91 45 92
REMARK H PARENT 6 5 76 11 10 26 69 45 37 56
REMARK Flexibility Score: inf
ROOT
ATOM      1  C   UNL A   1      31.693  30.844  26.380  1.00  0.00     0.117 C 
ENDROOT
BRANCH   1   2
ATOM      2  N   UNL A   1      33.014  30.334  26.708  1.00  0.00    -0.356 N 
ATOM      3  C   UNL A   1      33.375  29.151  27.273  1.00  0.00     0.222 C 
ATOM      4  O   UNL A   1      34.551  28.986  27.600  1.00  0.00    -0.275 OA
ATOM      5  H   UNL A   1      33.762  30.936  26.487  1.00  0.00     0.163 HD
BRANCH   3   6
ATOM      6  C   UNL A   1      32.364  28.038  27.430  1.00  0.00     0.124 C 
BRANCH   6   7
ATOM      7  C   UNL A   1      32.179  27.072  26.244  1.00  0.00     0.088 C 
ATOM      8  C   UNL A   1      33.497  26.728  25.558  1.00  0.00     0.031 C 
BRANCH   7   9
ATOM      9  N   UNL A   1      31.470  25.857  26.629  1.00  0.00    -0.353 N 
ATOM     10  C   UNL A   1      30.501  25.134  25.993  1.00  0.00     0.226 C 
ATOM     11  H   UNL A   1      31.739  25.492  27.503  1.00  0.00     0.163 HD
ATOM     12  O   UNL A   1      29.789  24.418  26.702  1.00  0.00    -0.275 OA
BRANCH  10  13
ATOM     13  C   UNL A   1      30.391  25.121  24.482  1.00  0.00     0.157 C 
BRANCH  13  14
ATOM     14  C   UNL A   1      29.740  26.311  23.864  1.00  0.00     0.070 A 
ATOM     15  C   UNL A   1      28.419  26.728  23.949  1.00  0.00     0.118 A 
ATOM     16  N   UNL A   1      30.505  27.284  23.216  1.00  0.00    -0.223 NA
ATOM     17  N   UNL A   1      28.368  27.899  23.266  1.00  0.00    -0.297 N 
ATOM     18  C   UNL A   1      29.638  28.204  22.894  1.00  0.00     0.193 A 
ATOM     19  C   UNL A   1      27.396  28.805  22.924  1.00  0.00     0.104 A 
ATOM     20  S   UNL A   1      29.689  29.752  22.109  1.00  0.00    -0.105 S 
ATOM     21  C   UNL A   1      27.924  29.869  22.296  1.00  0.00     0.087 A 
ENDBRANCH  13  14
ENDBRANCH  10  13
ENDBRANCH   7   9
ENDBRANCH   6   7
ENDBRANCH   3   6
ENDBRANCH   1   2
BRANCH   1  22
ATOM     22  C   UNL A   1      31.595  32.329  26.703  1.00  0.00     0.042 C 
BRANCH  22  23
ATOM     23  C   UNL A   1      32.889  32.929  27.221  1.00  0.00     0.118 C 
BRANCH  23  24
ATOM     24  N   UNL A   1      32.695  34.243  27.807  1.00  0.00    -0.352 N 
ATOM     25  C   UNL A   1      33.283  34.791  28.920  1.00  0.00     0.251 C 
ATOM     26  H   UNL A   1      32.051  34.822  27.341  1.00  0.00     0.163 HD
ATOM     27  O   UNL A   1      32.824  35.834  29.388  1.00  0.00    -0.269 OA
BRANCH  25  28
ATOM     28  C   UNL A   1      34.438  34.126  29.566  1.00  0.00     0.039 A 
ATOM     29  C   UNL A   1      35.729  34.420  29.121  1.00  0.00     0.014 A 
ATOM     30  C   UNL A   1      34.256  33.208  30.605  1.00  0.00     0.014 A 
ATOM     31  C   UNL A   1      36.832  33.839  29.753  1.00  0.00     0.010 A 
ATOM     32  C   UNL A   1      35.354  32.719  31.304  1.00  0.00     0.010 A 
ATOM     33  C   UNL A   1      36.657  33.012  30.874  1.00  0.00    -0.014 A 
BRANCH  33  34
ATOM     34  C   UNL A   1      37.813  32.407  31.588  1.00  0.00     0.031 A 
ATOM     35  C   UNL A   1      38.606  31.307  30.929  1.00  0.00     0.074 A 
ATOM     36  C   UNL A   1      38.115  32.797  32.843  1.00  0.00     0.049 A 
ATOM     37  N   UNL A   1      39.576  30.577  31.415  1.00  0.00    -0.248 NA
ATOM     38  C   UNL A   1      38.230  30.959  29.549  1.00  0.00     0.031 C 
ATOM     39  C   UNL A   1      37.404  33.830  33.600  1.00  0.00     0.029 A 
ATOM     40  N   UNL A   1      39.090  32.367  33.708  1.00  0.00    -0.354 N 
ATOM     41  C   UNL A   1      39.911  29.673  30.411  1.00  0.00     0.074 A 
ATOM     42  C   UNL A   1      38.992  29.903  29.318  1.00  0.00     0.031 C 
ATOM     43  C   UNL A   1      37.985  33.973  34.802  1.00  0.00     0.029 A 
ATOM     44  C   UNL A   1      39.069  33.006  34.928  1.00  0.00     0.049 A 
ATOM     45  H   UNL A   1      39.743  31.668  33.477  1.00  0.00     0.167 HD
ATOM     46  C   UNL A   1      40.908  28.755  30.393  1.00  0.00     0.034 A 
ATOM     47  C   UNL A   1      39.825  32.818  36.030  1.00  0.00     0.034 A 
ATOM     48  C   UNL A   1      41.827  28.553  31.485  1.00  0.00     0.049 A 
ATOM     49  C   UNL A   1      40.905  31.765  36.001  1.00  0.00     0.074 A 
ATOM     50  C   UNL A   1      42.908  27.691  31.554  1.00  0.00     0.029 A 
ATOM     51  N   UNL A   1      41.771  29.214  32.706  1.00  0.00    -0.354 N 
ATOM     52  N   UNL A   1      41.236  30.947  35.027  1.00  0.00    -0.248 NA
ATOM     53  C   UNL A   1      41.719  31.614  37.214  1.00  0.00     0.031 C 
ATOM     54  C   UNL A   1      43.454  27.773  32.838  1.00  0.00     0.029 A 
ATOM     55  C   UNL A   1      42.774  28.753  33.545  1.00  0.00     0.049 A 
ATOM     56  H   UNL A   1      41.115  29.910  32.941  1.00  0.00     0.167 HD
ATOM     57  C   UNL A   1      42.320  30.212  35.500  1.00  0.00     0.074 A 
ATOM     58  C   UNL A   1      42.592  30.690  36.840  1.00  0.00     0.031 C 
ATOM     59  C   UNL A   1      43.030  29.235  34.882  1.00  0.00     0.034 A 
BRANCH  46  60
ATOM     60  C   UNL A   1      41.035  27.885  29.163  1.00  0.00     0.023 A 
ATOM     61  C   UNL A   1      42.044  28.095  28.206  1.00  0.00     0.031 A 
ATOM     62  C   UNL A   1      40.119  26.844  28.930  1.00  0.00     0.131 A 
ATOM     63  C   UNL A   1      42.064  27.332  27.028  1.00  0.00     0.055 A 
ATOM     64  C   UNL A   1      40.199  26.029  27.799  1.00  0.00     0.041 A 
ATOM     65  F   UNL A   1      39.118  26.606  29.794  1.00  0.00    -0.206 F 
ATOM     66  C   UNL A   1      41.166  26.282  26.832  1.00  0.00     0.022 A 
BRANCH  63  67
ATOM     67  S   UNL A   1      43.182  27.835  25.690  1.00  0.00     0.124 S 
ATOM     68  O   UNL A   1      44.012  26.642  25.538  1.00  0.00    -0.237 OA
ATOM     69  O   UNL A   1      42.259  28.115  24.597  1.00  0.00    -0.237 OA
ATOM     70  O   UNL A   1      43.872  28.999  26.242  1.00  0.00    -0.744 OA
ENDBRANCH  63  67
ENDBRANCH  46  60
BRANCH  47  71
ATOM     71  C   UNL A   1      39.582  33.627  37.261  1.00  0.00     0.023 A 
ATOM     72  C   UNL A   1      40.312  34.800  37.513  1.00  0.00     0.031 A 
ATOM     73  C   UNL A   1      38.646  33.215  38.227  1.00  0.00     0.131 A 
ATOM     74  C   UNL A   1      40.133  35.490  38.723  1.00  0.00     0.055 A 
ATOM     75  C   UNL A   1      38.426  33.940  39.399  1.00  0.00     0.041 A 
ATOM     76  F   UNL A   1      37.920  32.101  38.038  1.00  0.00    -0.206 F 
ATOM     77  C   UNL A   1      39.182  35.077  39.660  1.00  0.00     0.022 A 
BRANCH  74  78
ATOM     78  S   UNL A   1      41.233  36.883  39.099  1.00  0.00     0.124 S 
ATOM     79  O   UNL A   1      40.277  37.959  39.336  1.00  0.00    -0.237 OA
ATOM     80  O   UNL A   1      41.952  36.393  40.270  1.00  0.00    -0.237 OA
ATOM     81  O   UNL A   1      42.038  37.018  37.887  1.00  0.00    -0.744 OA
ENDBRANCH  74  78
ENDBRANCH  47  71
BRANCH  59  82
ATOM     82  C   UNL A   1      44.209  28.658  35.628  1.00  0.00     0.023 A 
ATOM     83  C   UNL A   1      44.068  27.591  36.532  1.00  0.00     0.031 A 
ATOM     84  C   UNL A   1      45.498  29.182  35.420  1.00  0.00     0.131 A 
ATOM     85  C   UNL A   1      45.189  27.115  37.231  1.00  0.00     0.055 A 
ATOM     86  C   UNL A   1      46.618  28.662  36.068  1.00  0.00     0.041 A 
ATOM     87  F   UNL A   1      45.691  30.203  34.570  1.00  0.00    -0.206 F 
ATOM     88  C   UNL A   1      46.465  27.630  36.990  1.00  0.00     0.022 A 
BRANCH  85  89
ATOM     89  S   UNL A   1      44.944  25.869  38.526  1.00  0.00     0.124 S 
ATOM     90  O   UNL A   1      44.313  24.782  37.786  1.00  0.00    -0.237 OA
ATOM     91  O   UNL A   1      46.306  25.623  38.986  1.00  0.00    -0.237 OA
ATOM     92  O   UNL A   1      44.078  26.546  39.492  1.00  0.00    -0.744 OA
ENDBRANCH  85  89
ENDBRANCH  59  82
ENDBRANCH  33  34
ENDBRANCH  25  28
ENDBRANCH  23  24
ENDBRANCH  22  23
ENDBRANCH   1  22
TORSDOF 17
ENDMDL
MODEL 2
REMARK VINA RESULT:     -11.4      2.077      3.114
REMARK SMILES C[C@H](CC(=O)NCCCNC(=O)c1ccc(-c2c3nc(c(-c4cc(S(=O)(=O)[O-])ccc4F)c4ccc([nH]4)c(-c4cc(S(=O)(=O)[O-])ccc4F)c4nc(c(-c5cc(S(=O)(=O)[O-])ccc5F)c5ccc2[nH]5)C=C4)C=C3)cc1)NC(=O)Cc1cn2ccsc2n1
REMARK SMILES IDX 7 1 6 2 4 3 5 4 3 6 2 7 1 8 76 9 77 10 78 12 79 13 80 14
REMARK SMILES IDX 81 15 87 16 82 17 86 18 83 19 85 20 84 21 8 22 9 23 10 24
REMARK SMILES IDX 11 25 12 27 13 28 14 29 75 30 15 31 74 32 16 33 17 34 18 35
REMARK SMILES IDX 68 36 19 37 73 38 67 39 69 40 20 41 72 42 66 43 65 44 21 46
REMARK SMILES IDX 53 47 33 48 52 49 34 50 37 51 51 52 70 53 35 54 36 55 50 57
REMARK SMILES IDX 71 58 38 59 22 60 23 61 31 62 24 63 30 64 32 65 29 66 25 67
REMARK SMILES IDX 26 68 27 69 28 70 54 71 55 72 63 73 56 74 62 75 64 76 61 77
REMARK SMILES IDX 57 78 58 79 59 80 60 81 39 82 40 83 48 84 41 85 47 86 49 87
REMARK SMILES IDX 46 88 42 89 43 90 44 91 45 92
REMARK H PARENT 6 5 76 11 10 26 69 45 37 56
REMARK Flexibility Score: inf
ROOT
ATOM      1  C   UNL A   1      31.790  30.153  26.311  1.00  0.00     0.117 C 
ENDROOT
BRANCH   1   2
ATOM      2  N   UNL A   1      32.478  30.034  25.035  1.00  0.00    -0.356 N 
ATOM      3  C   UNL A   1      33.007  28.937  24.431  1.00  0.00     0.222 C 
ATOM      4  O   UNL A   1      33.681  29.091  23.412  1.00  0.00    -0.275 OA
ATOM      5  H   UNL A   1      32.575  30.875  24.532  1.00  0.00     0.163 HD
BRANCH   3   6
ATOM      6  C   UNL A   1      32.712  27.553  24.963  1.00  0.00     0.124 C 
BRANCH   6   7
ATOM      7  C   UNL A   1      31.797  26.645  24.119  1.00  0.00     0.088 C 
ATOM      8  C   UNL A   1      30.329  27.054  24.203  1.00  0.00     0.031 C 
BRANCH   7   9
ATOM      9  N   UNL A   1      32.228  26.571  22.728  1.00  0.00    -0.353 N 
ATOM     10  C   UNL A   1      32.724  25.535  21.989  1.00  0.00     0.226 C 
ATOM     11  H   UNL A   1      32.146  27.418  22.233  1.00  0.00     0.163 HD
ATOM     12  O   UNL A   1      33.393  25.834  20.996  1.00  0.00    -0.275 OA
BRANCH  10  13
ATOM     13  C   UNL A   1      32.367  24.097  22.306  1.00  0.00     0.157 C 
BRANCH  13  14
ATOM     14  C   UNL A   1      33.376  23.331  23.091  1.00  0.00     0.070 A 
ATOM     15  C   UNL A   1      33.214  22.155  23.812  1.00  0.00     0.118 A 
ATOM     16  N   UNL A   1      34.729  23.674  23.039  1.00  0.00    -0.223 NA
ATOM     17  N   UNL A   1      34.451  21.847  24.276  1.00  0.00    -0.297 N 
ATOM     18  C   UNL A   1      35.315  22.752  23.751  1.00  0.00     0.193 A 
ATOM     19  C   UNL A   1      34.995  20.869  25.070  1.00  0.00     0.104 A 
ATOM     20  S   UNL A   1      36.949  22.367  24.200  1.00  0.00    -0.105 S 
ATOM     21  C   UNL A   1      36.332  20.990  25.141  1.00  0.00     0.087 A 
ENDBRANCH  13  14
ENDBRANCH  10  13
ENDBRANCH   7   9
ENDBRANCH   6   7
ENDBRANCH   3   6
ENDBRANCH   1   2
BRANCH   1  22
ATOM     22  C   UNL A   1      31.608  31.617  26.689  1.00  0.00     0.042 C 
BRANCH  22  23
ATOM     23  C   UNL A   1      32.860  32.262  27.255  1.00  0.00     0.118 C 
BRANCH  23  24
ATOM     24  N   UNL A   1      32.672  33.672  27.549  1.00  0.00    -0.352 N 
ATOM     25  C   UNL A   1      33.258  34.440  28.524  1.00  0.00     0.251 C 
ATOM     26  H   UNL A   1      32.033  34.142  26.967  1.00  0.00     0.163 HD
ATOM     27  O   UNL A   1      32.803  35.561  28.758  1.00  0.00    -0.269 OA
BRANCH  25  28
ATOM     28  C   UNL A   1      34.406  33.921  29.302  1.00  0.00     0.039 A 
ATOM     29  C   UNL A   1      34.173  33.005  30.330  1.00  0.00     0.014 A 
ATOM     30  C   UNL A   1      35.712  34.339  29.029  1.00  0.00     0.014 A 
ATOM     31  C   UNL A   1      35.250  32.469  31.041  1.00  0.00     0.010 A 
ATOM     32  C   UNL A   1      36.787  33.723  29.660  1.00  0.00     0.010 A 
ATOM     33  C   UNL A   1      36.570  32.794  30.689  1.00  0.00    -0.014 A 
BRANCH  33  34
ATOM     34  C   UNL A   1      37.737  32.213  31.406  1.00  0.00     0.031 A 
ATOM     35  C   UNL A   1      38.541  31.116  30.757  1.00  0.00     0.074 A 
ATOM     36  C   UNL A   1      38.040  32.625  32.654  1.00  0.00     0.049 A 
ATOM     37  N   UNL A   1      39.524  30.405  31.248  1.00  0.00    -0.248 NA
ATOM     38  C   UNL A   1      38.163  30.745  29.384  1.00  0.00     0.031 C 
ATOM     39  C   UNL A   1      37.319  33.658  33.400  1.00  0.00     0.029 A 
ATOM     40  N   UNL A   1      39.025  32.220  33.519  1.00  0.00    -0.354 N 
ATOM     41  C   UNL A   1      39.866  29.492  30.254  1.00  0.00     0.074 A 
ATOM     42  C   UNL A   1      38.939  29.696  29.163  1.00  0.00     0.031 C 
ATOM     43  C   UNL A   1      37.904  33.825  34.597  1.00  0.00     0.029 A 
ATOM     44  C   UNL A   1      39.001  32.874  34.731  1.00  0.00     0.049 A 
ATOM     45  H   UNL A   1      39.687  31.526  33.295  1.00  0.00     0.167 HD
ATOM     46  C   UNL A   1      40.875  28.588  30.243  1.00  0.00     0.034 A 
ATOM     47  C   UNL A   1      39.765  32.711  35.831  1.00  0.00     0.034 A 
ATOM     48  C   UNL A   1      41.802  28.413  31.333  1.00  0.00     0.049 A 
ATOM     49  C   UNL A   1      40.859  31.673  35.811  1.00  0.00     0.074 A 
ATOM     50  C   UNL A   1      42.895  27.567  31.408  1.00  0.00     0.029 A 
ATOM     51  N   UNL A   1      41.743  29.089  32.546  1.00  0.00    -0.354 N 
ATOM     52  N   UNL A   1      41.196  30.846  34.846  1.00  0.00    -0.248 NA
ATOM     53  C   UNL A   1      41.680  31.548  37.021  1.00  0.00     0.031 C 
ATOM     54  C   UNL A   1      43.446  27.672  32.688  1.00  0.00     0.029 A 
ATOM     55  C   UNL A   1      42.756  28.653  33.385  1.00  0.00     0.049 A 
ATOM     56  H   UNL A   1      41.078  29.779  32.775  1.00  0.00     0.167 HD
ATOM     57  C   UNL A   1      42.292  30.132  35.324  1.00  0.00     0.074 A 
ATOM     58  C   UNL A   1      42.564  30.631  36.655  1.00  0.00     0.031 C 
ATOM     59  C   UNL A   1      43.013  29.156  34.714  1.00  0.00     0.034 A 
BRANCH  46  60
ATOM     60  C   UNL A   1      41.008  27.703  29.024  1.00  0.00     0.023 A 
ATOM     61  C   UNL A   1      42.017  27.906  28.066  1.00  0.00     0.031 A 
ATOM     62  C   UNL A   1      40.097  26.655  28.803  1.00  0.00     0.131 A 
ATOM     63  C   UNL A   1      42.042  27.129  26.897  1.00  0.00     0.055 A 
ATOM     64  C   UNL A   1      40.182  25.826  27.682  1.00  0.00     0.041 A 
ATOM     65  F   UNL A   1      39.096  26.424  29.669  1.00  0.00    -0.206 F 
ATOM     66  C   UNL A   1      41.149  26.072  26.713  1.00  0.00     0.022 A 
BRANCH  63  67
ATOM     67  S   UNL A   1      43.159  27.621  25.555  1.00  0.00     0.124 S 
ATOM     68  O   UNL A   1      42.220  28.174  24.580  1.00  0.00    -0.237 OA
ATOM     69  O   UNL A   1      44.038  28.581  26.212  1.00  0.00    -0.237 OA
ATOM     70  O   UNL A   1      43.789  26.364  25.157  1.00  0.00    -0.744 OA
ENDBRANCH  63  67
ENDBRANCH  46  60
BRANCH  47  71
ATOM     71  C   UNL A   1      39.517  33.533  37.052  1.00  0.00     0.023 A 
ATOM     72  C   UNL A   1      40.266  34.692  37.310  1.00  0.00     0.031 A 
ATOM     73  C   UNL A   1      38.556  33.147  38.004  1.00  0.00     0.131 A 
ATOM     74  C   UNL A   1      40.080  35.394  38.512  1.00  0.00     0.055 A 
ATOM     75  C   UNL A   1      38.331  33.884  39.168  1.00  0.00     0.041 A 
ATOM     76  F   UNL A   1      37.811  32.046  37.810  1.00  0.00    -0.206 F 
ATOM     77  C   UNL A   1      39.105  35.007  39.435  1.00  0.00     0.022 A 
BRANCH  74  78
ATOM     78  S   UNL A   1      41.202  36.767  38.899  1.00  0.00     0.124 S 
ATOM     79  O   UNL A   1      41.874  36.969  37.620  1.00  0.00    -0.237 OA
ATOM     80  O   UNL A   1      40.272  37.813  39.309  1.00  0.00    -0.237 OA
ATOM     81  O   UNL A   1      42.041  36.229  39.968  1.00  0.00    -0.744 OA
ENDBRANCH  74  78
ENDBRANCH  47  71
BRANCH  59  82
ATOM     82  C   UNL A   1      44.202  28.604  35.462  1.00  0.00     0.023 A 
ATOM     83  C   UNL A   1      44.084  27.536  36.367  1.00  0.00     0.031 A 
ATOM     84  C   UNL A   1      45.480  29.156  35.255  1.00  0.00     0.131 A 
ATOM     85  C   UNL A   1      45.213  27.084  37.067  1.00  0.00     0.055 A 
ATOM     86  C   UNL A   1      46.611  28.660  35.905  1.00  0.00     0.041 A 
ATOM     87  F   UNL A   1      45.652  30.181  34.405  1.00  0.00    -0.206 F 
ATOM     88  C   UNL A   1      46.479  27.626  36.827  1.00  0.00     0.022 A 
BRANCH  85  89
ATOM     89  S   UNL A   1      44.993  25.835  38.364  1.00  0.00     0.124 S 
ATOM     90  O   UNL A   1      44.281  24.780  37.651  1.00  0.00    -0.237 OA
ATOM     91  O   UNL A   1      46.369  25.531  38.743  1.00  0.00    -0.237 OA
ATOM     92  O   UNL A   1      44.210  26.533  39.383  1.00  0.00    -0.744 OA
ENDBRANCH  85  89
ENDBRANCH  59  82
ENDBRANCH  33  34
ENDBRANCH  25  28
ENDBRANCH  23  24
ENDBRANCH  22  23
ENDBRANCH   1  22
TORSDOF 17
ENDMDL
MODEL 3
REMARK VINA RESULT:     -11.2      6.478     11.493
REMARK SMILES C[C@H](CC(=O)NCCCNC(=O)c1ccc(-c2c3nc(c(-c4cc(S(=O)(=O)[O-])ccc4F)c4ccc([nH]4)c(-c4cc(S(=O)(=O)[O-])ccc4F)c4nc(c(-c5cc(S(=O)(=O)[O-])ccc5F)c5ccc2[nH]5)C=C4)C=C3)cc1)NC(=O)Cc1cn2ccsc2n1
REMARK SMILES IDX 7 1 6 2 4 3 5 4 3 6 2 7 1 8 76 9 77 10 78 12 79 13 80 14
REMARK SMILES IDX 81 15 87 16 82 17 86 18 83 19 85 20 84 21 8 22 9 23 10 24
REMARK SMILES IDX 11 25 12 27 13 28 14 29 75 30 15 31 74 32 16 33 17 34 18 35
REMARK SMILES IDX 68 36 19 37 73 38 67 39 69 40 20 41 72 42 66 43 65 44 21 46
REMARK SMILES IDX 53 47 33 48 52 49 34 50 37 51 51 52 70 53 35 54 36 55 50 57
REMARK SMILES IDX 71 58 38 59 22 60 23 61 31 62 24 63 30 64 32 65 29 66 25 67
REMARK SMILES IDX 26 68 27 69 28 70 54 71 55 72 63 73 56 74 62 75 64 76 61 77
REMARK SMILES IDX 57 78 58 79 59 80 60 81 39 82 40 83 48 84 41 85 47 86 49 87
REMARK SMILES IDX 46 88 42 89 43 90 44 91 45 92
REMARK H PARENT 6 5 76 11 10 26 69 45 37 56
REMARK Flexibility Score: inf
ROOT
ATOM      1  C   UNL A   1      36.466  20.032  25.001  1.00  0.00     0.117 C 
ENDROOT
BRANCH   1   2
ATOM      2  N   UNL A   1      36.231  21.234  25.785  1.00  0.00    -0.356 N 
ATOM      3  C   UNL A   1      35.394  22.279  25.547  1.00  0.00     0.222 C 
ATOM      4  O   UNL A   1      35.465  23.270  26.275  1.00  0.00    -0.275 OA
ATOM      5  H   UNL A   1      36.757  21.301  26.615  1.00  0.00     0.163 HD
BRANCH   3   6
ATOM      6  C   UNL A   1      34.354  22.193  24.454  1.00  0.00     0.124 C 
BRANCH   6   7
ATOM      7  C   UNL A   1      32.953  21.682  24.844  1.00  0.00     0.088 C 
ATOM      8  C   UNL A   1      32.654  20.299  24.272  1.00  0.00     0.031 C 
BRANCH   7   9
ATOM      9  N   UNL A   1      32.744  21.695  26.287  1.00  0.00    -0.353 N 
ATOM     10  C   UNL A   1      32.243  22.654  27.120  1.00  0.00     0.226 C 
ATOM     11  H   UNL A   1      33.012  20.864  26.741  1.00  0.00     0.163 HD
ATOM     12  O   UNL A   1      32.565  22.578  28.309  1.00  0.00    -0.275 OA
BRANCH  10  13
ATOM     13  C   UNL A   1      31.245  23.683  26.628  1.00  0.00     0.157 C 
BRANCH  13  14
ATOM     14  C   UNL A   1      31.792  25.039  26.341  1.00  0.00     0.070 A 
ATOM     15  C   UNL A   1      32.798  25.407  25.457  1.00  0.00     0.118 A 
ATOM     16  N   UNL A   1      31.181  26.179  26.867  1.00  0.00    -0.223 NA
ATOM     17  N   UNL A   1      32.859  26.760  25.528  1.00  0.00    -0.297 N 
ATOM     18  C   UNL A   1      31.851  27.167  26.340  1.00  0.00     0.193 A 
ATOM     19  C   UNL A   1      33.632  27.747  24.970  1.00  0.00     0.104 A 
ATOM     20  S   UNL A   1      31.778  28.902  26.401  1.00  0.00    -0.105 S 
ATOM     21  C   UNL A   1      33.194  28.966  25.328  1.00  0.00     0.087 A 
ENDBRANCH  13  14
ENDBRANCH  10  13
ENDBRANCH   7   9
ENDBRANCH   6   7
ENDBRANCH   3   6
ENDBRANCH   1   2
BRANCH   1  22
ATOM     22  C   UNL A   1      37.942  19.897  24.653  1.00  0.00     0.042 C 
BRANCH  22  23
ATOM     23  C   UNL A   1      38.874  20.240  25.801  1.00  0.00     0.118 C 
BRANCH  23  24
ATOM     24  N   UNL A   1      39.929  19.256  25.970  1.00  0.00    -0.352 N 
ATOM     25  C   UNL A   1      41.276  19.452  26.147  1.00  0.00     0.251 C 
ATOM     26  H   UNL A   1      39.636  18.317  25.954  1.00  0.00     0.163 HD
ATOM     27  O   UNL A   1      42.040  18.490  26.047  1.00  0.00    -0.269 OA
BRANCH  25  28
ATOM     28  C   UNL A   1      41.810  20.804  26.430  1.00  0.00     0.039 A 
ATOM     29  C   UNL A   1      41.977  21.704  25.376  1.00  0.00     0.014 A 
ATOM     30  C   UNL A   1      42.154  21.187  27.730  1.00  0.00     0.014 A 
ATOM     31  C   UNL A   1      42.432  23.000  25.634  1.00  0.00     0.010 A 
ATOM     32  C   UNL A   1      42.499  22.507  28.000  1.00  0.00     0.010 A 
ATOM     33  C   UNL A   1      42.663  23.426  26.952  1.00  0.00    -0.014 A 
BRANCH  33  34
ATOM     34  C   UNL A   1      43.116  24.809  27.261  1.00  0.00     0.031 A 
ATOM     35  C   UNL A   1      42.172  25.772  27.934  1.00  0.00     0.074 A 
ATOM     36  C   UNL A   1      44.345  25.219  26.886  1.00  0.00     0.049 A 
ATOM     37  N   UNL A   1      42.330  27.044  28.195  1.00  0.00    -0.248 NA
ATOM     38  C   UNL A   1      40.861  25.238  28.335  1.00  0.00     0.031 C 
ATOM     39  C   UNL A   1      45.340  24.390  26.200  1.00  0.00     0.029 A 
ATOM     40  N   UNL A   1      44.966  26.436  27.019  1.00  0.00    -0.354 N 
ATOM     41  C   UNL A   1      41.134  27.464  28.769  1.00  0.00     0.074 A 
ATOM     42  C   UNL A   1      40.239  26.329  28.754  1.00  0.00     0.031 C 
ATOM     43  C   UNL A   1      46.453  25.114  26.001  1.00  0.00     0.029 A 
ATOM     44  C   UNL A   1      46.235  26.472  26.487  1.00  0.00     0.049 A 
ATOM     45  H   UNL A   1      44.543  27.211  27.455  1.00  0.00     0.167 HD
ATOM     46  C   UNL A   1      40.821  28.678  29.286  1.00  0.00     0.034 A 
ATOM     47  C   UNL A   1      47.116  27.488  26.385  1.00  0.00     0.034 A 
ATOM     48  C   UNL A   1      41.733  29.795  29.310  1.00  0.00     0.049 A 
ATOM     49  C   UNL A   1      46.733  28.841  26.933  1.00  0.00     0.074 A 
ATOM     50  C   UNL A   1      41.541  31.052  29.857  1.00  0.00     0.029 A 
ATOM     51  N   UNL A   1      43.007  29.794  28.757  1.00  0.00    -0.354 N 
ATOM     52  N   UNL A   1      45.612  29.211  27.511  1.00  0.00    -0.248 NA
ATOM     53  C   UNL A   1      47.732  29.911  26.822  1.00  0.00     0.031 C 
ATOM     54  C   UNL A   1      42.664  31.833  29.566  1.00  0.00     0.029 A 
ATOM     55  C   UNL A   1      43.597  31.039  28.918  1.00  0.00     0.049 A 
ATOM     56  H   UNL A   1      43.430  29.022  28.316  1.00  0.00     0.167 HD
ATOM     57  C   UNL A   1      45.790  30.546  27.865  1.00  0.00     0.074 A 
ATOM     58  C   UNL A   1      47.127  30.912  27.444  1.00  0.00     0.031 C 
ATOM     59  C   UNL A   1      44.930  31.392  28.488  1.00  0.00     0.034 A 
BRANCH  46  60
ATOM     60  C   UNL A   1      39.426  28.864  29.839  1.00  0.00     0.023 A 
ATOM     61  C   UNL A   1      38.376  29.368  29.050  1.00  0.00     0.031 A 
ATOM     62  C   UNL A   1      39.145  28.554  31.181  1.00  0.00     0.131 A 
ATOM     63  C   UNL A   1      37.123  29.623  29.629  1.00  0.00     0.055 A 
ATOM     64  C   UNL A   1      37.871  28.725  31.728  1.00  0.00     0.041 A 
ATOM     65  F   UNL A   1      40.110  28.090  31.993  1.00  0.00    -0.206 F 
ATOM     66  C   UNL A   1      36.856  29.278  30.954  1.00  0.00     0.022 A 
BRANCH  63  67
ATOM     67  S   UNL A   1      35.899  30.554  28.667  1.00  0.00     0.124 S 
ATOM     68  O   UNL A   1      35.021  29.485  28.196  1.00  0.00    -0.237 OA
ATOM     69  O   UNL A   1      35.333  31.454  29.665  1.00  0.00    -0.237 OA
ATOM     70  O   UNL A   1      36.699  31.197  27.626  1.00  0.00    -0.744 OA
ENDBRANCH  63  67
ENDBRANCH  46  60
BRANCH  47  71
ATOM     71  C   UNL A   1      48.439  27.281  25.724  1.00  0.00     0.023 A 
ATOM     72  C   UNL A   1      48.594  27.460  24.341  1.00  0.00     0.031 A 
ATOM     73  C   UNL A   1      49.559  26.855  26.462  1.00  0.00     0.131 A 
ATOM     74  C   UNL A   1      49.823  27.166  23.729  1.00  0.00     0.055 A 
ATOM     75  C   UNL A   1      50.796  26.625  25.858  1.00  0.00     0.041 A 
ATOM     76  F   UNL A   1      49.468  26.666  27.788  1.00  0.00    -0.206 F 
ATOM     77  C   UNL A   1      50.930  26.766  24.482  1.00  0.00     0.022 A 
BRANCH  74  78
ATOM     78  S   UNL A   1      49.927  27.219  21.919  1.00  0.00     0.124 S 
ATOM     79  O   UNL A   1      49.702  28.634  21.651  1.00  0.00    -0.237 OA
ATOM     80  O   UNL A   1      51.279  26.726  21.678  1.00  0.00    -0.237 OA
ATOM     81  O   UNL A   1      48.854  26.323  21.490  1.00  0.00    -0.744 OA
ENDBRANCH  74  78
ENDBRANCH  47  71
BRANCH  59  82
ATOM     82  C   UNL A   1      45.430  32.780  28.803  1.00  0.00     0.023 A 
ATOM     83  C   UNL A   1      45.315  33.840  27.887  1.00  0.00     0.031 A 
ATOM     84  C   UNL A   1      46.025  33.047  30.050  1.00  0.00     0.131 A 
ATOM     85  C   UNL A   1      45.831  35.104  28.212  1.00  0.00     0.055 A 
ATOM     86  C   UNL A   1      46.478  34.321  30.393  1.00  0.00     0.041 A 
ATOM     87  F   UNL A   1      46.165  32.072  30.962  1.00  0.00    -0.206 F 
ATOM     88  C   UNL A   1      46.394  35.356  29.466  1.00  0.00     0.022 A 
BRANCH  85  89
ATOM     89  S   UNL A   1      45.838  36.397  26.940  1.00  0.00     0.124 S 
ATOM     90  O   UNL A   1      46.754  37.379  27.509  1.00  0.00    -0.237 OA
ATOM     91  O   UNL A   1      46.321  35.678  25.765  1.00  0.00    -0.237 OA
ATOM     92  O   UNL A   1      44.439  36.820  26.874  1.00  0.00    -0.744 OA
ENDBRANCH  85  89
ENDBRANCH  59  82
ENDBRANCH  33  34
ENDBRANCH  25  28
ENDBRANCH  23  24
ENDBRANCH  22  23
ENDBRANCH   1  22
TORSDOF 17
ENDMDL
