MODEL 1
REMARK VINA RESULT:     -12.7      0.000      0.000
REMARK SMILES C[NH2+][C@@]1(C(=O)NCCCNC(=O)c2ccc(-c3c4nc(c(-c5cc(S(=O)(=O)[O-])ccc5F)c5ccc([nH]5)c(-c5cc(S(=O)(=O)[O-])ccc5F)c5nc(c(-c6cc(S(=O)(=O)[O-])ccc6F)c6ccc3[nH]6)C=C5)C=C4)cc2)CC[C@H]([NH+]2CC[NH+](C)CC2)C1
REMARK SMILES IDX 9 1 8 2 7 3 6 4 4 5 5 6 3 8 76 9 86 10 77 11 78 12 2 13 1 14
REMARK SMILES IDX 79 17 80 18 85 19 81 21 84 22 82 23 83 24 10 26 11 27 12 29
REMARK SMILES IDX 13 30 14 31 75 32 15 33 74 34 16 35 17 36 18 37 68 38 19 39
REMARK SMILES IDX 73 40 67 41 69 42 20 43 72 44 66 45 65 46 21 48 53 49 33 50
REMARK SMILES IDX 52 51 34 52 37 53 51 54 70 55 35 56 36 57 50 59 71 60 38 61
REMARK SMILES IDX 22 62 23 63 31 64 24 65 30 66 32 67 29 68 25 69 26 70 27 71
REMARK SMILES IDX 28 72 54 73 55 74 63 75 56 76 62 77 64 78 61 79 57 80 58 81
REMARK SMILES IDX 59 82 60 83 39 84 40 85 48 86 41 87 47 88 49 89 46 90 42 91
REMARK SMILES IDX 43 92 44 93 45 94
REMARK H PARENT 6 7 2 15 2 16 79 20 82 25 10 28 69 47 37 58
REMARK Flexibility Score: inf
ROOT
ATOM      1  C   UNL A   1      33.316  33.131  27.395  1.00  0.00     0.118 C 
ENDROOT
BRANCH   1   2
ATOM      2  C   UNL A   1      32.042  32.169  26.874  1.00  0.00     0.042 C 
BRANCH   2   3
ATOM      3  C   UNL A   1      31.719  30.453  25.672  1.00  0.00     0.118 C 
BRANCH   3   4
ATOM      4  N   UNL A   1      32.686  29.570  24.740  1.00  0.00    -0.351 N 
ATOM      5  C   UNL A   1      32.635  28.704  23.699  1.00  0.00     0.281 C 
ATOM      6  O   UNL A   1      33.740  28.236  23.373  1.00  0.00    -0.268 OA
ATOM      7  H   UNL A   1      33.622  29.700  25.015  1.00  0.00     0.163 HD
BRANCH   5   8
ATOM      8  C   UNL A   1      31.365  28.340  22.873  1.00  0.00     0.181 C 
ATOM      9  C   UNL A   1      30.252  28.046  23.884  1.00  0.00     0.085 C 
ATOM     10  C   UNL A   1      31.437  27.085  21.998  1.00  0.00     0.144 C 
ATOM     11  C   UNL A   1      30.050  26.533  23.832  1.00  0.00     0.072 C 
ATOM     12  C   UNL A   1      31.176  25.931  22.946  1.00  0.00     0.191 C 
BRANCH   8  13
ATOM     13  N   UNL A   1      30.966  29.569  22.108  1.00  0.00    -0.336 N 
ATOM     14  C   UNL A   1      29.549  29.902  22.210  1.00  0.00     0.331 C 
ATOM     15  H   UNL A   1      31.507  30.357  22.464  1.00  0.00     0.346 HD
ATOM     16  H   UNL A   1      31.151  29.374  21.125  1.00  0.00     0.346 HD
ENDBRANCH   8  13
BRANCH  12  17
ATOM     17  N   UNL A   1      32.372  25.368  23.581  1.00  0.00    -0.323 N 
ATOM     18  C   UNL A   1      33.065  23.930  22.664  1.00  0.00     0.324 C 
ATOM     19  C   UNL A   1      32.626  25.468  25.430  1.00  0.00     0.324 C 
ATOM     20  H   UNL A   1      33.041  26.127  23.451  1.00  0.00     0.348 HD
ATOM     21  C   UNL A   1      33.586  22.319  23.637  1.00  0.00     0.324 C 
ATOM     22  C   UNL A   1      33.184  23.838  26.415  1.00  0.00     0.324 C 
ATOM     23  N   UNL A   1      33.820  22.382  25.461  1.00  0.00    -0.328 N 
ATOM     24  C   UNL A   1      33.548  21.089  26.078  1.00  0.00     0.333 C 
ATOM     25  H   UNL A   1      34.817  22.587  25.543  1.00  0.00     0.348 HD
ENDBRANCH  12  17
ENDBRANCH   5   8
ENDBRANCH   3   4
ENDBRANCH   2   3
ENDBRANCH   1   2
BRANCH   1  26
ATOM     26  N   UNL A   1      32.914  34.388  28.017  1.00  0.00    -0.352 N 
ATOM     27  C   UNL A   1      33.206  34.933  29.230  1.00  0.00     0.251 C 
ATOM     28  H   UNL A   1      32.324  34.943  27.459  1.00  0.00     0.163 HD
ATOM     29  O   UNL A   1      32.528  35.840  29.701  1.00  0.00    -0.269 OA
BRANCH  27  30
ATOM     30  C   UNL A   1      34.328  34.363  29.979  1.00  0.00     0.039 A 
ATOM     31  C   UNL A   1      34.057  33.562  31.089  1.00  0.00     0.014 A 
ATOM     32  C   UNL A   1      35.634  34.577  29.531  1.00  0.00     0.014 A 
ATOM     33  C   UNL A   1      35.111  32.945  31.745  1.00  0.00     0.010 A 
ATOM     34  C   UNL A   1      36.673  33.895  30.135  1.00  0.00     0.010 A 
ATOM     35  C   UNL A   1      36.421  33.097  31.260  1.00  0.00    -0.014 A 
BRANCH  35  36
ATOM     36  C   UNL A   1      37.563  32.492  31.970  1.00  0.00     0.031 A 
ATOM     37  C   UNL A   1      38.295  31.357  31.315  1.00  0.00     0.074 A 
ATOM     38  C   UNL A   1      37.885  32.934  33.199  1.00  0.00     0.049 A 
ATOM     39  N   UNL A   1      39.266  30.620  31.782  1.00  0.00    -0.248 NA
ATOM     40  C   UNL A   1      37.838  30.970  29.970  1.00  0.00     0.031 C 
ATOM     41  C   UNL A   1      37.192  34.006  33.920  1.00  0.00     0.029 A 
ATOM     42  N   UNL A   1      38.872  32.539  34.058  1.00  0.00    -0.354 N 
ATOM     43  C   UNL A   1      39.518  29.670  30.798  1.00  0.00     0.074 A 
ATOM     44  C   UNL A   1      38.547  29.876  29.749  1.00  0.00     0.031 C 
ATOM     45  C   UNL A   1      37.800  34.203  35.101  1.00  0.00     0.029 A 
ATOM     46  C   UNL A   1      38.892  33.247  35.237  1.00  0.00     0.049 A 
ATOM     47  H   UNL A   1      39.508  31.815  33.853  1.00  0.00     0.167 HD
ATOM     48  C   UNL A   1      40.496  28.733  30.768  1.00  0.00     0.034 A 
ATOM     49  C   UNL A   1      39.708  33.125  36.302  1.00  0.00     0.034 A 
ATOM     50  C   UNL A   1      41.462  28.581  31.825  1.00  0.00     0.049 A 
ATOM     51  C   UNL A   1      40.793  32.081  36.242  1.00  0.00     0.074 A 
ATOM     52  C   UNL A   1      42.534  27.712  31.901  1.00  0.00     0.029 A 
ATOM     53  N   UNL A   1      41.469  29.327  33.000  1.00  0.00    -0.354 N 
ATOM     54  N   UNL A   1      41.056  31.216  35.287  1.00  0.00    -0.248 NA
ATOM     55  C   UNL A   1      41.699  32.004  37.392  1.00  0.00     0.031 C 
ATOM     56  C   UNL A   1      43.149  27.888  33.145  1.00  0.00     0.029 A 
ATOM     57  C   UNL A   1      42.510  28.921  33.817  1.00  0.00     0.049 A 
ATOM     58  H   UNL A   1      40.827  30.040  33.220  1.00  0.00     0.167 HD
ATOM     59  C   UNL A   1      42.176  30.509  35.712  1.00  0.00     0.074 A 
ATOM     60  C   UNL A   1      42.548  31.066  36.998  1.00  0.00     0.031 C 
ATOM     61  C   UNL A   1      42.842  29.495  35.102  1.00  0.00     0.034 A 
BRANCH  48  62
ATOM     62  C   UNL A   1      40.533  27.808  29.574  1.00  0.00     0.023 A 
ATOM     63  C   UNL A   1      41.459  27.985  28.528  1.00  0.00     0.031 A 
ATOM     64  C   UNL A   1      39.592  26.772  29.445  1.00  0.00     0.131 A 
ATOM     65  C   UNL A   1      41.363  27.205  27.365  1.00  0.00     0.055 A 
ATOM     66  C   UNL A   1      39.562  25.939  28.323  1.00  0.00     0.041 A 
ATOM     67  F   UNL A   1      38.667  26.566  30.396  1.00  0.00    -0.206 F 
ATOM     68  C   UNL A   1      40.438  26.165  27.267  1.00  0.00     0.022 A 
BRANCH  65  69
ATOM     69  S   UNL A   1      42.355  27.679  25.921  1.00  0.00     0.124 S 
ATOM     70  O   UNL A   1      43.696  27.753  26.497  1.00  0.00    -0.237 OA
ATOM     71  O   UNL A   1      42.116  26.577  24.997  1.00  0.00    -0.237 OA
ATOM     72  O   UNL A   1      41.785  28.964  25.522  1.00  0.00    -0.744 OA
ENDBRANCH  65  69
ENDBRANCH  48  62
BRANCH  49  73
ATOM     73  C   UNL A   1      39.537  34.007  37.491  1.00  0.00     0.023 A 
ATOM     74  C   UNL A   1      38.916  33.534  38.658  1.00  0.00     0.031 A 
ATOM     75  C   UNL A   1      39.978  35.342  37.475  1.00  0.00     0.131 A 
ATOM     76  C   UNL A   1      38.713  34.401  39.743  1.00  0.00     0.055 A 
ATOM     77  C   UNL A   1      39.819  36.186  38.576  1.00  0.00     0.041 A 
ATOM     78  F   UNL A   1      40.588  35.843  36.388  1.00  0.00    -0.206 F 
ATOM     79  C   UNL A   1      39.170  35.720  39.715  1.00  0.00     0.022 A 
BRANCH  76  80
ATOM     80  S   UNL A   1      37.768  33.799  41.169  1.00  0.00     0.124 S 
ATOM     81  O   UNL A   1      36.673  33.086  40.522  1.00  0.00    -0.237 OA
ATOM     82  O   UNL A   1      38.753  32.974  41.859  1.00  0.00    -0.237 OA
ATOM     83  O   UNL A   1      37.387  35.025  41.868  1.00  0.00    -0.744 OA
ENDBRANCH  76  80
ENDBRANCH  49  73
BRANCH  61  84
ATOM     84  C   UNL A   1      44.055  28.958  35.815  1.00  0.00     0.023 A 
ATOM     85  C   UNL A   1      43.978  27.832  36.650  1.00  0.00     0.031 A 
ATOM     86  C   UNL A   1      45.302  29.590  35.660  1.00  0.00     0.131 A 
ATOM     87  C   UNL A   1      45.116  27.406  37.350  1.00  0.00     0.055 A 
ATOM     88  C   UNL A   1      46.445  29.120  36.306  1.00  0.00     0.041 A 
ATOM     89  F   UNL A   1      45.429  30.670  34.874  1.00  0.00    -0.206 F 
ATOM     90  C   UNL A   1      46.353  28.030  37.168  1.00  0.00     0.022 A 
BRANCH  87  91
ATOM     91  S   UNL A   1      44.935  26.083  38.576  1.00  0.00     0.124 S 
ATOM     92  O   UNL A   1      44.230  25.059  37.813  1.00  0.00    -0.237 OA
ATOM     93  O   UNL A   1      46.320  25.782  38.918  1.00  0.00    -0.237 OA
ATOM     94  O   UNL A   1      44.155  26.710  39.643  1.00  0.00    -0.744 OA
ENDBRANCH  87  91
ENDBRANCH  61  84
ENDBRANCH  35  36
ENDBRANCH  27  30
ENDBRANCH   1  26
TORSDOF 15
ENDMDL
MODEL 2
REMARK VINA RESULT:     -12.7      3.307      8.785
REMARK SMILES C[NH2+][C@@]1(C(=O)NCCCNC(=O)c2ccc(-c3c4nc(c(-c5cc(S(=O)(=O)[O-])ccc5F)c5ccc([nH]5)c(-c5cc(S(=O)(=O)[O-])ccc5F)c5nc(c(-c6cc(S(=O)(=O)[O-])ccc6F)c6ccc3[nH]6)C=C5)C=C4)cc2)CC[C@H]([NH+]2CC[NH+](C)CC2)C1
REMARK SMILES IDX 9 1 8 2 7 3 6 4 4 5 5 6 3 8 76 9 86 10 77 11 78 12 2 13 1 14
REMARK SMILES IDX 79 17 80 18 85 19 81 21 84 22 82 23 83 24 10 26 11 27 12 29
REMARK SMILES IDX 13 30 14 31 75 32 15 33 74 34 16 35 17 36 18 37 68 38 19 39
REMARK SMILES IDX 73 40 67 41 69 42 20 43 72 44 66 45 65 46 21 48 53 49 33 50
REMARK SMILES IDX 52 51 34 52 37 53 51 54 70 55 35 56 36 57 50 59 71 60 38 61
REMARK SMILES IDX 22 62 23 63 31 64 24 65 30 66 32 67 29 68 25 69 26 70 27 71
REMARK SMILES IDX 28 72 54 73 55 74 63 75 56 76 62 77 64 78 61 79 57 80 58 81
REMARK SMILES IDX 59 82 60 83 39 84 40 85 48 86 41 87 47 88 49 89 46 90 42 91
REMARK SMILES IDX 43 92 44 93 45 94
REMARK H PARENT 6 7 2 15 2 16 79 20 82 25 10 28 69 47 37 58
REMARK Flexibility Score: inf
ROOT
ATOM      1  C   UNL A   1      34.063  29.460  26.487  1.00  0.00     0.118 C 
ENDROOT
BRANCH   1   2
ATOM      2  C   UNL A   1      33.050  28.357  27.246  1.00  0.00     0.042 C 
BRANCH   2   3
ATOM      3  C   UNL A   1      31.201  27.381  26.900  1.00  0.00     0.118 C 
BRANCH   3   4
ATOM      4  N   UNL A   1      30.672  26.414  25.729  1.00  0.00    -0.351 N 
ATOM      5  C   UNL A   1      30.774  26.236  24.390  1.00  0.00     0.281 C 
ATOM      6  O   UNL A   1      30.072  25.310  23.946  1.00  0.00    -0.268 OA
ATOM      7  H   UNL A   1      30.080  25.726  26.110  1.00  0.00     0.163 HD
BRANCH   5   8
ATOM      8  C   UNL A   1      31.724  27.016  23.433  1.00  0.00     0.181 C 
ATOM      9  C   UNL A   1      31.656  26.311  22.074  1.00  0.00     0.085 C 
ATOM     10  C   UNL A   1      33.214  27.032  23.789  1.00  0.00     0.144 C 
ATOM     11  C   UNL A   1      32.994  25.590  21.927  1.00  0.00     0.072 C 
ATOM     12  C   UNL A   1      33.752  25.709  23.278  1.00  0.00     0.191 C 
BRANCH   8  13
ATOM     13  N   UNL A   1      31.146  28.391  23.257  1.00  0.00    -0.336 N 
ATOM     14  C   UNL A   1      29.952  28.434  22.419  1.00  0.00     0.331 C 
ATOM     15  H   UNL A   1      30.905  28.756  24.178  1.00  0.00     0.346 HD
ATOM     16  H   UNL A   1      31.856  28.948  22.784  1.00  0.00     0.346 HD
ENDBRANCH   8  13
BRANCH  12  17
ATOM     17  N   UNL A   1      33.694  24.604  24.240  1.00  0.00    -0.323 N 
ATOM     18  C   UNL A   1      35.141  24.561  25.376  1.00  0.00     0.324 C 
ATOM     19  C   UNL A   1      32.822  23.003  23.825  1.00  0.00     0.324 C 
ATOM     20  H   UNL A   1      32.899  24.884  24.815  1.00  0.00     0.348 HD
ATOM     21  C   UNL A   1      36.054  22.869  25.720  1.00  0.00     0.324 C 
ATOM     22  C   UNL A   1      33.738  21.283  24.202  1.00  0.00     0.324 C 
ATOM     23  N   UNL A   1      35.230  21.278  25.300  1.00  0.00    -0.328 N 
ATOM     24  C   UNL A   1      36.206  20.238  24.990  1.00  0.00     0.333 C 
ATOM     25  H   UNL A   1      34.759  21.043  26.174  1.00  0.00     0.348 HD
ENDBRANCH  12  17
ENDBRANCH   5   8
ENDBRANCH   3   4
ENDBRANCH   2   3
ENDBRANCH   1   2
BRANCH   1  26
ATOM     26  N   UNL A   1      33.920  30.836  26.951  1.00  0.00    -0.352 N 
ATOM     27  C   UNL A   1      34.548  31.529  27.940  1.00  0.00     0.251 C 
ATOM     28  H   UNL A   1      33.245  31.358  26.460  1.00  0.00     0.163 HD
ATOM     29  O   UNL A   1      34.076  32.568  28.388  1.00  0.00    -0.269 OA
BRANCH  27  30
ATOM     30  C   UNL A   1      35.782  30.963  28.488  1.00  0.00     0.039 A 
ATOM     31  C   UNL A   1      35.691  29.931  29.422  1.00  0.00     0.014 A 
ATOM     32  C   UNL A   1      37.016  31.420  28.019  1.00  0.00     0.014 A 
ATOM     33  C   UNL A   1      36.856  29.329  29.874  1.00  0.00     0.010 A 
ATOM     34  C   UNL A   1      38.169  30.764  28.407  1.00  0.00     0.010 A 
ATOM     35  C   UNL A   1      38.097  29.734  29.355  1.00  0.00    -0.014 A 
BRANCH  35  36
ATOM     36  C   UNL A   1      39.352  29.144  29.857  1.00  0.00     0.031 A 
ATOM     37  C   UNL A   1      39.998  29.753  31.067  1.00  0.00     0.074 A 
ATOM     38  C   UNL A   1      39.910  28.116  29.193  1.00  0.00     0.049 A 
ATOM     39  N   UNL A   1      41.137  29.460  31.633  1.00  0.00    -0.248 NA
ATOM     40  C   UNL A   1      39.284  30.876  31.698  1.00  0.00     0.031 C 
ATOM     41  C   UNL A   1      39.363  27.496  27.982  1.00  0.00     0.029 A 
ATOM     42  N   UNL A   1      41.056  27.412  29.438  1.00  0.00    -0.354 N 
ATOM     43  C   UNL A   1      41.286  30.378  32.668  1.00  0.00     0.074 A 
ATOM     44  C   UNL A   1      40.161  31.282  32.600  1.00  0.00     0.031 C 
ATOM     45  C   UNL A   1      40.162  26.482  27.611  1.00  0.00     0.029 A 
ATOM     46  C   UNL A   1      41.292  26.409  28.528  1.00  0.00     0.049 A 
ATOM     47  H   UNL A   1      41.657  27.607  30.194  1.00  0.00     0.167 HD
ATOM     48  C   UNL A   1      42.261  30.433  33.606  1.00  0.00     0.034 A 
ATOM     49  C   UNL A   1      42.314  25.535  28.454  1.00  0.00     0.034 A 
ATOM     50  C   UNL A   1      43.351  29.493  33.653  1.00  0.00     0.049 A 
ATOM     51  C   UNL A   1      43.384  25.611  29.513  1.00  0.00     0.074 A 
ATOM     52  C   UNL A   1      44.376  29.399  34.575  1.00  0.00     0.029 A 
ATOM     53  N   UNL A   1      43.553  28.473  32.727  1.00  0.00    -0.354 N 
ATOM     54  N   UNL A   1      43.493  26.452  30.518  1.00  0.00    -0.248 NA
ATOM     55  C   UNL A   1      44.457  24.616  29.439  1.00  0.00     0.031 C 
ATOM     56  C   UNL A   1      45.231  28.367  34.173  1.00  0.00     0.029 A 
ATOM     57  C   UNL A   1      44.700  27.763  33.042  1.00  0.00     0.049 A 
ATOM     58  H   UNL A   1      42.967  28.284  31.959  1.00  0.00     0.167 HD
ATOM     59  C   UNL A   1      44.636  26.069  31.212  1.00  0.00     0.074 A 
ATOM     60  C   UNL A   1      45.165  24.909  30.521  1.00  0.00     0.031 C 
ATOM     61  C   UNL A   1      45.201  26.617  32.318  1.00  0.00     0.034 A 
BRANCH  48  62
ATOM     62  C   UNL A   1      42.189  31.554  34.616  1.00  0.00     0.023 A 
ATOM     63  C   UNL A   1      41.279  31.527  35.690  1.00  0.00     0.031 A 
ATOM     64  C   UNL A   1      42.995  32.697  34.472  1.00  0.00     0.131 A 
ATOM     65  C   UNL A   1      41.131  32.653  36.516  1.00  0.00     0.055 A 
ATOM     66  C   UNL A   1      42.907  33.777  35.354  1.00  0.00     0.041 A 
ATOM     67  F   UNL A   1      43.865  32.795  33.455  1.00  0.00    -0.206 F 
ATOM     68  C   UNL A   1      41.958  33.767  36.371  1.00  0.00     0.022 A 
BRANCH  65  69
ATOM     69  S   UNL A   1      39.733  32.701  37.671  1.00  0.00     0.124 S 
ATOM     70  O   UNL A   1      38.883  31.633  37.149  1.00  0.00    -0.237 OA
ATOM     71  O   UNL A   1      40.373  32.438  38.954  1.00  0.00    -0.237 OA
ATOM     72  O   UNL A   1      39.198  34.051  37.505  1.00  0.00    -0.744 OA
ENDBRANCH  65  69
ENDBRANCH  48  62
BRANCH  49  73
ATOM     73  C   UNL A   1      42.369  24.525  27.360  1.00  0.00     0.023 A 
ATOM     74  C   UNL A   1      41.574  23.369  27.404  1.00  0.00     0.031 A 
ATOM     75  C   UNL A   1      43.231  24.689  26.261  1.00  0.00     0.131 A 
ATOM     76  C   UNL A   1      41.687  22.402  26.392  1.00  0.00     0.055 A 
ATOM     77  C   UNL A   1      43.303  23.749  25.231  1.00  0.00     0.041 A 
ATOM     78  F   UNL A   1      44.006  25.781  26.163  1.00  0.00    -0.206 F 
ATOM     79  C   UNL A   1      42.537  22.589  25.300  1.00  0.00     0.022 A 
BRANCH  76  80
ATOM     80  S   UNL A   1      40.760  20.853  26.565  1.00  0.00     0.124 S 
ATOM     81  O   UNL A   1      40.823  20.627  28.005  1.00  0.00    -0.237 OA
ATOM     82  O   UNL A   1      39.455  21.219  26.028  1.00  0.00    -0.237 OA
ATOM     83  O   UNL A   1      41.522  19.907  25.752  1.00  0.00    -0.744 OA
ENDBRANCH  76  80
ENDBRANCH  49  73
BRANCH  61  84
ATOM     84  C   UNL A   1      46.434  25.937  32.854  1.00  0.00     0.023 A 
ATOM     85  C   UNL A   1      46.348  24.850  33.740  1.00  0.00     0.031 A 
ATOM     86  C   UNL A   1      47.711  26.390  32.477  1.00  0.00     0.131 A 
ATOM     87  C   UNL A   1      47.518  24.289  34.269  1.00  0.00     0.055 A 
ATOM     88  C   UNL A   1      48.872  25.784  32.954  1.00  0.00     0.041 A 
ATOM     89  F   UNL A   1      47.848  27.425  31.634  1.00  0.00    -0.206 F 
ATOM     90  C   UNL A   1      48.780  24.735  33.866  1.00  0.00     0.022 A 
BRANCH  87  91
ATOM     91  S   UNL A   1      47.367  23.031  35.564  1.00  0.00     0.124 S 
ATOM     92  O   UNL A   1      48.671  23.108  36.214  1.00  0.00    -0.237 OA
ATOM     93  O   UNL A   1      46.237  23.521  36.346  1.00  0.00    -0.237 OA
ATOM     94  O   UNL A   1      47.117  21.799  34.818  1.00  0.00    -0.744 OA
ENDBRANCH  87  91
ENDBRANCH  61  84
ENDBRANCH  35  36
ENDBRANCH  27  30
ENDBRANCH   1  26
TORSDOF 15
ENDMDL
MODEL 3
REMARK VINA RESULT:     -12.6      3.722      9.025
REMARK SMILES C[NH2+][C@@]1(C(=O)NCCCNC(=O)c2ccc(-c3c4nc(c(-c5cc(S(=O)(=O)[O-])ccc5F)c5ccc([nH]5)c(-c5cc(S(=O)(=O)[O-])ccc5F)c5nc(c(-c6cc(S(=O)(=O)[O-])ccc6F)c6ccc3[nH]6)C=C5)C=C4)cc2)CC[C@H]([NH+]2CC[NH+](C)CC2)C1
REMARK SMILES IDX 9 1 8 2 7 3 6 4 4 5 5 6 3 8 76 9 86 10 77 11 78 12 2 13 1 14
REMARK SMILES IDX 79 17 80 18 85 19 81 21 84 22 82 23 83 24 10 26 11 27 12 29
REMARK SMILES IDX 13 30 14 31 75 32 15 33 74 34 16 35 17 36 18 37 68 38 19 39
REMARK SMILES IDX 73 40 67 41 69 42 20 43 72 44 66 45 65 46 21 48 53 49 33 50
REMARK SMILES IDX 52 51 34 52 37 53 51 54 70 55 35 56 36 57 50 59 71 60 38 61
REMARK SMILES IDX 22 62 23 63 31 64 24 65 30 66 32 67 29 68 25 69 26 70 27 71
REMARK SMILES IDX 28 72 54 73 55 74 63 75 56 76 62 77 64 78 61 79 57 80 58 81
REMARK SMILES IDX 59 82 60 83 39 84 40 85 48 86 41 87 47 88 49 89 46 90 42 91
REMARK SMILES IDX 43 92 44 93 45 94
REMARK H PARENT 6 7 2 15 2 16 79 20 82 25 10 28 69 47 37 58
REMARK Flexibility Score: inf
ROOT
ATOM      1  C   UNL A   1      34.035  29.322  26.208  1.00  0.00     0.118 C 
ENDROOT
BRANCH   1   2
ATOM      2  C   UNL A   1      33.175  28.102  26.977  1.00  0.00     0.042 C 
BRANCH   2   3
ATOM      3  C   UNL A   1      31.348  27.050  26.759  1.00  0.00     0.118 C 
BRANCH   3   4
ATOM      4  N   UNL A   1      30.760  26.100  25.603  1.00  0.00    -0.351 N 
ATOM      5  C   UNL A   1      30.814  25.925  24.260  1.00  0.00     0.281 C 
ATOM      6  O   UNL A   1      30.078  25.017  23.836  1.00  0.00    -0.268 OA
ATOM      7  H   UNL A   1      30.165  25.424  26.001  1.00  0.00     0.163 HD
BRANCH   5   8
ATOM      8  C   UNL A   1      31.751  26.687  23.276  1.00  0.00     0.181 C 
ATOM      9  C   UNL A   1      31.698  25.931  21.944  1.00  0.00     0.085 C 
ATOM     10  C   UNL A   1      33.240  26.744  23.631  1.00  0.00     0.144 C 
ATOM     11  C   UNL A   1      33.049  25.230  21.824  1.00  0.00     0.072 C 
ATOM     12  C   UNL A   1      33.804  25.413  23.170  1.00  0.00     0.191 C 
BRANCH   8  13
ATOM     13  N   UNL A   1      31.148  28.043  23.049  1.00  0.00    -0.336 N 
ATOM     14  C   UNL A   1      32.117  29.076  22.696  1.00  0.00     0.331 C 
ATOM     15  H   UNL A   1      30.470  27.968  22.290  1.00  0.00     0.346 HD
ATOM     16  H   UNL A   1      30.724  28.326  23.931  1.00  0.00     0.346 HD
ENDBRANCH   8  13
BRANCH  12  17
ATOM     17  N   UNL A   1      33.765  24.344  24.172  1.00  0.00    -0.323 N 
ATOM     18  C   UNL A   1      35.253  24.316  25.254  1.00  0.00     0.324 C 
ATOM     19  C   UNL A   1      32.854  22.744  23.848  1.00  0.00     0.324 C 
ATOM     20  H   UNL A   1      32.996  24.656  24.766  1.00  0.00     0.348 HD
ATOM     21  C   UNL A   1      36.152  22.622  25.624  1.00  0.00     0.324 C 
ATOM     22  C   UNL A   1      33.756  21.023  24.251  1.00  0.00     0.324 C 
ATOM     23  N   UNL A   1      35.289  21.031  25.292  1.00  0.00    -0.328 N 
ATOM     24  C   UNL A   1      36.236  19.966  24.984  1.00  0.00     0.333 C 
ATOM     25  H   UNL A   1      34.848  20.835  26.191  1.00  0.00     0.348 HD
ENDBRANCH  12  17
ENDBRANCH   5   8
ENDBRANCH   3   4
ENDBRANCH   2   3
ENDBRANCH   1   2
BRANCH   1  26
ATOM     26  N   UNL A   1      33.901  30.640  26.819  1.00  0.00    -0.352 N 
ATOM     27  C   UNL A   1      34.552  31.226  27.860  1.00  0.00     0.251 C 
ATOM     28  H   UNL A   1      33.214  31.209  26.403  1.00  0.00     0.163 HD
ATOM     29  O   UNL A   1      34.090  32.209  28.429  1.00  0.00    -0.269 OA
BRANCH  27  30
ATOM     30  C   UNL A   1      35.801  30.610  28.315  1.00  0.00     0.039 A 
ATOM     31  C   UNL A   1      36.995  30.976  27.694  1.00  0.00     0.014 A 
ATOM     32  C   UNL A   1      35.777  29.726  29.396  1.00  0.00     0.014 A 
ATOM     33  C   UNL A   1      38.189  30.466  28.183  1.00  0.00     0.010 A 
ATOM     34  C   UNL A   1      36.973  29.286  29.932  1.00  0.00     0.010 A 
ATOM     35  C   UNL A   1      38.182  29.632  29.313  1.00  0.00    -0.014 A 
BRANCH  35  36
ATOM     36  C   UNL A   1      39.433  29.038  29.819  1.00  0.00     0.031 A 
ATOM     37  C   UNL A   1      40.087  29.658  31.019  1.00  0.00     0.074 A 
ATOM     38  C   UNL A   1      39.980  27.996  29.167  1.00  0.00     0.049 A 
ATOM     39  N   UNL A   1      41.225  29.363  31.586  1.00  0.00    -0.248 NA
ATOM     40  C   UNL A   1      39.385  30.796  31.636  1.00  0.00     0.031 C 
ATOM     41  C   UNL A   1      39.425  27.365  27.967  1.00  0.00     0.029 A 
ATOM     42  N   UNL A   1      41.121  27.286  29.420  1.00  0.00    -0.354 N 
ATOM     43  C   UNL A   1      41.385  30.294  32.608  1.00  0.00     0.074 A 
ATOM     44  C   UNL A   1      40.268  31.206  32.531  1.00  0.00     0.031 C 
ATOM     45  C   UNL A   1      40.214  26.339  27.607  1.00  0.00     0.029 A 
ATOM     46  C   UNL A   1      41.346  26.269  28.523  1.00  0.00     0.049 A 
ATOM     47  H   UNL A   1      41.726  27.486  30.172  1.00  0.00     0.167 HD
ATOM     48  C   UNL A   1      42.363  30.353  33.543  1.00  0.00     0.034 A 
ATOM     49  C   UNL A   1      42.360  25.385  28.458  1.00  0.00     0.034 A 
ATOM     50  C   UNL A   1      43.445  29.403  33.600  1.00  0.00     0.049 A 
ATOM     51  C   UNL A   1      43.433  25.466  29.513  1.00  0.00     0.074 A 
ATOM     52  C   UNL A   1      44.471  29.314  34.521  1.00  0.00     0.029 A 
ATOM     53  N   UNL A   1      43.636  28.370  32.688  1.00  0.00    -0.354 N 
ATOM     54  N   UNL A   1      43.553  26.320  30.507  1.00  0.00    -0.248 NA
ATOM     55  C   UNL A   1      44.498  24.460  29.450  1.00  0.00     0.031 C 
ATOM     56  C   UNL A   1      45.316  28.269  34.131  1.00  0.00     0.029 A 
ATOM     57  C   UNL A   1      44.777  27.654  33.009  1.00  0.00     0.049 A 
ATOM     58  H   UNL A   1      43.046  28.175  31.924  1.00  0.00     0.167 HD
ATOM     59  C   UNL A   1      44.694  25.935  31.203  1.00  0.00     0.074 A 
ATOM     60  C   UNL A   1      45.210  24.761  30.526  1.00  0.00     0.031 C 
ATOM     61  C   UNL A   1      45.267  26.494  32.300  1.00  0.00     0.034 A 
BRANCH  48  62
ATOM     62  C   UNL A   1      42.304  31.488  34.538  1.00  0.00     0.023 A 
ATOM     63  C   UNL A   1      41.399  31.481  35.617  1.00  0.00     0.031 A 
ATOM     64  C   UNL A   1      43.115  32.624  34.373  1.00  0.00     0.131 A 
ATOM     65  C   UNL A   1      41.263  32.619  36.428  1.00  0.00     0.055 A 
ATOM     66  C   UNL A   1      43.039  33.717  35.241  1.00  0.00     0.041 A 
ATOM     67  F   UNL A   1      43.981  32.703  33.350  1.00  0.00    -0.206 F 
ATOM     68  C   UNL A   1      42.096  33.726  36.264  1.00  0.00     0.022 A 
BRANCH  65  69
ATOM     69  S   UNL A   1      39.871  32.692  37.590  1.00  0.00     0.124 S 
ATOM     70  O   UNL A   1      40.535  32.412  38.861  1.00  0.00    -0.237 OA
ATOM     71  O   UNL A   1      39.381  34.053  37.411  1.00  0.00    -0.237 OA
ATOM     72  O   UNL A   1      38.976  31.638  37.118  1.00  0.00    -0.744 OA
ENDBRANCH  65  69
ENDBRANCH  48  62
BRANCH  49  73
ATOM     73  C   UNL A   1      42.403  24.359  27.378  1.00  0.00     0.023 A 
ATOM     74  C   UNL A   1      41.609  23.204  27.447  1.00  0.00     0.031 A 
ATOM     75  C   UNL A   1      43.253  24.508  26.267  1.00  0.00     0.131 A 
ATOM     76  C   UNL A   1      41.711  22.223  26.448  1.00  0.00     0.055 A 
ATOM     77  C   UNL A   1      43.314  23.554  25.250  1.00  0.00     0.041 A 
ATOM     78  F   UNL A   1      44.027  25.599  26.146  1.00  0.00    -0.206 F 
ATOM     79  C   UNL A   1      42.549  22.395  25.344  1.00  0.00     0.022 A 
BRANCH  76  80
ATOM     80  S   UNL A   1      40.787  20.676  26.653  1.00  0.00     0.124 S 
ATOM     81  O   UNL A   1      40.817  20.500  28.100  1.00  0.00    -0.237 OA
ATOM     82  O   UNL A   1      39.493  21.017  26.073  1.00  0.00    -0.237 OA
ATOM     83  O   UNL A   1      41.571  19.707  25.890  1.00  0.00    -0.744 OA
ENDBRANCH  76  80
ENDBRANCH  49  73
BRANCH  61  84
ATOM     84  C   UNL A   1      46.495  25.810  32.842  1.00  0.00     0.023 A 
ATOM     85  C   UNL A   1      47.771  26.064  32.314  1.00  0.00     0.031 A 
ATOM     86  C   UNL A   1      46.382  24.887  33.898  1.00  0.00     0.131 A 
ATOM     87  C   UNL A   1      48.878  25.356  32.800  1.00  0.00     0.055 A 
ATOM     88  C   UNL A   1      47.497  24.237  34.423  1.00  0.00     0.041 A 
ATOM     89  F   UNL A   1      45.185  24.609  34.438  1.00  0.00    -0.206 F 
ATOM     90  C   UNL A   1      48.753  24.459  33.865  1.00  0.00     0.022 A 
BRANCH  87  91
ATOM     91  S   UNL A   1      50.471  25.553  31.957  1.00  0.00     0.124 S 
ATOM     92  O   UNL A   1      51.381  25.771  33.077  1.00  0.00    -0.237 OA
ATOM     93  O   UNL A   1      50.614  24.281  31.259  1.00  0.00    -0.237 OA
ATOM     94  O   UNL A   1      50.260  26.714  31.094  1.00  0.00    -0.744 OA
ENDBRANCH  87  91
ENDBRANCH  61  84
ENDBRANCH  35  36
ENDBRANCH  27  30
ENDBRANCH   1  26
TORSDOF 15
ENDMDL
