MODEL 1
REMARK VINA RESULT:     -12.3      0.000      0.000
REMARK SMILES O=C(NCCCNC(=O)[C@H]1CSCN1C(=O)c1cnc2ccccn2c1=O)c1ccc(-c2c3nc(c(-c4cc(S(=O)(=O)[O-])ccc4F)c4ccc([nH]4)c(-c4cc(S(=O)(=O)[O-])ccc4F)c4nc(c(-c5cc(S(=O)(=O)[O-])ccc5F)c5ccc2[nH]5)C=C4)C=C3)cc1
REMARK SMILES IDX 4 1 3 2 1 3 2 4 28 6 29 7 90 8 30 9 89 10 31 11 32 12 33 13
REMARK SMILES IDX 83 14 34 15 88 16 82 17 84 18 35 19 87 20 81 21 80 22 36 24
REMARK SMILES IDX 68 25 48 26 67 27 49 28 52 29 66 30 85 31 50 32 51 33 65 35
REMARK SMILES IDX 86 36 53 37 37 38 38 39 46 40 39 41 45 42 47 43 44 44 40 45
REMARK SMILES IDX 41 46 42 47 43 48 69 49 70 50 78 51 71 52 77 53 79 54 76 55
REMARK SMILES IDX 72 56 73 57 74 58 75 59 54 60 55 61 63 62 56 63 62 64 64 65
REMARK SMILES IDX 61 66 57 67 58 68 59 69 60 70 5 71 6 72 7 73 8 74 9 76 10 77
REMARK SMILES IDX 11 78 14 79 12 80 13 81 15 82 16 83 17 84 18 85 26 86 19 87
REMARK SMILES IDX 25 88 27 89 20 90 24 91 21 92 23 93 22 94
REMARK H PARENT 3 5 84 23 52 34 7 75
REMARK Flexibility Score: inf
ROOT
ATOM      1  C   UNL A   1      35.927  22.780  26.121  1.00  0.00     0.118 C 
ENDROOT
BRANCH   1   2
ATOM      2  N   UNL A   1      36.808  21.628  25.942  1.00  0.00    -0.352 N 
ATOM      3  O   UNL A   1      38.730  20.527  25.539  1.00  0.00    -0.269 OA
ATOM      4  C   UNL A   1      38.181  21.558  25.928  1.00  0.00     0.251 C 
ATOM      5  H   UNL A   1      36.347  20.768  25.812  1.00  0.00     0.163 HD
BRANCH   4   6
ATOM      6  C   UNL A   1      38.996  22.710  26.371  1.00  0.00     0.039 A 
ATOM      7  C   UNL A   1      38.720  23.989  25.889  1.00  0.00     0.014 A 
ATOM      8  C   UNL A   1      40.026  22.529  27.302  1.00  0.00     0.014 A 
ATOM      9  C   UNL A   1      39.576  25.037  26.183  1.00  0.00     0.010 A 
ATOM     10  C   UNL A   1      40.802  23.621  27.709  1.00  0.00     0.010 A 
ATOM     11  C   UNL A   1      40.597  24.883  27.134  1.00  0.00    -0.014 A 
BRANCH  11  12
ATOM     12  C   UNL A   1      41.340  26.102  27.553  1.00  0.00     0.031 A 
ATOM     13  C   UNL A   1      42.705  26.421  27.012  1.00  0.00     0.074 A 
ATOM     14  C   UNL A   1      40.707  26.968  28.373  1.00  0.00     0.049 A 
ATOM     15  N   UNL A   1      43.440  27.484  27.218  1.00  0.00    -0.248 NA
ATOM     16  C   UNL A   1      43.337  25.417  26.142  1.00  0.00     0.031 C 
ATOM     17  C   UNL A   1      39.386  26.739  28.970  1.00  0.00     0.029 A 
ATOM     18  N   UNL A   1      41.045  28.223  28.805  1.00  0.00    -0.354 N 
ATOM     19  C   UNL A   1      44.624  27.277  26.520  1.00  0.00     0.074 A 
ATOM     20  C   UNL A   1      44.522  25.967  25.908  1.00  0.00     0.031 C 
ATOM     21  C   UNL A   1      38.987  27.849  29.604  1.00  0.00     0.029 A 
ATOM     22  C   UNL A   1      40.061  28.831  29.550  1.00  0.00     0.049 A 
ATOM     23  H   UNL A   1      41.909  28.649  28.601  1.00  0.00     0.167 HD
ATOM     24  C   UNL A   1      45.692  28.106  26.405  1.00  0.00     0.034 A 
ATOM     25  C   UNL A   1      40.027  30.038  30.146  1.00  0.00     0.034 A 
ATOM     26  C   UNL A   1      45.766  29.409  27.027  1.00  0.00     0.049 A 
ATOM     27  C   UNL A   1      41.225  30.932  29.996  1.00  0.00     0.074 A 
ATOM     28  C   UNL A   1      46.798  30.332  26.977  1.00  0.00     0.029 A 
ATOM     29  N   UNL A   1      44.769  29.976  27.814  1.00  0.00    -0.354 N 
ATOM     30  N   UNL A   1      42.338  30.713  29.333  1.00  0.00    -0.248 NA
ATOM     31  C   UNL A   1      41.166  32.232  30.671  1.00  0.00     0.031 C 
ATOM     32  C   UNL A   1      46.452  31.425  27.779  1.00  0.00     0.029 A 
ATOM     33  C   UNL A   1      45.172  31.223  28.272  1.00  0.00     0.049 A 
ATOM     34  H   UNL A   1      43.904  29.555  28.017  1.00  0.00     0.167 HD
ATOM     35  C   UNL A   1      43.114  31.852  29.516  1.00  0.00     0.074 A 
ATOM     36  C   UNL A   1      42.318  32.771  30.305  1.00  0.00     0.031 C 
ATOM     37  C   UNL A   1      44.375  32.111  29.084  1.00  0.00     0.034 A 
BRANCH  24  38
ATOM     38  C   UNL A   1      46.885  27.612  25.619  1.00  0.00     0.023 A 
ATOM     39  C   UNL A   1      47.093  27.967  24.275  1.00  0.00     0.031 A 
ATOM     40  C   UNL A   1      47.836  26.774  26.232  1.00  0.00     0.131 A 
ATOM     41  C   UNL A   1      48.193  27.444  23.575  1.00  0.00     0.055 A 
ATOM     42  C   UNL A   1      48.968  26.320  25.552  1.00  0.00     0.041 A 
ATOM     43  F   UNL A   1      47.680  26.382  27.506  1.00  0.00    -0.206 F 
ATOM     44  C   UNL A   1      49.147  26.649  24.213  1.00  0.00     0.022 A 
BRANCH  41  45
ATOM     45  S   UNL A   1      48.321  27.737  21.790  1.00  0.00     0.124 S 
ATOM     46  O   UNL A   1      46.988  28.255  21.489  1.00  0.00    -0.237 OA
ATOM     47  O   UNL A   1      49.411  28.701  21.695  1.00  0.00    -0.237 OA
ATOM     48  O   UNL A   1      48.606  26.415  21.242  1.00  0.00    -0.744 OA
ENDBRANCH  41  45
ENDBRANCH  24  38
BRANCH  25  49
ATOM     49  C   UNL A   1      38.852  30.442  30.974  1.00  0.00     0.023 A 
ATOM     50  C   UNL A   1      37.740  31.083  30.408  1.00  0.00     0.031 A 
ATOM     51  C   UNL A   1      38.845  30.221  32.366  1.00  0.00     0.131 A 
ATOM     52  C   UNL A   1      36.691  31.520  31.232  1.00  0.00     0.055 A 
ATOM     53  C   UNL A   1      37.770  30.597  33.169  1.00  0.00     0.041 A 
ATOM     54  F   UNL A   1      39.883  29.613  32.962  1.00  0.00    -0.206 F 
ATOM     55  C   UNL A   1      36.691  31.266  32.605  1.00  0.00     0.022 A 
BRANCH  52  56
ATOM     56  S   UNL A   1      35.371  32.526  30.499  1.00  0.00     0.124 S 
ATOM     57  O   UNL A   1      36.071  33.772  30.206  1.00  0.00    -0.237 OA
ATOM     58  O   UNL A   1      34.984  31.721  29.345  1.00  0.00    -0.237 OA
ATOM     59  O   UNL A   1      34.374  32.606  31.565  1.00  0.00    -0.744 OA
ENDBRANCH  52  56
ENDBRANCH  25  49
BRANCH  37  60
ATOM     60  C   UNL A   1      44.943  33.456  29.462  1.00  0.00     0.023 A 
ATOM     61  C   UNL A   1      44.773  34.580  28.634  1.00  0.00     0.031 A 
ATOM     62  C   UNL A   1      45.712  33.603  30.629  1.00  0.00     0.131 A 
ATOM     63  C   UNL A   1      45.432  35.780  28.941  1.00  0.00     0.055 A 
ATOM     64  C   UNL A   1      46.308  34.819  30.966  1.00  0.00     0.041 A 
ATOM     65  F   UNL A   1      45.906  32.562  31.454  1.00  0.00    -0.206 F 
ATOM     66  C   UNL A   1      46.185  35.910  30.110  1.00  0.00     0.022 A 
BRANCH  63  67
ATOM     67  S   UNL A   1      45.395  37.125  27.725  1.00  0.00     0.124 S 
ATOM     68  O   UNL A   1      45.668  38.292  28.557  1.00  0.00    -0.237 OA
ATOM     69  O   UNL A   1      46.456  36.739  26.802  1.00  0.00    -0.237 OA
ATOM     70  O   UNL A   1      44.040  37.055  27.180  1.00  0.00    -0.744 OA
ENDBRANCH  63  67
ENDBRANCH  37  60
ENDBRANCH  11  12
ENDBRANCH   4   6
ENDBRANCH   1   2
BRANCH   1  71
ATOM     71  C   UNL A   1      35.527  23.399  24.791  1.00  0.00     0.042 C 
BRANCH  71  72
ATOM     72  C   UNL A   1      34.772  24.703  24.965  1.00  0.00     0.117 C 
BRANCH  72  73
ATOM     73  N   UNL A   1      34.318  25.214  23.694  1.00  0.00    -0.354 N 
ATOM     74  C   UNL A   1      33.257  25.986  23.341  1.00  0.00     0.243 C 
ATOM     75  H   UNL A   1      34.888  24.953  22.935  1.00  0.00     0.163 HD
ATOM     76  O   UNL A   1      33.277  26.332  22.150  1.00  0.00    -0.273 OA
BRANCH  74  77
ATOM     77  C   UNL A   1      32.247  26.632  24.347  1.00  0.00     0.185 C 
ATOM     78  C   UNL A   1      32.149  28.140  24.036  1.00  0.00     0.106 C 
ATOM     79  N   UNL A   1      30.864  26.092  24.495  1.00  0.00    -0.316 N 
ATOM     80  S   UNL A   1      30.585  28.345  23.170  1.00  0.00    -0.138 SA
ATOM     81  C   UNL A   1      29.820  27.033  24.115  1.00  0.00     0.190 C 
BRANCH  79  82
ATOM     82  C   UNL A   1      30.580  25.113  25.429  1.00  0.00     0.262 C 
ATOM     83  O   UNL A   1      29.779  25.339  26.342  1.00  0.00    -0.269 OA
BRANCH  82  84
ATOM     84  C   UNL A   1      31.259  23.778  25.355  1.00  0.00     0.124 A 
ATOM     85  C   UNL A   1      31.856  23.328  26.471  1.00  0.00     0.133 A 
ATOM     86  C   UNL A   1      31.482  22.960  24.137  1.00  0.00     0.270 A 
ATOM     87  N   UNL A   1      32.539  22.149  26.602  1.00  0.00    -0.237 NA
ATOM     88  N   UNL A   1      32.019  21.697  24.338  1.00  0.00    -0.267 N 
ATOM     89  O   UNL A   1      31.235  23.420  23.022  1.00  0.00    -0.268 OA
ATOM     90  C   UNL A   1      32.575  21.368  25.566  1.00  0.00     0.139 A 
ATOM     91  C   UNL A   1      32.047  20.796  23.278  1.00  0.00     0.096 A 
ATOM     92  C   UNL A   1      33.239  20.039  25.680  1.00  0.00     0.048 A 
ATOM     93  C   UNL A   1      32.600  19.587  23.401  1.00  0.00     0.019 A 
ATOM     94  C   UNL A   1      33.224  19.200  24.637  1.00  0.00     0.005 A 
ENDBRANCH  82  84
ENDBRANCH  79  82
ENDBRANCH  74  77
ENDBRANCH  72  73
ENDBRANCH  71  72
ENDBRANCH   1  71
TORSDOF 15
ENDMDL
MODEL 2
REMARK VINA RESULT:     -12.3      5.121     10.121
REMARK SMILES O=C(NCCCNC(=O)[C@H]1CSCN1C(=O)c1cnc2ccccn2c1=O)c1ccc(-c2c3nc(c(-c4cc(S(=O)(=O)[O-])ccc4F)c4ccc([nH]4)c(-c4cc(S(=O)(=O)[O-])ccc4F)c4nc(c(-c5cc(S(=O)(=O)[O-])ccc5F)c5ccc2[nH]5)C=C4)C=C3)cc1
REMARK SMILES IDX 4 1 3 2 1 3 2 4 28 6 29 7 90 8 30 9 89 10 31 11 32 12 33 13
REMARK SMILES IDX 83 14 34 15 88 16 82 17 84 18 35 19 87 20 81 21 80 22 36 24
REMARK SMILES IDX 68 25 48 26 67 27 49 28 52 29 66 30 85 31 50 32 51 33 65 35
REMARK SMILES IDX 86 36 53 37 37 38 38 39 46 40 39 41 45 42 47 43 44 44 40 45
REMARK SMILES IDX 41 46 42 47 43 48 69 49 70 50 78 51 71 52 77 53 79 54 76 55
REMARK SMILES IDX 72 56 73 57 74 58 75 59 54 60 55 61 63 62 56 63 62 64 64 65
REMARK SMILES IDX 61 66 57 67 58 68 59 69 60 70 5 71 6 72 7 73 8 74 9 76 10 77
REMARK SMILES IDX 11 78 14 79 12 80 13 81 15 82 16 83 17 84 18 85 26 86 19 87
REMARK SMILES IDX 25 88 27 89 20 90 24 91 21 92 23 93 22 94
REMARK H PARENT 3 5 84 23 52 34 7 75
REMARK Flexibility Score: inf
ROOT
ATOM      1  C   UNL A   1      33.438  28.800  25.273  1.00  0.00     0.118 C 
ENDROOT
BRANCH   1   2
ATOM      2  N   UNL A   1      32.852  30.084  25.654  1.00  0.00    -0.352 N 
ATOM      3  O   UNL A   1      32.410  31.854  26.974  1.00  0.00    -0.269 OA
ATOM      4  C   UNL A   1      33.171  30.929  26.691  1.00  0.00     0.251 C 
ATOM      5  H   UNL A   1      32.116  30.392  25.078  1.00  0.00     0.163 HD
BRANCH   4   6
ATOM      6  C   UNL A   1      34.414  30.728  27.467  1.00  0.00     0.039 A 
ATOM      7  C   UNL A   1      34.710  29.476  28.005  1.00  0.00     0.014 A 
ATOM      8  C   UNL A   1      35.316  31.785  27.638  1.00  0.00     0.014 A 
ATOM      9  C   UNL A   1      35.791  29.328  28.857  1.00  0.00     0.010 A 
ATOM     10  C   UNL A   1      36.486  31.593  28.384  1.00  0.00     0.010 A 
ATOM     11  C   UNL A   1      36.722  30.366  29.020  1.00  0.00    -0.014 A 
BRANCH  11  12
ATOM     12  C   UNL A   1      37.965  30.067  29.781  1.00  0.00     0.031 A 
ATOM     13  C   UNL A   1      38.152  30.523  31.200  1.00  0.00     0.074 A 
ATOM     14  C   UNL A   1      38.890  29.286  29.183  1.00  0.00     0.049 A 
ATOM     15  N   UNL A   1      39.141  30.268  32.019  1.00  0.00    -0.248 NA
ATOM     16  C   UNL A   1      37.109  31.387  31.774  1.00  0.00     0.031 C 
ATOM     17  C   UNL A   1      38.810  28.809  27.796  1.00  0.00     0.029 A 
ATOM     18  N   UNL A   1      40.040  28.713  29.658  1.00  0.00    -0.354 N 
ATOM     19  C   UNL A   1      38.854  30.948  33.196  1.00  0.00     0.074 A 
ATOM     20  C   UNL A   1      37.608  31.654  32.974  1.00  0.00     0.031 C 
ATOM     21  C   UNL A   1      39.805  27.942  27.568  1.00  0.00     0.029 A 
ATOM     22  C   UNL A   1      40.654  27.880  28.750  1.00  0.00     0.049 A 
ATOM     23  H   UNL A   1      40.392  28.880  30.561  1.00  0.00     0.167 HD
ATOM     24  C   UNL A   1      39.566  30.975  34.351  1.00  0.00     0.034 A 
ATOM     25  C   UNL A   1      41.787  27.159  28.844  1.00  0.00     0.034 A 
ATOM     26  C   UNL A   1      40.807  30.258  34.544  1.00  0.00     0.049 A 
ATOM     27  C   UNL A   1      42.550  27.209  30.137  1.00  0.00     0.074 A 
ATOM     28  C   UNL A   1      41.611  30.214  35.671  1.00  0.00     0.029 A 
ATOM     29  N   UNL A   1      41.426  29.460  33.588  1.00  0.00    -0.354 N 
ATOM     30  N   UNL A   1      42.260  27.863  31.239  1.00  0.00    -0.248 NA
ATOM     31  C   UNL A   1      43.788  26.427  30.203  1.00  0.00     0.031 C 
ATOM     32  C   UNL A   1      42.741  29.443  35.377  1.00  0.00     0.029 A 
ATOM     33  C   UNL A   1      42.610  28.940  34.092  1.00  0.00     0.049 A 
ATOM     34  H   UNL A   1      41.075  29.289  32.685  1.00  0.00     0.167 HD
ATOM     35  C   UNL A   1      43.287  27.572  32.130  1.00  0.00     0.074 A 
ATOM     36  C   UNL A   1      44.170  26.644  31.452  1.00  0.00     0.031 C 
ATOM     37  C   UNL A   1      43.492  28.040  33.388  1.00  0.00     0.034 A 
BRANCH  24  38
ATOM     38  C   UNL A   1      39.050  31.843  35.476  1.00  0.00     0.023 A 
ATOM     39  C   UNL A   1      38.407  31.301  36.602  1.00  0.00     0.031 A 
ATOM     40  C   UNL A   1      39.213  33.240  35.421  1.00  0.00     0.131 A 
ATOM     41  C   UNL A   1      37.904  32.153  37.599  1.00  0.00     0.055 A 
ATOM     42  C   UNL A   1      38.779  34.075  36.453  1.00  0.00     0.041 A 
ATOM     43  F   UNL A   1      39.799  33.818  34.361  1.00  0.00    -0.206 F 
ATOM     44  C   UNL A   1      38.113  33.533  37.547  1.00  0.00     0.022 A 
BRANCH  41  45
ATOM     45  S   UNL A   1      36.890  31.452  38.928  1.00  0.00     0.124 S 
ATOM     46  O   UNL A   1      37.785  31.588  40.075  1.00  0.00    -0.237 OA
ATOM     47  O   UNL A   1      35.716  32.319  38.935  1.00  0.00    -0.237 OA
ATOM     48  O   UNL A   1      36.650  30.079  38.493  1.00  0.00    -0.744 OA
ENDBRANCH  41  45
ENDBRANCH  24  38
BRANCH  25  49
ATOM     49  C   UNL A   1      42.289  26.381  27.673  1.00  0.00     0.023 A 
ATOM     50  C   UNL A   1      41.949  25.032  27.487  1.00  0.00     0.031 A 
ATOM     51  C   UNL A   1      43.156  26.975  26.735  1.00  0.00     0.131 A 
ATOM     52  C   UNL A   1      42.507  24.312  26.419  1.00  0.00     0.055 A 
ATOM     53  C   UNL A   1      43.652  26.272  25.637  1.00  0.00     0.041 A 
ATOM     54  F   UNL A   1      43.516  28.262  26.863  1.00  0.00    -0.206 F 
ATOM     55  C   UNL A   1      43.341  24.928  25.484  1.00  0.00     0.022 A 
BRANCH  52  56
ATOM     56  S   UNL A   1      42.211  22.524  26.328  1.00  0.00     0.124 S 
ATOM     57  O   UNL A   1      40.763  22.452  26.488  1.00  0.00    -0.237 OA
ATOM     58  O   UNL A   1      42.726  22.200  25.002  1.00  0.00    -0.237 OA
ATOM     59  O   UNL A   1      42.990  21.994  27.446  1.00  0.00    -0.744 OA
ENDBRANCH  52  56
ENDBRANCH  25  49
BRANCH  37  60
ATOM     60  C   UNL A   1      44.722  27.528  34.095  1.00  0.00     0.023 A 
ATOM     61  C   UNL A   1      44.683  26.358  34.874  1.00  0.00     0.031 A 
ATOM     62  C   UNL A   1      45.927  28.246  34.038  1.00  0.00     0.131 A 
ATOM     63  C   UNL A   1      45.803  25.986  35.632  1.00  0.00     0.055 A 
ATOM     64  C   UNL A   1      47.061  27.833  34.739  1.00  0.00     0.041 A 
ATOM     65  F   UNL A   1      46.019  29.371  33.310  1.00  0.00    -0.206 F 
ATOM     66  C   UNL A   1      46.996  26.707  35.557  1.00  0.00     0.022 A 
BRANCH  63  67
ATOM     67  S   UNL A   1      45.635  24.620  36.814  1.00  0.00     0.124 S 
ATOM     68  O   UNL A   1      46.851  24.759  37.609  1.00  0.00    -0.237 OA
ATOM     69  O   UNL A   1      44.388  24.950  37.495  1.00  0.00    -0.237 OA
ATOM     70  O   UNL A   1      45.583  23.435  35.961  1.00  0.00    -0.744 OA
ENDBRANCH  63  67
ENDBRANCH  37  60
ENDBRANCH  11  12
ENDBRANCH   4   6
ENDBRANCH   1   2
BRANCH   1  71
ATOM     71  C   UNL A   1      32.611  27.629  25.778  1.00  0.00     0.042 C 
BRANCH  71  72
ATOM     72  C   UNL A   1      33.404  26.336  25.818  1.00  0.00     0.117 C 
BRANCH  72  73
ATOM     73  N   UNL A   1      32.669  25.296  26.495  1.00  0.00    -0.354 N 
ATOM     74  C   UNL A   1      32.527  23.966  26.255  1.00  0.00     0.243 C 
ATOM     75  H   UNL A   1      32.174  25.610  27.286  1.00  0.00     0.163 HD
ATOM     76  O   UNL A   1      31.912  23.369  27.151  1.00  0.00    -0.273 OA
BRANCH  74  77
ATOM     77  C   UNL A   1      33.279  23.175  25.133  1.00  0.00     0.185 C 
ATOM     78  C   UNL A   1      33.694  21.803  25.703  1.00  0.00     0.106 C 
ATOM     79  N   UNL A   1      32.652  22.959  23.798  1.00  0.00    -0.316 N 
ATOM     80  S   UNL A   1      32.527  20.625  25.000  1.00  0.00    -0.138 SA
ATOM     81  C   UNL A   1      32.407  21.560  23.480  1.00  0.00     0.190 C 
BRANCH  79  82
ATOM     82  C   UNL A   1      32.849  23.858  22.766  1.00  0.00     0.262 C 
ATOM     83  O   UNL A   1      33.655  23.604  21.865  1.00  0.00    -0.269 OA
BRANCH  82  84
ATOM     84  C   UNL A   1      32.105  25.160  22.744  1.00  0.00     0.124 A 
ATOM     85  C   UNL A   1      32.735  26.221  22.215  1.00  0.00     0.133 A 
ATOM     86  C   UNL A   1      30.799  25.449  23.388  1.00  0.00     0.270 A 
ATOM     87  N   UNL A   1      32.236  27.492  22.120  1.00  0.00    -0.237 NA
ATOM     88  N   UNL A   1      30.246  26.692  23.120  1.00  0.00    -0.267 N 
ATOM     89  O   UNL A   1      30.281  24.627  24.145  1.00  0.00    -0.268 OA
ATOM     90  C   UNL A   1      31.021  27.684  22.535  1.00  0.00     0.139 A 
ATOM     91  C   UNL A   1      28.933  26.946  23.501  1.00  0.00     0.096 A 
ATOM     92  C   UNL A   1      30.403  29.030  22.382  1.00  0.00     0.048 A 
ATOM     93  C   UNL A   1      28.367  28.142  23.316  1.00  0.00     0.019 A 
ATOM     94  C   UNL A   1      29.130  29.220  22.748  1.00  0.00     0.005 A 
ENDBRANCH  82  84
ENDBRANCH  79  82
ENDBRANCH  74  77
ENDBRANCH  72  73
ENDBRANCH  71  72
ENDBRANCH   1  71
TORSDOF 15
ENDMDL
MODEL 3
REMARK VINA RESULT:     -12.2      4.992      9.824
REMARK SMILES O=C(NCCCNC(=O)[C@H]1CSCN1C(=O)c1cnc2ccccn2c1=O)c1ccc(-c2c3nc(c(-c4cc(S(=O)(=O)[O-])ccc4F)c4ccc([nH]4)c(-c4cc(S(=O)(=O)[O-])ccc4F)c4nc(c(-c5cc(S(=O)(=O)[O-])ccc5F)c5ccc2[nH]5)C=C4)C=C3)cc1
REMARK SMILES IDX 4 1 3 2 1 3 2 4 28 6 29 7 90 8 30 9 89 10 31 11 32 12 33 13
REMARK SMILES IDX 83 14 34 15 88 16 82 17 84 18 35 19 87 20 81 21 80 22 36 24
REMARK SMILES IDX 68 25 48 26 67 27 49 28 52 29 66 30 85 31 50 32 51 33 65 35
REMARK SMILES IDX 86 36 53 37 37 38 38 39 46 40 39 41 45 42 47 43 44 44 40 45
REMARK SMILES IDX 41 46 42 47 43 48 69 49 70 50 78 51 71 52 77 53 79 54 76 55
REMARK SMILES IDX 72 56 73 57 74 58 75 59 54 60 55 61 63 62 56 63 62 64 64 65
REMARK SMILES IDX 61 66 57 67 58 68 59 69 60 70 5 71 6 72 7 73 8 74 9 76 10 77
REMARK SMILES IDX 11 78 14 79 12 80 13 81 15 82 16 83 17 84 18 85 26 86 19 87
REMARK SMILES IDX 25 88 27 89 20 90 24 91 21 92 23 93 22 94
REMARK H PARENT 3 5 84 23 52 34 7 75
REMARK Flexibility Score: inf
ROOT
ATOM      1  C   UNL A   1      33.165  29.057  25.622  1.00  0.00     0.118 C 
ENDROOT
BRANCH   1   2
ATOM      2  N   UNL A   1      32.689  30.404  25.929  1.00  0.00    -0.352 N 
ATOM      3  O   UNL A   1      32.435  32.294  27.125  1.00  0.00    -0.269 OA
ATOM      4  C   UNL A   1      33.117  31.298  26.881  1.00  0.00     0.251 C 
ATOM      5  H   UNL A   1      31.946  30.720  25.365  1.00  0.00     0.163 HD
BRANCH   4   6
ATOM      6  C   UNL A   1      34.382  31.067  27.613  1.00  0.00     0.039 A 
ATOM      7  C   UNL A   1      34.632  29.830  28.204  1.00  0.00     0.014 A 
ATOM      8  C   UNL A   1      35.347  32.079  27.687  1.00  0.00     0.014 A 
ATOM      9  C   UNL A   1      35.742  29.664  29.015  1.00  0.00     0.010 A 
ATOM     10  C   UNL A   1      36.537  31.859  28.392  1.00  0.00     0.010 A 
ATOM     11  C   UNL A   1      36.735  30.655  29.082  1.00  0.00    -0.014 A 
BRANCH  11  12
ATOM     12  C   UNL A   1      37.993  30.325  29.804  1.00  0.00     0.031 A 
ATOM     13  C   UNL A   1      38.221  30.746  31.228  1.00  0.00     0.074 A 
ATOM     14  C   UNL A   1      38.894  29.548  29.164  1.00  0.00     0.049 A 
ATOM     15  N   UNL A   1      39.228  30.461  32.015  1.00  0.00    -0.248 NA
ATOM     16  C   UNL A   1      37.203  31.608  31.848  1.00  0.00     0.031 C 
ATOM     17  C   UNL A   1      38.774  29.104  27.770  1.00  0.00     0.029 A 
ATOM     18  N   UNL A   1      40.049  28.952  29.596  1.00  0.00    -0.354 N 
ATOM     19  C   UNL A   1      38.978  31.117  33.214  1.00  0.00     0.074 A 
ATOM     20  C   UNL A   1      37.735  31.841  33.040  1.00  0.00     0.031 C 
ATOM     21  C   UNL A   1      39.753  28.233  27.496  1.00  0.00     0.029 A 
ATOM     22  C   UNL A   1      40.630  28.133  28.654  1.00  0.00     0.049 A 
ATOM     23  H   UNL A   1      40.426  29.094  30.494  1.00  0.00     0.167 HD
ATOM     24  C   UNL A   1      39.720  31.109  34.351  1.00  0.00     0.034 A 
ATOM     25  C   UNL A   1      41.757  27.398  28.703  1.00  0.00     0.034 A 
ATOM     26  C   UNL A   1      40.957  30.375  34.496  1.00  0.00     0.049 A 
ATOM     27  C   UNL A   1      42.553  27.411  29.977  1.00  0.00     0.074 A 
ATOM     28  C   UNL A   1      41.789  30.296  35.600  1.00  0.00     0.029 A 
ATOM     29  N   UNL A   1      41.542  29.593  33.506  1.00  0.00    -0.354 N 
ATOM     30  N   UNL A   1      42.299  28.042  31.100  1.00  0.00    -0.248 NA
ATOM     31  C   UNL A   1      43.784  26.614  29.993  1.00  0.00     0.031 C 
ATOM     32  C   UNL A   1      42.902  29.520  35.260  1.00  0.00     0.029 A 
ATOM     33  C   UNL A   1      42.733  29.048  33.968  1.00  0.00     0.049 A 
ATOM     34  H   UNL A   1      41.167  29.446  32.608  1.00  0.00     0.167 HD
ATOM     35  C   UNL A   1      43.344  27.720  31.958  1.00  0.00     0.074 A 
ATOM     36  C   UNL A   1      44.199  26.798  31.236  1.00  0.00     0.031 C 
ATOM     37  C   UNL A   1      43.587  28.156  33.221  1.00  0.00     0.034 A 
BRANCH  24  38
ATOM     38  C   UNL A   1      39.242  31.956  35.508  1.00  0.00     0.023 A 
ATOM     39  C   UNL A   1      38.552  31.405  36.602  1.00  0.00     0.031 A 
ATOM     40  C   UNL A   1      39.491  33.342  35.519  1.00  0.00     0.131 A 
ATOM     41  C   UNL A   1      38.089  32.242  37.631  1.00  0.00     0.055 A 
ATOM     42  C   UNL A   1      39.094  34.155  36.582  1.00  0.00     0.041 A 
ATOM     43  F   UNL A   1      40.125  33.929  34.492  1.00  0.00    -0.206 F 
ATOM     44  C   UNL A   1      38.382  33.607  37.643  1.00  0.00     0.022 A 
BRANCH  41  45
ATOM     45  S   UNL A   1      37.015  31.546  38.915  1.00  0.00     0.124 S 
ATOM     46  O   UNL A   1      35.863  32.441  38.842  1.00  0.00    -0.237 OA
ATOM     47  O   UNL A   1      36.788  30.183  38.447  1.00  0.00    -0.237 OA
ATOM     48  O   UNL A   1      37.811  31.664  40.134  1.00  0.00    -0.744 OA
ENDBRANCH  41  45
ENDBRANCH  24  38
BRANCH  25  49
ATOM     49  C   UNL A   1      42.221  26.642  27.502  1.00  0.00     0.023 A 
ATOM     50  C   UNL A   1      41.926  25.281  27.332  1.00  0.00     0.031 A 
ATOM     51  C   UNL A   1      43.006  27.272  26.516  1.00  0.00     0.131 A 
ATOM     52  C   UNL A   1      42.448  24.585  26.230  1.00  0.00     0.055 A 
ATOM     53  C   UNL A   1      43.465  26.591  25.389  1.00  0.00     0.041 A 
ATOM     54  F   UNL A   1      43.320  28.573  26.627  1.00  0.00    -0.206 F 
ATOM     55  C   UNL A   1      43.201  25.235  25.250  1.00  0.00     0.022 A 
BRANCH  52  56
ATOM     56  S   UNL A   1      42.221  22.787  26.151  1.00  0.00     0.124 S 
ATOM     57  O   UNL A   1      40.767  22.668  26.182  1.00  0.00    -0.237 OA
ATOM     58  O   UNL A   1      42.865  22.456  24.885  1.00  0.00    -0.237 OA
ATOM     59  O   UNL A   1      42.912  22.305  27.346  1.00  0.00    -0.744 OA
ENDBRANCH  52  56
ENDBRANCH  25  49
BRANCH  37  60
ATOM     60  C   UNL A   1      44.828  27.614  33.884  1.00  0.00     0.023 A 
ATOM     61  C   UNL A   1      44.802  26.411  34.611  1.00  0.00     0.031 A 
ATOM     62  C   UNL A   1      46.033  28.336  33.839  1.00  0.00     0.131 A 
ATOM     63  C   UNL A   1      45.935  26.007  35.333  1.00  0.00     0.055 A 
ATOM     64  C   UNL A   1      47.178  27.893  34.503  1.00  0.00     0.041 A 
ATOM     65  F   UNL A   1      46.112  29.492  33.160  1.00  0.00    -0.206 F 
ATOM     66  C   UNL A   1      47.127  26.732  35.271  1.00  0.00     0.022 A 
BRANCH  63  67
ATOM     67  S   UNL A   1      45.788  24.590  36.457  1.00  0.00     0.124 S 
ATOM     68  O   UNL A   1      46.921  23.765  36.053  1.00  0.00    -0.237 OA
ATOM     69  O   UNL A   1      45.894  25.221  37.768  1.00  0.00    -0.237 OA
ATOM     70  O   UNL A   1      44.472  24.038  36.139  1.00  0.00    -0.744 OA
ENDBRANCH  63  67
ENDBRANCH  37  60
ENDBRANCH  11  12
ENDBRANCH   4   6
ENDBRANCH   1   2
BRANCH   1  71
ATOM     71  C   UNL A   1      32.027  28.050  25.575  1.00  0.00     0.042 C 
BRANCH  71  72
ATOM     72  C   UNL A   1      32.434  26.692  26.115  1.00  0.00     0.117 C 
BRANCH  72  73
ATOM     73  N   UNL A   1      31.281  25.936  26.540  1.00  0.00    -0.354 N 
ATOM     74  C   UNL A   1      30.808  24.711  26.191  1.00  0.00     0.243 C 
ATOM     75  H   UNL A   1      30.731  26.396  27.215  1.00  0.00     0.163 HD
ATOM     76  O   UNL A   1      29.847  24.341  26.883  1.00  0.00    -0.273 OA
BRANCH  74  77
ATOM     77  C   UNL A   1      31.531  23.714  25.224  1.00  0.00     0.185 C 
ATOM     78  C   UNL A   1      31.022  23.975  23.791  1.00  0.00     0.106 C 
ATOM     79  N   UNL A   1      33.019  23.630  25.186  1.00  0.00    -0.316 N 
ATOM     80  S   UNL A   1      32.345  24.882  22.975  1.00  0.00    -0.138 SA
ATOM     81  C   UNL A   1      33.599  24.009  23.906  1.00  0.00     0.190 C 
BRANCH  79  82
ATOM     82  C   UNL A   1      33.702  22.741  25.996  1.00  0.00     0.262 C 
ATOM     83  O   UNL A   1      34.159  23.114  27.081  1.00  0.00    -0.269 OA
BRANCH  82  84
ATOM     84  C   UNL A   1      33.912  21.324  25.554  1.00  0.00     0.124 A 
ATOM     85  C   UNL A   1      35.158  20.966  25.203  1.00  0.00     0.133 A 
ATOM     86  C   UNL A   1      32.862  20.303  25.310  1.00  0.00     0.270 A 
ATOM     87  N   UNL A   1      35.549  19.733  24.759  1.00  0.00    -0.237 NA
ATOM     88  N   UNL A   1      33.308  19.020  25.032  1.00  0.00    -0.267 N 
ATOM     89  O   UNL A   1      31.672  20.617  25.318  1.00  0.00    -0.268 OA
ATOM     90  C   UNL A   1      34.643  18.804  24.716  1.00  0.00     0.139 A 
ATOM     91  C   UNL A   1      32.394  17.973  25.014  1.00  0.00     0.096 A 
ATOM     92  C   UNL A   1      35.033  17.424  24.313  1.00  0.00     0.048 A 
ATOM     93  C   UNL A   1      32.759  16.727  24.700  1.00  0.00     0.019 A 
ATOM     94  C   UNL A   1      34.120  16.446  24.329  1.00  0.00     0.005 A 
ENDBRANCH  82  84
ENDBRANCH  79  82
ENDBRANCH  74  77
ENDBRANCH  72  73
ENDBRANCH  71  72
ENDBRANCH   1  71
TORSDOF 15
ENDMDL
