MODEL 1
REMARK VINA RESULT:     -13.1      0.000      0.000
REMARK SMILES CC(C)[C@H](NC(=O)/C(=C\c1ccc(Cl)cc1)NC(=O)c1ccco1)C(=O)NCCCNC(=O)c1ccc(-c2c3nc(c(-c4cc(S(=O)(=O)[O-])ccc4F)c4ccc([nH]4)c(-c4cc(S(=O)(=O)[O-])ccc4F)c4nc(c(-c5cc(S(=O)(=O)[O-])ccc5F)c5ccc2[nH]5)C=C4)C=C3)cc1
REMARK SMILES IDX 28 1 27 2 25 3 26 4 4 6 2 7 1 8 3 9 5 10 6 11 7 13 8 14 9 15
REMARK SMILES IDX 17 16 18 17 19 19 20 20 21 21 24 22 22 23 23 24 10 25 11 26
REMARK SMILES IDX 16 27 12 28 15 29 13 30 14 31 29 32 30 33 31 34 32 35 33 37
REMARK SMILES IDX 34 38 35 39 96 40 36 41 95 42 37 43 38 44 39 45 89 46 40 47
REMARK SMILES IDX 94 48 88 49 90 50 41 51 93 52 87 53 86 54 42 56 74 57 54 58
REMARK SMILES IDX 73 59 55 60 58 61 72 62 91 63 56 64 57 65 71 67 92 68 59 69
REMARK SMILES IDX 43 70 44 71 52 72 45 73 51 74 53 75 50 76 46 77 47 78 48 79
REMARK SMILES IDX 49 80 75 81 76 82 84 83 77 84 83 85 85 86 82 87 78 88 79 89
REMARK SMILES IDX 80 90 81 91 60 92 61 93 69 94 62 95 68 96 70 97 67 98 63 99
REMARK SMILES IDX 64 100 65 101 66 102
REMARK H PARENT 27 5 5 12 17 18 31 36 90 55 58 66
REMARK Flexibility Score: inf
ROOT
ATOM      1  C   UNL A   1      35.105  22.970  24.322  1.00  0.00     0.117 C 
ENDROOT
BRANCH   1   2
ATOM      2  N   UNL A   1      34.612  23.860  23.228  1.00  0.00    -0.354 N 
ATOM      3  C   UNL A   1      33.720  24.940  23.095  1.00  0.00     0.242 C 
ATOM      4  O   UNL A   1      34.047  25.724  22.183  1.00  0.00    -0.273 OA
ATOM      5  H   UNL A   1      35.022  23.628  22.364  1.00  0.00     0.163 HD
BRANCH   3   6
ATOM      6  C   UNL A   1      32.282  25.307  23.901  1.00  0.00     0.174 C 
BRANCH   6   7
ATOM      7  C   UNL A   1      31.469  24.669  25.233  1.00  0.00     0.015 C 
ATOM      8  C   UNL A   1      30.224  25.415  25.755  1.00  0.00     0.010 C 
ATOM      9  C   UNL A   1      30.984  23.188  25.114  1.00  0.00     0.010 C 
ENDBRANCH   6   7
BRANCH   6  10
ATOM     10  N   UNL A   1      31.319  25.448  22.880  1.00  0.00    -0.339 N 
ATOM     11  C   UNL A   1      31.007  26.684  22.453  1.00  0.00     0.268 C 
ATOM     12  H   UNL A   1      30.884  24.657  22.487  1.00  0.00     0.164 HD
ATOM     13  O   UNL A   1      31.020  26.873  21.234  1.00  0.00    -0.268 OA
BRANCH  11  14
ATOM     14  C   UNL A   1      30.496  27.771  23.382  1.00  0.00     0.107 C 
ATOM     15  C   UNL A   1      31.023  28.643  24.333  1.00  0.00     0.040 C 
BRANCH  14  16
ATOM     16  N   UNL A   1      29.076  27.688  23.319  1.00  0.00    -0.315 N 
ATOM     17  C   UNL A   1      28.083  28.688  23.064  1.00  0.00     0.291 C 
ATOM     18  H   UNL A   1      28.714  26.787  23.478  1.00  0.00     0.170 HD
ATOM     19  O   UNL A   1      26.927  28.325  23.311  1.00  0.00    -0.265 OA
BRANCH  17  20
ATOM     20  C   UNL A   1      28.336  30.035  22.485  1.00  0.00     0.191 A 
ATOM     21  C   UNL A   1      28.800  31.265  22.946  1.00  0.00     0.056 A 
ATOM     22  O   UNL A   1      28.072  30.199  21.135  1.00  0.00    -0.459 OA
ATOM     23  C   UNL A   1      28.761  32.200  21.881  1.00  0.00     0.043 A 
ATOM     24  C   UNL A   1      28.292  31.500  20.805  1.00  0.00     0.196 A 
ENDBRANCH  17  20
ENDBRANCH  14  16
BRANCH  15  25
ATOM     25  C   UNL A   1      32.258  29.040  25.238  1.00  0.00    -0.023 A 
ATOM     26  C   UNL A   1      33.480  28.397  25.470  1.00  0.00     0.010 A 
ATOM     27  C   UNL A   1      32.119  30.150  26.101  1.00  0.00     0.010 A 
ATOM     28  C   UNL A   1      34.470  28.730  26.423  1.00  0.00     0.021 A 
ATOM     29  C   UNL A   1      33.089  30.516  27.088  1.00  0.00     0.021 A 
ATOM     30  C   UNL A   1      34.263  29.797  27.250  1.00  0.00     0.041 A 
ATOM     31  Cl  UNL A   1      35.419  30.178  28.461  1.00  0.00    -0.084 Cl
ENDBRANCH  15  25
ENDBRANCH  11  14
ENDBRANCH   6  10
ENDBRANCH   3   6
ENDBRANCH   1   2
BRANCH   1  32
ATOM     32  C   UNL A   1      36.298  22.004  24.174  1.00  0.00     0.042 C 
BRANCH  32  33
ATOM     33  C   UNL A   1      36.728  21.219  25.448  1.00  0.00     0.118 C 
BRANCH  33  34
ATOM     34  N   UNL A   1      38.048  20.574  25.482  1.00  0.00    -0.352 N 
ATOM     35  C   UNL A   1      39.285  20.902  26.026  1.00  0.00     0.251 C 
ATOM     36  H   UNL A   1      38.061  19.710  25.011  1.00  0.00     0.163 HD
ATOM     37  O   UNL A   1      40.149  20.023  26.002  1.00  0.00    -0.269 OA
BRANCH  35  38
ATOM     38  C   UNL A   1      39.623  22.249  26.571  1.00  0.00     0.039 A 
ATOM     39  C   UNL A   1      40.674  22.389  27.493  1.00  0.00     0.014 A 
ATOM     40  C   UNL A   1      38.938  23.393  26.188  1.00  0.00     0.014 A 
ATOM     41  C   UNL A   1      41.121  23.667  27.883  1.00  0.00     0.010 A 
ATOM     42  C   UNL A   1      39.474  24.654  26.448  1.00  0.00     0.010 A 
ATOM     43  C   UNL A   1      40.584  24.820  27.288  1.00  0.00    -0.014 A 
BRANCH  43  44
ATOM     44  C   UNL A   1      41.149  26.193  27.497  1.00  0.00     0.031 A 
ATOM     45  C   UNL A   1      42.504  26.553  26.922  1.00  0.00     0.074 A 
ATOM     46  C   UNL A   1      40.520  27.074  28.308  1.00  0.00     0.049 A 
ATOM     47  N   UNL A   1      43.260  27.596  27.158  1.00  0.00    -0.248 NA
ATOM     48  C   UNL A   1      43.117  25.579  26.004  1.00  0.00     0.031 C 
ATOM     49  C   UNL A   1      39.242  26.843  28.988  1.00  0.00     0.029 A 
ATOM     50  N   UNL A   1      40.877  28.339  28.722  1.00  0.00    -0.354 N 
ATOM     51  C   UNL A   1      44.448  27.376  26.466  1.00  0.00     0.074 A 
ATOM     52  C   UNL A   1      44.338  26.071  25.854  1.00  0.00     0.031 C 
ATOM     53  C   UNL A   1      38.909  27.932  29.698  1.00  0.00     0.029 A 
ATOM     54  C   UNL A   1      39.974  28.921  29.588  1.00  0.00     0.049 A 
ATOM     55  H   UNL A   1      41.702  28.787  28.427  1.00  0.00     0.167 HD
ATOM     56  C   UNL A   1      45.521  28.193  26.327  1.00  0.00     0.034 A 
ATOM     57  C   UNL A   1      40.006  30.104  30.240  1.00  0.00     0.034 A 
ATOM     58  C   UNL A   1      45.588  29.523  26.880  1.00  0.00     0.049 A 
ATOM     59  C   UNL A   1      41.199  31.010  30.040  1.00  0.00     0.074 A 
ATOM     60  C   UNL A   1      46.578  30.475  26.708  1.00  0.00     0.029 A 
ATOM     61  N   UNL A   1      44.629  30.091  27.706  1.00  0.00    -0.354 N 
ATOM     62  N   UNL A   1      42.280  30.806  29.322  1.00  0.00    -0.248 NA
ATOM     63  C   UNL A   1      41.174  32.308  30.728  1.00  0.00     0.031 C 
ATOM     64  C   UNL A   1      46.256  31.588  27.490  1.00  0.00     0.029 A 
ATOM     65  C   UNL A   1      45.022  31.367  28.079  1.00  0.00     0.049 A 
ATOM     66  H   UNL A   1      43.792  29.654  27.985  1.00  0.00     0.167 HD
ATOM     67  C   UNL A   1      43.042  31.966  29.446  1.00  0.00     0.074 A 
ATOM     68  C   UNL A   1      42.288  32.870  30.287  1.00  0.00     0.031 C 
ATOM     69  C   UNL A   1      44.256  32.259  28.915  1.00  0.00     0.034 A 
BRANCH  56  70
ATOM     70  C   UNL A   1      46.716  27.681  25.555  1.00  0.00     0.023 A 
ATOM     71  C   UNL A   1      46.962  28.060  24.224  1.00  0.00     0.031 A 
ATOM     72  C   UNL A   1      47.638  26.814  26.171  1.00  0.00     0.131 A 
ATOM     73  C   UNL A   1      48.063  27.528  23.535  1.00  0.00     0.055 A 
ATOM     74  C   UNL A   1      48.776  26.354  25.507  1.00  0.00     0.041 A 
ATOM     75  F   UNL A   1      47.446  26.400  27.434  1.00  0.00    -0.206 F 
ATOM     76  C   UNL A   1      48.989  26.701  24.176  1.00  0.00     0.022 A 
BRANCH  73  77
ATOM     77  S   UNL A   1      48.207  27.835  21.754  1.00  0.00     0.124 S 
ATOM     78  O   UNL A   1      48.504  26.499  21.248  1.00  0.00    -0.237 OA
ATOM     79  O   UNL A   1      46.886  28.364  21.418  1.00  0.00    -0.237 OA
ATOM     80  O   UNL A   1      49.303  28.792  21.656  1.00  0.00    -0.744 OA
ENDBRANCH  73  77
ENDBRANCH  56  70
BRANCH  57  81
ATOM     81  C   UNL A   1      38.899  30.509  31.163  1.00  0.00     0.023 A 
ATOM     82  C   UNL A   1      37.869  31.362  30.729  1.00  0.00     0.031 A 
ATOM     83  C   UNL A   1      38.896  30.119  32.514  1.00  0.00     0.131 A 
ATOM     84  C   UNL A   1      36.928  31.854  31.650  1.00  0.00     0.055 A 
ATOM     85  C   UNL A   1      37.915  30.553  33.409  1.00  0.00     0.041 A 
ATOM     86  F   UNL A   1      39.857  29.311  32.991  1.00  0.00    -0.206 F 
ATOM     87  C   UNL A   1      36.934  31.442  32.983  1.00  0.00     0.022 A 
BRANCH  84  88
ATOM     88  S   UNL A   1      35.785  33.157  31.108  1.00  0.00     0.124 S 
ATOM     89  O   UNL A   1      35.829  34.078  32.235  1.00  0.00    -0.237 OA
ATOM     90  O   UNL A   1      36.411  33.617  29.875  1.00  0.00    -0.237 OA
ATOM     91  O   UNL A   1      34.518  32.444  30.933  1.00  0.00    -0.744 OA
ENDBRANCH  84  88
ENDBRANCH  57  81
BRANCH  69  92
ATOM     92  C   UNL A   1      44.814  33.636  29.182  1.00  0.00     0.023 A 
ATOM     93  C   UNL A   1      44.424  34.753  28.424  1.00  0.00     0.031 A 
ATOM     94  C   UNL A   1      45.749  33.829  30.213  1.00  0.00     0.131 A 
ATOM     95  C   UNL A   1      45.011  36.003  28.672  1.00  0.00     0.055 A 
ATOM     96  C   UNL A   1      46.277  35.087  30.500  1.00  0.00     0.041 A 
ATOM     97  F   UNL A   1      46.158  32.796  30.968  1.00  0.00    -0.206 F 
ATOM     98  C   UNL A   1      45.920  36.181  29.718  1.00  0.00     0.022 A 
BRANCH  95  99
ATOM     99  S   UNL A   1      44.643  37.375  27.544  1.00  0.00     0.124 S 
ATOM    100  O   UNL A   1      44.232  38.425  28.470  1.00  0.00    -0.237 OA
ATOM    101  O   UNL A   1      45.923  37.581  26.875  1.00  0.00    -0.237 OA
ATOM    102  O   UNL A   1      43.578  36.844  26.695  1.00  0.00    -0.744 OA
ENDBRANCH  95  99
ENDBRANCH  69  92
ENDBRANCH  43  44
ENDBRANCH  35  38
ENDBRANCH  33  34
ENDBRANCH  32  33
ENDBRANCH   1  32
TORSDOF 19
ENDMDL
MODEL 2
REMARK VINA RESULT:     -11.9      1.613      7.417
REMARK SMILES CC(C)[C@H](NC(=O)/C(=C\c1ccc(Cl)cc1)NC(=O)c1ccco1)C(=O)NCCCNC(=O)c1ccc(-c2c3nc(c(-c4cc(S(=O)(=O)[O-])ccc4F)c4ccc([nH]4)c(-c4cc(S(=O)(=O)[O-])ccc4F)c4nc(c(-c5cc(S(=O)(=O)[O-])ccc5F)c5ccc2[nH]5)C=C4)C=C3)cc1
REMARK SMILES IDX 28 1 27 2 25 3 26 4 4 6 2 7 1 8 3 9 5 10 6 11 7 13 8 14 9 15
REMARK SMILES IDX 17 16 18 17 19 19 20 20 21 21 24 22 22 23 23 24 10 25 11 26
REMARK SMILES IDX 16 27 12 28 15 29 13 30 14 31 29 32 30 33 31 34 32 35 33 37
REMARK SMILES IDX 34 38 35 39 96 40 36 41 95 42 37 43 38 44 39 45 89 46 40 47
REMARK SMILES IDX 94 48 88 49 90 50 41 51 93 52 87 53 86 54 42 56 74 57 54 58
REMARK SMILES IDX 73 59 55 60 58 61 72 62 91 63 56 64 57 65 71 67 92 68 59 69
REMARK SMILES IDX 43 70 44 71 52 72 45 73 51 74 53 75 50 76 46 77 47 78 48 79
REMARK SMILES IDX 49 80 75 81 76 82 84 83 77 84 83 85 85 86 82 87 78 88 79 89
REMARK SMILES IDX 80 90 81 91 60 92 61 93 69 94 62 95 68 96 70 97 67 98 63 99
REMARK SMILES IDX 64 100 65 101 66 102
REMARK H PARENT 27 5 5 12 17 18 31 36 90 55 58 66
REMARK Flexibility Score: inf
ROOT
ATOM      1  C   UNL A   1      34.967  23.024  24.216  1.00  0.00     0.117 C 
ENDROOT
BRANCH   1   2
ATOM      2  N   UNL A   1      34.456  23.867  23.094  1.00  0.00    -0.354 N 
ATOM      3  C   UNL A   1      33.617  24.986  22.939  1.00  0.00     0.242 C 
ATOM      4  O   UNL A   1      33.929  25.688  21.957  1.00  0.00    -0.273 OA
ATOM      5  H   UNL A   1      34.799  23.555  22.226  1.00  0.00     0.163 HD
BRANCH   3   6
ATOM      6  C   UNL A   1      32.254  25.488  23.799  1.00  0.00     0.174 C 
BRANCH   6   7
ATOM      7  C   UNL A   1      31.453  24.947  25.180  1.00  0.00     0.015 C 
ATOM      8  C   UNL A   1      31.678  25.710  26.501  1.00  0.00     0.010 C 
ATOM      9  C   UNL A   1      29.897  24.828  25.086  1.00  0.00     0.010 C 
ENDBRANCH   6   7
BRANCH   6  10
ATOM     10  N   UNL A   1      31.260  25.689  22.818  1.00  0.00    -0.339 N 
ATOM     11  C   UNL A   1      30.925  26.948  22.487  1.00  0.00     0.268 C 
ATOM     12  H   UNL A   1      30.819  24.922  22.385  1.00  0.00     0.164 HD
ATOM     13  O   UNL A   1      30.901  27.220  21.283  1.00  0.00    -0.268 OA
BRANCH  11  14
ATOM     14  C   UNL A   1      30.434  27.965  23.502  1.00  0.00     0.107 C 
ATOM     15  C   UNL A   1      30.986  28.789  24.481  1.00  0.00     0.040 C 
BRANCH  14  16
ATOM     16  N   UNL A   1      29.015  27.850  23.497  1.00  0.00    -0.315 N 
ATOM     17  C   UNL A   1      27.994  28.805  23.183  1.00  0.00     0.291 C 
ATOM     18  H   UNL A   1      28.677  26.963  23.753  1.00  0.00     0.170 HD
ATOM     19  O   UNL A   1      26.854  28.447  23.504  1.00  0.00    -0.265 OA
BRANCH  17  20
ATOM     20  C   UNL A   1      28.200  30.094  22.471  1.00  0.00     0.191 A 
ATOM     21  C   UNL A   1      28.074  30.561  21.165  1.00  0.00     0.056 A 
ATOM     22  O   UNL A   1      28.626  31.171  23.231  1.00  0.00    -0.459 OA
ATOM     23  C   UNL A   1      28.483  31.918  21.119  1.00  0.00     0.043 A 
ATOM     24  C   UNL A   1      28.826  32.233  22.405  1.00  0.00     0.196 A 
ENDBRANCH  17  20
ENDBRANCH  14  16
BRANCH  15  25
ATOM     25  C   UNL A   1      32.252  29.161  25.353  1.00  0.00    -0.023 A 
ATOM     26  C   UNL A   1      33.509  28.554  25.464  1.00  0.00     0.010 A 
ATOM     27  C   UNL A   1      32.117  30.185  26.316  1.00  0.00     0.010 A 
ATOM     28  C   UNL A   1      34.535  28.847  26.391  1.00  0.00     0.021 A 
ATOM     29  C   UNL A   1      33.124  30.507  27.281  1.00  0.00     0.021 A 
ATOM     30  C   UNL A   1      34.333  29.829  27.318  1.00  0.00     0.041 A 
ATOM     31  Cl  UNL A   1      35.537  30.154  28.498  1.00  0.00    -0.084 Cl
ENDBRANCH  15  25
ENDBRANCH  11  14
ENDBRANCH   6  10
ENDBRANCH   3   6
ENDBRANCH   1   2
BRANCH   1  32
ATOM     32  C   UNL A   1      36.276  22.211  24.156  1.00  0.00     0.042 C 
BRANCH  32  33
ATOM     33  C   UNL A   1      36.919  21.814  25.518  1.00  0.00     0.118 C 
BRANCH  33  34
ATOM     34  N   UNL A   1      38.150  21.011  25.523  1.00  0.00    -0.352 N 
ATOM     35  C   UNL A   1      39.406  21.146  26.103  1.00  0.00     0.251 C 
ATOM     36  H   UNL A   1      38.066  20.186  24.992  1.00  0.00     0.163 HD
ATOM     37  O   UNL A   1      40.156  20.170  26.028  1.00  0.00    -0.269 OA
BRANCH  35  38
ATOM     38  C   UNL A   1      39.895  22.401  26.745  1.00  0.00     0.039 A 
ATOM     39  C   UNL A   1      40.807  22.334  27.812  1.00  0.00     0.014 A 
ATOM     40  C   UNL A   1      39.489  23.655  26.316  1.00  0.00     0.014 A 
ATOM     41  C   UNL A   1      41.411  23.503  28.314  1.00  0.00     0.010 A 
ATOM     42  C   UNL A   1      40.197  24.794  26.700  1.00  0.00     0.010 A 
ATOM     43  C   UNL A   1      41.183  24.742  27.696  1.00  0.00    -0.014 A 
BRANCH  43  44
ATOM     44  C   UNL A   1      41.946  25.987  28.039  1.00  0.00     0.031 A 
ATOM     45  C   UNL A   1      41.284  27.087  28.843  1.00  0.00     0.074 A 
ATOM     46  C   UNL A   1      43.178  26.196  27.522  1.00  0.00     0.049 A 
ATOM     47  N   UNL A   1      41.684  28.314  29.065  1.00  0.00    -0.248 NA
ATOM     48  C   UNL A   1      39.965  26.785  29.425  1.00  0.00     0.031 C 
ATOM     49  C   UNL A   1      43.917  25.256  26.673  1.00  0.00     0.029 A 
ATOM     50  N   UNL A   1      44.028  27.277  27.614  1.00  0.00    -0.354 N 
ATOM     51  C   UNL A   1      40.650  28.938  29.759  1.00  0.00     0.074 A 
ATOM     52  C   UNL A   1      39.578  27.973  29.864  1.00  0.00     0.031 C 
ATOM     53  C   UNL A   1      45.110  25.782  26.355  1.00  0.00     0.029 A 
ATOM     54  C   UNL A   1      45.207  27.124  26.913  1.00  0.00     0.049 A 
ATOM     55  H   UNL A   1      43.813  28.086  28.131  1.00  0.00     0.167 HD
ATOM     56  C   UNL A   1      40.604  30.186  30.286  1.00  0.00     0.034 A 
ATOM     57  C   UNL A   1      46.241  27.973  26.721  1.00  0.00     0.034 A 
ATOM     58  C   UNL A   1      41.708  31.113  30.239  1.00  0.00     0.049 A 
ATOM     59  C   UNL A   1      46.177  29.347  27.348  1.00  0.00     0.074 A 
ATOM     60  C   UNL A   1      41.808  32.358  30.835  1.00  0.00     0.029 A 
ATOM     61  N   UNL A   1      42.901  30.896  29.566  1.00  0.00    -0.354 N 
ATOM     62  N   UNL A   1      45.215  29.886  28.061  1.00  0.00    -0.248 NA
ATOM     63  C   UNL A   1      47.342  30.222  27.155  1.00  0.00     0.031 C 
ATOM     64  C   UNL A   1      43.028  32.926  30.459  1.00  0.00     0.029 A 
ATOM     65  C   UNL A   1      43.729  32.000  29.703  1.00  0.00     0.049 A 
ATOM     66  H   UNL A   1      43.128  30.080  29.066  1.00  0.00     0.167 HD
ATOM     67  C   UNL A   1      45.677  31.148  28.428  1.00  0.00     0.074 A 
ATOM     68  C   UNL A   1      47.008  31.279  27.879  1.00  0.00     0.031 C 
ATOM     69  C   UNL A   1      45.057  32.114  29.153  1.00  0.00     0.034 A 
BRANCH  56  70
ATOM     70  C   UNL A   1      39.324  30.635  30.953  1.00  0.00     0.023 A 
ATOM     71  C   UNL A   1      38.446  31.549  30.345  1.00  0.00     0.031 A 
ATOM     72  C   UNL A   1      38.966  30.122  32.214  1.00  0.00     0.131 A 
ATOM     73  C   UNL A   1      37.289  31.966  31.022  1.00  0.00     0.055 A 
ATOM     74  C   UNL A   1      37.773  30.478  32.845  1.00  0.00     0.041 A 
ATOM     75  F   UNL A   1      39.774  29.262  32.855  1.00  0.00    -0.206 F 
ATOM     76  C   UNL A   1      36.930  31.415  32.254  1.00  0.00     0.022 A 
BRANCH  73  77
ATOM     77  S   UNL A   1      36.317  33.329  30.324  1.00  0.00     0.124 S 
ATOM     78  O   UNL A   1      36.440  34.342  31.367  1.00  0.00    -0.237 OA
ATOM     79  O   UNL A   1      37.023  33.612  29.075  1.00  0.00    -0.237 OA
ATOM     80  O   UNL A   1      34.984  32.758  30.169  1.00  0.00    -0.744 OA
ENDBRANCH  73  77
ENDBRANCH  56  70
BRANCH  57  81
ATOM     81  C   UNL A   1      47.418  27.580  25.884  1.00  0.00     0.023 A 
ATOM     82  C   UNL A   1      47.494  27.935  24.526  1.00  0.00     0.031 A 
ATOM     83  C   UNL A   1      48.446  26.773  26.405  1.00  0.00     0.131 A 
ATOM     84  C   UNL A   1      48.528  27.425  23.722  1.00  0.00     0.055 A 
ATOM     85  C   UNL A   1      49.512  26.330  25.618  1.00  0.00     0.041 A 
ATOM     86  F   UNL A   1      48.428  26.394  27.693  1.00  0.00    -0.206 F 
ATOM     87  C   UNL A   1      49.546  26.640  24.262  1.00  0.00     0.022 A 
BRANCH  84  88
ATOM     88  S   UNL A   1      48.438  27.687  21.927  1.00  0.00     0.124 S 
ATOM     89  O   UNL A   1      49.544  28.609  21.707  1.00  0.00    -0.237 OA
ATOM     90  O   UNL A   1      48.614  26.335  21.413  1.00  0.00    -0.237 OA
ATOM     91  O   UNL A   1      47.103  28.257  21.734  1.00  0.00    -0.744 OA
ENDBRANCH  84  88
ENDBRANCH  57  81
BRANCH  69  92
ATOM     92  C   UNL A   1      45.840  33.371  29.442  1.00  0.00     0.023 A 
ATOM     93  C   UNL A   1      46.656  33.492  30.580  1.00  0.00     0.031 A 
ATOM     94  C   UNL A   1      45.766  34.465  28.561  1.00  0.00     0.131 A 
ATOM     95  C   UNL A   1      47.320  34.701  30.836  1.00  0.00     0.055 A 
ATOM     96  C   UNL A   1      46.485  35.638  28.785  1.00  0.00     0.041 A 
ATOM     97  F   UNL A   1      45.001  34.405  27.459  1.00  0.00    -0.206 F 
ATOM     98  C   UNL A   1      47.256  35.767  29.936  1.00  0.00     0.022 A 
BRANCH  95  99
ATOM     99  S   UNL A   1      48.195  34.894  32.413  1.00  0.00     0.124 S 
ATOM    100  O   UNL A   1      47.505  36.036  33.003  1.00  0.00    -0.237 OA
ATOM    101  O   UNL A   1      47.963  33.607  33.059  1.00  0.00    -0.237 OA
ATOM    102  O   UNL A   1      49.577  35.145  32.010  1.00  0.00    -0.744 OA
ENDBRANCH  95  99
ENDBRANCH  69  92
ENDBRANCH  43  44
ENDBRANCH  35  38
ENDBRANCH  33  34
ENDBRANCH  32  33
ENDBRANCH   1  32
TORSDOF 19
ENDMDL
MODEL 3
REMARK VINA RESULT:     -11.7      4.876      8.309
REMARK SMILES CC(C)[C@H](NC(=O)/C(=C\c1ccc(Cl)cc1)NC(=O)c1ccco1)C(=O)NCCCNC(=O)c1ccc(-c2c3nc(c(-c4cc(S(=O)(=O)[O-])ccc4F)c4ccc([nH]4)c(-c4cc(S(=O)(=O)[O-])ccc4F)c4nc(c(-c5cc(S(=O)(=O)[O-])ccc5F)c5ccc2[nH]5)C=C4)C=C3)cc1
REMARK SMILES IDX 28 1 27 2 25 3 26 4 4 6 2 7 1 8 3 9 5 10 6 11 7 13 8 14 9 15
REMARK SMILES IDX 17 16 18 17 19 19 20 20 21 21 24 22 22 23 23 24 10 25 11 26
REMARK SMILES IDX 16 27 12 28 15 29 13 30 14 31 29 32 30 33 31 34 32 35 33 37
REMARK SMILES IDX 34 38 35 39 96 40 36 41 95 42 37 43 38 44 39 45 89 46 40 47
REMARK SMILES IDX 94 48 88 49 90 50 41 51 93 52 87 53 86 54 42 56 74 57 54 58
REMARK SMILES IDX 73 59 55 60 58 61 72 62 91 63 56 64 57 65 71 67 92 68 59 69
REMARK SMILES IDX 43 70 44 71 52 72 45 73 51 74 53 75 50 76 46 77 47 78 48 79
REMARK SMILES IDX 49 80 75 81 76 82 84 83 77 84 83 85 85 86 82 87 78 88 79 89
REMARK SMILES IDX 80 90 81 91 60 92 61 93 69 94 62 95 68 96 70 97 67 98 63 99
REMARK SMILES IDX 64 100 65 101 66 102
REMARK H PARENT 27 5 5 12 17 18 31 36 90 55 58 66
REMARK Flexibility Score: inf
ROOT
ATOM      1  C   UNL A   1      32.613  29.209  25.218  1.00  0.00     0.117 C 
ENDROOT
BRANCH   1   2
ATOM      2  N   UNL A   1      31.555  28.262  25.683  1.00  0.00    -0.354 N 
ATOM      3  C   UNL A   1      31.492  27.055  26.402  1.00  0.00     0.242 C 
ATOM      4  O   UNL A   1      30.431  26.936  27.047  1.00  0.00    -0.273 OA
ATOM      5  H   UNL A   1      30.659  28.566  25.414  1.00  0.00     0.163 HD
BRANCH   3   6
ATOM      6  C   UNL A   1      32.554  25.745  26.482  1.00  0.00     0.174 C 
BRANCH   6   7
ATOM      7  C   UNL A   1      33.732  25.105  25.461  1.00  0.00     0.015 C 
ATOM      8  C   UNL A   1      34.141  25.919  24.217  1.00  0.00     0.010 C 
ATOM      9  C   UNL A   1      35.099  24.728  26.118  1.00  0.00     0.010 C 
ENDBRANCH   6   7
BRANCH   6  10
ATOM     10  N   UNL A   1      31.757  24.657  26.898  1.00  0.00    -0.339 N 
ATOM     11  C   UNL A   1      31.832  23.503  26.212  1.00  0.00     0.268 C 
ATOM     12  H   UNL A   1      31.159  24.741  27.676  1.00  0.00     0.164 HD
ATOM     13  O   UNL A   1      32.001  22.473  26.871  1.00  0.00    -0.268 OA
BRANCH  11  14
ATOM     14  C   UNL A   1      31.557  23.412  24.722  1.00  0.00     0.107 C 
ATOM     15  C   UNL A   1      31.108  24.254  23.706  1.00  0.00     0.040 C 
BRANCH  14  16
ATOM     16  N   UNL A   1      31.645  22.027  24.404  1.00  0.00    -0.315 N 
ATOM     17  C   UNL A   1      32.742  21.236  23.932  1.00  0.00     0.291 C 
ATOM     18  H   UNL A   1      30.807  21.527  24.529  1.00  0.00     0.170 HD
ATOM     19  O   UNL A   1      32.417  20.111  23.534  1.00  0.00    -0.265 OA
BRANCH  17  20
ATOM     20  C   UNL A   1      34.174  21.635  23.957  1.00  0.00     0.191 A 
ATOM     21  C   UNL A   1      35.305  21.305  24.700  1.00  0.00     0.056 A 
ATOM     22  O   UNL A   1      34.581  22.578  23.027  1.00  0.00    -0.459 OA
ATOM     23  C   UNL A   1      36.395  22.096  24.257  1.00  0.00     0.043 A 
ATOM     24  C   UNL A   1      35.891  22.868  23.247  1.00  0.00     0.196 A 
ENDBRANCH  17  20
ENDBRANCH  14  16
BRANCH  15  25
ATOM     25  C   UNL A   1      30.439  25.632  23.315  1.00  0.00    -0.023 A 
ATOM     26  C   UNL A   1      30.928  26.727  22.593  1.00  0.00     0.010 A 
ATOM     27  C   UNL A   1      29.180  25.942  23.877  1.00  0.00     0.010 A 
ATOM     28  C   UNL A   1      30.328  27.996  22.424  1.00  0.00     0.021 A 
ATOM     29  C   UNL A   1      28.542  27.216  23.744  1.00  0.00     0.021 A 
ATOM     30  C   UNL A   1      29.124  28.245  23.019  1.00  0.00     0.041 A 
ATOM     31  Cl  UNL A   1      28.409  29.800  22.887  1.00  0.00    -0.084 Cl
ENDBRANCH  15  25
ENDBRANCH  11  14
ENDBRANCH   6  10
ENDBRANCH   3   6
ENDBRANCH   1   2
BRANCH   1  32
ATOM     32  C   UNL A   1      32.869  30.593  25.849  1.00  0.00     0.042 C 
BRANCH  32  33
ATOM     33  C   UNL A   1      31.684  31.243  26.622  1.00  0.00     0.118 C 
BRANCH  33  34
ATOM     34  N   UNL A   1      31.838  32.601  27.162  1.00  0.00    -0.352 N 
ATOM     35  C   UNL A   1      32.892  33.323  27.710  1.00  0.00     0.251 C 
ATOM     36  H   UNL A   1      31.002  33.120  27.128  1.00  0.00     0.163 HD
ATOM     37  O   UNL A   1      32.694  34.525  27.906  1.00  0.00    -0.269 OA
BRANCH  35  38
ATOM     38  C   UNL A   1      34.195  32.718  28.112  1.00  0.00     0.039 A 
ATOM     39  C   UNL A   1      35.381  33.461  27.990  1.00  0.00     0.014 A 
ATOM     40  C   UNL A   1      34.284  31.432  28.623  1.00  0.00     0.014 A 
ATOM     41  C   UNL A   1      36.590  32.976  28.524  1.00  0.00     0.010 A 
ATOM     42  C   UNL A   1      35.438  31.017  29.288  1.00  0.00     0.010 A 
ATOM     43  C   UNL A   1      36.612  31.784  29.267  1.00  0.00    -0.014 A 
BRANCH  43  44
ATOM     44  C   UNL A   1      37.810  31.315  30.037  1.00  0.00     0.031 A 
ATOM     45  C   UNL A   1      38.748  30.291  29.432  1.00  0.00     0.074 A 
ATOM     46  C   UNL A   1      37.987  31.696  31.323  1.00  0.00     0.049 A 
ATOM     47  N   UNL A   1      39.709  29.603  29.998  1.00  0.00    -0.248 NA
ATOM     48  C   UNL A   1      38.540  29.953  28.014  1.00  0.00     0.031 C 
ATOM     49  C   UNL A   1      37.127  32.624  32.062  1.00  0.00     0.029 A 
ATOM     50  N   UNL A   1      38.941  31.338  32.250  1.00  0.00    -0.354 N 
ATOM     51  C   UNL A   1      40.174  28.720  29.026  1.00  0.00     0.074 A 
ATOM     52  C   UNL A   1      39.349  28.916  27.855  1.00  0.00     0.031 C 
ATOM     53  C   UNL A   1      37.606  32.786  33.305  1.00  0.00     0.029 A 
ATOM     54  C   UNL A   1      38.769  31.927  33.487  1.00  0.00     0.049 A 
ATOM     55  H   UNL A   1      39.677  30.716  32.050  1.00  0.00     0.167 HD
ATOM     56  C   UNL A   1      41.210  27.848  29.089  1.00  0.00     0.034 A 
ATOM     57  C   UNL A   1      39.453  31.779  34.642  1.00  0.00     0.034 A 
ATOM     58  C   UNL A   1      42.073  27.716  30.237  1.00  0.00     0.049 A 
ATOM     59  C   UNL A   1      40.625  30.824  34.674  1.00  0.00     0.074 A 
ATOM     60  C   UNL A   1      43.216  26.945  30.367  1.00  0.00     0.029 A 
ATOM     61  N   UNL A   1      41.895  28.370  31.446  1.00  0.00    -0.354 N 
ATOM     62  N   UNL A   1      41.088  30.053  33.717  1.00  0.00    -0.248 NA
ATOM     63  C   UNL A   1      41.372  30.727  35.936  1.00  0.00     0.031 C 
ATOM     64  C   UNL A   1      43.683  27.073  31.678  1.00  0.00     0.029 A 
ATOM     65  C   UNL A   1      42.886  27.993  32.339  1.00  0.00     0.049 A 
ATOM     66  H   UNL A   1      41.172  29.009  31.643  1.00  0.00     0.167 HD
ATOM     67  C   UNL A   1      42.201  29.410  34.255  1.00  0.00     0.074 A 
ATOM     68  C   UNL A   1      42.350  29.899  35.608  1.00  0.00     0.031 C 
ATOM     69  C   UNL A   1      43.025  28.495  33.684  1.00  0.00     0.034 A 
BRANCH  56  70
ATOM     70  C   UNL A   1      41.473  26.960  27.894  1.00  0.00     0.023 A 
ATOM     71  C   UNL A   1      41.041  25.623  27.848  1.00  0.00     0.031 A 
ATOM     72  C   UNL A   1      42.150  27.469  26.770  1.00  0.00     0.131 A 
ATOM     73  C   UNL A   1      41.343  24.826  26.733  1.00  0.00     0.055 A 
ATOM     74  C   UNL A   1      42.375  26.696  25.630  1.00  0.00     0.041 A 
ATOM     75  F   UNL A   1      42.606  28.732  26.762  1.00  0.00    -0.206 F 
ATOM     76  C   UNL A   1      41.981  25.361  25.610  1.00  0.00     0.022 A 
BRANCH  73  77
ATOM     77  S   UNL A   1      40.997  23.049  26.814  1.00  0.00     0.124 S 
ATOM     78  O   UNL A   1      39.564  23.015  26.537  1.00  0.00    -0.237 OA
ATOM     79  O   UNL A   1      41.862  22.510  25.765  1.00  0.00    -0.237 OA
ATOM     80  O   UNL A   1      41.371  22.686  28.176  1.00  0.00    -0.744 OA
ENDBRANCH  73  77
ENDBRANCH  56  70
BRANCH  57  81
ATOM     81  C   UNL A   1      39.052  32.521  35.879  1.00  0.00     0.023 A 
ATOM     82  C   UNL A   1      39.493  33.836  36.110  1.00  0.00     0.031 A 
ATOM     83  C   UNL A   1      38.293  31.902  36.887  1.00  0.00     0.131 A 
ATOM     84  C   UNL A   1      39.236  34.457  37.345  1.00  0.00     0.055 A 
ATOM     85  C   UNL A   1      37.976  32.552  38.083  1.00  0.00     0.041 A 
ATOM     86  F   UNL A   1      37.847  30.644  36.729  1.00  0.00    -0.206 F 
ATOM     87  C   UNL A   1      38.466  33.831  38.325  1.00  0.00     0.022 A 
BRANCH  84  88
ATOM     88  S   UNL A   1      40.049  36.041  37.703  1.00  0.00     0.124 S 
ATOM     89  O   UNL A   1      39.201  36.577  38.758  1.00  0.00    -0.237 OA
ATOM     90  O   UNL A   1      41.384  35.614  38.103  1.00  0.00    -0.237 OA
ATOM     91  O   UNL A   1      39.981  36.754  36.425  1.00  0.00    -0.744 OA
ENDBRANCH  84  88
ENDBRANCH  57  81
BRANCH  69  92
ATOM     92  C   UNL A   1      44.196  28.011  34.505  1.00  0.00     0.023 A 
ATOM     93  C   UNL A   1      44.106  26.876  35.328  1.00  0.00     0.031 A 
ATOM     94  C   UNL A   1      45.421  28.700  34.458  1.00  0.00     0.131 A 
ATOM     95  C   UNL A   1      45.203  26.498  36.116  1.00  0.00     0.055 A 
ATOM     96  C   UNL A   1      46.530  28.277  35.190  1.00  0.00     0.041 A 
ATOM     97  F   UNL A   1      45.563  29.792  33.689  1.00  0.00    -0.206 F 
ATOM     98  C   UNL A   1      46.421  27.178  36.036  1.00  0.00     0.022 A 
BRANCH  95  99
ATOM     99  S   UNL A   1      44.988  25.158  37.319  1.00  0.00     0.124 S 
ATOM    100  O   UNL A   1      46.327  25.043  37.888  1.00  0.00    -0.237 OA
ATOM    101  O   UNL A   1      43.963  25.697  38.207  1.00  0.00    -0.237 OA
ATOM    102  O   UNL A   1      44.564  24.025  36.499  1.00  0.00    -0.744 OA
ENDBRANCH  95  99
ENDBRANCH  69  92
ENDBRANCH  43  44
ENDBRANCH  35  38
ENDBRANCH  33  34
ENDBRANCH  32  33
ENDBRANCH   1  32
TORSDOF 19
ENDMDL
