MODEL 1
REMARK VINA RESULT:     -12.7      0.000      0.000
REMARK SMILES O=C(NCCCNC(=O)[C@H]1CCCC[N@H+]1Cc1cccc2ccccc12)c1ccc(-c2c3nc(c(-c4cc(S(=O)(=O)[O-])ccc4F)c4ccc([nH]4)c(-c4cc(S(=O)(=O)[O-])ccc4F)c4nc(c(-c5cc(S(=O)(=O)[O-])ccc5F)c5ccc2[nH]5)C=C4)C=C3)cc1
REMARK SMILES IDX 4 1 3 2 1 3 2 4 27 6 28 7 89 8 29 9 88 10 30 11 31 12 32 13
REMARK SMILES IDX 82 14 33 15 87 16 81 17 83 18 34 19 86 20 80 21 79 22 35 24
REMARK SMILES IDX 67 25 47 26 66 27 48 28 51 29 65 30 84 31 49 32 50 33 64 35
REMARK SMILES IDX 85 36 52 37 36 38 37 39 45 40 38 41 44 42 46 43 43 44 39 45
REMARK SMILES IDX 40 46 41 47 42 48 68 49 69 50 77 51 70 52 76 53 78 54 75 55
REMARK SMILES IDX 71 56 72 57 73 58 74 59 53 60 54 61 62 62 55 63 61 64 63 65
REMARK SMILES IDX 60 66 56 67 57 68 58 69 59 70 5 71 6 72 7 73 8 74 9 76 10 77
REMARK SMILES IDX 11 78 15 79 12 80 14 81 13 83 16 84 17 85 18 86 26 87 19 88
REMARK SMILES IDX 21 89 25 90 20 91 22 92 24 93 23 94
REMARK H PARENT 3 5 83 23 51 34 7 75 15 82
REMARK Flexibility Score: inf
ROOT
ATOM      1  C   UNL A   1      35.770  22.151  26.535  1.00  0.00     0.118 C 
ENDROOT
BRANCH   1   2
ATOM      2  N   UNL A   1      36.679  21.131  26.022  1.00  0.00    -0.352 N 
ATOM      3  O   UNL A   1      38.586  20.335  25.106  1.00  0.00    -0.269 OA
ATOM      4  C   UNL A   1      38.025  21.220  25.745  1.00  0.00     0.251 C 
ATOM      5  H   UNL A   1      36.272  20.251  25.848  1.00  0.00     0.163 HD
BRANCH   4   6
ATOM      6  C   UNL A   1      38.776  22.401  26.215  1.00  0.00     0.039 A 
ATOM      7  C   UNL A   1      38.348  23.674  25.846  1.00  0.00     0.014 A 
ATOM      8  C   UNL A   1      39.919  22.242  27.003  1.00  0.00     0.014 A 
ATOM      9  C   UNL A   1      39.164  24.766  26.080  1.00  0.00     0.010 A 
ATOM     10  C   UNL A   1      40.664  23.368  27.367  1.00  0.00     0.010 A 
ATOM     11  C   UNL A   1      40.307  24.636  26.884  1.00  0.00    -0.014 A 
BRANCH  11  12
ATOM     12  C   UNL A   1      41.031  25.872  27.275  1.00  0.00     0.031 A 
ATOM     13  C   UNL A   1      42.403  26.178  26.750  1.00  0.00     0.074 A 
ATOM     14  C   UNL A   1      40.387  26.745  28.078  1.00  0.00     0.049 A 
ATOM     15  N   UNL A   1      43.162  27.216  26.995  1.00  0.00    -0.248 NA
ATOM     16  C   UNL A   1      43.011  25.193  25.842  1.00  0.00     0.031 C 
ATOM     17  C   UNL A   1      39.046  26.538  28.640  1.00  0.00     0.029 A 
ATOM     18  N   UNL A   1      40.743  27.986  28.536  1.00  0.00    -0.354 N 
ATOM     19  C   UNL A   1      44.346  27.000  26.298  1.00  0.00     0.074 A 
ATOM     20  C   UNL A   1      44.211  25.720  25.634  1.00  0.00     0.031 C 
ATOM     21  C   UNL A   1      38.665  27.639  29.297  1.00  0.00     0.029 A 
ATOM     22  C   UNL A   1      39.771  28.586  29.304  1.00  0.00     0.049 A 
ATOM     23  H   UNL A   1      41.609  28.408  28.336  1.00  0.00     0.167 HD
ATOM     24  C   UNL A   1      45.439  27.799  26.230  1.00  0.00     0.034 A 
ATOM     25  C   UNL A   1      39.777  29.753  29.974  1.00  0.00     0.034 A 
ATOM     26  C   UNL A   1      45.537  29.077  26.897  1.00  0.00     0.049 A 
ATOM     27  C   UNL A   1      41.016  30.600  29.902  1.00  0.00     0.074 A 
ATOM     28  C   UNL A   1      46.585  29.982  26.878  1.00  0.00     0.029 A 
ATOM     29  N   UNL A   1      44.553  29.633  27.708  1.00  0.00    -0.354 N 
ATOM     30  N   UNL A   1      42.128  30.377  29.240  1.00  0.00    -0.248 NA
ATOM     31  C   UNL A   1      41.004  31.850  30.667  1.00  0.00     0.031 C 
ATOM     32  C   UNL A   1      46.264  31.046  27.726  1.00  0.00     0.029 A 
ATOM     33  C   UNL A   1      44.983  30.848  28.217  1.00  0.00     0.049 A 
ATOM     34  H   UNL A   1      43.678  29.221  27.893  1.00  0.00     0.167 HD
ATOM     35  C   UNL A   1      42.946  31.469  29.501  1.00  0.00     0.074 A 
ATOM     36  C   UNL A   1      42.185  32.362  30.353  1.00  0.00     0.031 C 
ATOM     37  C   UNL A   1      44.212  31.713  29.079  1.00  0.00     0.034 A 
BRANCH  24  38
ATOM     38  C   UNL A   1      46.634  27.295  25.455  1.00  0.00     0.023 A 
ATOM     39  C   UNL A   1      46.954  27.780  24.175  1.00  0.00     0.031 A 
ATOM     40  C   UNL A   1      47.472  26.314  26.015  1.00  0.00     0.131 A 
ATOM     41  C   UNL A   1      48.052  27.247  23.480  1.00  0.00     0.055 A 
ATOM     42  C   UNL A   1      48.602  25.838  25.347  1.00  0.00     0.041 A 
ATOM     43  F   UNL A   1      47.203  25.796  27.225  1.00  0.00    -0.206 F 
ATOM     44  C   UNL A   1      48.892  26.297  24.066  1.00  0.00     0.022 A 
BRANCH  41  45
ATOM     45  S   UNL A   1      48.306  27.733  21.750  1.00  0.00     0.124 S 
ATOM     46  O   UNL A   1      47.015  28.331  21.418  1.00  0.00    -0.237 OA
ATOM     47  O   UNL A   1      49.431  28.656  21.842  1.00  0.00    -0.237 OA
ATOM     48  O   UNL A   1      48.590  26.468  21.075  1.00  0.00    -0.744 OA
ENDBRANCH  41  45
ENDBRANCH  24  38
BRANCH  25  49
ATOM     49  C   UNL A   1      38.608  30.149  30.808  1.00  0.00     0.023 A 
ATOM     50  C   UNL A   1      37.563  30.917  30.275  1.00  0.00     0.031 A 
ATOM     51  C   UNL A   1      38.534  29.789  32.167  1.00  0.00     0.131 A 
ATOM     52  C   UNL A   1      36.511  31.337  31.105  1.00  0.00     0.055 A 
ATOM     53  C   UNL A   1      37.454  30.153  32.972  1.00  0.00     0.041 A 
ATOM     54  F   UNL A   1      39.506  29.054  32.730  1.00  0.00    -0.206 F 
ATOM     55  C   UNL A   1      36.442  30.946  32.444  1.00  0.00     0.022 A 
BRANCH  52  56
ATOM     56  S   UNL A   1      35.284  32.489  30.433  1.00  0.00     0.124 S 
ATOM     57  O   UNL A   1      34.324  32.576  31.528  1.00  0.00    -0.237 OA
ATOM     58  O   UNL A   1      36.089  33.681  30.190  1.00  0.00    -0.237 OA
ATOM     59  O   UNL A   1      34.802  31.809  29.232  1.00  0.00    -0.744 OA
ENDBRANCH  52  56
ENDBRANCH  25  49
BRANCH  37  60
ATOM     60  C   UNL A   1      44.822  33.019  29.518  1.00  0.00     0.023 A 
ATOM     61  C   UNL A   1      44.691  34.187  28.747  1.00  0.00     0.031 A 
ATOM     62  C   UNL A   1      45.575  33.085  30.702  1.00  0.00     0.131 A 
ATOM     63  C   UNL A   1      45.360  35.357  29.136  1.00  0.00     0.055 A 
ATOM     64  C   UNL A   1      46.186  34.269  31.118  1.00  0.00     0.041 A 
ATOM     65  F   UNL A   1      45.735  31.996  31.473  1.00  0.00    -0.206 F 
ATOM     66  C   UNL A   1      46.093  35.409  30.325  1.00  0.00     0.022 A 
BRANCH  63  67
ATOM     67  S   UNL A   1      45.343  36.781  28.014  1.00  0.00     0.124 S 
ATOM     68  O   UNL A   1      44.331  37.636  28.625  1.00  0.00    -0.237 OA
ATOM     69  O   UNL A   1      46.719  37.261  28.098  1.00  0.00    -0.237 OA
ATOM     70  O   UNL A   1      44.968  36.198  26.727  1.00  0.00    -0.744 OA
ENDBRANCH  63  67
ENDBRANCH  37  60
ENDBRANCH  11  12
ENDBRANCH   4   6
ENDBRANCH   1   2
BRANCH   1  71
ATOM     71  C   UNL A   1      34.555  21.556  27.224  1.00  0.00     0.042 C 
BRANCH  71  72
ATOM     72  C   UNL A   1      33.674  22.593  27.885  1.00  0.00     0.118 C 
BRANCH  72  73
ATOM     73  N   UNL A   1      32.315  22.574  27.387  1.00  0.00    -0.351 N 
ATOM     74  C   UNL A   1      31.836  22.865  26.150  1.00  0.00     0.278 C 
ATOM     75  H   UNL A   1      31.634  22.309  28.046  1.00  0.00     0.163 HD
ATOM     76  O   UNL A   1      30.942  22.097  25.784  1.00  0.00    -0.268 OA
BRANCH  74  77
ATOM     77  C   UNL A   1      32.322  24.110  25.332  1.00  0.00     0.274 C 
ATOM     78  C   UNL A   1      33.620  23.910  24.545  1.00  0.00     0.076 C 
ATOM     79  N   UNL A   1      31.353  24.531  24.289  1.00  0.00    -0.321 N 
ATOM     80  C   UNL A   1      33.490  22.697  23.635  1.00  0.00     0.012 C 
ATOM     81  C   UNL A   1      31.045  23.486  23.314  1.00  0.00     0.263 C 
ATOM     82  H   UNL A   1      31.877  25.216  23.744  1.00  0.00     0.349 HD
ATOM     83  C   UNL A   1      32.320  22.898  22.671  1.00  0.00     0.062 C 
BRANCH  79  84
ATOM     84  C   UNL A   1      30.254  25.405  24.707  1.00  0.00     0.300 C 
BRANCH  84  85
ATOM     85  C   UNL A   1      30.366  26.895  24.451  1.00  0.00     0.014 A 
ATOM     86  C   UNL A   1      29.766  27.399  23.277  1.00  0.00     0.010 A 
ATOM     87  C   UNL A   1      31.041  27.796  25.328  1.00  0.00    -0.010 A 
ATOM     88  C   UNL A   1      29.900  28.732  22.912  1.00  0.00     0.001 A 
ATOM     89  C   UNL A   1      31.164  29.158  24.942  1.00  0.00    -0.018 A 
ATOM     90  C   UNL A   1      31.591  27.433  26.581  1.00  0.00     0.009 A 
ATOM     91  C   UNL A   1      30.611  29.600  23.731  1.00  0.00     0.009 A 
ATOM     92  C   UNL A   1      31.831  30.074  25.772  1.00  0.00     0.009 A 
ATOM     93  C   UNL A   1      32.228  28.362  27.409  1.00  0.00     0.001 A 
ATOM     94  C   UNL A   1      32.355  29.682  27.001  1.00  0.00     0.001 A 
ENDBRANCH  84  85
ENDBRANCH  79  84
ENDBRANCH  74  77
ENDBRANCH  72  73
ENDBRANCH  71  72
ENDBRANCH   1  71
TORSDOF 15
ENDMDL
MODEL 2
REMARK VINA RESULT:     -12.6      4.925     10.169
REMARK SMILES O=C(NCCCNC(=O)[C@H]1CCCC[N@H+]1Cc1cccc2ccccc12)c1ccc(-c2c3nc(c(-c4cc(S(=O)(=O)[O-])ccc4F)c4ccc([nH]4)c(-c4cc(S(=O)(=O)[O-])ccc4F)c4nc(c(-c5cc(S(=O)(=O)[O-])ccc5F)c5ccc2[nH]5)C=C4)C=C3)cc1
REMARK SMILES IDX 4 1 3 2 1 3 2 4 27 6 28 7 89 8 29 9 88 10 30 11 31 12 32 13
REMARK SMILES IDX 82 14 33 15 87 16 81 17 83 18 34 19 86 20 80 21 79 22 35 24
REMARK SMILES IDX 67 25 47 26 66 27 48 28 51 29 65 30 84 31 49 32 50 33 64 35
REMARK SMILES IDX 85 36 52 37 36 38 37 39 45 40 38 41 44 42 46 43 43 44 39 45
REMARK SMILES IDX 40 46 41 47 42 48 68 49 69 50 77 51 70 52 76 53 78 54 75 55
REMARK SMILES IDX 71 56 72 57 73 58 74 59 53 60 54 61 62 62 55 63 61 64 63 65
REMARK SMILES IDX 60 66 56 67 57 68 58 69 59 70 5 71 6 72 7 73 8 74 9 76 10 77
REMARK SMILES IDX 11 78 15 79 12 80 14 81 13 83 16 84 17 85 18 86 26 87 19 88
REMARK SMILES IDX 21 89 25 90 20 91 22 92 24 93 23 94
REMARK H PARENT 3 5 83 23 51 34 7 75 15 82
REMARK Flexibility Score: inf
ROOT
ATOM      1  C   UNL A   1      33.517  29.398  24.861  1.00  0.00     0.118 C 
ENDROOT
BRANCH   1   2
ATOM      2  N   UNL A   1      32.741  30.439  25.529  1.00  0.00    -0.352 N 
ATOM      3  O   UNL A   1      32.072  31.726  27.261  1.00  0.00    -0.269 OA
ATOM      4  C   UNL A   1      32.947  31.031  26.754  1.00  0.00     0.251 C 
ATOM      5  H   UNL A   1      31.956  30.764  25.032  1.00  0.00     0.163 HD
BRANCH   4   6
ATOM      6  C   UNL A   1      34.228  30.807  27.452  1.00  0.00     0.039 A 
ATOM      7  C   UNL A   1      34.521  29.540  27.952  1.00  0.00     0.014 A 
ATOM      8  C   UNL A   1      35.129  31.860  27.631  1.00  0.00     0.014 A 
ATOM      9  C   UNL A   1      35.599  29.370  28.802  1.00  0.00     0.010 A 
ATOM     10  C   UNL A   1      36.298  31.648  28.368  1.00  0.00     0.010 A 
ATOM     11  C   UNL A   1      36.527  30.407  28.983  1.00  0.00    -0.014 A 
BRANCH  11  12
ATOM     12  C   UNL A   1      37.771  30.108  29.736  1.00  0.00     0.031 A 
ATOM     13  C   UNL A   1      37.947  30.536  31.164  1.00  0.00     0.074 A 
ATOM     14  C   UNL A   1      38.722  29.383  29.110  1.00  0.00     0.049 A 
ATOM     15  N   UNL A   1      38.971  30.346  31.956  1.00  0.00    -0.248 NA
ATOM     16  C   UNL A   1      36.840  31.282  31.784  1.00  0.00     0.031 C 
ATOM     17  C   UNL A   1      38.642  28.916  27.720  1.00  0.00     0.029 A 
ATOM     18  N   UNL A   1      39.916  28.880  29.552  1.00  0.00    -0.354 N 
ATOM     19  C   UNL A   1      38.650  30.970  33.157  1.00  0.00     0.074 A 
ATOM     20  C   UNL A   1      37.339  31.561  32.981  1.00  0.00     0.031 C 
ATOM     21  C   UNL A   1      39.696  28.137  27.451  1.00  0.00     0.029 A 
ATOM     22  C   UNL A   1      40.583  28.138  28.605  1.00  0.00     0.049 A 
ATOM     23  H   UNL A   1      40.264  29.035  30.460  1.00  0.00     0.167 HD
ATOM     24  C   UNL A   1      39.388  31.041  34.291  1.00  0.00     0.034 A 
ATOM     25  C   UNL A   1      41.794  27.551  28.642  1.00  0.00     0.034 A 
ATOM     26  C   UNL A   1      40.690  30.430  34.437  1.00  0.00     0.049 A 
ATOM     27  C   UNL A   1      42.599  27.675  29.904  1.00  0.00     0.074 A 
ATOM     28  C   UNL A   1      41.517  30.417  35.548  1.00  0.00     0.029 A 
ATOM     29  N   UNL A   1      41.358  29.728  33.441  1.00  0.00    -0.354 N 
ATOM     30  N   UNL A   1      42.279  28.273  31.029  1.00  0.00    -0.248 NA
ATOM     31  C   UNL A   1      43.926  27.052  29.902  1.00  0.00     0.031 C 
ATOM     32  C   UNL A   1      42.706  29.768  35.203  1.00  0.00     0.029 A 
ATOM     33  C   UNL A   1      42.597  29.307  33.901  1.00  0.00     0.049 A 
ATOM     34  H   UNL A   1      41.003  29.555  32.539  1.00  0.00     0.167 HD
ATOM     35  C   UNL A   1      43.364  28.086  31.875  1.00  0.00     0.074 A 
ATOM     36  C   UNL A   1      44.331  27.294  31.140  1.00  0.00     0.031 C 
ATOM     37  C   UNL A   1      43.550  28.532  33.144  1.00  0.00     0.034 A 
BRANCH  24  38
ATOM     38  C   UNL A   1      38.836  31.848  35.443  1.00  0.00     0.023 A 
ATOM     39  C   UNL A   1      38.293  31.242  36.589  1.00  0.00     0.031 A 
ATOM     40  C   UNL A   1      38.862  33.254  35.392  1.00  0.00     0.131 A 
ATOM     41  C   UNL A   1      37.754  32.039  37.613  1.00  0.00     0.055 A 
ATOM     42  C   UNL A   1      38.388  34.041  36.443  1.00  0.00     0.041 A 
ATOM     43  F   UNL A   1      39.349  33.890  34.313  1.00  0.00    -0.206 F 
ATOM     44  C   UNL A   1      37.820  33.434  37.559  1.00  0.00     0.022 A 
BRANCH  41  45
ATOM     45  S   UNL A   1      36.864  31.228  38.970  1.00  0.00     0.124 S 
ATOM     46  O   UNL A   1      36.711  29.869  38.453  1.00  0.00    -0.237 OA
ATOM     47  O   UNL A   1      37.785  31.383  40.090  1.00  0.00    -0.237 OA
ATOM     48  O   UNL A   1      35.622  31.991  39.073  1.00  0.00    -0.744 OA
ENDBRANCH  41  45
ENDBRANCH  24  38
BRANCH  25  49
ATOM     49  C   UNL A   1      42.332  26.857  27.438  1.00  0.00     0.023 A 
ATOM     50  C   UNL A   1      42.169  25.475  27.263  1.00  0.00     0.031 A 
ATOM     51  C   UNL A   1      43.047  27.565  26.454  1.00  0.00     0.131 A 
ATOM     52  C   UNL A   1      42.751  24.838  26.156  1.00  0.00     0.055 A 
ATOM     53  C   UNL A   1      43.567  26.938  25.321  1.00  0.00     0.041 A 
ATOM     54  F   UNL A   1      43.232  28.890  26.570  1.00  0.00    -0.206 F 
ATOM     55  C   UNL A   1      43.433  25.563  25.176  1.00  0.00     0.022 A 
BRANCH  52  56
ATOM     56  S   UNL A   1      42.689  23.028  26.066  1.00  0.00     0.124 S 
ATOM     57  O   UNL A   1      41.318  22.756  26.484  1.00  0.00    -0.237 OA
ATOM     58  O   UNL A   1      42.991  22.784  24.660  1.00  0.00    -0.237 OA
ATOM     59  O   UNL A   1      43.724  22.606  27.007  1.00  0.00    -0.744 OA
ENDBRANCH  52  56
ENDBRANCH  25  49
BRANCH  37  60
ATOM     60  C   UNL A   1      44.841  28.130  33.810  1.00  0.00     0.023 A 
ATOM     61  C   UNL A   1      44.948  26.937  34.546  1.00  0.00     0.031 A 
ATOM     62  C   UNL A   1      45.965  28.970  33.738  1.00  0.00     0.131 A 
ATOM     63  C   UNL A   1      46.134  26.650  35.238  1.00  0.00     0.055 A 
ATOM     64  C   UNL A   1      47.163  28.647  34.375  1.00  0.00     0.041 A 
ATOM     65  F   UNL A   1      45.914  30.123  33.050  1.00  0.00    -0.206 F 
ATOM     66  C   UNL A   1      47.247  27.490  35.143  1.00  0.00     0.022 A 
BRANCH  63  67
ATOM     67  S   UNL A   1      46.167  25.216  36.346  1.00  0.00     0.124 S 
ATOM     68  O   UNL A   1      45.535  25.748  37.549  1.00  0.00    -0.237 OA
ATOM     69  O   UNL A   1      45.391  24.228  35.603  1.00  0.00    -0.237 OA
ATOM     70  O   UNL A   1      47.592  24.915  36.475  1.00  0.00    -0.744 OA
ENDBRANCH  63  67
ENDBRANCH  37  60
ENDBRANCH  11  12
ENDBRANCH   4   6
ENDBRANCH   1   2
BRANCH   1  71
ATOM     71  C   UNL A   1      33.188  29.281  23.384  1.00  0.00     0.042 C 
BRANCH  71  72
ATOM     72  C   UNL A   1      34.082  28.309  22.646  1.00  0.00     0.118 C 
BRANCH  72  73
ATOM     73  N   UNL A   1      33.337  27.333  21.880  1.00  0.00    -0.351 N 
ATOM     74  C   UNL A   1      32.459  26.384  22.296  1.00  0.00     0.278 C 
ATOM     75  H   UNL A   1      33.489  27.362  20.908  1.00  0.00     0.163 HD
ATOM     76  O   UNL A   1      31.482  26.268  21.551  1.00  0.00    -0.268 OA
BRANCH  74  77
ATOM     77  C   UNL A   1      32.729  25.480  23.546  1.00  0.00     0.274 C 
ATOM     78  C   UNL A   1      32.401  26.118  24.900  1.00  0.00     0.076 C 
ATOM     79  N   UNL A   1      31.915  24.238  23.550  1.00  0.00    -0.321 N 
ATOM     80  C   UNL A   1      30.961  26.608  24.903  1.00  0.00     0.012 C 
ATOM     81  C   UNL A   1      30.474  24.479  23.514  1.00  0.00     0.263 C 
ATOM     82  H   UNL A   1      32.069  23.859  24.484  1.00  0.00     0.349 HD
ATOM     83  C   UNL A   1      30.017  25.436  24.636  1.00  0.00     0.062 C 
BRANCH  79  84
ATOM     84  C   UNL A   1      32.426  23.098  22.784  1.00  0.00     0.300 C 
BRANCH  84  85
ATOM     85  C   UNL A   1      33.113  21.968  23.526  1.00  0.00     0.014 A 
ATOM     86  C   UNL A   1      32.328  20.847  23.871  1.00  0.00     0.010 A 
ATOM     87  C   UNL A   1      34.495  21.987  23.884  1.00  0.00    -0.010 A 
ATOM     88  C   UNL A   1      32.848  19.809  24.634  1.00  0.00     0.001 A 
ATOM     89  C   UNL A   1      35.011  20.913  24.659  1.00  0.00    -0.018 A 
ATOM     90  C   UNL A   1      35.406  23.001  23.507  1.00  0.00     0.009 A 
ATOM     91  C   UNL A   1      34.176  19.853  25.040  1.00  0.00     0.009 A 
ATOM     92  C   UNL A   1      36.362  20.900  25.043  1.00  0.00     0.009 A 
ATOM     93  C   UNL A   1      36.755  22.961  23.872  1.00  0.00     0.001 A 
ATOM     94  C   UNL A   1      37.231  21.913  24.647  1.00  0.00     0.001 A 
ENDBRANCH  84  85
ENDBRANCH  79  84
ENDBRANCH  74  77
ENDBRANCH  72  73
ENDBRANCH  71  72
ENDBRANCH   1  71
TORSDOF 15
ENDMDL
MODEL 3
REMARK VINA RESULT:     -12.6      4.915      9.898
REMARK SMILES O=C(NCCCNC(=O)[C@H]1CCCC[N@H+]1Cc1cccc2ccccc12)c1ccc(-c2c3nc(c(-c4cc(S(=O)(=O)[O-])ccc4F)c4ccc([nH]4)c(-c4cc(S(=O)(=O)[O-])ccc4F)c4nc(c(-c5cc(S(=O)(=O)[O-])ccc5F)c5ccc2[nH]5)C=C4)C=C3)cc1
REMARK SMILES IDX 4 1 3 2 1 3 2 4 27 6 28 7 89 8 29 9 88 10 30 11 31 12 32 13
REMARK SMILES IDX 82 14 33 15 87 16 81 17 83 18 34 19 86 20 80 21 79 22 35 24
REMARK SMILES IDX 67 25 47 26 66 27 48 28 51 29 65 30 84 31 49 32 50 33 64 35
REMARK SMILES IDX 85 36 52 37 36 38 37 39 45 40 38 41 44 42 46 43 43 44 39 45
REMARK SMILES IDX 40 46 41 47 42 48 68 49 69 50 77 51 70 52 76 53 78 54 75 55
REMARK SMILES IDX 71 56 72 57 73 58 74 59 53 60 54 61 62 62 55 63 61 64 63 65
REMARK SMILES IDX 60 66 56 67 57 68 58 69 59 70 5 71 6 72 7 73 8 74 9 76 10 77
REMARK SMILES IDX 11 78 15 79 12 80 14 81 13 83 16 84 17 85 18 86 26 87 19 88
REMARK SMILES IDX 21 89 25 90 20 91 22 92 24 93 23 94
REMARK H PARENT 3 5 83 23 51 34 7 75 15 82
REMARK Flexibility Score: inf
ROOT
ATOM      1  C   UNL A   1      32.944  29.118  25.646  1.00  0.00     0.118 C 
ENDROOT
BRANCH   1   2
ATOM      2  N   UNL A   1      32.486  30.467  25.960  1.00  0.00    -0.352 N 
ATOM      3  O   UNL A   1      32.288  32.344  27.202  1.00  0.00    -0.269 OA
ATOM      4  C   UNL A   1      32.936  31.339  26.926  1.00  0.00     0.251 C 
ATOM      5  H   UNL A   1      31.748  30.803  25.402  1.00  0.00     0.163 HD
BRANCH   4   6
ATOM      6  C   UNL A   1      34.196  31.039  27.632  1.00  0.00     0.039 A 
ATOM      7  C   UNL A   1      34.475  29.725  28.004  1.00  0.00     0.014 A 
ATOM      8  C   UNL A   1      35.092  32.064  27.945  1.00  0.00     0.014 A 
ATOM      9  C   UNL A   1      35.529  29.464  28.861  1.00  0.00     0.010 A 
ATOM     10  C   UNL A   1      36.240  31.772  28.688  1.00  0.00     0.010 A 
ATOM     11  C   UNL A   1      36.452  30.472  29.176  1.00  0.00    -0.014 A 
BRANCH  11  12
ATOM     12  C   UNL A   1      37.674  30.092  29.927  1.00  0.00     0.031 A 
ATOM     13  C   UNL A   1      37.861  30.474  31.367  1.00  0.00     0.074 A 
ATOM     14  C   UNL A   1      38.592  29.337  29.287  1.00  0.00     0.049 A 
ATOM     15  N   UNL A   1      38.869  30.213  32.160  1.00  0.00    -0.248 NA
ATOM     16  C   UNL A   1      36.789  31.258  32.000  1.00  0.00     0.031 C 
ATOM     17  C   UNL A   1      38.498  28.911  27.885  1.00  0.00     0.029 A 
ATOM     18  N   UNL A   1      39.756  28.764  29.723  1.00  0.00    -0.354 N 
ATOM     19  C   UNL A   1      38.571  30.821  33.374  1.00  0.00     0.074 A 
ATOM     20  C   UNL A   1      37.293  31.480  33.207  1.00  0.00     0.031 C 
ATOM     21  C   UNL A   1      39.513  28.088  27.602  1.00  0.00     0.029 A 
ATOM     22  C   UNL A   1      40.392  28.014  28.760  1.00  0.00     0.049 A 
ATOM     23  H   UNL A   1      40.105  28.878  30.637  1.00  0.00     0.167 HD
ATOM     24  C   UNL A   1      39.304  30.825  34.514  1.00  0.00     0.034 A 
ATOM     25  C   UNL A   1      41.571  27.367  28.788  1.00  0.00     0.034 A 
ATOM     26  C   UNL A   1      40.573  30.146  34.652  1.00  0.00     0.049 A 
ATOM     27  C   UNL A   1      42.374  27.418  30.058  1.00  0.00     0.074 A 
ATOM     28  C   UNL A   1      41.391  30.063  35.766  1.00  0.00     0.029 A 
ATOM     29  N   UNL A   1      41.213  29.437  33.640  1.00  0.00    -0.354 N 
ATOM     30  N   UNL A   1      42.076  28.001  31.196  1.00  0.00    -0.248 NA
ATOM     31  C   UNL A   1      43.668  26.730  30.047  1.00  0.00     0.031 C 
ATOM     32  C   UNL A   1      42.549  29.364  35.410  1.00  0.00     0.029 A 
ATOM     33  C   UNL A   1      42.425  28.943  34.097  1.00  0.00     0.049 A 
ATOM     34  H   UNL A   1      40.856  29.307  32.732  1.00  0.00     0.167 HD
ATOM     35  C   UNL A   1      43.145  27.739  32.043  1.00  0.00     0.074 A 
ATOM     36  C   UNL A   1      44.076  26.918  31.293  1.00  0.00     0.031 C 
ATOM     37  C   UNL A   1      43.344  28.141  33.324  1.00  0.00     0.034 A 
BRANCH  24  38
ATOM     38  C   UNL A   1      38.786  31.628  35.684  1.00  0.00     0.023 A 
ATOM     39  C   UNL A   1      38.155  31.025  36.786  1.00  0.00     0.031 A 
ATOM     40  C   UNL A   1      38.933  33.028  35.696  1.00  0.00     0.131 A 
ATOM     41  C   UNL A   1      37.653  31.822  37.828  1.00  0.00     0.055 A 
ATOM     42  C   UNL A   1      38.493  33.808  36.766  1.00  0.00     0.041 A 
ATOM     43  F   UNL A   1      39.506  33.663  34.661  1.00  0.00    -0.206 F 
ATOM     44  C   UNL A   1      37.839  33.207  37.837  1.00  0.00     0.022 A 
BRANCH  41  45
ATOM     45  S   UNL A   1      36.653  31.035  39.121  1.00  0.00     0.124 S 
ATOM     46  O   UNL A   1      36.361  29.735  38.520  1.00  0.00    -0.237 OA
ATOM     47  O   UNL A   1      37.564  31.020  40.260  1.00  0.00    -0.237 OA
ATOM     48  O   UNL A   1      35.501  31.924  39.255  1.00  0.00    -0.744 OA
ENDBRANCH  41  45
ENDBRANCH  24  38
BRANCH  25  49
ATOM     49  C   UNL A   1      42.083  26.678  27.570  1.00  0.00     0.023 A 
ATOM     50  C   UNL A   1      41.891  25.302  27.379  1.00  0.00     0.031 A 
ATOM     51  C   UNL A   1      42.801  27.386  26.587  1.00  0.00     0.131 A 
ATOM     52  C   UNL A   1      42.447  24.669  26.256  1.00  0.00     0.055 A 
ATOM     53  C   UNL A   1      43.296  26.764  25.440  1.00  0.00     0.041 A 
ATOM     54  F   UNL A   1      43.014  28.705  26.718  1.00  0.00    -0.206 F 
ATOM     55  C   UNL A   1      43.133  25.393  25.278  1.00  0.00     0.022 A 
BRANCH  52  56
ATOM     56  S   UNL A   1      42.348  22.862  26.144  1.00  0.00     0.124 S 
ATOM     57  O   UNL A   1      43.154  22.448  27.287  1.00  0.00    -0.237 OA
ATOM     58  O   UNL A   1      40.912  22.631  26.255  1.00  0.00    -0.237 OA
ATOM     59  O   UNL A   1      42.926  22.571  24.833  1.00  0.00    -0.744 OA
ENDBRANCH  52  56
ENDBRANCH  25  49
BRANCH  37  60
ATOM     60  C   UNL A   1      44.609  27.659  33.986  1.00  0.00     0.023 A 
ATOM     61  C   UNL A   1      44.653  26.441  34.687  1.00  0.00     0.031 A 
ATOM     62  C   UNL A   1      45.772  28.445  33.948  1.00  0.00     0.131 A 
ATOM     63  C   UNL A   1      45.818  26.076  35.377  1.00  0.00     0.055 A 
ATOM     64  C   UNL A   1      46.948  28.047  34.583  1.00  0.00     0.041 A 
ATOM     65  F   UNL A   1      45.782  29.620  33.295  1.00  0.00    -0.206 F 
ATOM     66  C   UNL A   1      46.971  26.864  35.316  1.00  0.00     0.022 A 
BRANCH  63  67
ATOM     67  S   UNL A   1      45.773  24.609  36.442  1.00  0.00     0.124 S 
ATOM     68  O   UNL A   1      46.496  23.629  35.637  1.00  0.00    -0.237 OA
ATOM     69  O   UNL A   1      46.458  25.074  37.644  1.00  0.00    -0.237 OA
ATOM     70  O   UNL A   1      44.344  24.347  36.604  1.00  0.00    -0.744 OA
ENDBRANCH  63  67
ENDBRANCH  37  60
ENDBRANCH  11  12
ENDBRANCH   4   6
ENDBRANCH   1   2
BRANCH   1  71
ATOM     71  C   UNL A   1      31.855  28.076  25.823  1.00  0.00     0.042 C 
BRANCH  71  72
ATOM     72  C   UNL A   1      32.159  27.070  26.913  1.00  0.00     0.118 C 
BRANCH  72  73
ATOM     73  N   UNL A   1      31.381  25.857  26.790  1.00  0.00    -0.351 N 
ATOM     74  C   UNL A   1      31.789  24.574  26.611  1.00  0.00     0.278 C 
ATOM     75  H   UNL A   1      30.406  25.980  26.845  1.00  0.00     0.163 HD
ATOM     76  O   UNL A   1      31.137  23.761  27.273  1.00  0.00    -0.268 OA
BRANCH  74  77
ATOM     77  C   UNL A   1      32.913  24.184  25.592  1.00  0.00     0.274 C 
ATOM     78  C   UNL A   1      34.225  23.700  26.217  1.00  0.00     0.076 C 
ATOM     79  N   UNL A   1      32.525  23.060  24.703  1.00  0.00    -0.321 N 
ATOM     80  C   UNL A   1      33.948  22.544  27.166  1.00  0.00     0.012 C 
ATOM     81  C   UNL A   1      32.171  21.837  25.421  1.00  0.00     0.263 C 
ATOM     82  H   UNL A   1      33.398  22.816  24.236  1.00  0.00     0.349 HD
ATOM     83  C   UNL A   1      33.279  21.400  26.404  1.00  0.00     0.062 C 
BRANCH  79  84
ATOM     84  C   UNL A   1      31.743  23.387  23.508  1.00  0.00     0.300 C 
BRANCH  84  85
ATOM     85  C   UNL A   1      31.874  24.772  22.905  1.00  0.00     0.014 A 
ATOM     86  C   UNL A   1      33.026  25.038  22.135  1.00  0.00     0.010 A 
ATOM     87  C   UNL A   1      30.901  25.802  23.079  1.00  0.00    -0.010 A 
ATOM     88  C   UNL A   1      33.277  26.305  21.624  1.00  0.00     0.001 A 
ATOM     89  C   UNL A   1      31.172  27.091  22.545  1.00  0.00    -0.018 A 
ATOM     90  C   UNL A   1      29.661  25.629  23.740  1.00  0.00     0.009 A 
ATOM     91  C   UNL A   1      32.363  27.328  21.845  1.00  0.00     0.009 A 
ATOM     92  C   UNL A   1      30.245  28.134  22.706  1.00  0.00     0.009 A 
ATOM     93  C   UNL A   1      28.736  26.669  23.867  1.00  0.00     0.001 A 
ATOM     94  C   UNL A   1      29.032  27.925  23.356  1.00  0.00     0.001 A 
ENDBRANCH  84  85
ENDBRANCH  79  84
ENDBRANCH  74  77
ENDBRANCH  72  73
ENDBRANCH  71  72
ENDBRANCH   1  71
TORSDOF 15
ENDMDL
