MODEL 1
REMARK VINA RESULT:     -13.4      0.000      0.000
REMARK SMILES O=C(NCCCNC(=O)c1ccc(-c2c3nc(c(-c4cc(S(=O)(=O)[O-])ccc4F)c4ccc([nH]4)c(-c4cc(S(=O)(=O)[O-])ccc4F)c4nc(c(-c5cc(S(=O)(=O)[O-])ccc5F)c5ccc2[nH]5)C=C4)C=C3)cc1)C1=Cc2cc(Cl)cc(C#Cc3ccccc3)c2O[C@@H]1C(F)(F)F
REMARK SMILES IDX 5 1 4 2 3 3 1 4 2 5 73 7 74 8 91 9 75 10 90 11 76 12 89 13
REMARK SMILES IDX 77 14 80 15 78 16 79 17 92 18 93 19 94 20 95 21 81 22 82 23
REMARK SMILES IDX 83 24 84 25 88 26 85 27 87 28 86 29 6 30 7 31 8 32 9 34
REMARK SMILES IDX 10 35 11 36 72 37 12 38 71 39 13 40 14 41 15 42 65 43 16 44
REMARK SMILES IDX 70 45 64 46 66 47 17 48 69 49 63 50 62 51 18 53 50 54 30 55
REMARK SMILES IDX 49 56 31 57 34 58 48 59 67 60 32 61 33 62 47 64 68 65 35 66
REMARK SMILES IDX 19 67 20 68 28 69 21 70 27 71 29 72 26 73 22 74 23 75 24 76
REMARK SMILES IDX 25 77 51 78 52 79 60 80 53 81 59 82 61 83 58 84 54 85 55 86
REMARK SMILES IDX 56 87 57 88 36 89 37 90 45 91 38 92 44 93 46 94 43 95 39 96
REMARK SMILES IDX 40 97 41 98 42 99
REMARK H PARENT 3 6 7 33 66 52 34 63
REMARK Flexibility Score: inf
ROOT
ATOM      1  C   UNL A   1      31.497  28.100  27.363  1.00  0.00     0.042 C 
ENDROOT
BRANCH   1   2
ATOM      2  C   UNL A   1      30.844  27.051  26.494  1.00  0.00     0.118 C 
BRANCH   2   3
ATOM      3  N   UNL A   1      31.042  25.671  26.876  1.00  0.00    -0.352 N 
ATOM      4  O   UNL A   1      32.189  23.747  27.044  1.00  0.00    -0.270 OA
ATOM      5  C   UNL A   1      32.000  24.799  26.435  1.00  0.00     0.251 C 
ATOM      6  H   UNL A   1      30.407  25.312  27.537  1.00  0.00     0.163 HD
BRANCH   5   7
ATOM      7  C   UNL A   1      32.921  25.136  25.302  1.00  0.00     0.067 C 
ATOM      8  C   UNL A   1      34.195  25.534  25.472  1.00  0.00     0.025 C 
ATOM      9  C   UNL A   1      32.582  24.356  24.057  1.00  0.00     0.314 C 
ATOM     10  C   UNL A   1      35.172  24.470  25.082  1.00  0.00     0.020 A 
ATOM     11  O   UNL A   1      33.450  23.199  23.908  1.00  0.00    -0.474 OA
ATOM     12  C   UNL A   1      36.424  24.505  25.716  1.00  0.00     0.032 A 
ATOM     13  C   UNL A   1      34.685  23.269  24.518  1.00  0.00     0.143 A 
ATOM     14  C   UNL A   1      37.124  23.316  25.906  1.00  0.00     0.043 A 
ATOM     15  C   UNL A   1      35.376  22.071  24.771  1.00  0.00     0.069 A 
ATOM     16  Cl  UNL A   1      38.550  23.316  26.870  1.00  0.00    -0.084 Cl
ATOM     17  C   UNL A   1      36.596  22.103  25.465  1.00  0.00     0.041 A 
BRANCH   9  18
ATOM     18  C   UNL A   1      32.570  25.276  22.825  1.00  0.00     0.429 C 
ATOM     19  F   UNL A   1      33.744  25.229  22.153  1.00  0.00    -0.167 F 
ATOM     20  F   UNL A   1      31.602  24.911  21.946  1.00  0.00    -0.167 F 
ATOM     21  F   UNL A   1      32.340  26.573  23.142  1.00  0.00    -0.167 F 
ENDBRANCH   9  18
BRANCH  15  22
ATOM     22  C   UNL A   1      34.760  20.781  24.604  1.00  0.00    -0.058 C 
ATOM     23  C   UNL A   1      34.311  19.667  24.626  1.00  0.00    -0.062 C 
BRANCH  23  24
ATOM     24  C   UNL A   1      33.856  18.308  24.699  1.00  0.00     0.025 A 
ATOM     25  C   UNL A   1      32.869  17.956  25.624  1.00  0.00     0.017 A 
ATOM     26  C   UNL A   1      34.403  17.326  23.869  1.00  0.00     0.017 A 
ATOM     27  C   UNL A   1      32.471  16.624  25.758  1.00  0.00     0.001 A 
ATOM     28  C   UNL A   1      34.000  15.993  24.001  1.00  0.00     0.001 A 
ATOM     29  C   UNL A   1      33.047  15.640  24.956  1.00  0.00     0.000 A 
ENDBRANCH  23  24
ENDBRANCH  15  22
ENDBRANCH   5   7
ENDBRANCH   2   3
ENDBRANCH   1   2
BRANCH   1  30
ATOM     30  C   UNL A   1      32.483  28.958  26.596  1.00  0.00     0.118 C 
BRANCH  30  31
ATOM     31  N   UNL A   1      32.269  30.400  26.765  1.00  0.00    -0.352 N 
ATOM     32  C   UNL A   1      33.093  31.394  27.252  1.00  0.00     0.251 C 
ATOM     33  H   UNL A   1      31.381  30.714  26.480  1.00  0.00     0.163 HD
ATOM     34  O   UNL A   1      32.641  32.522  27.433  1.00  0.00    -0.269 OA
BRANCH  32  35
ATOM     35  C   UNL A   1      34.495  31.086  27.612  1.00  0.00     0.039 A 
ATOM     36  C   UNL A   1      35.411  32.127  27.784  1.00  0.00     0.014 A 
ATOM     37  C   UNL A   1      34.881  29.775  27.871  1.00  0.00     0.014 A 
ATOM     38  C   UNL A   1      36.650  31.861  28.372  1.00  0.00     0.010 A 
ATOM     39  C   UNL A   1      36.035  29.539  28.602  1.00  0.00     0.010 A 
ATOM     40  C   UNL A   1      36.931  30.582  28.876  1.00  0.00    -0.014 A 
BRANCH  40  41
ATOM     41  C   UNL A   1      38.131  30.291  29.706  1.00  0.00     0.031 A 
ATOM     42  C   UNL A   1      39.170  29.328  29.194  1.00  0.00     0.074 A 
ATOM     43  C   UNL A   1      38.227  30.799  30.952  1.00  0.00     0.049 A 
ATOM     44  N   UNL A   1      40.184  28.793  29.824  1.00  0.00    -0.248 NA
ATOM     45  C   UNL A   1      39.022  28.873  27.801  1.00  0.00     0.031 C 
ATOM     46  C   UNL A   1      37.265  31.713  31.576  1.00  0.00     0.029 A 
ATOM     47  N   UNL A   1      39.172  30.608  31.930  1.00  0.00    -0.354 N 
ATOM     48  C   UNL A   1      40.784  27.935  28.909  1.00  0.00     0.074 A 
ATOM     49  C   UNL A   1      39.971  27.954  27.713  1.00  0.00     0.031 C 
ATOM     50  C   UNL A   1      37.690  32.030  32.809  1.00  0.00     0.029 A 
ATOM     51  C   UNL A   1      38.910  31.289  33.100  1.00  0.00     0.049 A 
ATOM     52  H   UNL A   1      39.965  30.038  31.807  1.00  0.00     0.167 HD
ATOM     53  C   UNL A   1      41.928  27.223  29.041  1.00  0.00     0.034 A 
ATOM     54  C   UNL A   1      39.563  31.290  34.280  1.00  0.00     0.034 A 
ATOM     55  C   UNL A   1      42.738  27.229  30.231  1.00  0.00     0.049 A 
ATOM     56  C   UNL A   1      40.794  30.425  34.424  1.00  0.00     0.074 A 
ATOM     57  C   UNL A   1      43.938  26.579  30.457  1.00  0.00     0.029 A 
ATOM     58  N   UNL A   1      42.431  27.920  31.395  1.00  0.00    -0.354 N 
ATOM     59  N   UNL A   1      41.372  29.657  33.530  1.00  0.00    -0.248 NA
ATOM     60  C   UNL A   1      41.459  30.427  35.734  1.00  0.00     0.031 C 
ATOM     61  C   UNL A   1      44.317  26.813  31.781  1.00  0.00     0.029 A 
ATOM     62  C   UNL A   1      43.398  27.677  32.356  1.00  0.00     0.049 A 
ATOM     63  H   UNL A   1      41.642  28.495  31.520  1.00  0.00     0.167 HD
ATOM     64  C   UNL A   1      42.486  29.112  34.163  1.00  0.00     0.074 A 
ATOM     65  C   UNL A   1      42.511  29.657  35.504  1.00  0.00     0.031 C 
ATOM     66  C   UNL A   1      43.405  28.236  33.686  1.00  0.00     0.034 A 
BRANCH  53  67
ATOM     67  C   UNL A   1      42.369  26.383  27.868  1.00  0.00     0.023 A 
ATOM     68  C   UNL A   1      42.117  25.001  27.823  1.00  0.00     0.031 A 
ATOM     69  C   UNL A   1      43.042  26.966  26.781  1.00  0.00     0.131 A 
ATOM     70  C   UNL A   1      42.589  24.238  26.747  1.00  0.00     0.055 A 
ATOM     71  C   UNL A   1      43.435  26.214  25.672  1.00  0.00     0.041 A 
ATOM     72  F   UNL A   1      43.332  28.276  26.779  1.00  0.00    -0.206 F 
ATOM     73  C   UNL A   1      43.220  24.839  25.656  1.00  0.00     0.022 A 
BRANCH  70  74
ATOM     74  S   UNL A   1      42.482  22.431  26.858  1.00  0.00     0.124 S 
ATOM     75  O   UNL A   1      43.840  22.034  26.494  1.00  0.00    -0.237 OA
ATOM     76  O   UNL A   1      42.107  22.222  28.251  1.00  0.00    -0.237 OA
ATOM     77  O   UNL A   1      41.455  22.088  25.876  1.00  0.00    -0.744 OA
ENDBRANCH  70  74
ENDBRANCH  53  67
BRANCH  54  78
ATOM     78  C   UNL A   1      39.073  32.100  35.436  1.00  0.00     0.023 A 
ATOM     79  C   UNL A   1      39.500  33.427  35.612  1.00  0.00     0.031 A 
ATOM     80  C   UNL A   1      38.249  31.542  36.430  1.00  0.00     0.131 A 
ATOM     81  C   UNL A   1      39.173  34.120  36.787  1.00  0.00     0.055 A 
ATOM     82  C   UNL A   1      37.860  32.264  37.561  1.00  0.00     0.041 A 
ATOM     83  F   UNL A   1      37.811  30.277  36.322  1.00  0.00    -0.206 F 
ATOM     84  C   UNL A   1      38.341  33.555  37.755  1.00  0.00     0.022 A 
BRANCH  81  85
ATOM     85  S   UNL A   1      39.981  35.714  37.101  1.00  0.00     0.124 S 
ATOM     86  O   UNL A   1      39.653  36.453  35.885  1.00  0.00    -0.237 OA
ATOM     87  O   UNL A   1      39.314  36.156  38.321  1.00  0.00    -0.237 OA
ATOM     88  O   UNL A   1      41.389  35.357  37.254  1.00  0.00    -0.744 OA
ENDBRANCH  81  85
ENDBRANCH  54  78
BRANCH  66  89
ATOM     89  C   UNL A   1      44.533  27.845  34.606  1.00  0.00     0.023 A 
ATOM     90  C   UNL A   1      44.481  26.673  35.377  1.00  0.00     0.031 A 
ATOM     91  C   UNL A   1      45.686  28.646  34.693  1.00  0.00     0.131 A 
ATOM     92  C   UNL A   1      45.542  26.353  36.233  1.00  0.00     0.055 A 
ATOM     93  C   UNL A   1      46.769  28.289  35.497  1.00  0.00     0.041 A 
ATOM     94  F   UNL A   1      45.787  29.779  33.979  1.00  0.00    -0.206 F 
ATOM     95  C   UNL A   1      46.696  27.141  36.281  1.00  0.00     0.022 A 
BRANCH  92  96
ATOM     96  S   UNL A   1      45.367  24.929  37.342  1.00  0.00     0.124 S 
ATOM     97  O   UNL A   1      44.324  24.155  36.677  1.00  0.00    -0.237 OA
ATOM     98  O   UNL A   1      46.705  24.348  37.319  1.00  0.00    -0.237 OA
ATOM     99  O   UNL A   1      44.977  25.533  38.615  1.00  0.00    -0.744 OA
ENDBRANCH  92  96
ENDBRANCH  66  89
ENDBRANCH  40  41
ENDBRANCH  32  35
ENDBRANCH  30  31
ENDBRANCH   1  30
TORSDOF 16
ENDMDL
MODEL 2
REMARK VINA RESULT:     -12.6      1.912      2.235
REMARK SMILES O=C(NCCCNC(=O)c1ccc(-c2c3nc(c(-c4cc(S(=O)(=O)[O-])ccc4F)c4ccc([nH]4)c(-c4cc(S(=O)(=O)[O-])ccc4F)c4nc(c(-c5cc(S(=O)(=O)[O-])ccc5F)c5ccc2[nH]5)C=C4)C=C3)cc1)C1=Cc2cc(Cl)cc(C#Cc3ccccc3)c2O[C@@H]1C(F)(F)F
REMARK SMILES IDX 5 1 4 2 3 3 1 4 2 5 73 7 74 8 91 9 75 10 90 11 76 12 89 13
REMARK SMILES IDX 77 14 80 15 78 16 79 17 92 18 93 19 94 20 95 21 81 22 82 23
REMARK SMILES IDX 83 24 84 25 88 26 85 27 87 28 86 29 6 30 7 31 8 32 9 34
REMARK SMILES IDX 10 35 11 36 72 37 12 38 71 39 13 40 14 41 15 42 65 43 16 44
REMARK SMILES IDX 70 45 64 46 66 47 17 48 69 49 63 50 62 51 18 53 50 54 30 55
REMARK SMILES IDX 49 56 31 57 34 58 48 59 67 60 32 61 33 62 47 64 68 65 35 66
REMARK SMILES IDX 19 67 20 68 28 69 21 70 27 71 29 72 26 73 22 74 23 75 24 76
REMARK SMILES IDX 25 77 51 78 52 79 60 80 53 81 59 82 61 83 58 84 54 85 55 86
REMARK SMILES IDX 56 87 57 88 36 89 37 90 45 91 38 92 44 93 46 94 43 95 39 96
REMARK SMILES IDX 40 97 41 98 42 99
REMARK H PARENT 3 6 7 33 66 52 34 63
REMARK Flexibility Score: inf
ROOT
ATOM      1  C   UNL A   1      32.538  27.951  25.886  1.00  0.00     0.042 C 
ENDROOT
BRANCH   1   2
ATOM      2  C   UNL A   1      31.337  27.036  25.908  1.00  0.00     0.118 C 
BRANCH   2   3
ATOM      3  N   UNL A   1      31.518  25.735  26.512  1.00  0.00    -0.352 N 
ATOM      4  O   UNL A   1      32.610  23.819  26.937  1.00  0.00    -0.270 OA
ATOM      5  C   UNL A   1      32.411  24.758  26.167  1.00  0.00     0.251 C 
ATOM      6  H   UNL A   1      30.922  25.524  27.267  1.00  0.00     0.163 HD
BRANCH   5   7
ATOM      7  C   UNL A   1      33.256  24.852  24.934  1.00  0.00     0.067 C 
ATOM      8  C   UNL A   1      34.562  25.176  24.948  1.00  0.00     0.025 C 
ATOM      9  C   UNL A   1      32.770  23.920  23.852  1.00  0.00     0.314 C 
ATOM     10  C   UNL A   1      35.437  23.997  24.661  1.00  0.00     0.020 A 
ATOM     11  O   UNL A   1      33.550  22.693  23.824  1.00  0.00    -0.474 OA
ATOM     12  C   UNL A   1      36.736  24.035  25.191  1.00  0.00     0.032 A 
ATOM     13  C   UNL A   1      34.832  22.763  24.326  1.00  0.00     0.143 A 
ATOM     14  C   UNL A   1      37.374  22.840  25.514  1.00  0.00     0.043 A 
ATOM     15  C   UNL A   1      35.466  21.570  24.713  1.00  0.00     0.069 A 
ATOM     16  Cl  UNL A   1      38.871  22.880  26.363  1.00  0.00    -0.084 Cl
ATOM     17  C   UNL A   1      36.738  21.617  25.305  1.00  0.00     0.041 A 
BRANCH   9  18
ATOM     18  C   UNL A   1      32.714  24.643  22.496  1.00  0.00     0.429 C 
ATOM     19  F   UNL A   1      33.668  25.599  22.398  1.00  0.00    -0.167 F 
ATOM     20  F   UNL A   1      32.920  23.780  21.468  1.00  0.00    -0.167 F 
ATOM     21  F   UNL A   1      31.521  25.243  22.270  1.00  0.00    -0.167 F 
ENDBRANCH   9  18
BRANCH  15  22
ATOM     22  C   UNL A   1      34.761  20.318  24.792  1.00  0.00    -0.058 C 
ATOM     23  C   UNL A   1      34.323  19.207  24.927  1.00  0.00    -0.062 C 
BRANCH  23  24
ATOM     24  C   UNL A   1      33.888  17.847  25.061  1.00  0.00     0.025 A 
ATOM     25  C   UNL A   1      34.795  16.805  24.849  1.00  0.00     0.017 A 
ATOM     26  C   UNL A   1      32.561  17.549  25.383  1.00  0.00     0.017 A 
ATOM     27  C   UNL A   1      34.368  15.476  24.901  1.00  0.00     0.001 A 
ATOM     28  C   UNL A   1      32.136  16.218  25.441  1.00  0.00     0.001 A 
ATOM     29  C   UNL A   1      33.034  15.183  25.183  1.00  0.00     0.000 A 
ENDBRANCH  23  24
ENDBRANCH  15  22
ENDBRANCH   5   7
ENDBRANCH   2   3
ENDBRANCH   1   2
BRANCH   1  30
ATOM     30  C   UNL A   1      32.741  28.677  27.200  1.00  0.00     0.118 C 
BRANCH  30  31
ATOM     31  N   UNL A   1      32.598  30.135  27.100  1.00  0.00    -0.352 N 
ATOM     32  C   UNL A   1      33.474  31.160  27.394  1.00  0.00     0.251 C 
ATOM     33  H   UNL A   1      31.723  30.434  26.763  1.00  0.00     0.163 HD
ATOM     34  O   UNL A   1      33.078  32.322  27.365  1.00  0.00    -0.269 OA
BRANCH  32  35
ATOM     35  C   UNL A   1      34.862  30.855  27.805  1.00  0.00     0.039 A 
ATOM     36  C   UNL A   1      35.796  31.889  27.915  1.00  0.00     0.014 A 
ATOM     37  C   UNL A   1      35.219  29.561  28.170  1.00  0.00     0.014 A 
ATOM     38  C   UNL A   1      37.018  31.647  28.546  1.00  0.00     0.010 A 
ATOM     39  C   UNL A   1      36.354  29.361  28.939  1.00  0.00     0.010 A 
ATOM     40  C   UNL A   1      37.265  30.405  29.151  1.00  0.00    -0.014 A 
BRANCH  40  41
ATOM     41  C   UNL A   1      38.444  30.157  30.023  1.00  0.00     0.031 A 
ATOM     42  C   UNL A   1      39.519  29.206  29.564  1.00  0.00     0.074 A 
ATOM     43  C   UNL A   1      38.490  30.692  31.261  1.00  0.00     0.049 A 
ATOM     44  N   UNL A   1      40.523  28.706  30.236  1.00  0.00    -0.248 NA
ATOM     45  C   UNL A   1      39.425  28.720  28.177  1.00  0.00     0.031 C 
ATOM     46  C   UNL A   1      37.490  31.597  31.836  1.00  0.00     0.029 A 
ATOM     47  N   UNL A   1      39.408  30.541  32.272  1.00  0.00    -0.354 N 
ATOM     48  C   UNL A   1      41.169  27.843  29.358  1.00  0.00     0.074 A 
ATOM     49  C   UNL A   1      40.395  27.820  28.138  1.00  0.00     0.031 C 
ATOM     50  C   UNL A   1      37.869  31.948  33.075  1.00  0.00     0.029 A 
ATOM     51  C   UNL A   1      39.094  31.239  33.418  1.00  0.00     0.049 A 
ATOM     52  H   UNL A   1      40.216  29.986  32.186  1.00  0.00     0.167 HD
ATOM     53  C   UNL A   1      42.324  27.158  29.541  1.00  0.00     0.034 A 
ATOM     54  C   UNL A   1      39.710  31.278  34.618  1.00  0.00     0.034 A 
ATOM     55  C   UNL A   1      43.095  27.206  30.756  1.00  0.00     0.049 A 
ATOM     56  C   UNL A   1      40.953  30.443  34.819  1.00  0.00     0.074 A 
ATOM     57  C   UNL A   1      44.300  26.586  31.033  1.00  0.00     0.029 A 
ATOM     58  N   UNL A   1      42.737  27.913  31.895  1.00  0.00    -0.354 N 
ATOM     59  N   UNL A   1      41.575  29.669  33.959  1.00  0.00    -0.248 NA
ATOM     60  C   UNL A   1      41.576  30.485  36.148  1.00  0.00     0.031 C 
ATOM     61  C   UNL A   1      44.632  26.855  32.363  1.00  0.00     0.029 A 
ATOM     62  C   UNL A   1      43.678  27.710  32.890  1.00  0.00     0.049 A 
ATOM     63  H   UNL A   1      41.933  28.474  31.983  1.00  0.00     0.167 HD
ATOM     64  C   UNL A   1      42.680  29.162  34.638  1.00  0.00     0.074 A 
ATOM     65  C   UNL A   1      42.651  29.733  35.967  1.00  0.00     0.031 C 
ATOM     66  C   UNL A   1      43.631  28.296  34.208  1.00  0.00     0.034 A 
BRANCH  53  67
ATOM     67  C   UNL A   1      42.819  26.305  28.401  1.00  0.00     0.023 A 
ATOM     68  C   UNL A   1      43.938  26.681  27.638  1.00  0.00     0.031 A 
ATOM     69  C   UNL A   1      42.173  25.101  28.072  1.00  0.00     0.131 A 
ATOM     70  C   UNL A   1      44.340  25.897  26.549  1.00  0.00     0.055 A 
ATOM     71  C   UNL A   1      42.629  24.280  27.038  1.00  0.00     0.041 A 
ATOM     72  F   UNL A   1      41.085  24.702  28.748  1.00  0.00    -0.206 F 
ATOM     73  C   UNL A   1      43.712  24.683  26.262  1.00  0.00     0.022 A 
BRANCH  70  74
ATOM     74  S   UNL A   1      45.610  26.554  25.435  1.00  0.00     0.124 S 
ATOM     75  O   UNL A   1      46.640  26.977  26.381  1.00  0.00    -0.237 OA
ATOM     76  O   UNL A   1      45.937  25.397  24.610  1.00  0.00    -0.237 OA
ATOM     77  O   UNL A   1      44.927  27.643  24.740  1.00  0.00    -0.744 OA
ENDBRANCH  70  74
ENDBRANCH  53  67
BRANCH  54  78
ATOM     78  C   UNL A   1      39.166  32.100  35.741  1.00  0.00     0.023 A 
ATOM     79  C   UNL A   1      38.563  31.485  36.851  1.00  0.00     0.031 A 
ATOM     80  C   UNL A   1      39.152  33.506  35.686  1.00  0.00     0.131 A 
ATOM     81  C   UNL A   1      37.904  32.264  37.814  1.00  0.00     0.055 A 
ATOM     82  C   UNL A   1      38.564  34.280  36.688  1.00  0.00     0.041 A 
ATOM     83  F   UNL A   1      39.707  34.153  34.648  1.00  0.00    -0.206 F 
ATOM     84  C   UNL A   1      37.916  33.659  37.751  1.00  0.00     0.022 A 
BRANCH  81  85
ATOM     85  S   UNL A   1      36.900  31.419  39.066  1.00  0.00     0.124 S 
ATOM     86  O   UNL A   1      35.713  32.268  39.112  1.00  0.00    -0.237 OA
ATOM     87  O   UNL A   1      36.722  30.099  38.472  1.00  0.00    -0.237 OA
ATOM     88  O   UNL A   1      37.742  31.458  40.260  1.00  0.00    -0.744 OA
ENDBRANCH  81  85
ENDBRANCH  54  78
BRANCH  66  89
ATOM     89  C   UNL A   1      44.737  27.948  35.171  1.00  0.00     0.023 A 
ATOM     90  C   UNL A   1      44.543  27.026  36.212  1.00  0.00     0.031 A 
ATOM     91  C   UNL A   1      46.010  28.529  35.028  1.00  0.00     0.131 A 
ATOM     92  C   UNL A   1      45.591  26.742  37.097  1.00  0.00     0.055 A 
ATOM     93  C   UNL A   1      47.069  28.193  35.871  1.00  0.00     0.041 A 
ATOM     94  F   UNL A   1      46.249  29.419  34.051  1.00  0.00    -0.206 F 
ATOM     95  C   UNL A   1      46.859  27.302  36.920  1.00  0.00     0.022 A 
BRANCH  92  96
ATOM     96  S   UNL A   1      45.256  25.685  38.532  1.00  0.00     0.124 S 
ATOM     97  O   UNL A   1      46.580  25.566  39.134  1.00  0.00    -0.237 OA
ATOM     98  O   UNL A   1      44.283  26.473  39.282  1.00  0.00    -0.237 OA
ATOM     99  O   UNL A   1      44.732  24.457  37.938  1.00  0.00    -0.744 OA
ENDBRANCH  92  96
ENDBRANCH  66  89
ENDBRANCH  40  41
ENDBRANCH  32  35
ENDBRANCH  30  31
ENDBRANCH   1  30
TORSDOF 16
ENDMDL
MODEL 3
REMARK VINA RESULT:     -12.6      0.935      7.582
REMARK SMILES O=C(NCCCNC(=O)c1ccc(-c2c3nc(c(-c4cc(S(=O)(=O)[O-])ccc4F)c4ccc([nH]4)c(-c4cc(S(=O)(=O)[O-])ccc4F)c4nc(c(-c5cc(S(=O)(=O)[O-])ccc5F)c5ccc2[nH]5)C=C4)C=C3)cc1)C1=Cc2cc(Cl)cc(C#Cc3ccccc3)c2O[C@@H]1C(F)(F)F
REMARK SMILES IDX 5 1 4 2 3 3 1 4 2 5 73 7 74 8 91 9 75 10 90 11 76 12 89 13
REMARK SMILES IDX 77 14 80 15 78 16 79 17 92 18 93 19 94 20 95 21 81 22 82 23
REMARK SMILES IDX 83 24 84 25 88 26 85 27 87 28 86 29 6 30 7 31 8 32 9 34
REMARK SMILES IDX 10 35 11 36 72 37 12 38 71 39 13 40 14 41 15 42 65 43 16 44
REMARK SMILES IDX 70 45 64 46 66 47 17 48 69 49 63 50 62 51 18 53 50 54 30 55
REMARK SMILES IDX 49 56 31 57 34 58 48 59 67 60 32 61 33 62 47 64 68 65 35 66
REMARK SMILES IDX 19 67 20 68 28 69 21 70 27 71 29 72 26 73 22 74 23 75 24 76
REMARK SMILES IDX 25 77 51 78 52 79 60 80 53 81 59 82 61 83 58 84 54 85 55 86
REMARK SMILES IDX 56 87 57 88 36 89 37 90 45 91 38 92 44 93 46 94 43 95 39 96
REMARK SMILES IDX 40 97 41 98 42 99
REMARK H PARENT 3 6 7 33 66 52 34 63
REMARK Flexibility Score: inf
ROOT
ATOM      1  C   UNL A   1      31.528  28.098  27.426  1.00  0.00     0.042 C 
ENDROOT
BRANCH   1   2
ATOM      2  C   UNL A   1      30.995  27.052  26.477  1.00  0.00     0.118 C 
BRANCH   2   3
ATOM      3  N   UNL A   1      31.198  25.669  26.847  1.00  0.00    -0.352 N 
ATOM      4  O   UNL A   1      32.356  23.751  27.011  1.00  0.00    -0.270 OA
ATOM      5  C   UNL A   1      32.168  24.809  26.410  1.00  0.00     0.251 C 
ATOM      6  H   UNL A   1      30.557  25.298  27.496  1.00  0.00     0.163 HD
BRANCH   5   7
ATOM      7  C   UNL A   1      33.101  25.163  25.293  1.00  0.00     0.067 C 
ATOM      8  C   UNL A   1      34.371  25.567  25.484  1.00  0.00     0.025 C 
ATOM      9  C   UNL A   1      32.783  24.396  24.035  1.00  0.00     0.314 C 
ATOM     10  C   UNL A   1      35.359  24.513  25.095  1.00  0.00     0.020 A 
ATOM     11  O   UNL A   1      33.659  23.245  23.884  1.00  0.00    -0.474 OA
ATOM     12  C   UNL A   1      36.602  24.547  25.745  1.00  0.00     0.032 A 
ATOM     13  C   UNL A   1      34.885  23.315  24.510  1.00  0.00     0.143 A 
ATOM     14  C   UNL A   1      37.306  23.359  25.930  1.00  0.00     0.043 A 
ATOM     15  C   UNL A   1      35.580  22.118  24.758  1.00  0.00     0.069 A 
ATOM     16  Cl  UNL A   1      38.720  23.356  26.913  1.00  0.00    -0.084 Cl
ATOM     17  C   UNL A   1      36.790  22.149  25.468  1.00  0.00     0.041 A 
BRANCH   9  18
ATOM     18  C   UNL A   1      32.781  25.331  22.813  1.00  0.00     0.429 C 
ATOM     19  F   UNL A   1      32.406  26.588  23.145  1.00  0.00    -0.167 F 
ATOM     20  F   UNL A   1      34.019  25.425  22.264  1.00  0.00    -0.167 F 
ATOM     21  F   UNL A   1      31.949  24.909  21.832  1.00  0.00    -0.167 F 
ENDBRANCH   9  18
BRANCH  15  22
ATOM     22  C   UNL A   1      34.974  20.827  24.569  1.00  0.00    -0.058 C 
ATOM     23  C   UNL A   1      34.430  19.756  24.585  1.00  0.00    -0.062 C 
BRANCH  23  24
ATOM     24  C   UNL A   1      33.820  18.461  24.691  1.00  0.00     0.025 A 
ATOM     25  C   UNL A   1      32.865  18.225  25.684  1.00  0.00     0.017 A 
ATOM     26  C   UNL A   1      34.184  17.426  23.826  1.00  0.00     0.017 A 
ATOM     27  C   UNL A   1      32.320  16.949  25.849  1.00  0.00     0.001 A 
ATOM     28  C   UNL A   1      33.633  16.151  23.988  1.00  0.00     0.001 A 
ATOM     29  C   UNL A   1      32.714  15.909  25.009  1.00  0.00     0.000 A 
ENDBRANCH  23  24
ENDBRANCH  15  22
ENDBRANCH   5   7
ENDBRANCH   2   3
ENDBRANCH   1   2
BRANCH   1  30
ATOM     30  C   UNL A   1      32.637  28.928  26.813  1.00  0.00     0.118 C 
BRANCH  30  31
ATOM     31  N   UNL A   1      32.452  30.376  26.974  1.00  0.00    -0.352 N 
ATOM     32  C   UNL A   1      33.317  31.365  27.394  1.00  0.00     0.251 C 
ATOM     33  H   UNL A   1      31.551  30.697  26.740  1.00  0.00     0.163 HD
ATOM     34  O   UNL A   1      32.890  32.501  27.587  1.00  0.00    -0.269 OA
BRANCH  32  35
ATOM     35  C   UNL A   1      34.734  31.044  27.671  1.00  0.00     0.039 A 
ATOM     36  C   UNL A   1      35.625  32.068  28.003  1.00  0.00     0.014 A 
ATOM     37  C   UNL A   1      35.163  29.721  27.693  1.00  0.00     0.014 A 
ATOM     38  C   UNL A   1      36.884  31.745  28.514  1.00  0.00     0.010 A 
ATOM     39  C   UNL A   1      36.339  29.400  28.352  1.00  0.00     0.010 A 
ATOM     40  C   UNL A   1      37.212  30.408  28.785  1.00  0.00    -0.014 A 
BRANCH  40  41
ATOM     41  C   UNL A   1      38.438  30.016  29.530  1.00  0.00     0.031 A 
ATOM     42  C   UNL A   1      38.665  30.554  30.919  1.00  0.00     0.074 A 
ATOM     43  C   UNL A   1      39.390  29.279  28.920  1.00  0.00     0.049 A 
ATOM     44  N   UNL A   1      39.738  30.495  31.664  1.00  0.00    -0.248 NA
ATOM     45  C   UNL A   1      37.550  31.294  31.533  1.00  0.00     0.031 C 
ATOM     46  C   UNL A   1      39.304  28.732  27.563  1.00  0.00     0.029 A 
ATOM     47  N   UNL A   1      40.628  28.872  29.355  1.00  0.00    -0.354 N 
ATOM     48  C   UNL A   1      39.429  31.197  32.824  1.00  0.00     0.074 A 
ATOM     49  C   UNL A   1      38.103  31.745  32.648  1.00  0.00     0.031 C 
ATOM     50  C   UNL A   1      40.419  28.033  27.295  1.00  0.00     0.029 A 
ATOM     51  C   UNL A   1      41.334  28.142  28.424  1.00  0.00     0.049 A 
ATOM     52  H   UNL A   1      40.979  29.083  30.251  1.00  0.00     0.167 HD
ATOM     53  C   UNL A   1      40.170  31.341  33.949  1.00  0.00     0.034 A 
ATOM     54  C   UNL A   1      42.586  27.643  28.466  1.00  0.00     0.034 A 
ATOM     55  C   UNL A   1      41.481  30.772  34.118  1.00  0.00     0.049 A 
ATOM     56  C   UNL A   1      43.419  27.886  29.703  1.00  0.00     0.074 A 
ATOM     57  C   UNL A   1      42.301  30.820  35.231  1.00  0.00     0.029 A 
ATOM     58  N   UNL A   1      42.164  30.052  33.148  1.00  0.00    -0.354 N 
ATOM     59  N   UNL A   1      43.090  28.513  30.809  1.00  0.00    -0.248 NA
ATOM     60  C   UNL A   1      44.789  27.357  29.698  1.00  0.00     0.031 C 
ATOM     61  C   UNL A   1      43.509  30.196  34.908  1.00  0.00     0.029 A 
ATOM     62  C   UNL A   1      43.412  29.686  33.624  1.00  0.00     0.049 A 
ATOM     63  H   UNL A   1      41.814  29.834  32.254  1.00  0.00     0.167 HD
ATOM     64  C   UNL A   1      44.203  28.421  31.641  1.00  0.00     0.074 A 
ATOM     65  C   UNL A   1      45.201  27.661  30.919  1.00  0.00     0.031 C 
ATOM     66  C   UNL A   1      44.390  28.923  32.887  1.00  0.00     0.034 A 
BRANCH  53  67
ATOM     67  C   UNL A   1      39.575  32.142  35.080  1.00  0.00     0.023 A 
ATOM     68  C   UNL A   1      39.937  33.483  35.296  1.00  0.00     0.031 A 
ATOM     69  C   UNL A   1      38.633  31.566  35.950  1.00  0.00     0.131 A 
ATOM     70  C   UNL A   1      39.411  34.183  36.390  1.00  0.00     0.055 A 
ATOM     71  C   UNL A   1      38.049  32.295  36.987  1.00  0.00     0.041 A 
ATOM     72  F   UNL A   1      38.267  30.282  35.808  1.00  0.00    -0.206 F 
ATOM     73  C   UNL A   1      38.446  33.608  37.219  1.00  0.00     0.022 A 
BRANCH  70  74
ATOM     74  S   UNL A   1      40.105  35.810  36.787  1.00  0.00     0.124 S 
ATOM     75  O   UNL A   1      39.703  36.594  35.621  1.00  0.00    -0.237 OA
ATOM     76  O   UNL A   1      39.439  36.140  38.041  1.00  0.00    -0.237 OA
ATOM     77  O   UNL A   1      41.541  35.553  36.891  1.00  0.00    -0.744 OA
ENDBRANCH  70  74
ENDBRANCH  53  67
BRANCH  54  78
ATOM     78  C   UNL A   1      43.160  26.892  27.307  1.00  0.00     0.023 A 
ATOM     79  C   UNL A   1      42.901  25.521  27.146  1.00  0.00     0.031 A 
ATOM     80  C   UNL A   1      44.046  27.502  26.400  1.00  0.00     0.131 A 
ATOM     81  C   UNL A   1      43.580  24.790  26.159  1.00  0.00     0.055 A 
ATOM     82  C   UNL A   1      44.658  26.785  25.369  1.00  0.00     0.041 A 
ATOM     83  F   UNL A   1      44.337  28.808  26.505  1.00  0.00    -0.206 F 
ATOM     84  C   UNL A   1      44.443  25.415  25.258  1.00  0.00     0.022 A 
BRANCH  81  85
ATOM     85  S   UNL A   1      43.434  22.982  26.173  1.00  0.00     0.124 S 
ATOM     86  O   UNL A   1      44.785  22.582  26.554  1.00  0.00    -0.237 OA
ATOM     87  O   UNL A   1      42.395  22.769  27.175  1.00  0.00    -0.237 OA
ATOM     88  O   UNL A   1      43.052  22.661  24.801  1.00  0.00    -0.744 OA
ENDBRANCH  81  85
ENDBRANCH  54  78
BRANCH  66  89
ATOM     89  C   UNL A   1      45.707  28.632  33.560  1.00  0.00     0.023 A 
ATOM     90  C   UNL A   1      45.896  27.478  34.337  1.00  0.00     0.031 A 
ATOM     91  C   UNL A   1      46.793  29.509  33.400  1.00  0.00     0.131 A 
ATOM     92  C   UNL A   1      47.129  27.251  34.961  1.00  0.00     0.055 A 
ATOM     93  C   UNL A   1      48.040  29.246  33.968  1.00  0.00     0.041 A 
ATOM     94  F   UNL A   1      46.667  30.629  32.669  1.00  0.00    -0.206 F 
ATOM     95  C   UNL A   1      48.210  28.115  34.762  1.00  0.00     0.022 A 
BRANCH  92  96
ATOM     96  S   UNL A   1      47.285  25.847  36.097  1.00  0.00     0.124 S 
ATOM     97  O   UNL A   1      48.731  25.758  36.270  1.00  0.00    -0.237 OA
ATOM     98  O   UNL A   1      46.530  26.300  37.261  1.00  0.00    -0.237 OA
ATOM     99  O   UNL A   1      46.679  24.740  35.359  1.00  0.00    -0.744 OA
ENDBRANCH  92  96
ENDBRANCH  66  89
ENDBRANCH  40  41
ENDBRANCH  32  35
ENDBRANCH  30  31
ENDBRANCH   1  30
TORSDOF 16
ENDMDL
