MODEL 1
REMARK VINA RESULT:     -12.3      0.000      0.000
REMARK SMILES Cc1ccc(Cl)c(Nc2ccccc2C(=O)NCC(=O)NCCCNC(=O)c2ccc(-c3c4nc(c(-c5cc(S(=O)(=O)[O-])ccc5F)c5ccc([nH]5)c(-c5cc(S(=O)(=O)[O-])ccc5F)c5nc(c(-c6cc(S(=O)(=O)[O-])ccc6F)c6ccc3[nH]6)C=C5)C=C4)cc2)c1Cl
REMARK SMILES IDX 22 1 21 2 19 3 20 4 18 6 17 7 15 8 16 9 14 11 9 12 10 13
REMARK SMILES IDX 11 14 13 15 12 16 8 17 7 19 1 20 2 21 3 22 91 23 4 24 92 25
REMARK SMILES IDX 5 26 6 27 23 28 24 29 25 30 26 31 27 33 28 34 29 35 90 36
REMARK SMILES IDX 30 37 89 38 31 39 32 40 33 41 83 42 34 43 88 44 82 45 84 46
REMARK SMILES IDX 35 47 87 48 81 49 80 50 36 52 68 53 48 54 67 55 49 56 52 57
REMARK SMILES IDX 66 58 85 59 50 60 51 61 65 63 86 64 53 65 37 66 38 67 46 68
REMARK SMILES IDX 39 69 45 70 47 71 44 72 40 73 41 74 42 75 43 76 69 77 70 78
REMARK SMILES IDX 78 79 71 80 77 81 79 82 76 83 72 84 73 85 74 86 75 87 54 88
REMARK SMILES IDX 55 89 63 90 56 91 62 92 64 93 61 94 57 95 58 96 59 97 60 98
REMARK H PARENT 21 5 17 10 8 18 25 32 84 51 52 62
REMARK Flexibility Score: inf
ROOT
ATOM      1  C   UNL A   1      31.639  30.717  26.808  1.00  0.00     0.117 C 
ENDROOT
BRANCH   1   2
ATOM      2  N   UNL A   1      32.639  29.995  26.058  1.00  0.00    -0.355 N 
ATOM      3  C   UNL A   1      33.135  28.757  26.335  1.00  0.00     0.239 C 
ATOM      4  O   UNL A   1      34.076  28.338  25.658  1.00  0.00    -0.273 OA
ATOM      5  H   UNL A   1      33.001  30.445  25.260  1.00  0.00     0.163 HD
BRANCH   3   6
ATOM      6  C   UNL A   1      32.341  27.831  27.249  1.00  0.00     0.216 C 
BRANCH   6   7
ATOM      7  N   UNL A   1      31.353  26.871  26.812  1.00  0.00    -0.343 N 
ATOM      8  C   UNL A   1      31.498  25.600  26.300  1.00  0.00     0.253 C 
ATOM      9  O   UNL A   1      30.597  24.809  26.599  1.00  0.00    -0.269 OA
ATOM     10  H   UNL A   1      30.421  27.175  26.894  1.00  0.00     0.164 HD
BRANCH   8  11
ATOM     11  C   UNL A   1      32.491  25.169  25.248  1.00  0.00     0.063 A 
ATOM     12  C   UNL A   1      32.447  25.215  23.834  1.00  0.00     0.051 A 
ATOM     13  C   UNL A   1      33.517  24.619  23.113  1.00  0.00     0.027 A 
ATOM     14  C   UNL A   1      34.635  24.070  23.738  1.00  0.00     0.002 A 
ATOM     15  C   UNL A   1      33.652  24.611  25.854  1.00  0.00     0.016 A 
ATOM     16  C   UNL A   1      34.714  24.087  25.117  1.00  0.00     0.001 A 
BRANCH  12  17
ATOM     17  N   UNL A   1      31.533  25.897  23.001  1.00  0.00    -0.352 N 
ATOM     18  H   UNL A   1      31.260  25.375  22.213  1.00  0.00     0.167 HD
BRANCH  17  19
ATOM     19  C   UNL A   1      30.930  27.178  23.063  1.00  0.00     0.077 A 
ATOM     20  C   UNL A   1      27.456  28.776  23.024  1.00  0.00     0.046 C 
ATOM     21  C   UNL A   1      28.947  28.604  22.940  1.00  0.00    -0.030 A 
ATOM     22  C   UNL A   1      29.734  29.649  22.434  1.00  0.00     0.006 A 
ATOM     23  C   UNL A   1      29.559  27.386  23.297  1.00  0.00     0.069 A 
ATOM     24  C   UNL A   1      31.114  29.510  22.329  1.00  0.00     0.023 A 
ATOM     25  Cl  UNL A   1      28.616  26.186  24.131  1.00  0.00    -0.082 Cl
ATOM     26  C   UNL A   1      31.707  28.292  22.653  1.00  0.00     0.066 A 
ATOM     27  Cl  UNL A   1      33.417  28.132  22.395  1.00  0.00    -0.082 Cl
ENDBRANCH  17  19
ENDBRANCH  12  17
ENDBRANCH   8  11
ENDBRANCH   6   7
ENDBRANCH   3   6
ENDBRANCH   1   2
BRANCH   1  28
ATOM     28  C   UNL A   1      31.777  32.211  26.575  1.00  0.00     0.042 C 
BRANCH  28  29
ATOM     29  C   UNL A   1      32.903  32.806  27.404  1.00  0.00     0.118 C 
BRANCH  29  30
ATOM     30  N   UNL A   1      32.657  34.204  27.722  1.00  0.00    -0.352 N 
ATOM     31  C   UNL A   1      33.174  34.949  28.750  1.00  0.00     0.251 C 
ATOM     32  H   UNL A   1      32.037  34.677  27.120  1.00  0.00     0.163 HD
ATOM     33  O   UNL A   1      32.682  36.034  29.027  1.00  0.00    -0.269 OA
BRANCH  31  34
ATOM     34  C   UNL A   1      34.311  34.404  29.517  1.00  0.00     0.039 A 
ATOM     35  C   UNL A   1      34.056  33.706  30.696  1.00  0.00     0.014 A 
ATOM     36  C   UNL A   1      35.620  34.559  29.047  1.00  0.00     0.014 A 
ATOM     37  C   UNL A   1      35.119  33.124  31.385  1.00  0.00     0.010 A 
ATOM     38  C   UNL A   1      36.661  33.897  29.681  1.00  0.00     0.010 A 
ATOM     39  C   UNL A   1      36.424  33.188  30.868  1.00  0.00    -0.014 A 
BRANCH  39  40
ATOM     40  C   UNL A   1      37.559  32.545  31.572  1.00  0.00     0.031 A 
ATOM     41  C   UNL A   1      38.307  31.419  30.910  1.00  0.00     0.074 A 
ATOM     42  C   UNL A   1      37.882  32.944  32.818  1.00  0.00     0.049 A 
ATOM     43  N   UNL A   1      39.292  30.695  31.374  1.00  0.00    -0.248 NA
ATOM     44  C   UNL A   1      37.865  31.034  29.560  1.00  0.00     0.031 C 
ATOM     45  C   UNL A   1      37.195  33.995  33.572  1.00  0.00     0.029 A 
ATOM     46  N   UNL A   1      38.867  32.516  33.670  1.00  0.00    -0.354 N 
ATOM     47  C   UNL A   1      39.580  29.767  30.379  1.00  0.00     0.074 A 
ATOM     48  C   UNL A   1      38.615  29.972  29.322  1.00  0.00     0.031 C 
ATOM     49  C   UNL A   1      37.803  34.155  34.757  1.00  0.00     0.029 A 
ATOM     50  C   UNL A   1      38.888  33.186  34.872  1.00  0.00     0.049 A 
ATOM     51  H   UNL A   1      39.500  31.797  33.443  1.00  0.00     0.167 HD
ATOM     52  C   UNL A   1      40.576  28.849  30.341  1.00  0.00     0.034 A 
ATOM     53  C   UNL A   1      39.685  33.026  35.946  1.00  0.00     0.034 A 
ATOM     54  C   UNL A   1      41.533  28.669  31.405  1.00  0.00     0.049 A 
ATOM     55  C   UNL A   1      40.768  31.977  35.892  1.00  0.00     0.074 A 
ATOM     56  C   UNL A   1      42.614  27.807  31.456  1.00  0.00     0.029 A 
ATOM     57  N   UNL A   1      41.520  29.360  32.611  1.00  0.00    -0.354 N 
ATOM     58  N   UNL A   1      41.064  31.144  34.921  1.00  0.00    -0.248 NA
ATOM     59  C   UNL A   1      41.631  31.858  37.072  1.00  0.00     0.031 C 
ATOM     60  C   UNL A   1      43.206  27.919  32.718  1.00  0.00     0.029 A 
ATOM     61  C   UNL A   1      42.552  28.917  33.425  1.00  0.00     0.049 A 
ATOM     62  H   UNL A   1      40.872  30.061  32.853  1.00  0.00     0.167 HD
ATOM     63  C   UNL A   1      42.170  30.424  35.364  1.00  0.00     0.074 A 
ATOM     64  C   UNL A   1      42.496  30.936  36.679  1.00  0.00     0.031 C 
ATOM     65  C   UNL A   1      42.857  29.432  34.740  1.00  0.00     0.034 A 
BRANCH  52  66
ATOM     66  C   UNL A   1      40.656  27.958  29.122  1.00  0.00     0.023 A 
ATOM     67  C   UNL A   1      41.640  28.143  28.134  1.00  0.00     0.031 A 
ATOM     68  C   UNL A   1      39.719  26.929  28.930  1.00  0.00     0.131 A 
ATOM     69  C   UNL A   1      41.616  27.367  26.966  1.00  0.00     0.055 A 
ATOM     70  C   UNL A   1      39.754  26.100  27.805  1.00  0.00     0.041 A 
ATOM     71  F   UNL A   1      38.740  26.717  29.824  1.00  0.00    -0.206 F 
ATOM     72  C   UNL A   1      40.697  26.328  26.807  1.00  0.00     0.022 A 
BRANCH  69  73
ATOM     73  S   UNL A   1      42.702  27.837  25.592  1.00  0.00     0.124 S 
ATOM     74  O   UNL A   1      43.761  28.565  26.288  1.00  0.00    -0.237 OA
ATOM     75  O   UNL A   1      43.078  26.545  25.030  1.00  0.00    -0.237 OA
ATOM     76  O   UNL A   1      41.844  28.662  24.743  1.00  0.00    -0.744 OA
ENDBRANCH  69  73
ENDBRANCH  52  66
BRANCH  53  77
ATOM     77  C   UNL A   1      39.493  33.867  37.163  1.00  0.00     0.023 A 
ATOM     78  C   UNL A   1      38.858  33.356  38.304  1.00  0.00     0.031 A 
ATOM     79  C   UNL A   1      39.904  35.213  37.186  1.00  0.00     0.131 A 
ATOM     80  C   UNL A   1      38.603  34.195  39.400  1.00  0.00     0.055 A 
ATOM     81  C   UNL A   1      39.703  36.027  38.302  1.00  0.00     0.041 A 
ATOM     82  F   UNL A   1      40.520  35.753  36.123  1.00  0.00    -0.206 F 
ATOM     83  C   UNL A   1      39.035  35.523  39.413  1.00  0.00     0.022 A 
BRANCH  80  84
ATOM     84  S   UNL A   1      37.610  33.551  40.774  1.00  0.00     0.124 S 
ATOM     85  O   UNL A   1      38.560  32.664  41.437  1.00  0.00    -0.237 OA
ATOM     86  O   UNL A   1      37.262  34.771  41.494  1.00  0.00    -0.237 OA
ATOM     87  O   UNL A   1      36.495  32.885  40.106  1.00  0.00    -0.744 OA
ENDBRANCH  80  84
ENDBRANCH  53  77
BRANCH  65  88
ATOM     88  C   UNL A   1      44.062  28.875  35.460  1.00  0.00     0.023 A 
ATOM     89  C   UNL A   1      43.958  27.797  36.356  1.00  0.00     0.031 A 
ATOM     90  C   UNL A   1      45.332  29.441  35.252  1.00  0.00     0.131 A 
ATOM     91  C   UNL A   1      45.092  27.361  37.058  1.00  0.00     0.055 A 
ATOM     92  C   UNL A   1      46.469  28.956  35.899  1.00  0.00     0.041 A 
ATOM     93  F   UNL A   1      45.491  30.475  34.409  1.00  0.00    -0.206 F 
ATOM     94  C   UNL A   1      46.350  27.920  36.819  1.00  0.00     0.022 A 
BRANCH  91  95
ATOM     95  S   UNL A   1      44.882  26.121  38.365  1.00  0.00     0.124 S 
ATOM     96  O   UNL A   1      43.834  26.720  39.184  1.00  0.00    -0.237 OA
ATOM     97  O   UNL A   1      44.500  24.932  37.610  1.00  0.00    -0.237 OA
ATOM     98  O   UNL A   1      46.200  26.059  38.992  1.00  0.00    -0.744 OA
ENDBRANCH  91  95
ENDBRANCH  65  88
ENDBRANCH  39  40
ENDBRANCH  31  34
ENDBRANCH  29  30
ENDBRANCH  28  29
ENDBRANCH   1  28
TORSDOF 17
ENDMDL
MODEL 2
REMARK VINA RESULT:     -12.1      6.076     11.811
REMARK SMILES Cc1ccc(Cl)c(Nc2ccccc2C(=O)NCC(=O)NCCCNC(=O)c2ccc(-c3c4nc(c(-c5cc(S(=O)(=O)[O-])ccc5F)c5ccc([nH]5)c(-c5cc(S(=O)(=O)[O-])ccc5F)c5nc(c(-c6cc(S(=O)(=O)[O-])ccc6F)c6ccc3[nH]6)C=C5)C=C4)cc2)c1Cl
REMARK SMILES IDX 22 1 21 2 19 3 20 4 18 6 17 7 15 8 16 9 14 11 9 12 10 13
REMARK SMILES IDX 11 14 13 15 12 16 8 17 7 19 1 20 2 21 3 22 91 23 4 24 92 25
REMARK SMILES IDX 5 26 6 27 23 28 24 29 25 30 26 31 27 33 28 34 29 35 90 36
REMARK SMILES IDX 30 37 89 38 31 39 32 40 33 41 83 42 34 43 88 44 82 45 84 46
REMARK SMILES IDX 35 47 87 48 81 49 80 50 36 52 68 53 48 54 67 55 49 56 52 57
REMARK SMILES IDX 66 58 85 59 50 60 51 61 65 63 86 64 53 65 37 66 38 67 46 68
REMARK SMILES IDX 39 69 45 70 47 71 44 72 40 73 41 74 42 75 43 76 69 77 70 78
REMARK SMILES IDX 78 79 71 80 77 81 79 82 76 83 72 84 73 85 74 86 75 87 54 88
REMARK SMILES IDX 55 89 63 90 56 91 62 92 64 93 61 94 57 95 58 96 59 97 60 98
REMARK H PARENT 21 5 17 10 8 18 25 32 84 51 52 62
REMARK Flexibility Score: inf
ROOT
ATOM      1  C   UNL A   1      37.245  20.420  24.597  1.00  0.00     0.117 C 
ENDROOT
BRANCH   1   2
ATOM      2  N   UNL A   1      36.806  21.379  25.582  1.00  0.00    -0.355 N 
ATOM      3  C   UNL A   1      36.688  22.726  25.419  1.00  0.00     0.239 C 
ATOM      4  O   UNL A   1      36.415  23.415  26.403  1.00  0.00    -0.273 OA
ATOM      5  H   UNL A   1      36.566  21.021  26.467  1.00  0.00     0.163 HD
BRANCH   3   6
ATOM      6  C   UNL A   1      36.605  23.293  24.006  1.00  0.00     0.216 C 
BRANCH   6   7
ATOM      7  N   UNL A   1      35.442  23.234  23.149  1.00  0.00    -0.343 N 
ATOM      8  C   UNL A   1      34.311  24.020  23.111  1.00  0.00     0.253 C 
ATOM      9  O   UNL A   1      33.824  24.183  21.987  1.00  0.00    -0.269 OA
ATOM     10  H   UNL A   1      35.462  22.512  22.481  1.00  0.00     0.164 HD
BRANCH   8  11
ATOM     11  C   UNL A   1      33.503  24.481  24.300  1.00  0.00     0.063 A 
ATOM     12  C   UNL A   1      32.417  23.891  24.988  1.00  0.00     0.051 A 
ATOM     13  C   UNL A   1      31.793  24.642  26.020  1.00  0.00     0.027 A 
ATOM     14  C   UNL A   1      32.257  25.890  26.432  1.00  0.00     0.002 A 
ATOM     15  C   UNL A   1      33.959  25.751  24.752  1.00  0.00     0.016 A 
ATOM     16  C   UNL A   1      33.361  26.438  25.809  1.00  0.00     0.001 A 
BRANCH  12  17
ATOM     17  N   UNL A   1      31.920  22.572  24.888  1.00  0.00    -0.352 N 
ATOM     18  H   UNL A   1      30.943  22.515  24.992  1.00  0.00     0.167 HD
BRANCH  17  19
ATOM     19  C   UNL A   1      32.536  21.314  24.671  1.00  0.00     0.077 A 
ATOM     20  C   UNL A   1      32.280  18.301  22.330  1.00  0.00     0.046 C 
ATOM     21  C   UNL A   1      32.631  19.165  23.510  1.00  0.00    -0.030 A 
ATOM     22  C   UNL A   1      33.179  18.573  24.658  1.00  0.00     0.006 A 
ATOM     23  C   UNL A   1      32.356  20.546  23.507  1.00  0.00     0.069 A 
ATOM     24  C   UNL A   1      33.496  19.345  25.770  1.00  0.00     0.023 A 
ATOM     25  Cl  UNL A   1      31.894  21.306  22.012  1.00  0.00    -0.082 Cl
ATOM     26  C   UNL A   1      33.190  20.703  25.771  1.00  0.00     0.066 A 
ATOM     27  Cl  UNL A   1      33.500  21.600  27.226  1.00  0.00    -0.082 Cl
ENDBRANCH  17  19
ENDBRANCH  12  17
ENDBRANCH   8  11
ENDBRANCH   6   7
ENDBRANCH   3   6
ENDBRANCH   1   2
BRANCH   1  28
ATOM     28  C   UNL A   1      38.154  19.383  25.234  1.00  0.00     0.042 C 
BRANCH  28  29
ATOM     29  C   UNL A   1      39.352  20.029  25.912  1.00  0.00     0.118 C 
BRANCH  29  30
ATOM     30  N   UNL A   1      40.470  19.104  26.021  1.00  0.00    -0.352 N 
ATOM     31  C   UNL A   1      41.807  19.390  26.120  1.00  0.00     0.251 C 
ATOM     32  H   UNL A   1      40.235  18.147  26.027  1.00  0.00     0.163 HD
ATOM     33  O   UNL A   1      42.636  18.506  25.956  1.00  0.00    -0.269 OA
BRANCH  31  34
ATOM     34  C   UNL A   1      42.214  20.780  26.401  1.00  0.00     0.039 A 
ATOM     35  C   UNL A   1      42.331  21.195  27.727  1.00  0.00     0.014 A 
ATOM     36  C   UNL A   1      42.508  21.657  25.351  1.00  0.00     0.014 A 
ATOM     37  C   UNL A   1      42.789  22.483  28.000  1.00  0.00     0.010 A 
ATOM     38  C   UNL A   1      43.054  22.902  25.626  1.00  0.00     0.010 A 
ATOM     39  C   UNL A   1      43.182  23.335  26.954  1.00  0.00    -0.014 A 
BRANCH  39  40
ATOM     40  C   UNL A   1      43.701  24.696  27.231  1.00  0.00     0.031 A 
ATOM     41  C   UNL A   1      42.769  25.761  27.743  1.00  0.00     0.074 A 
ATOM     42  C   UNL A   1      44.994  24.981  26.978  1.00  0.00     0.049 A 
ATOM     43  N   UNL A   1      43.011  27.019  27.999  1.00  0.00    -0.248 NA
ATOM     44  C   UNL A   1      41.368  25.363  27.963  1.00  0.00     0.031 C 
ATOM     45  C   UNL A   1      45.975  24.036  26.439  1.00  0.00     0.029 A 
ATOM     46  N   UNL A   1      45.705  26.141  27.140  1.00  0.00    -0.354 N 
ATOM     47  C   UNL A   1      41.796  27.565  28.400  1.00  0.00     0.074 A 
ATOM     48  C   UNL A   1      40.806  26.518  28.279  1.00  0.00     0.031 C 
ATOM     49  C   UNL A   1      47.168  24.645  26.350  1.00  0.00     0.029 A 
ATOM     50  C   UNL A   1      47.028  26.034  26.776  1.00  0.00     0.049 A 
ATOM     51  H   UNL A   1      45.307  26.972  27.486  1.00  0.00     0.167 HD
ATOM     52  C   UNL A   1      41.539  28.815  28.855  1.00  0.00     0.034 A 
ATOM     53  C   UNL A   1      48.010  26.956  26.775  1.00  0.00     0.034 A 
ATOM     54  C   UNL A   1      42.546  29.841  28.976  1.00  0.00     0.049 A 
ATOM     55  C   UNL A   1      47.692  28.349  27.258  1.00  0.00     0.074 A 
ATOM     56  C   UNL A   1      42.413  31.125  29.471  1.00  0.00     0.029 A 
ATOM     57  N   UNL A   1      43.874  29.699  28.590  1.00  0.00    -0.354 N 
ATOM     58  N   UNL A   1      46.551  28.836  27.687  1.00  0.00    -0.248 NA
ATOM     59  C   UNL A   1      48.799  29.313  27.268  1.00  0.00     0.031 C 
ATOM     60  C   UNL A   1      43.636  31.785  29.312  1.00  0.00     0.029 A 
ATOM     61  C   UNL A   1      44.560  30.885  28.804  1.00  0.00     0.049 A 
ATOM     62  H   UNL A   1      44.270  28.878  28.219  1.00  0.00     0.167 HD
ATOM     63  C   UNL A   1      46.812  30.154  28.049  1.00  0.00     0.074 A 
ATOM     64  C   UNL A   1      48.222  30.378  27.804  1.00  0.00     0.031 C 
ATOM     65  C   UNL A   1      45.966  31.094  28.544  1.00  0.00     0.034 A 
BRANCH  52  66
ATOM     66  C   UNL A   1      40.110  29.140  29.226  1.00  0.00     0.023 A 
ATOM     67  C   UNL A   1      39.688  29.193  30.567  1.00  0.00     0.031 A 
ATOM     68  C   UNL A   1      39.150  29.373  28.227  1.00  0.00     0.131 A 
ATOM     69  C   UNL A   1      38.332  29.391  30.868  1.00  0.00     0.055 A 
ATOM     70  C   UNL A   1      37.818  29.657  28.536  1.00  0.00     0.041 A 
ATOM     71  F   UNL A   1      39.484  29.312  26.928  1.00  0.00    -0.206 F 
ATOM     72  C   UNL A   1      37.398  29.652  29.863  1.00  0.00     0.022 A 
BRANCH  69  73
ATOM     73  S   UNL A   1      37.781  29.149  32.579  1.00  0.00     0.124 S 
ATOM     74  O   UNL A   1      37.828  27.693  32.701  1.00  0.00    -0.237 OA
ATOM     75  O   UNL A   1      38.781  29.886  33.340  1.00  0.00    -0.237 OA
ATOM     76  O   UNL A   1      36.437  29.724  32.591  1.00  0.00    -0.744 OA
ENDBRANCH  69  73
ENDBRANCH  52  66
BRANCH  53  77
ATOM     77  C   UNL A   1      49.380  26.603  26.301  1.00  0.00     0.023 A 
ATOM     78  C   UNL A   1      49.862  27.070  25.069  1.00  0.00     0.031 A 
ATOM     79  C   UNL A   1      50.212  25.755  27.054  1.00  0.00     0.131 A 
ATOM     80  C   UNL A   1      51.116  26.645  24.601  1.00  0.00     0.055 A 
ATOM     81  C   UNL A   1      51.483  25.385  26.613  1.00  0.00     0.041 A 
ATOM     82  F   UNL A   1      49.802  25.282  28.242  1.00  0.00    -0.206 F 
ATOM     83  C   UNL A   1      51.936  25.818  25.371  1.00  0.00     0.022 A 
BRANCH  80  84
ATOM     84  S   UNL A   1      51.620  27.113  22.922  1.00  0.00     0.124 S 
ATOM     85  O   UNL A   1      52.726  26.194  22.678  1.00  0.00    -0.237 OA
ATOM     86  O   UNL A   1      50.400  26.867  22.160  1.00  0.00    -0.237 OA
ATOM     87  O   UNL A   1      51.994  28.519  23.059  1.00  0.00    -0.744 OA
ENDBRANCH  80  84
ENDBRANCH  53  77
BRANCH  65  88
ATOM     88  C   UNL A   1      46.563  32.436  28.896  1.00  0.00     0.023 A 
ATOM     89  C   UNL A   1      46.628  33.488  27.966  1.00  0.00     0.031 A 
ATOM     90  C   UNL A   1      47.084  32.659  30.184  1.00  0.00     0.131 A 
ATOM     91  C   UNL A   1      47.257  34.691  28.317  1.00  0.00     0.055 A 
ATOM     92  C   UNL A   1      47.645  33.883  30.548  1.00  0.00     0.041 A 
ATOM     93  F   UNL A   1      47.052  31.689  31.113  1.00  0.00    -0.206 F 
ATOM     94  C   UNL A   1      47.748  34.903  29.608  1.00  0.00     0.022 A 
BRANCH  91  95
ATOM     95  S   UNL A   1      47.521  35.941  27.029  1.00  0.00     0.124 S 
ATOM     96  O   UNL A   1      48.167  37.015  27.777  1.00  0.00    -0.237 OA
ATOM     97  O   UNL A   1      48.364  35.233  26.073  1.00  0.00    -0.237 OA
ATOM     98  O   UNL A   1      46.169  36.239  26.560  1.00  0.00    -0.744 OA
ENDBRANCH  91  95
ENDBRANCH  65  88
ENDBRANCH  39  40
ENDBRANCH  31  34
ENDBRANCH  29  30
ENDBRANCH  28  29
ENDBRANCH   1  28
TORSDOF 17
ENDMDL
MODEL 3
REMARK VINA RESULT:     -12.0      5.593      8.453
REMARK SMILES Cc1ccc(Cl)c(Nc2ccccc2C(=O)NCC(=O)NCCCNC(=O)c2ccc(-c3c4nc(c(-c5cc(S(=O)(=O)[O-])ccc5F)c5ccc([nH]5)c(-c5cc(S(=O)(=O)[O-])ccc5F)c5nc(c(-c6cc(S(=O)(=O)[O-])ccc6F)c6ccc3[nH]6)C=C5)C=C4)cc2)c1Cl
REMARK SMILES IDX 22 1 21 2 19 3 20 4 18 6 17 7 15 8 16 9 14 11 9 12 10 13
REMARK SMILES IDX 11 14 13 15 12 16 8 17 7 19 1 20 2 21 3 22 91 23 4 24 92 25
REMARK SMILES IDX 5 26 6 27 23 28 24 29 25 30 26 31 27 33 28 34 29 35 90 36
REMARK SMILES IDX 30 37 89 38 31 39 32 40 33 41 83 42 34 43 88 44 82 45 84 46
REMARK SMILES IDX 35 47 87 48 81 49 80 50 36 52 68 53 48 54 67 55 49 56 52 57
REMARK SMILES IDX 66 58 85 59 50 60 51 61 65 63 86 64 53 65 37 66 38 67 46 68
REMARK SMILES IDX 39 69 45 70 47 71 44 72 40 73 41 74 42 75 43 76 69 77 70 78
REMARK SMILES IDX 78 79 71 80 77 81 79 82 76 83 72 84 73 85 74 86 75 87 54 88
REMARK SMILES IDX 55 89 63 90 56 91 62 92 64 93 61 94 57 95 58 96 59 97 60 98
REMARK H PARENT 21 5 17 10 8 18 25 32 84 51 52 62
REMARK Flexibility Score: inf
ROOT
ATOM      1  C   UNL A   1      34.852  20.944  25.668  1.00  0.00     0.117 C 
ENDROOT
BRANCH   1   2
ATOM      2  N   UNL A   1      34.840  19.683  24.966  1.00  0.00    -0.355 N 
ATOM      3  C   UNL A   1      33.752  19.035  24.465  1.00  0.00     0.239 C 
ATOM      4  O   UNL A   1      33.906  17.904  24.000  1.00  0.00    -0.273 OA
ATOM      5  H   UNL A   1      35.712  19.244  24.835  1.00  0.00     0.163 HD
BRANCH   3   6
ATOM      6  C   UNL A   1      32.468  19.822  24.229  1.00  0.00     0.216 C 
BRANCH   6   7
ATOM      7  N   UNL A   1      32.298  20.865  23.243  1.00  0.00    -0.343 N 
ATOM      8  C   UNL A   1      32.266  22.236  23.378  1.00  0.00     0.253 C 
ATOM      9  O   UNL A   1      32.734  22.867  22.424  1.00  0.00    -0.269 OA
ATOM     10  H   UNL A   1      32.186  20.542  22.319  1.00  0.00     0.164 HD
BRANCH   8  11
ATOM     11  C   UNL A   1      31.520  23.012  24.436  1.00  0.00     0.063 A 
ATOM     12  C   UNL A   1      31.038  24.342  24.466  1.00  0.00     0.051 A 
ATOM     13  C   UNL A   1      30.460  24.816  25.675  1.00  0.00     0.027 A 
ATOM     14  C   UNL A   1      30.277  24.005  26.793  1.00  0.00     0.002 A 
ATOM     15  C   UNL A   1      31.308  22.207  25.591  1.00  0.00     0.016 A 
ATOM     16  C   UNL A   1      30.683  22.685  26.743  1.00  0.00     0.001 A 
BRANCH  12  17
ATOM     17  N   UNL A   1      30.924  25.264  23.402  1.00  0.00    -0.352 N 
ATOM     18  H   UNL A   1      30.920  24.836  22.515  1.00  0.00     0.167 HD
BRANCH  17  19
ATOM     19  C   UNL A   1      30.818  26.676  23.345  1.00  0.00     0.077 A 
ATOM     20  C   UNL A   1      28.237  29.380  22.538  1.00  0.00     0.046 C 
ATOM     21  C   UNL A   1      29.550  28.692  22.794  1.00  0.00    -0.030 A 
ATOM     22  C   UNL A   1      30.747  29.361  22.500  1.00  0.00     0.006 A 
ATOM     23  C   UNL A   1      29.594  27.365  23.262  1.00  0.00     0.069 A 
ATOM     24  C   UNL A   1      31.974  28.742  22.711  1.00  0.00     0.023 A 
ATOM     25  Cl  UNL A   1      28.128  26.628  23.838  1.00  0.00    -0.082 Cl
ATOM     26  C   UNL A   1      32.009  27.419  23.142  1.00  0.00     0.066 A 
ATOM     27  Cl  UNL A   1      33.563  26.654  23.280  1.00  0.00    -0.082 Cl
ENDBRANCH  17  19
ENDBRANCH  12  17
ENDBRANCH   8  11
ENDBRANCH   6   7
ENDBRANCH   3   6
ENDBRANCH   1   2
BRANCH   1  28
ATOM     28  C   UNL A   1      35.606  21.990  24.867  1.00  0.00     0.042 C 
BRANCH  28  29
ATOM     29  C   UNL A   1      36.821  22.505  25.621  1.00  0.00     0.118 C 
BRANCH  29  30
ATOM     30  N   UNL A   1      37.799  21.452  25.849  1.00  0.00    -0.352 N 
ATOM     31  C   UNL A   1      39.113  21.574  26.221  1.00  0.00     0.251 C 
ATOM     32  H   UNL A   1      37.474  20.531  25.720  1.00  0.00     0.163 HD
ATOM     33  O   UNL A   1      39.866  20.614  26.131  1.00  0.00    -0.269 OA
BRANCH  31  34
ATOM     34  C   UNL A   1      39.593  22.883  26.703  1.00  0.00     0.039 A 
ATOM     35  C   UNL A   1      40.548  22.920  27.719  1.00  0.00     0.014 A 
ATOM     36  C   UNL A   1      39.119  24.066  26.126  1.00  0.00     0.014 A 
ATOM     37  C   UNL A   1      41.061  24.150  28.126  1.00  0.00     0.010 A 
ATOM     38  C   UNL A   1      39.702  25.279  26.465  1.00  0.00     0.010 A 
ATOM     39  C   UNL A   1      40.666  25.335  27.482  1.00  0.00    -0.014 A 
BRANCH  39  40
ATOM     40  C   UNL A   1      41.228  26.648  27.883  1.00  0.00     0.031 A 
ATOM     41  C   UNL A   1      42.658  26.980  27.551  1.00  0.00     0.074 A 
ATOM     42  C   UNL A   1      40.467  27.514  28.580  1.00  0.00     0.049 A 
ATOM     43  N   UNL A   1      43.351  28.046  27.853  1.00  0.00    -0.248 NA
ATOM     44  C   UNL A   1      43.420  25.960  26.811  1.00  0.00     0.031 C 
ATOM     45  C   UNL A   1      39.082  27.275  28.993  1.00  0.00     0.029 A 
ATOM     46  N   UNL A   1      40.746  28.766  29.063  1.00  0.00    -0.354 N 
ATOM     47  C   UNL A   1      44.628  27.822  27.350  1.00  0.00     0.074 A 
ATOM     48  C   UNL A   1      44.632  26.489  26.792  1.00  0.00     0.031 C 
ATOM     49  C   UNL A   1      38.622  28.361  29.635  1.00  0.00     0.029 A 
ATOM     50  C   UNL A   1      39.691  29.350  29.725  1.00  0.00     0.049 A 
ATOM     51  H   UNL A   1      41.619  29.205  28.947  1.00  0.00     0.167 HD
ATOM     52  C   UNL A   1      45.689  28.665  27.329  1.00  0.00     0.034 A 
ATOM     53  C   UNL A   1      39.603  30.544  30.343  1.00  0.00     0.034 A 
ATOM     54  C   UNL A   1      45.659  29.996  27.884  1.00  0.00     0.049 A 
ATOM     55  C   UNL A   1      40.807  31.453  30.333  1.00  0.00     0.074 A 
ATOM     56  C   UNL A   1      46.655  30.956  27.878  1.00  0.00     0.029 A 
ATOM     57  N   UNL A   1      44.575  30.553  28.554  1.00  0.00    -0.354 N 
ATOM     58  N   UNL A   1      41.991  31.250  29.804  1.00  0.00    -0.248 NA
ATOM     59  C   UNL A   1      40.656  32.755  30.993  1.00  0.00     0.031 C 
ATOM     60  C   UNL A   1      46.204  32.060  28.608  1.00  0.00     0.029 A 
ATOM     61  C   UNL A   1      44.893  31.829  28.995  1.00  0.00     0.049 A 
ATOM     62  H   UNL A   1      43.709  30.107  28.696  1.00  0.00     0.167 HD
ATOM     63  C   UNL A   1      42.716  32.416  30.040  1.00  0.00     0.074 A 
ATOM     64  C   UNL A   1      41.828  33.319  30.741  1.00  0.00     0.031 C 
ATOM     65  C   UNL A   1      43.998  32.714  29.703  1.00  0.00     0.034 A 
BRANCH  52  66
ATOM     66  C   UNL A   1      46.971  28.156  26.711  1.00  0.00     0.023 A 
ATOM     67  C   UNL A   1      47.204  28.228  25.326  1.00  0.00     0.031 A 
ATOM     68  C   UNL A   1      47.962  27.564  27.513  1.00  0.00     0.131 A 
ATOM     69  C   UNL A   1      48.357  27.647  24.777  1.00  0.00     0.055 A 
ATOM     70  C   UNL A   1      49.150  27.067  26.970  1.00  0.00     0.041 A 
ATOM     71  F   UNL A   1      47.789  27.443  28.838  1.00  0.00    -0.206 F 
ATOM     72  C   UNL A   1      49.345  27.092  25.592  1.00  0.00     0.022 A 
BRANCH  69  73
ATOM     73  S   UNL A   1      48.473  27.489  22.974  1.00  0.00     0.124 S 
ATOM     74  O   UNL A   1      47.280  28.211  22.537  1.00  0.00    -0.237 OA
ATOM     75  O   UNL A   1      49.750  28.130  22.683  1.00  0.00    -0.237 OA
ATOM     76  O   UNL A   1      48.433  26.045  22.753  1.00  0.00    -0.744 OA
ENDBRANCH  69  73
ENDBRANCH  52  66
BRANCH  53  77
ATOM     77  C   UNL A   1      38.340  30.952  31.026  1.00  0.00     0.023 A 
ATOM     78  C   UNL A   1      37.317  31.607  30.325  1.00  0.00     0.031 A 
ATOM     79  C   UNL A   1      38.157  30.730  32.403  1.00  0.00     0.131 A 
ATOM     80  C   UNL A   1      36.181  32.066  31.010  1.00  0.00     0.055 A 
ATOM     81  C   UNL A   1      36.998  31.133  33.068  1.00  0.00     0.041 A 
ATOM     82  F   UNL A   1      39.102  30.104  33.122  1.00  0.00    -0.206 F 
ATOM     83  C   UNL A   1      36.008  31.820  32.374  1.00  0.00     0.022 A 
BRANCH  80  84
ATOM     84  S   UNL A   1      34.974  33.077  30.110  1.00  0.00     0.124 S 
ATOM     85  O   UNL A   1      34.101  33.526  31.189  1.00  0.00    -0.237 OA
ATOM     86  O   UNL A   1      35.824  34.097  29.505  1.00  0.00    -0.237 OA
ATOM     87  O   UNL A   1      34.372  32.133  29.171  1.00  0.00    -0.744 OA
ENDBRANCH  80  84
ENDBRANCH  53  77
BRANCH  65  88
ATOM     88  C   UNL A   1      44.492  34.098  30.051  1.00  0.00     0.023 A 
ATOM     89  C   UNL A   1      44.343  35.183  29.171  1.00  0.00     0.031 A 
ATOM     90  C   UNL A   1      45.134  34.328  31.282  1.00  0.00     0.131 A 
ATOM     91  C   UNL A   1      44.884  36.434  29.506  1.00  0.00     0.055 A 
ATOM     92  C   UNL A   1      45.606  35.591  31.640  1.00  0.00     0.041 A 
ATOM     93  F   UNL A   1      45.307  33.328  32.162  1.00  0.00    -0.206 F 
ATOM     94  C   UNL A   1      45.496  36.650  30.744  1.00  0.00     0.022 A 
BRANCH  91  95
ATOM     95  S   UNL A   1      44.869  37.750  28.259  1.00  0.00     0.124 S 
ATOM     96  O   UNL A   1      43.948  37.213  27.263  1.00  0.00    -0.237 OA
ATOM     97  O   UNL A   1      44.388  38.897  29.020  1.00  0.00    -0.237 OA
ATOM     98  O   UNL A   1      46.265  37.832  27.832  1.00  0.00    -0.744 OA
ENDBRANCH  91  95
ENDBRANCH  65  88
ENDBRANCH  39  40
ENDBRANCH  31  34
ENDBRANCH  29  30
ENDBRANCH  28  29
ENDBRANCH   1  28
TORSDOF 17
ENDMDL
